MODEL 1
REMARK VINA RESULT:     -13.1      0.000      0.000
REMARK SMILES CC[C@H](C)N1C(=O)c2ccccc2[C@@H](C(=O)NCCCCNC(=O)c2ccc(-c3c4nc(c(-c5c(F)c(F)c(F)c(F)c5F)c5ccc([nH]5)c(-c5c(F)c(F)c(F)c(F)c5F)c5nc(c(-c6c(F)c(F)c(F)c(F)c6F)c6ccc3[nH]6)C=C5)C=C4)cc2)C12CCCCC2
REMARK SMILES IDX 19 1 18 2 17 3 15 4 16 5 14 7 5 8 6 9 88 10 7 11 8 12 89 13
REMARK SMILES IDX 93 14 9 15 13 16 90 17 92 18 10 19 12 20 91 21 11 22 3 23
REMARK SMILES IDX 4 24 2 25 1 26 20 27 21 28 22 29 23 30 24 32 25 33 26 34
REMARK SMILES IDX 87 35 27 36 86 37 28 38 29 39 30 40 80 41 31 42 85 43 79 44
REMARK SMILES IDX 81 45 32 46 84 47 78 48 77 49 33 51 65 52 45 53 64 54 46 55
REMARK SMILES IDX 49 56 63 57 82 58 47 59 48 60 62 62 83 63 50 64 34 65 35 66
REMARK SMILES IDX 43 67 36 68 37 69 41 70 44 71 38 72 39 73 42 74 40 75 66 76
REMARK SMILES IDX 67 77 75 78 68 79 69 80 73 81 76 82 70 83 71 84 74 85 72 86
REMARK SMILES IDX 51 87 52 88 60 89 53 90 54 91 58 92 61 93 55 94 56 95 59 96
REMARK SMILES IDX 57 97
REMARK H PARENT 17 6 22 31 81 50 49 61
REMARK Flexibility Score: inf
ROOT
ATOM      1  C   UNL A   1      31.849  30.534  26.796  1.00  0.00     0.023 C 
ENDROOT
BRANCH   1   2
ATOM      2  C   UNL A   1      31.584  29.890  25.430  1.00  0.00     0.116 C 
BRANCH   2   3
ATOM      3  N   UNL A   1      32.780  29.624  24.640  1.00  0.00    -0.355 N 
ATOM      4  C   UNL A   1      33.063  28.729  23.647  1.00  0.00     0.229 C 
ATOM      5  O   UNL A   1      34.164  28.864  23.099  1.00  0.00    -0.274 OA
ATOM      6  H   UNL A   1      33.538  30.209  24.869  1.00  0.00     0.163 HD
BRANCH   4   7
ATOM      7  C   UNL A   1      32.094  27.619  23.178  1.00  0.00     0.135 C 
ATOM      8  N   UNL A   1      30.617  25.697  24.021  1.00  0.00    -0.329 N 
ATOM      9  C   UNL A   1      29.506  26.561  24.093  1.00  0.00     0.254 C 
ATOM     10  C   UNL A   1      32.028  26.299  24.078  1.00  0.00     0.059 C 
ATOM     11  O   UNL A   1      28.455  26.280  24.661  1.00  0.00    -0.269 OA
ATOM     12  C   UNL A   1      29.576  27.821  23.327  1.00  0.00     0.044 A 
ATOM     13  C   UNL A   1      32.319  26.554  25.576  1.00  0.00     0.030 C 
ATOM     14  C   UNL A   1      33.112  25.301  23.575  1.00  0.00     0.030 C 
ATOM     15  C   UNL A   1      28.399  28.557  23.108  1.00  0.00     0.014 A 
ATOM     16  C   UNL A   1      30.777  28.256  22.780  1.00  0.00    -0.020 A 
ATOM     17  C   UNL A   1      33.763  26.846  25.994  1.00  0.00     0.002 C 
ATOM     18  C   UNL A   1      34.556  25.681  23.897  1.00  0.00     0.002 C 
ATOM     19  C   UNL A   1      28.412  29.696  22.303  1.00  0.00     0.001 A 
ATOM     20  C   UNL A   1      30.765  29.372  21.913  1.00  0.00     0.005 A 
ATOM     21  C   UNL A   1      34.762  25.870  25.395  1.00  0.00     0.000 C 
ATOM     22  C   UNL A   1      29.592  30.089  21.684  1.00  0.00     0.000 A 
BRANCH   8  23
ATOM     23  C   UNL A   1      30.275  24.256  24.241  1.00  0.00     0.082 C 
ATOM     24  C   UNL A   1      30.630  23.324  23.082  1.00  0.00     0.031 C 
BRANCH  23  25
ATOM     25  C   UNL A   1      30.504  23.692  25.661  1.00  0.00     0.021 C 
ATOM     26  C   UNL A   1      31.728  22.817  25.892  1.00  0.00     0.006 C 
ENDBRANCH  23  25
ENDBRANCH   8  23
ENDBRANCH   4   7
ENDBRANCH   2   3
ENDBRANCH   1   2
BRANCH   1  27
ATOM     27  C   UNL A   1      31.605  32.029  26.866  1.00  0.00     0.023 C 
BRANCH  27  28
ATOM     28  C   UNL A   1      32.788  32.785  27.424  1.00  0.00     0.116 C 
BRANCH  28  29
ATOM     29  N   UNL A   1      32.477  34.193  27.656  1.00  0.00    -0.352 N 
ATOM     30  C   UNL A   1      33.002  35.039  28.602  1.00  0.00     0.251 C 
ATOM     31  H   UNL A   1      31.802  34.587  27.057  1.00  0.00     0.163 HD
ATOM     32  O   UNL A   1      32.510  36.142  28.812  1.00  0.00    -0.269 OA
BRANCH  30  33
ATOM     33  C   UNL A   1      34.163  34.572  29.380  1.00  0.00     0.039 A 
ATOM     34  C   UNL A   1      35.440  34.706  28.835  1.00  0.00     0.014 A 
ATOM     35  C   UNL A   1      33.965  33.909  30.592  1.00  0.00     0.014 A 
ATOM     36  C   UNL A   1      36.486  33.993  29.389  1.00  0.00     0.010 A 
ATOM     37  C   UNL A   1      35.054  33.304  31.222  1.00  0.00     0.010 A 
ATOM     38  C   UNL A   1      36.312  33.303  30.601  1.00  0.00    -0.014 A 
BRANCH  38  39
ATOM     39  C   UNL A   1      37.484  32.619  31.199  1.00  0.00     0.031 A 
ATOM     40  C   UNL A   1      37.935  32.930  32.596  1.00  0.00     0.074 A 
ATOM     41  C   UNL A   1      38.084  31.647  30.484  1.00  0.00     0.049 A 
ATOM     42  N   UNL A   1      38.950  32.437  33.261  1.00  0.00    -0.248 NA
ATOM     43  C   UNL A   1      37.156  33.926  33.350  1.00  0.00     0.031 C 
ATOM     44  C   UNL A   1      37.702  31.245  29.127  1.00  0.00     0.029 A 
ATOM     45  N   UNL A   1      39.104  30.791  30.807  1.00  0.00    -0.354 N 
ATOM     46  C   UNL A   1      38.951  33.081  34.491  1.00  0.00     0.074 A 
ATOM     47  C   UNL A   1      37.844  34.013  34.481  1.00  0.00     0.031 C 
ATOM     48  C   UNL A   1      38.410  30.165  28.772  1.00  0.00     0.029 A 
ATOM     49  C   UNL A   1      39.366  29.864  29.828  1.00  0.00     0.049 A 
ATOM     50  H   UNL A   1      39.601  30.837  31.656  1.00  0.00     0.167 HD
ATOM     51  C   UNL A   1      39.801  32.902  35.530  1.00  0.00     0.037 A 
ATOM     52  C   UNL A   1      40.292  28.890  29.776  1.00  0.00     0.037 A 
ATOM     53  C   UNL A   1      40.878  31.946  35.534  1.00  0.00     0.049 A 
ATOM     54  C   UNL A   1      41.243  28.745  30.925  1.00  0.00     0.074 A 
ATOM     55  C   UNL A   1      41.803  31.692  36.531  1.00  0.00     0.029 A 
ATOM     56  N   UNL A   1      41.163  31.076  34.492  1.00  0.00    -0.354 N 
ATOM     57  N   UNL A   1      41.269  29.399  32.060  1.00  0.00    -0.248 NA
ATOM     58  C   UNL A   1      42.312  27.750  30.774  1.00  0.00     0.031 C 
ATOM     59  C   UNL A   1      42.668  30.690  36.080  1.00  0.00     0.029 A 
ATOM     60  C   UNL A   1      42.257  30.290  34.818  1.00  0.00     0.049 A 
ATOM     61  H   UNL A   1      40.663  31.023  33.646  1.00  0.00     0.167 HD
ATOM     62  C   UNL A   1      42.354  28.899  32.762  1.00  0.00     0.074 A 
ATOM     63  C   UNL A   1      42.945  27.865  31.934  1.00  0.00     0.031 C 
ATOM     64  C   UNL A   1      42.827  29.271  33.975  1.00  0.00     0.037 A 
BRANCH  51  65
ATOM     65  C   UNL A   1      39.617  33.762  36.746  1.00  0.00     0.064 A 
ATOM     66  C   UNL A   1      40.149  35.057  36.819  1.00  0.00     0.173 A 
ATOM     67  C   UNL A   1      38.836  33.311  37.823  1.00  0.00     0.173 A 
ATOM     68  F   UNL A   1      40.912  35.530  35.823  1.00  0.00    -0.203 F 
ATOM     69  C   UNL A   1      39.916  35.865  37.930  1.00  0.00     0.198 A 
ATOM     70  C   UNL A   1      38.586  34.130  38.920  1.00  0.00     0.198 A 
ATOM     71  F   UNL A   1      38.301  32.082  37.800  1.00  0.00    -0.203 F 
ATOM     72  F   UNL A   1      40.457  37.090  37.991  1.00  0.00    -0.200 F 
ATOM     73  C   UNL A   1      39.128  35.406  38.974  1.00  0.00     0.200 A 
ATOM     74  F   UNL A   1      37.815  33.688  39.923  1.00  0.00    -0.200 F 
ATOM     75  F   UNL A   1      38.891  36.191  40.034  1.00  0.00    -0.200 F 
ENDBRANCH  51  65
BRANCH  52  76
ATOM     76  C   UNL A   1      40.359  28.002  28.588  1.00  0.00     0.064 A 
ATOM     77  C   UNL A   1      41.105  28.369  27.461  1.00  0.00     0.173 A 
ATOM     78  C   UNL A   1      39.724  26.752  28.573  1.00  0.00     0.173 A 
ATOM     79  F   UNL A   1      41.716  29.563  27.423  1.00  0.00    -0.203 F 
ATOM     80  C   UNL A   1      41.215  27.518  26.364  1.00  0.00     0.198 A 
ATOM     81  C   UNL A   1      39.858  25.888  27.489  1.00  0.00     0.198 A 
ATOM     82  F   UNL A   1      39.002  26.351  29.631  1.00  0.00    -0.203 F 
ATOM     83  F   UNL A   1      41.916  27.901  25.288  1.00  0.00    -0.200 F 
ATOM     84  C   UNL A   1      40.601  26.274  26.384  1.00  0.00     0.200 A 
ATOM     85  F   UNL A   1      39.281  24.679  27.522  1.00  0.00    -0.200 F 
ATOM     86  F   UNL A   1      40.724  25.446  25.337  1.00  0.00    -0.200 F 
ENDBRANCH  52  76
BRANCH  64  87
ATOM     87  C   UNL A   1      44.038  28.550  34.481  1.00  0.00     0.064 A 
ATOM     88  C   UNL A   1      45.328  29.046  34.248  1.00  0.00     0.173 A 
ATOM     89  C   UNL A   1      43.904  27.386  35.250  1.00  0.00     0.173 A 
ATOM     90  F   UNL A   1      45.505  30.148  33.503  1.00  0.00    -0.203 F 
ATOM     91  C   UNL A   1      46.446  28.390  34.755  1.00  0.00     0.198 A 
ATOM     92  C   UNL A   1      45.022  26.747  35.776  1.00  0.00     0.198 A 
ATOM     93  F   UNL A   1      42.689  26.879  35.503  1.00  0.00    -0.203 F 
ATOM     94  F   UNL A   1      47.673  28.859  34.491  1.00  0.00    -0.200 F 
ATOM     95  C   UNL A   1      46.292  27.247  35.525  1.00  0.00     0.200 A 
ATOM     96  F   UNL A   1      44.871  25.649  36.528  1.00  0.00    -0.200 F 
ATOM     97  F   UNL A   1      47.368  26.622  36.021  1.00  0.00    -0.200 F 
ENDBRANCH  64  87
ENDBRANCH  38  39
ENDBRANCH  30  33
ENDBRANCH  28  29
ENDBRANCH  27  28
ENDBRANCH   1  27
TORSDOF 13
ENDMDL
MODEL 2
REMARK VINA RESULT:     -13.0      0.537      7.347
REMARK SMILES CC[C@H](C)N1C(=O)c2ccccc2[C@@H](C(=O)NCCCCNC(=O)c2ccc(-c3c4nc(c(-c5c(F)c(F)c(F)c(F)c5F)c5ccc([nH]5)c(-c5c(F)c(F)c(F)c(F)c5F)c5nc(c(-c6c(F)c(F)c(F)c(F)c6F)c6ccc3[nH]6)C=C5)C=C4)cc2)C12CCCCC2
REMARK SMILES IDX 19 1 18 2 17 3 15 4 16 5 14 7 5 8 6 9 88 10 7 11 8 12 89 13
REMARK SMILES IDX 93 14 9 15 13 16 90 17 92 18 10 19 12 20 91 21 11 22 3 23
REMARK SMILES IDX 4 24 2 25 1 26 20 27 21 28 22 29 23 30 24 32 25 33 26 34
REMARK SMILES IDX 87 35 27 36 86 37 28 38 29 39 30 40 80 41 31 42 85 43 79 44
REMARK SMILES IDX 81 45 32 46 84 47 78 48 77 49 33 51 65 52 45 53 64 54 46 55
REMARK SMILES IDX 49 56 63 57 82 58 47 59 48 60 62 62 83 63 50 64 34 65 35 66
REMARK SMILES IDX 43 67 36 68 37 69 41 70 44 71 38 72 39 73 42 74 40 75 66 76
REMARK SMILES IDX 67 77 75 78 68 79 69 80 73 81 76 82 70 83 71 84 74 85 72 86
REMARK SMILES IDX 51 87 52 88 60 89 53 90 54 91 58 92 61 93 55 94 56 95 59 96
REMARK SMILES IDX 57 97
REMARK H PARENT 17 6 22 31 81 50 49 61
REMARK Flexibility Score: inf
ROOT
ATOM      1  C   UNL A   1      31.836  30.548  26.801  1.00  0.00     0.023 C 
ENDROOT
BRANCH   1   2
ATOM      2  C   UNL A   1      31.570  29.910  25.432  1.00  0.00     0.116 C 
BRANCH   2   3
ATOM      3  N   UNL A   1      32.766  29.643  24.642  1.00  0.00    -0.355 N 
ATOM      4  C   UNL A   1      33.050  28.744  23.653  1.00  0.00     0.229 C 
ATOM      5  O   UNL A   1      34.150  28.879  23.103  1.00  0.00    -0.274 OA
ATOM      6  H   UNL A   1      33.522  30.231  24.867  1.00  0.00     0.163 HD
BRANCH   4   7
ATOM      7  C   UNL A   1      32.083  27.630  23.190  1.00  0.00     0.135 C 
ATOM      8  N   UNL A   1      30.607  25.712  24.045  1.00  0.00    -0.329 N 
ATOM      9  C   UNL A   1      29.494  26.575  24.110  1.00  0.00     0.254 C 
ATOM     10  C   UNL A   1      32.016  26.316  24.100  1.00  0.00     0.059 C 
ATOM     11  O   UNL A   1      28.443  26.296  24.678  1.00  0.00    -0.269 OA
ATOM     12  C   UNL A   1      29.564  27.830  23.335  1.00  0.00     0.044 A 
ATOM     13  C   UNL A   1      32.305  26.582  25.596  1.00  0.00     0.030 C 
ATOM     14  C   UNL A   1      33.102  25.316  23.605  1.00  0.00     0.030 C 
ATOM     15  C   UNL A   1      28.387  28.563  23.109  1.00  0.00     0.014 A 
ATOM     16  C   UNL A   1      30.765  28.263  22.786  1.00  0.00    -0.020 A 
ATOM     17  C   UNL A   1      33.749  26.878  26.014  1.00  0.00     0.002 C 
ATOM     18  C   UNL A   1      34.546  25.699  23.927  1.00  0.00     0.002 C 
ATOM     19  C   UNL A   1      28.399  29.696  22.296  1.00  0.00     0.001 A 
ATOM     20  C   UNL A   1      30.753  29.372  21.912  1.00  0.00     0.005 A 
ATOM     21  C   UNL A   1      34.749  25.900  25.423  1.00  0.00     0.000 C 
ATOM     22  C   UNL A   1      29.580  30.086  21.676  1.00  0.00     0.000 A 
BRANCH   8  23
ATOM     23  C   UNL A   1      30.266  24.272  24.274  1.00  0.00     0.082 C 
ATOM     24  C   UNL A   1      30.611  23.334  23.117  1.00  0.00     0.031 C 
BRANCH  23  25
ATOM     25  C   UNL A   1      30.506  23.715  25.696  1.00  0.00     0.021 C 
ATOM     26  C   UNL A   1      31.637  22.713  25.887  1.00  0.00     0.006 C 
ENDBRANCH  23  25
ENDBRANCH   8  23
ENDBRANCH   4   7
ENDBRANCH   2   3
ENDBRANCH   1   2
BRANCH   1  27
ATOM     27  C   UNL A   1      31.606  32.045  26.875  1.00  0.00     0.023 C 
BRANCH  27  28
ATOM     28  C   UNL A   1      32.789  32.788  27.449  1.00  0.00     0.116 C 
BRANCH  28  29
ATOM     29  N   UNL A   1      32.500  34.204  27.653  1.00  0.00    -0.352 N 
ATOM     30  C   UNL A   1      32.996  35.047  28.617  1.00  0.00     0.251 C 
ATOM     31  H   UNL A   1      31.865  34.607  27.018  1.00  0.00     0.163 HD
ATOM     32  O   UNL A   1      32.519  36.162  28.794  1.00  0.00    -0.269 OA
BRANCH  30  33
ATOM     33  C   UNL A   1      34.104  34.561  29.458  1.00  0.00     0.039 A 
ATOM     34  C   UNL A   1      35.402  34.593  28.947  1.00  0.00     0.014 A 
ATOM     35  C   UNL A   1      33.834  33.979  30.697  1.00  0.00     0.014 A 
ATOM     36  C   UNL A   1      36.389  33.855  29.573  1.00  0.00     0.010 A 
ATOM     37  C   UNL A   1      34.868  33.351  31.393  1.00  0.00     0.010 A 
ATOM     38  C   UNL A   1      36.142  33.246  30.814  1.00  0.00    -0.014 A 
BRANCH  38  39
ATOM     39  C   UNL A   1      37.254  32.532  31.487  1.00  0.00     0.031 A 
ATOM     40  C   UNL A   1      38.037  31.467  30.774  1.00  0.00     0.074 A 
ATOM     41  C   UNL A   1      37.599  32.923  32.729  1.00  0.00     0.049 A 
ATOM     42  N   UNL A   1      39.025  30.735  31.224  1.00  0.00    -0.248 NA
ATOM     43  C   UNL A   1      37.666  31.177  29.379  1.00  0.00     0.031 C 
ATOM     44  C   UNL A   1      36.922  33.972  33.498  1.00  0.00     0.029 A 
ATOM     45  N   UNL A   1      38.625  32.526  33.545  1.00  0.00    -0.354 N 
ATOM     46  C   UNL A   1      39.370  29.881  30.186  1.00  0.00     0.074 A 
ATOM     47  C   UNL A   1      38.480  30.172  29.083  1.00  0.00     0.031 C 
ATOM     48  C   UNL A   1      37.604  34.199  34.628  1.00  0.00     0.029 A 
ATOM     49  C   UNL A   1      38.701  33.245  34.713  1.00  0.00     0.049 A 
ATOM     50  H   UNL A   1      39.247  31.797  33.318  1.00  0.00     0.167 HD
ATOM     51  C   UNL A   1      40.347  28.943  30.163  1.00  0.00     0.037 A 
ATOM     52  C   UNL A   1      39.547  33.133  35.752  1.00  0.00     0.037 A 
ATOM     53  C   UNL A   1      41.246  28.688  31.258  1.00  0.00     0.049 A 
ATOM     54  C   UNL A   1      40.590  32.059  35.712  1.00  0.00     0.074 A 
ATOM     55  C   UNL A   1      42.264  27.755  31.342  1.00  0.00     0.029 A 
ATOM     56  N   UNL A   1      41.243  29.384  32.459  1.00  0.00    -0.354 N 
ATOM     57  N   UNL A   1      40.871  31.219  34.746  1.00  0.00    -0.248 NA
ATOM     58  C   UNL A   1      41.414  31.894  36.916  1.00  0.00     0.031 C 
ATOM     59  C   UNL A   1      42.855  27.863  32.604  1.00  0.00     0.029 A 
ATOM     60  C   UNL A   1      42.234  28.893  33.293  1.00  0.00     0.049 A 
ATOM     61  H   UNL A   1      40.627  30.119  32.685  1.00  0.00     0.167 HD
ATOM     62  C   UNL A   1      41.902  30.424  35.222  1.00  0.00     0.074 A 
ATOM     63  C   UNL A   1      42.216  30.902  36.555  1.00  0.00     0.031 C 
ATOM     64  C   UNL A   1      42.523  29.384  34.616  1.00  0.00     0.037 A 
BRANCH  51  65
ATOM     65  C   UNL A   1      40.493  28.109  28.923  1.00  0.00     0.064 A 
ATOM     66  C   UNL A   1      39.795  26.903  28.761  1.00  0.00     0.173 A 
ATOM     67  C   UNL A   1      41.284  28.558  27.854  1.00  0.00     0.173 A 
ATOM     68  F   UNL A   1      39.036  26.423  29.758  1.00  0.00    -0.203 F 
ATOM     69  C   UNL A   1      39.893  26.173  27.579  1.00  0.00     0.198 A 
ATOM     70  C   UNL A   1      41.361  27.838  26.665  1.00  0.00     0.198 A 
ATOM     71  F   UNL A   1      41.968  29.707  27.956  1.00  0.00    -0.203 F 
ATOM     72  F   UNL A   1      39.240  25.009  27.456  1.00  0.00    -0.200 F 
ATOM     73  C   UNL A   1      40.667  26.644  26.529  1.00  0.00     0.200 A 
ATOM     74  F   UNL A   1      42.100  28.300  25.648  1.00  0.00    -0.200 F 
ATOM     75  F   UNL A   1      40.747  25.948  25.387  1.00  0.00    -0.200 F 
ENDBRANCH  51  65
BRANCH  52  76
ATOM     76  C   UNL A   1      39.418  34.057  36.907  1.00  0.00     0.064 A 
ATOM     77  C   UNL A   1      38.694  33.682  38.046  1.00  0.00     0.173 A 
ATOM     78  C   UNL A   1      40.056  35.306  36.919  1.00  0.00     0.173 A 
ATOM     79  F   UNL A   1      38.053  32.504  38.074  1.00  0.00    -0.203 F 
ATOM     80  C   UNL A   1      38.613  34.522  39.154  1.00  0.00     0.198 A 
ATOM     81  C   UNL A   1      40.000  36.133  38.038  1.00  0.00     0.198 A 
ATOM     82  F   UNL A   1      40.767  35.708  35.855  1.00  0.00    -0.203 F 
ATOM     83  F   UNL A   1      37.895  34.152  40.223  1.00  0.00    -0.200 F 
ATOM     84  C   UNL A   1      39.276  35.741  39.154  1.00  0.00     0.200 A 
ATOM     85  F   UNL A   1      40.659  37.299  38.041  1.00  0.00    -0.200 F 
ATOM     86  F   UNL A   1      39.215  36.540  40.228  1.00  0.00    -0.200 F 
ENDBRANCH  52  76
BRANCH  64  87
ATOM     87  C   UNL A   1      43.608  28.699  35.387  1.00  0.00     0.064 A 
ATOM     88  C   UNL A   1      43.318  27.659  36.281  1.00  0.00     0.173 A 
ATOM     89  C   UNL A   1      44.951  29.050  35.191  1.00  0.00     0.173 A 
ATOM     90  F   UNL A   1      42.046  27.302  36.512  1.00  0.00    -0.203 F 
ATOM     91  C   UNL A   1      44.337  27.003  36.965  1.00  0.00     0.198 A 
ATOM     92  C   UNL A   1      45.969  28.375  35.858  1.00  0.00     0.198 A 
ATOM     93  F   UNL A   1      45.276  30.036  34.342  1.00  0.00    -0.203 F 
ATOM     94  F   UNL A   1      44.037  26.035  37.842  1.00  0.00    -0.200 F 
ATOM     95  C   UNL A   1      45.661  27.355  36.747  1.00  0.00     0.200 A 
ATOM     96  F   UNL A   1      47.247  28.709  35.639  1.00  0.00    -0.200 F 
ATOM     97  F   UNL A   1      46.641  26.715  37.398  1.00  0.00    -0.200 F 
ENDBRANCH  64  87
ENDBRANCH  38  39
ENDBRANCH  30  33
ENDBRANCH  28  29
ENDBRANCH  27  28
ENDBRANCH   1  27
TORSDOF 13
ENDMDL
MODEL 3
REMARK VINA RESULT:     -13.0      2.560      8.297
REMARK SMILES CC[C@H](C)N1C(=O)c2ccccc2[C@@H](C(=O)NCCCCNC(=O)c2ccc(-c3c4nc(c(-c5c(F)c(F)c(F)c(F)c5F)c5ccc([nH]5)c(-c5c(F)c(F)c(F)c(F)c5F)c5nc(c(-c6c(F)c(F)c(F)c(F)c6F)c6ccc3[nH]6)C=C5)C=C4)cc2)C12CCCCC2
REMARK SMILES IDX 19 1 18 2 17 3 15 4 16 5 14 7 5 8 6 9 88 10 7 11 8 12 89 13
REMARK SMILES IDX 93 14 9 15 13 16 90 17 92 18 10 19 12 20 91 21 11 22 3 23
REMARK SMILES IDX 4 24 2 25 1 26 20 27 21 28 22 29 23 30 24 32 25 33 26 34
REMARK SMILES IDX 87 35 27 36 86 37 28 38 29 39 30 40 80 41 31 42 85 43 79 44
REMARK SMILES IDX 81 45 32 46 84 47 78 48 77 49 33 51 65 52 45 53 64 54 46 55
REMARK SMILES IDX 49 56 63 57 82 58 47 59 48 60 62 62 83 63 50 64 34 65 35 66
REMARK SMILES IDX 43 67 36 68 37 69 41 70 44 71 38 72 39 73 42 74 40 75 66 76
REMARK SMILES IDX 67 77 75 78 68 79 69 80 73 81 76 82 70 83 71 84 74 85 72 86
REMARK SMILES IDX 51 87 52 88 60 89 53 90 54 91 58 92 61 93 55 94 56 95 59 96
REMARK SMILES IDX 57 97
REMARK H PARENT 17 6 22 31 81 50 49 61
REMARK Flexibility Score: inf
ROOT
ATOM      1  C   UNL A   1      32.001  27.058  25.909  1.00  0.00     0.023 C 
ENDROOT
BRANCH   1   2
ATOM      2  C   UNL A   1      33.343  26.342  26.101  1.00  0.00     0.116 C 
BRANCH   2   3
ATOM      3  N   UNL A   1      33.998  25.934  24.864  1.00  0.00    -0.355 N 
ATOM      4  C   UNL A   1      34.455  24.732  24.402  1.00  0.00     0.229 C 
ATOM      5  O   UNL A   1      34.854  24.722  23.231  1.00  0.00    -0.274 OA
ATOM      6  H   UNL A   1      34.140  26.676  24.233  1.00  0.00     0.163 HD
BRANCH   4   7
ATOM      7  C   UNL A   1      34.466  23.430  25.236  1.00  0.00     0.135 C 
ATOM      8  N   UNL A   1      34.184  20.884  25.066  1.00  0.00    -0.329 N 
ATOM      9  C   UNL A   1      35.575  20.725  24.900  1.00  0.00     0.254 C 
ATOM     10  C   UNL A   1      33.546  22.233  24.708  1.00  0.00     0.059 C 
ATOM     11  O   UNL A   1      36.107  19.680  24.538  1.00  0.00    -0.269 OA
ATOM     12  C   UNL A   1      36.440  21.848  25.315  1.00  0.00     0.044 A 
ATOM     13  C   UNL A   1      33.366  22.222  23.171  1.00  0.00     0.030 C 
ATOM     14  C   UNL A   1      32.125  22.391  25.324  1.00  0.00     0.030 C 
ATOM     15  C   UNL A   1      37.820  21.630  25.469  1.00  0.00     0.014 A 
ATOM     16  C   UNL A   1      35.900  23.095  25.603  1.00  0.00    -0.020 A 
ATOM     17  C   UNL A   1      32.461  23.284  22.540  1.00  0.00     0.002 C 
ATOM     18  C   UNL A   1      31.288  23.539  24.763  1.00  0.00     0.002 C 
ATOM     19  C   UNL A   1      38.649  22.640  25.958  1.00  0.00     0.001 A 
ATOM     20  C   UNL A   1      36.736  24.088  26.159  1.00  0.00     0.005 A 
ATOM     21  C   UNL A   1      31.127  23.425  23.252  1.00  0.00     0.000 C 
ATOM     22  C   UNL A   1      38.102  23.863  26.327  1.00  0.00     0.000 A 
BRANCH   8  23
ATOM     23  C   UNL A   1      33.449  19.594  25.252  1.00  0.00     0.082 C 
ATOM     24  C   UNL A   1      32.910  19.355  26.663  1.00  0.00     0.031 C 
BRANCH  23  25
ATOM     25  C   UNL A   1      32.539  19.134  24.090  1.00  0.00     0.021 C 
ATOM     26  C   UNL A   1      32.962  17.906  23.296  1.00  0.00     0.006 C 
ENDBRANCH  23  25
ENDBRANCH   8  23
ENDBRANCH   4   7
ENDBRANCH   2   3
ENDBRANCH   1   2
BRANCH   1  27
ATOM     27  C   UNL A   1      32.023  28.229  24.946  1.00  0.00     0.023 C 
BRANCH  27  28
ATOM     28  C   UNL A   1      33.124  29.215  25.255  1.00  0.00     0.116 C 
BRANCH  28  29
ATOM     29  N   UNL A   1      32.604  30.458  25.817  1.00  0.00    -0.352 N 
ATOM     30  C   UNL A   1      33.090  31.188  26.875  1.00  0.00     0.251 C 
ATOM     31  H   UNL A   1      31.798  30.821  25.382  1.00  0.00     0.163 HD
ATOM     32  O   UNL A   1      32.443  32.106  27.365  1.00  0.00    -0.269 OA
BRANCH  30  33
ATOM     33  C   UNL A   1      34.406  30.817  27.424  1.00  0.00     0.039 A 
ATOM     34  C   UNL A   1      34.627  29.495  27.812  1.00  0.00     0.014 A 
ATOM     35  C   UNL A   1      35.367  31.803  27.651  1.00  0.00     0.014 A 
ATOM     36  C   UNL A   1      35.712  29.203  28.617  1.00  0.00     0.010 A 
ATOM     37  C   UNL A   1      36.530  31.470  28.348  1.00  0.00     0.010 A 
ATOM     38  C   UNL A   1      36.689  30.179  28.875  1.00  0.00    -0.014 A 
BRANCH  38  39
ATOM     39  C   UNL A   1      37.876  29.798  29.676  1.00  0.00     0.031 A 
ATOM     40  C   UNL A   1      38.971  28.955  29.089  1.00  0.00     0.074 A 
ATOM     41  C   UNL A   1      37.988  30.297  30.923  1.00  0.00     0.049 A 
ATOM     42  N   UNL A   1      40.066  28.517  29.660  1.00  0.00    -0.248 NA
ATOM     43  C   UNL A   1      38.824  28.542  27.684  1.00  0.00     0.031 C 
ATOM     44  C   UNL A   1      36.993  31.154  31.576  1.00  0.00     0.029 A 
ATOM     45  N   UNL A   1      38.997  30.203  31.844  1.00  0.00    -0.354 N 
ATOM     46  C   UNL A   1      40.718  27.755  28.700  1.00  0.00     0.074 A 
ATOM     47  C   UNL A   1      39.894  27.776  27.511  1.00  0.00     0.031 C 
ATOM     48  C   UNL A   1      37.480  31.580  32.748  1.00  0.00     0.029 A 
ATOM     49  C   UNL A   1      38.772  30.947  32.976  1.00  0.00     0.049 A 
ATOM     50  H   UNL A   1      39.804  29.655  31.708  1.00  0.00     0.167 HD
ATOM     51  C   UNL A   1      41.900  27.104  28.809  1.00  0.00     0.037 A 
ATOM     52  C   UNL A   1      39.514  31.086  34.089  1.00  0.00     0.037 A 
ATOM     53  C   UNL A   1      42.724  27.120  29.990  1.00  0.00     0.049 A 
ATOM     54  C   UNL A   1      40.796  30.319  34.195  1.00  0.00     0.074 A 
ATOM     55  C   UNL A   1      43.934  26.486  30.208  1.00  0.00     0.029 A 
ATOM     56  N   UNL A   1      42.425  27.822  31.149  1.00  0.00    -0.354 N 
ATOM     57  N   UNL A   1      41.376  29.557  33.300  1.00  0.00    -0.248 NA
ATOM     58  C   UNL A   1      41.514  30.406  35.472  1.00  0.00     0.031 C 
ATOM     59  C   UNL A   1      44.352  26.778  31.510  1.00  0.00     0.029 A 
ATOM     60  C   UNL A   1      43.423  27.628  32.090  1.00  0.00     0.049 A 
ATOM     61  H   UNL A   1      41.623  28.377  31.283  1.00  0.00     0.167 HD
ATOM     62  C   UNL A   1      42.525  29.070  33.903  1.00  0.00     0.074 A 
ATOM     63  C   UNL A   1      42.575  29.648  35.232  1.00  0.00     0.031 C 
ATOM     64  C   UNL A   1      43.447  28.212  33.406  1.00  0.00     0.037 A 
BRANCH  51  65
ATOM     65  C   UNL A   1      42.375  26.304  27.630  1.00  0.00     0.064 A 
ATOM     66  C   UNL A   1      43.337  26.804  26.741  1.00  0.00     0.173 A 
ATOM     67  C   UNL A   1      41.915  24.992  27.431  1.00  0.00     0.173 A 
ATOM     68  F   UNL A   1      43.798  28.055  26.879  1.00  0.00    -0.203 F 
ATOM     69  C   UNL A   1      43.812  26.024  25.689  1.00  0.00     0.198 A 
ATOM     70  C   UNL A   1      42.411  24.208  26.393  1.00  0.00     0.198 A 
ATOM     71  F   UNL A   1      40.999  24.465  28.257  1.00  0.00    -0.203 F 
ATOM     72  F   UNL A   1      44.711  26.532  24.834  1.00  0.00    -0.200 F 
ATOM     73  C   UNL A   1      43.357  24.725  25.521  1.00  0.00     0.200 A 
ATOM     74  F   UNL A   1      41.977  22.949  26.240  1.00  0.00    -0.200 F 
ATOM     75  F   UNL A   1      43.828  23.971  24.518  1.00  0.00    -0.200 F 
ENDBRANCH  51  65
BRANCH  52  76
ATOM     76  C   UNL A   1      39.040  31.974  35.181  1.00  0.00     0.064 A 
ATOM     77  C   UNL A   1      38.329  31.455  36.269  1.00  0.00     0.173 A 
ATOM     78  C   UNL A   1      39.334  33.346  35.186  1.00  0.00     0.173 A 
ATOM     79  F   UNL A   1      38.010  30.151  36.300  1.00  0.00    -0.203 F 
ATOM     80  C   UNL A   1      37.927  32.273  37.322  1.00  0.00     0.198 A 
ATOM     81  C   UNL A   1      38.959  34.158  36.253  1.00  0.00     0.198 A 
ATOM     82  F   UNL A   1      40.019  33.891  34.170  1.00  0.00    -0.203 F 
ATOM     83  F   UNL A   1      37.227  31.757  38.341  1.00  0.00    -0.200 F 
ATOM     84  C   UNL A   1      38.254  33.622  37.319  1.00  0.00     0.200 A 
ATOM     85  F   UNL A   1      39.295  35.455  36.255  1.00  0.00    -0.200 F 
ATOM     86  F   UNL A   1      37.886  34.405  38.342  1.00  0.00    -0.200 F 
ENDBRANCH  52  76
BRANCH  64  87
ATOM     87  C   UNL A   1      44.592  27.853  34.303  1.00  0.00     0.064 A 
ATOM     88  C   UNL A   1      45.756  28.634  34.340  1.00  0.00     0.173 A 
ATOM     89  C   UNL A   1      44.502  26.754  35.167  1.00  0.00     0.173 A 
ATOM     90  F   UNL A   1      45.892  29.685  33.519  1.00  0.00    -0.203 F 
ATOM     91  C   UNL A   1      46.799  28.315  35.205  1.00  0.00     0.198 A 
ATOM     92  C   UNL A   1      45.537  26.453  36.047  1.00  0.00     0.198 A 
ATOM     93  F   UNL A   1      43.405  25.982  35.168  1.00  0.00    -0.203 F 
ATOM     94  F   UNL A   1      47.918  29.052  35.201  1.00  0.00    -0.200 F 
ATOM     95  C   UNL A   1      46.685  27.231  36.062  1.00  0.00     0.200 A 
ATOM     96  F   UNL A   1      45.422  25.412  36.882  1.00  0.00    -0.200 F 
ATOM     97  F   UNL A   1      47.686  26.931  36.901  1.00  0.00    -0.200 F 
ENDBRANCH  64  87
ENDBRANCH  38  39
ENDBRANCH  30  33
ENDBRANCH  28  29
ENDBRANCH  27  28
ENDBRANCH   1  27
TORSDOF 13
ENDMDL
