MODEL 1
REMARK VINA RESULT:     -12.1      0.000      0.000
REMARK SMILES C[C@H](CO)CSc1cc(Cl)ccc1C(=O)NCCCCNC(=O)c1ccc(-c2c3nc(c(-c4c(F)c(F)c(F)c(F)c4F)c4ccc([nH]4)c(-c4c(F)c(F)c(F)c(F)c4F)c4nc(c(-c5c(F)c(F)c(F)c(F)c5F)c5ccc2[nH]5)C=C4)C=C3)cc1
REMARK SMILES IDX 17 1 16 2 14 3 15 4 13 6 7 7 8 8 9 9 12 10 10 11 11 12 6 13
REMARK SMILES IDX 5 14 2 15 1 16 3 17 4 18 18 20 19 21 20 22 21 23 22 24 23 26
REMARK SMILES IDX 24 27 25 28 86 29 26 30 85 31 27 32 28 33 29 34 79 35 30 36
REMARK SMILES IDX 84 37 78 38 80 39 31 40 83 41 77 42 76 43 32 45 64 46 44 47
REMARK SMILES IDX 63 48 45 49 48 50 62 51 81 52 46 53 47 54 61 56 82 57 49 58
REMARK SMILES IDX 33 59 34 60 42 61 35 62 36 63 40 64 43 65 37 66 38 67 41 68
REMARK SMILES IDX 39 69 65 70 66 71 74 72 67 73 68 74 72 75 75 76 69 77 70 78
REMARK SMILES IDX 73 79 71 80 50 81 51 82 59 83 52 84 53 85 57 86 60 87 54 88
REMARK SMILES IDX 55 89 58 90 56 91
REMARK H PARENT 16 5 4 19 21 25 80 44 48 55
REMARK Flexibility Score: inf
ROOT
ATOM      1  C   UNL A   1      30.773  26.393  25.716  1.00  0.00     0.116 C 
ENDROOT
BRANCH   1   2
ATOM      2  N   UNL A   1      31.403  25.551  26.713  1.00  0.00    -0.352 N 
ATOM      3  C   UNL A   1      31.940  24.291  26.648  1.00  0.00     0.252 C 
ATOM      4  O   UNL A   1      31.706  23.576  27.629  1.00  0.00    -0.269 OA
ATOM      5  H   UNL A   1      31.454  25.960  27.606  1.00  0.00     0.163 HD
BRANCH   3   6
ATOM      6  C   UNL A   1      32.936  23.771  25.652  1.00  0.00     0.053 A 
ATOM      7  C   UNL A   1      33.075  22.530  24.998  1.00  0.00     0.021 A 
ATOM      8  C   UNL A   1      34.222  22.314  24.187  1.00  0.00     0.036 A 
ATOM      9  C   UNL A   1      35.238  23.256  24.065  1.00  0.00     0.042 A 
ATOM     10  C   UNL A   1      33.988  24.718  25.485  1.00  0.00     0.016 A 
ATOM     11  Cl  UNL A   1      36.636  22.900  23.133  1.00  0.00    -0.084 Cl
ATOM     12  C   UNL A   1      35.128  24.466  24.719  1.00  0.00     0.021 A 
BRANCH   7  13
ATOM     13  S   UNL A   1      32.071  21.048  24.987  1.00  0.00    -0.125 SA
BRANCH  13  14
ATOM     14  C   UNL A   1      32.930  19.936  23.866  1.00  0.00     0.080 C 
BRANCH  14  15
ATOM     15  C   UNL A   1      33.448  18.569  24.295  1.00  0.00     0.022 C 
ATOM     16  C   UNL A   1      33.147  17.603  23.131  1.00  0.00     0.011 C 
BRANCH  15  17
ATOM     17  C   UNL A   1      32.785  18.112  25.596  1.00  0.00     0.160 C 
BRANCH  17  18
ATOM     18  O   UNL A   1      33.428  16.963  26.126  1.00  0.00    -0.396 OA
ATOM     19  H   UNL A   1      33.749  17.156  27.021  1.00  0.00     0.210 HD
ENDBRANCH  17  18
ENDBRANCH  15  17
ENDBRANCH  14  15
ENDBRANCH  13  14
ENDBRANCH   7  13
ENDBRANCH   3   6
ENDBRANCH   1   2
BRANCH   1  20
ATOM     20  C   UNL A   1      31.704  27.578  25.404  1.00  0.00     0.023 C 
BRANCH  20  21
ATOM     21  C   UNL A   1      31.670  28.766  26.339  1.00  0.00     0.023 C 
BRANCH  21  22
ATOM     22  C   UNL A   1      32.847  29.708  26.193  1.00  0.00     0.116 C 
BRANCH  22  23
ATOM     23  N   UNL A   1      32.641  31.050  26.734  1.00  0.00    -0.352 N 
ATOM     24  C   UNL A   1      33.507  31.836  27.471  1.00  0.00     0.251 C 
ATOM     25  H   UNL A   1      31.761  31.450  26.549  1.00  0.00     0.163 HD
ATOM     26  O   UNL A   1      33.168  32.928  27.884  1.00  0.00    -0.269 OA
BRANCH  24  27
ATOM     27  C   UNL A   1      34.839  31.284  27.799  1.00  0.00     0.039 A 
ATOM     28  C   UNL A   1      35.907  32.159  27.993  1.00  0.00     0.014 A 
ATOM     29  C   UNL A   1      34.977  29.924  28.061  1.00  0.00     0.014 A 
ATOM     30  C   UNL A   1      37.081  31.678  28.575  1.00  0.00     0.010 A 
ATOM     31  C   UNL A   1      36.077  29.485  28.777  1.00  0.00     0.010 A 
ATOM     32  C   UNL A   1      37.146  30.355  29.038  1.00  0.00    -0.014 A 
BRANCH  32  33
ATOM     33  C   UNL A   1      38.319  29.837  29.787  1.00  0.00     0.031 A 
ATOM     34  C   UNL A   1      38.549  30.287  31.206  1.00  0.00     0.074 A 
ATOM     35  C   UNL A   1      39.229  29.060  29.166  1.00  0.00     0.049 A 
ATOM     36  N   UNL A   1      39.577  30.077  31.987  1.00  0.00    -0.248 NA
ATOM     37  C   UNL A   1      37.511  31.144  31.803  1.00  0.00     0.031 C 
ATOM     38  C   UNL A   1      39.177  28.634  27.765  1.00  0.00     0.029 A 
ATOM     39  N   UNL A   1      40.389  28.495  29.636  1.00  0.00    -0.354 N 
ATOM     40  C   UNL A   1      39.330  30.817  33.135  1.00  0.00     0.074 A 
ATOM     41  C   UNL A   1      38.097  31.539  32.923  1.00  0.00     0.031 C 
ATOM     42  C   UNL A   1      40.227  27.838  27.505  1.00  0.00     0.029 A 
ATOM     43  C   UNL A   1      41.046  27.726  28.707  1.00  0.00     0.049 A 
ATOM     44  H   UNL A   1      40.719  28.629  30.554  1.00  0.00     0.167 HD
ATOM     45  C   UNL A   1      40.045  30.861  34.283  1.00  0.00     0.037 A 
ATOM     46  C   UNL A   1      42.177  27.006  28.820  1.00  0.00     0.037 A 
ATOM     47  C   UNL A   1      41.217  30.066  34.525  1.00  0.00     0.049 A 
ATOM     48  C   UNL A   1      42.897  26.985  30.141  1.00  0.00     0.074 A 
ATOM     49  C   UNL A   1      41.960  29.952  35.684  1.00  0.00     0.029 A 
ATOM     50  N   UNL A   1      41.802  29.228  33.586  1.00  0.00    -0.354 N 
ATOM     51  N   UNL A   1      42.614  27.630  31.247  1.00  0.00    -0.248 NA
ATOM     52  C   UNL A   1      44.087  26.127  30.234  1.00  0.00     0.031 C 
ATOM     53  C   UNL A   1      43.008  29.058  35.443  1.00  0.00     0.029 A 
ATOM     54  C   UNL A   1      42.898  28.592  34.143  1.00  0.00     0.049 A 
ATOM     55  H   UNL A   1      41.485  29.105  32.662  1.00  0.00     0.167 HD
ATOM     56  C   UNL A   1      43.572  27.239  32.172  1.00  0.00     0.074 A 
ATOM     57  C   UNL A   1      44.435  26.286  31.503  1.00  0.00     0.031 C 
ATOM     58  C   UNL A   1      43.727  27.634  33.459  1.00  0.00     0.037 A 
BRANCH  45  59
ATOM     59  C   UNL A   1      39.551  31.768  35.371  1.00  0.00     0.064 A 
ATOM     60  C   UNL A   1      38.625  31.330  36.332  1.00  0.00     0.173 A 
ATOM     61  C   UNL A   1      40.008  33.092  35.457  1.00  0.00     0.173 A 
ATOM     62  F   UNL A   1      38.143  30.079  36.282  1.00  0.00    -0.203 F 
ATOM     63  C   UNL A   1      38.146  32.194  37.311  1.00  0.00     0.198 A 
ATOM     64  C   UNL A   1      39.552  33.943  36.460  1.00  0.00     0.198 A 
ATOM     65  F   UNL A   1      40.894  33.560  34.566  1.00  0.00    -0.203 F 
ATOM     66  F   UNL A   1      37.214  31.771  38.176  1.00  0.00    -0.200 F 
ATOM     67  C   UNL A   1      38.614  33.497  37.379  1.00  0.00     0.200 A 
ATOM     68  F   UNL A   1      40.011  35.199  36.530  1.00  0.00    -0.200 F 
ATOM     69  F   UNL A   1      38.152  34.328  38.324  1.00  0.00    -0.200 F 
ENDBRANCH  45  59
BRANCH  46  70
ATOM     70  C   UNL A   1      42.663  26.194  27.674  1.00  0.00     0.064 A 
ATOM     71  C   UNL A   1      42.167  24.900  27.456  1.00  0.00     0.173 A 
ATOM     72  C   UNL A   1      43.626  26.683  26.781  1.00  0.00     0.173 A 
ATOM     73  F   UNL A   1      41.256  24.382  28.294  1.00  0.00    -0.203 F 
ATOM     74  C   UNL A   1      42.634  24.117  26.402  1.00  0.00     0.198 A 
ATOM     75  C   UNL A   1      44.075  25.907  25.713  1.00  0.00     0.198 A 
ATOM     76  F   UNL A   1      44.126  27.916  26.942  1.00  0.00    -0.203 F 
ATOM     77  F   UNL A   1      42.175  22.868  26.244  1.00  0.00    -0.200 F 
ATOM     78  C   UNL A   1      43.585  24.622  25.529  1.00  0.00     0.200 A 
ATOM     79  F   UNL A   1      44.985  26.404  24.864  1.00  0.00    -0.200 F 
ATOM     80  F   UNL A   1      44.033  23.870  24.515  1.00  0.00    -0.200 F 
ENDBRANCH  46  70
BRANCH  58  81
ATOM     81  C   UNL A   1      44.846  27.012  34.236  1.00  0.00     0.064 A 
ATOM     82  C   UNL A   1      44.674  25.808  34.932  1.00  0.00     0.173 A 
ATOM     83  C   UNL A   1      46.119  27.603  34.242  1.00  0.00     0.173 A 
ATOM     84  F   UNL A   1      43.471  25.215  34.965  1.00  0.00    -0.203 F 
ATOM     85  C   UNL A   1      45.731  25.227  35.625  1.00  0.00     0.198 A 
ATOM     86  C   UNL A   1      47.180  27.005  34.914  1.00  0.00     0.198 A 
ATOM     87  F   UNL A   1      46.334  28.752  33.584  1.00  0.00    -0.203 F 
ATOM     88  F   UNL A   1      45.535  24.096  36.317  1.00  0.00    -0.200 F 
ATOM     89  C   UNL A   1      46.985  25.822  35.609  1.00  0.00     0.200 A 
ATOM     90  F   UNL A   1      48.393  27.575  34.888  1.00  0.00    -0.200 F 
ATOM     91  F   UNL A   1      48.004  25.256  36.271  1.00  0.00    -0.200 F 
ENDBRANCH  58  81
ENDBRANCH  32  33
ENDBRANCH  24  27
ENDBRANCH  22  23
ENDBRANCH  21  22
ENDBRANCH  20  21
ENDBRANCH   1  20
TORSDOF 16
ENDMDL
MODEL 2
REMARK VINA RESULT:     -11.9      2.665      4.305
REMARK SMILES C[C@H](CO)CSc1cc(Cl)ccc1C(=O)NCCCCNC(=O)c1ccc(-c2c3nc(c(-c4c(F)c(F)c(F)c(F)c4F)c4ccc([nH]4)c(-c4c(F)c(F)c(F)c(F)c4F)c4nc(c(-c5c(F)c(F)c(F)c(F)c5F)c5ccc2[nH]5)C=C4)C=C3)cc1
REMARK SMILES IDX 17 1 16 2 14 3 15 4 13 6 7 7 8 8 9 9 12 10 10 11 11 12 6 13
REMARK SMILES IDX 5 14 2 15 1 16 3 17 4 18 18 20 19 21 20 22 21 23 22 24 23 26
REMARK SMILES IDX 24 27 25 28 86 29 26 30 85 31 27 32 28 33 29 34 79 35 30 36
REMARK SMILES IDX 84 37 78 38 80 39 31 40 83 41 77 42 76 43 32 45 64 46 44 47
REMARK SMILES IDX 63 48 45 49 48 50 62 51 81 52 46 53 47 54 61 56 82 57 49 58
REMARK SMILES IDX 33 59 34 60 42 61 35 62 36 63 40 64 43 65 37 66 38 67 41 68
REMARK SMILES IDX 39 69 65 70 66 71 74 72 67 73 68 74 72 75 75 76 69 77 70 78
REMARK SMILES IDX 73 79 71 80 50 81 51 82 59 83 52 84 53 85 57 86 60 87 54 88
REMARK SMILES IDX 55 89 58 90 56 91
REMARK H PARENT 16 5 4 19 21 25 80 44 48 55
REMARK Flexibility Score: inf
ROOT
ATOM      1  C   UNL A   1      33.325  29.647  27.184  1.00  0.00     0.116 C 
ENDROOT
BRANCH   1   2
ATOM      2  N   UNL A   1      32.619  28.441  27.567  1.00  0.00    -0.352 N 
ATOM      3  C   UNL A   1      32.138  27.384  26.839  1.00  0.00     0.252 C 
ATOM      4  O   UNL A   1      31.038  26.957  27.207  1.00  0.00    -0.269 OA
ATOM      5  H   UNL A   1      32.451  28.368  28.534  1.00  0.00     0.163 HD
BRANCH   3   6
ATOM      6  C   UNL A   1      32.875  26.567  25.817  1.00  0.00     0.053 A 
ATOM      7  C   UNL A   1      33.442  26.886  24.566  1.00  0.00     0.021 A 
ATOM      8  C   UNL A   1      33.975  25.833  23.773  1.00  0.00     0.036 A 
ATOM      9  C   UNL A   1      33.902  24.498  24.159  1.00  0.00     0.042 A 
ATOM     10  C   UNL A   1      32.838  25.190  26.184  1.00  0.00     0.016 A 
ATOM     11  Cl  UNL A   1      34.493  23.267  23.116  1.00  0.00    -0.084 Cl
ATOM     12  C   UNL A   1      33.327  24.168  25.368  1.00  0.00     0.021 A 
BRANCH   7  13
ATOM     13  S   UNL A   1      33.625  28.429  23.679  1.00  0.00    -0.125 SA
BRANCH  13  14
ATOM     14  C   UNL A   1      32.096  28.591  22.746  1.00  0.00     0.080 C 
BRANCH  14  15
ATOM     15  C   UNL A   1      30.747  28.839  23.408  1.00  0.00     0.022 C 
ATOM     16  C   UNL A   1      30.042  27.470  23.490  1.00  0.00     0.011 C 
BRANCH  15  17
ATOM     17  C   UNL A   1      29.922  29.854  22.613  1.00  0.00     0.160 C 
BRANCH  17  18
ATOM     18  O   UNL A   1      30.474  30.072  21.325  1.00  0.00    -0.396 OA
ATOM     19  H   UNL A   1      31.169  30.747  21.380  1.00  0.00     0.210 HD
ENDBRANCH  17  18
ENDBRANCH  15  17
ENDBRANCH  14  15
ENDBRANCH  13  14
ENDBRANCH   7  13
ENDBRANCH   3   6
ENDBRANCH   1   2
BRANCH   1  20
ATOM     20  C   UNL A   1      32.391  30.523  26.330  1.00  0.00     0.023 C 
BRANCH  20  21
ATOM     21  C   UNL A   1      31.862  31.797  26.950  1.00  0.00     0.023 C 
BRANCH  21  22
ATOM     22  C   UNL A   1      32.938  32.759  27.412  1.00  0.00     0.116 C 
BRANCH  22  23
ATOM     23  N   UNL A   1      32.474  34.110  27.721  1.00  0.00    -0.352 N 
ATOM     24  C   UNL A   1      32.982  35.020  28.629  1.00  0.00     0.251 C 
ATOM     25  H   UNL A   1      31.689  34.414  27.211  1.00  0.00     0.163 HD
ATOM     26  O   UNL A   1      32.454  36.102  28.796  1.00  0.00    -0.269 OA
BRANCH  24  27
ATOM     27  C   UNL A   1      34.151  34.616  29.439  1.00  0.00     0.039 A 
ATOM     28  C   UNL A   1      33.942  34.047  30.695  1.00  0.00     0.014 A 
ATOM     29  C   UNL A   1      35.426  34.663  28.883  1.00  0.00     0.014 A 
ATOM     30  C   UNL A   1      35.004  33.409  31.337  1.00  0.00     0.010 A 
ATOM     31  C   UNL A   1      36.434  33.899  29.445  1.00  0.00     0.010 A 
ATOM     32  C   UNL A   1      36.238  33.268  30.683  1.00  0.00    -0.014 A 
BRANCH  32  33
ATOM     33  C   UNL A   1      37.354  32.478  31.263  1.00  0.00     0.031 A 
ATOM     34  C   UNL A   1      37.843  32.798  32.651  1.00  0.00     0.074 A 
ATOM     35  C   UNL A   1      37.995  31.560  30.513  1.00  0.00     0.049 A 
ATOM     36  N   UNL A   1      38.888  32.338  33.289  1.00  0.00    -0.248 NA
ATOM     37  C   UNL A   1      37.093  33.823  33.397  1.00  0.00     0.031 C 
ATOM     38  C   UNL A   1      37.685  31.226  29.120  1.00  0.00     0.029 A 
ATOM     39  N   UNL A   1      39.055  30.742  30.817  1.00  0.00    -0.354 N 
ATOM     40  C   UNL A   1      38.946  33.055  34.477  1.00  0.00     0.074 A 
ATOM     41  C   UNL A   1      37.879  34.029  34.441  1.00  0.00     0.031 C 
ATOM     42  C   UNL A   1      38.501  30.241  28.710  1.00  0.00     0.029 A 
ATOM     43  C   UNL A   1      39.416  29.900  29.794  1.00  0.00     0.049 A 
ATOM     44  H   UNL A   1      39.513  30.757  31.689  1.00  0.00     0.167 HD
ATOM     45  C   UNL A   1      39.786  32.890  35.525  1.00  0.00     0.037 A 
ATOM     46  C   UNL A   1      40.371  28.953  29.745  1.00  0.00     0.037 A 
ATOM     47  C   UNL A   1      40.781  31.856  35.595  1.00  0.00     0.049 A 
ATOM     48  C   UNL A   1      41.223  28.716  30.962  1.00  0.00     0.074 A 
ATOM     49  C   UNL A   1      41.616  31.531  36.648  1.00  0.00     0.029 A 
ATOM     50  N   UNL A   1      41.055  30.963  34.570  1.00  0.00    -0.354 N 
ATOM     51  N   UNL A   1      41.220  29.349  32.109  1.00  0.00    -0.248 NA
ATOM     52  C   UNL A   1      42.204  27.624  30.881  1.00  0.00     0.031 C 
ATOM     53  C   UNL A   1      42.411  30.450  36.253  1.00  0.00     0.029 A 
ATOM     54  C   UNL A   1      42.048  30.083  34.967  1.00  0.00     0.049 A 
ATOM     55  H   UNL A   1      40.611  30.955  33.692  1.00  0.00     0.167 HD
ATOM     56  C   UNL A   1      42.175  28.720  32.895  1.00  0.00     0.074 A 
ATOM     57  C   UNL A   1      42.727  27.643  32.099  1.00  0.00     0.031 C 
ATOM     58  C   UNL A   1      42.565  29.009  34.160  1.00  0.00     0.037 A 
BRANCH  45  59
ATOM     59  C   UNL A   1      39.632  33.825  36.688  1.00  0.00     0.064 A 
ATOM     60  C   UNL A   1      38.851  33.488  37.805  1.00  0.00     0.173 A 
ATOM     61  C   UNL A   1      40.273  35.073  36.688  1.00  0.00     0.173 A 
ATOM     62  F   UNL A   1      38.201  32.315  37.845  1.00  0.00    -0.203 F 
ATOM     63  C   UNL A   1      38.685  34.381  38.859  1.00  0.00     0.198 A 
ATOM     64  C   UNL A   1      40.133  35.949  37.761  1.00  0.00     0.198 A 
ATOM     65  F   UNL A   1      41.033  35.443  35.647  1.00  0.00    -0.203 F 
ATOM     66  F   UNL A   1      37.882  34.063  39.883  1.00  0.00    -0.200 F 
ATOM     67  C   UNL A   1      39.331  35.608  38.839  1.00  0.00     0.200 A 
ATOM     68  F   UNL A   1      40.765  37.131  37.746  1.00  0.00    -0.200 F 
ATOM     69  F   UNL A   1      39.171  36.466  39.856  1.00  0.00    -0.200 F 
ENDBRANCH  45  59
BRANCH  46  70
ATOM     70  C   UNL A   1      40.530  28.116  28.527  1.00  0.00     0.064 A 
ATOM     71  C   UNL A   1      41.327  28.555  27.459  1.00  0.00     0.173 A 
ATOM     72  C   UNL A   1      39.895  26.874  28.399  1.00  0.00     0.173 A 
ATOM     73  F   UNL A   1      41.942  29.745  27.529  1.00  0.00    -0.203 F 
ATOM     74  C   UNL A   1      41.463  27.793  26.301  1.00  0.00     0.198 A 
ATOM     75  C   UNL A   1      40.051  26.101  27.249  1.00  0.00     0.198 A 
ATOM     76  F   UNL A   1      39.128  26.405  29.394  1.00  0.00    -0.203 F 
ATOM     77  F   UNL A   1      42.195  28.258  25.278  1.00  0.00    -0.200 F 
ATOM     78  C   UNL A   1      40.828  26.566  26.197  1.00  0.00     0.200 A 
ATOM     79  F   UNL A   1      39.445  24.909  27.157  1.00  0.00    -0.200 F 
ATOM     80  F   UNL A   1      40.959  25.833  25.083  1.00  0.00    -0.200 F 
ENDBRANCH  46  70
BRANCH  58  81
ATOM     81  C   UNL A   1      43.610  28.128  34.773  1.00  0.00     0.064 A 
ATOM     82  C   UNL A   1      44.969  28.468  34.736  1.00  0.00     0.173 A 
ATOM     83  C   UNL A   1      43.240  26.954  35.446  1.00  0.00     0.173 A 
ATOM     84  F   UNL A   1      45.369  29.575  34.091  1.00  0.00    -0.203 F 
ATOM     85  C   UNL A   1      45.925  27.654  35.335  1.00  0.00     0.198 A 
ATOM     86  C   UNL A   1      44.196  26.156  36.066  1.00  0.00     0.198 A 
ATOM     87  F   UNL A   1      41.951  26.590  35.513  1.00  0.00    -0.203 F 
ATOM     88  F   UNL A   1      47.223  27.978  35.254  1.00  0.00    -0.200 F 
ATOM     89  C   UNL A   1      45.537  26.502  36.005  1.00  0.00     0.200 A 
ATOM     90  F   UNL A   1      43.819  25.050  36.723  1.00  0.00    -0.200 F 
ATOM     91  F   UNL A   1      46.459  25.724  36.588  1.00  0.00    -0.200 F 
ENDBRANCH  58  81
ENDBRANCH  32  33
ENDBRANCH  24  27
ENDBRANCH  22  23
ENDBRANCH  21  22
ENDBRANCH  20  21
ENDBRANCH   1  20
TORSDOF 16
ENDMDL
MODEL 3
REMARK VINA RESULT:     -11.8      0.333      1.650
REMARK SMILES C[C@H](CO)CSc1cc(Cl)ccc1C(=O)NCCCCNC(=O)c1ccc(-c2c3nc(c(-c4c(F)c(F)c(F)c(F)c4F)c4ccc([nH]4)c(-c4c(F)c(F)c(F)c(F)c4F)c4nc(c(-c5c(F)c(F)c(F)c(F)c5F)c5ccc2[nH]5)C=C4)C=C3)cc1
REMARK SMILES IDX 17 1 16 2 14 3 15 4 13 6 7 7 8 8 9 9 12 10 10 11 11 12 6 13
REMARK SMILES IDX 5 14 2 15 1 16 3 17 4 18 18 20 19 21 20 22 21 23 22 24 23 26
REMARK SMILES IDX 24 27 25 28 86 29 26 30 85 31 27 32 28 33 29 34 79 35 30 36
REMARK SMILES IDX 84 37 78 38 80 39 31 40 83 41 77 42 76 43 32 45 64 46 44 47
REMARK SMILES IDX 63 48 45 49 48 50 62 51 81 52 46 53 47 54 61 56 82 57 49 58
REMARK SMILES IDX 33 59 34 60 42 61 35 62 36 63 40 64 43 65 37 66 38 67 41 68
REMARK SMILES IDX 39 69 65 70 66 71 74 72 67 73 68 74 72 75 75 76 69 77 70 78
REMARK SMILES IDX 73 79 71 80 50 81 51 82 59 83 52 84 53 85 57 86 60 87 54 88
REMARK SMILES IDX 55 89 58 90 56 91
REMARK H PARENT 16 5 4 19 21 25 80 44 48 55
REMARK Flexibility Score: inf
ROOT
ATOM      1  C   UNL A   1      30.662  26.028  25.782  1.00  0.00     0.116 C 
ENDROOT
BRANCH   1   2
ATOM      2  N   UNL A   1      31.318  25.190  26.765  1.00  0.00    -0.352 N 
ATOM      3  C   UNL A   1      31.911  23.957  26.677  1.00  0.00     0.252 C 
ATOM      4  O   UNL A   1      31.699  23.208  27.637  1.00  0.00    -0.269 OA
ATOM      5  H   UNL A   1      31.341  25.579  27.669  1.00  0.00     0.163 HD
BRANCH   3   6
ATOM      6  C   UNL A   1      32.940  23.507  25.681  1.00  0.00     0.053 A 
ATOM      7  C   UNL A   1      33.181  22.271  25.047  1.00  0.00     0.021 A 
ATOM      8  C   UNL A   1      34.336  22.139  24.229  1.00  0.00     0.036 A 
ATOM      9  C   UNL A   1      35.266  23.163  24.082  1.00  0.00     0.042 A 
ATOM     10  C   UNL A   1      33.906  24.537  25.488  1.00  0.00     0.016 A 
ATOM     11  Cl  UNL A   1      36.683  22.912  23.143  1.00  0.00    -0.084 Cl
ATOM     12  C   UNL A   1      35.058  24.370  24.716  1.00  0.00     0.021 A 
BRANCH   7  13
ATOM     13  S   UNL A   1      32.307  20.709  25.071  1.00  0.00    -0.125 SA
BRANCH  13  14
ATOM     14  C   UNL A   1      33.352  19.599  24.116  1.00  0.00     0.080 C 
BRANCH  14  15
ATOM     15  C   UNL A   1      33.616  18.157  24.526  1.00  0.00     0.022 C 
ATOM     16  C   UNL A   1      33.598  17.323  23.229  1.00  0.00     0.011 C 
BRANCH  15  17
ATOM     17  C   UNL A   1      32.567  17.667  25.527  1.00  0.00     0.160 C 
BRANCH  17  18
ATOM     18  O   UNL A   1      32.998  16.491  26.193  1.00  0.00    -0.396 OA
ATOM     19  H   UNL A   1      33.767  16.120  25.731  1.00  0.00     0.210 HD
ENDBRANCH  17  18
ENDBRANCH  15  17
ENDBRANCH  14  15
ENDBRANCH  13  14
ENDBRANCH   7  13
ENDBRANCH   3   6
ENDBRANCH   1   2
BRANCH   1  20
ATOM     20  C   UNL A   1      31.579  27.219  25.451  1.00  0.00     0.023 C 
BRANCH  20  21
ATOM     21  C   UNL A   1      31.435  28.471  26.286  1.00  0.00     0.023 C 
BRANCH  21  22
ATOM     22  C   UNL A   1      32.656  29.368  26.279  1.00  0.00     0.116 C 
BRANCH  22  23
ATOM     23  N   UNL A   1      32.413  30.754  26.677  1.00  0.00    -0.352 N 
ATOM     24  C   UNL A   1      33.268  31.646  27.295  1.00  0.00     0.251 C 
ATOM     25  H   UNL A   1      31.513  31.099  26.477  1.00  0.00     0.163 HD
ATOM     26  O   UNL A   1      32.899  32.765  27.596  1.00  0.00    -0.269 OA
BRANCH  24  27
ATOM     27  C   UNL A   1      34.629  31.182  27.639  1.00  0.00     0.039 A 
ATOM     28  C   UNL A   1      35.616  32.125  27.924  1.00  0.00     0.014 A 
ATOM     29  C   UNL A   1      34.869  29.823  27.824  1.00  0.00     0.014 A 
ATOM     30  C   UNL A   1      36.806  31.703  28.520  1.00  0.00     0.010 A 
ATOM     31  C   UNL A   1      35.977  29.429  28.553  1.00  0.00     0.010 A 
ATOM     32  C   UNL A   1      36.963  30.363  28.904  1.00  0.00    -0.014 A 
BRANCH  32  33
ATOM     33  C   UNL A   1      38.149  29.893  29.664  1.00  0.00     0.031 A 
ATOM     34  C   UNL A   1      38.360  30.370  31.077  1.00  0.00     0.074 A 
ATOM     35  C   UNL A   1      39.086  29.137  29.058  1.00  0.00     0.049 A 
ATOM     36  N   UNL A   1      39.391  30.204  31.864  1.00  0.00    -0.248 NA
ATOM     37  C   UNL A   1      37.294  31.203  31.660  1.00  0.00     0.031 C 
ATOM     38  C   UNL A   1      39.052  28.689  27.662  1.00  0.00     0.029 A 
ATOM     39  N   UNL A   1      40.262  28.616  29.539  1.00  0.00    -0.354 N 
ATOM     40  C   UNL A   1      39.118  30.953  33.001  1.00  0.00     0.074 A 
ATOM     41  C   UNL A   1      37.863  31.632  32.775  1.00  0.00     0.031 C 
ATOM     42  C   UNL A   1      40.127  27.924  27.417  1.00  0.00     0.029 A 
ATOM     43  C   UNL A   1      40.946  27.855  28.623  1.00  0.00     0.049 A 
ATOM     44  H   UNL A   1      40.584  28.774  30.456  1.00  0.00     0.167 HD
ATOM     45  C   UNL A   1      39.827  31.036  34.151  1.00  0.00     0.037 A 
ATOM     46  C   UNL A   1      42.099  27.172  28.750  1.00  0.00     0.037 A 
ATOM     47  C   UNL A   1      41.023  30.283  34.407  1.00  0.00     0.049 A 
ATOM     48  C   UNL A   1      42.815  27.194  30.073  1.00  0.00     0.074 A 
ATOM     49  C   UNL A   1      41.765  30.209  35.570  1.00  0.00     0.029 A 
ATOM     50  N   UNL A   1      41.637  29.450  33.482  1.00  0.00    -0.354 N 
ATOM     51  N   UNL A   1      42.508  27.845  31.169  1.00  0.00    -0.248 NA
ATOM     52  C   UNL A   1      44.031  26.375  30.182  1.00  0.00     0.031 C 
ATOM     53  C   UNL A   1      42.842  29.345  35.345  1.00  0.00     0.029 A 
ATOM     54  C   UNL A   1      42.751  28.857  34.051  1.00  0.00     0.049 A 
ATOM     55  H   UNL A   1      41.328  29.303  32.559  1.00  0.00     0.167 HD
ATOM     56  C   UNL A   1      43.474  27.498  32.102  1.00  0.00     0.074 A 
ATOM     57  C   UNL A   1      44.369  26.564  31.449  1.00  0.00     0.031 C 
ATOM     58  C   UNL A   1      43.613  27.917  33.384  1.00  0.00     0.037 A 
BRANCH  45  59
ATOM     59  C   UNL A   1      39.301  31.942  35.223  1.00  0.00     0.064 A 
ATOM     60  C   UNL A   1      39.604  33.313  35.243  1.00  0.00     0.173 A 
ATOM     61  C   UNL A   1      38.481  31.438  36.244  1.00  0.00     0.173 A 
ATOM     62  F   UNL A   1      40.399  33.842  34.300  1.00  0.00    -0.203 F 
ATOM     63  C   UNL A   1      39.141  34.135  36.266  1.00  0.00     0.198 A 
ATOM     64  C   UNL A   1      37.991  32.270  37.246  1.00  0.00     0.198 A 
ATOM     65  F   UNL A   1      38.159  30.136  36.271  1.00  0.00    -0.203 F 
ATOM     66  F   UNL A   1      39.500  35.426  36.298  1.00  0.00    -0.200 F 
ATOM     67  C   UNL A   1      38.331  33.615  37.262  1.00  0.00     0.200 A 
ATOM     68  F   UNL A   1      37.200  31.770  38.205  1.00  0.00    -0.200 F 
ATOM     69  F   UNL A   1      37.885  34.409  38.246  1.00  0.00    -0.200 F 
ENDBRANCH  45  59
BRANCH  46  70
ATOM     70  C   UNL A   1      42.614  26.360  27.617  1.00  0.00     0.064 A 
ATOM     71  C   UNL A   1      43.575  26.887  26.741  1.00  0.00     0.173 A 
ATOM     72  C   UNL A   1      42.162  25.055  27.382  1.00  0.00     0.173 A 
ATOM     73  F   UNL A   1      44.025  28.138  26.916  1.00  0.00    -0.203 F 
ATOM     74  C   UNL A   1      44.046  26.146  25.659  1.00  0.00     0.198 A 
ATOM     75  C   UNL A   1      42.652  24.306  26.312  1.00  0.00     0.198 A 
ATOM     76  F   UNL A   1      41.250  24.502  28.195  1.00  0.00    -0.203 F 
ATOM     77  F   UNL A   1      44.931  26.691  24.812  1.00  0.00    -0.200 F 
ATOM     78  C   UNL A   1      43.587  24.856  25.447  1.00  0.00     0.200 A 
ATOM     79  F   UNL A   1      42.215  23.054  26.118  1.00  0.00    -0.200 F 
ATOM     80  F   UNL A   1      44.040  24.144  24.406  1.00  0.00    -0.200 F 
ENDBRANCH  46  70
BRANCH  58  81
ATOM     81  C   UNL A   1      44.749  27.341  34.172  1.00  0.00     0.064 A 
ATOM     82  C   UNL A   1      44.614  26.139  34.879  1.00  0.00     0.173 A 
ATOM     83  C   UNL A   1      46.000  27.976  34.179  1.00  0.00     0.173 A 
ATOM     84  F   UNL A   1      43.432  25.505  34.912  1.00  0.00    -0.203 F 
ATOM     85  C   UNL A   1      45.687  25.602  35.584  1.00  0.00     0.198 A 
ATOM     86  C   UNL A   1      47.077  27.423  34.863  1.00  0.00     0.198 A 
ATOM     87  F   UNL A   1      46.178  29.126  33.511  1.00  0.00    -0.203 F 
ATOM     88  F   UNL A   1      45.527  24.472  36.286  1.00  0.00    -0.200 F 
ATOM     89  C   UNL A   1      46.919  26.240  35.569  1.00  0.00     0.200 A 
ATOM     90  F   UNL A   1      48.270  28.034  34.839  1.00  0.00    -0.200 F 
ATOM     91  F   UNL A   1      47.954  25.717  36.241  1.00  0.00    -0.200 F 
ENDBRANCH  58  81
ENDBRANCH  32  33
ENDBRANCH  24  27
ENDBRANCH  22  23
ENDBRANCH  21  22
ENDBRANCH  20  21
ENDBRANCH   1  20
TORSDOF 16
ENDMDL
