MODEL 1
REMARK VINA RESULT:     -11.7      0.000      0.000
REMARK SMILES CC[NH2+][C@]1(C(=O)NCCCCNC(=O)c2ccc(-c3c4nc(c(-c5c(F)c(F)c(F)c(F)c5F)c5ccc([nH]5)c(-c5c(F)c(F)c(F)c(F)c5F)c5nc(c(-c6c(F)c(F)c(F)c(F)c6F)c6ccc3[nH]6)C=C5)C=C4)cc2)CCC[C@@H]([N@@H+](C)CC2CCCC2)C1
REMARK SMILES IDX 9 1 8 2 7 3 5 4 6 5 4 7 78 8 90 9 79 10 81 11 80 12 3 13
REMARK SMILES IDX 2 16 1 17 82 18 83 19 84 21 85 22 86 23 89 24 87 25 88 26
REMARK SMILES IDX 10 27 11 28 12 29 13 30 14 32 15 33 16 34 77 35 17 36 76 37
REMARK SMILES IDX 18 38 19 39 20 40 70 41 21 42 75 43 69 44 71 45 22 46 74 47
REMARK SMILES IDX 68 48 67 49 23 51 55 52 35 53 54 54 36 55 39 56 53 57 72 58
REMARK SMILES IDX 37 59 38 60 52 62 73 63 40 64 24 65 25 66 33 67 26 68 27 69
REMARK SMILES IDX 31 70 34 71 28 72 29 73 32 74 30 75 56 76 57 77 65 78 58 79
REMARK SMILES IDX 59 80 63 81 66 82 60 83 61 84 64 85 62 86 41 87 42 88 50 89
REMARK SMILES IDX 43 90 44 91 48 92 51 93 45 94 46 95 49 96 47 97
REMARK H PARENT 7 6 3 14 3 15 82 20 12 31 71 50 39 61
REMARK Flexibility Score: inf
ROOT
ATOM      1  C   UNL A   1      31.875  30.727  25.885  1.00  0.00     0.023 C 
ENDROOT
BRANCH   1   2
ATOM      2  C   UNL A   1      32.993  29.688  26.000  1.00  0.00     0.116 C 
BRANCH   2   3
ATOM      3  N   UNL A   1      33.704  29.489  24.749  1.00  0.00    -0.351 N 
ATOM      4  C   UNL A   1      33.620  28.566  23.743  1.00  0.00     0.281 C 
ATOM      5  O   UNL A   1      34.426  28.765  22.827  1.00  0.00    -0.268 OA
ATOM      6  H   UNL A   1      34.398  30.169  24.590  1.00  0.00     0.163 HD
BRANCH   4   7
ATOM      7  C   UNL A   1      32.559  27.395  23.723  1.00  0.00     0.181 C 
ATOM      8  C   UNL A   1      32.567  26.714  22.333  1.00  0.00     0.079 C 
ATOM      9  C   UNL A   1      32.889  26.369  24.839  1.00  0.00     0.144 C 
ATOM     10  C   UNL A   1      31.659  25.491  22.247  1.00  0.00     0.013 C 
ATOM     11  C   UNL A   1      32.150  25.012  24.736  1.00  0.00     0.190 C 
ATOM     12  C   UNL A   1      32.099  24.482  23.293  1.00  0.00     0.065 C 
BRANCH   7  13
ATOM     13  N   UNL A   1      31.158  27.903  23.804  1.00  0.00    -0.334 N 
ATOM     14  H   UNL A   1      30.544  27.095  23.703  1.00  0.00     0.347 HD
ATOM     15  H   UNL A   1      31.136  28.397  24.696  1.00  0.00     0.347 HD
BRANCH  13  16
ATOM     16  C   UNL A   1      30.696  28.904  22.854  1.00  0.00     0.257 C 
ATOM     17  C   UNL A   1      29.191  28.697  22.695  1.00  0.00     0.071 C 
ENDBRANCH  13  16
ENDBRANCH   7  13
BRANCH  11  18
ATOM     18  N   UNL A   1      32.607  24.010  25.728  1.00  0.00    -0.334 N 
ATOM     19  C   UNL A   1      31.731  23.849  26.876  1.00  0.00     0.332 C 
ATOM     20  H   UNL A   1      33.431  24.541  26.008  1.00  0.00     0.348 HD
BRANCH  18  21
ATOM     21  C   UNL A   1      33.365  22.812  25.357  1.00  0.00     0.265 C 
BRANCH  21  22
ATOM     22  C   UNL A   1      34.881  22.778  25.042  1.00  0.00     0.044 C 
ATOM     23  C   UNL A   1      35.310  22.843  23.572  1.00  0.00     0.009 C 
ATOM     24  C   UNL A   1      35.760  23.846  25.667  1.00  0.00     0.009 C 
ATOM     25  C   UNL A   1      36.799  23.232  23.602  1.00  0.00     0.001 C 
ATOM     26  C   UNL A   1      37.122  23.609  25.044  1.00  0.00     0.001 C 
ENDBRANCH  21  22
ENDBRANCH  18  21
ENDBRANCH  11  18
ENDBRANCH   4   7
ENDBRANCH   2   3
ENDBRANCH   1   2
BRANCH   1  27
ATOM     27  C   UNL A   1      31.722  31.656  27.084  1.00  0.00     0.023 C 
BRANCH  27  28
ATOM     28  C   UNL A   1      32.889  32.599  27.327  1.00  0.00     0.116 C 
BRANCH  28  29
ATOM     29  N   UNL A   1      32.478  33.965  27.614  1.00  0.00    -0.352 N 
ATOM     30  C   UNL A   1      33.000  34.841  28.539  1.00  0.00     0.251 C 
ATOM     31  H   UNL A   1      31.728  34.309  27.077  1.00  0.00     0.163 HD
ATOM     32  O   UNL A   1      32.479  35.928  28.737  1.00  0.00    -0.269 OA
BRANCH  30  33
ATOM     33  C   UNL A   1      34.182  34.427  29.323  1.00  0.00     0.039 A 
ATOM     34  C   UNL A   1      33.990  33.787  30.550  1.00  0.00     0.014 A 
ATOM     35  C   UNL A   1      35.469  34.614  28.813  1.00  0.00     0.014 A 
ATOM     36  C   UNL A   1      35.090  33.259  31.229  1.00  0.00     0.010 A 
ATOM     37  C   UNL A   1      36.552  34.023  29.453  1.00  0.00     0.010 A 
ATOM     38  C   UNL A   1      36.372  33.336  30.663  1.00  0.00    -0.014 A 
BRANCH  38  39
ATOM     39  C   UNL A   1      37.548  32.705  31.311  1.00  0.00     0.031 A 
ATOM     40  C   UNL A   1      38.228  31.542  30.648  1.00  0.00     0.074 A 
ATOM     41  C   UNL A   1      37.937  33.113  32.535  1.00  0.00     0.049 A 
ATOM     42  N   UNL A   1      39.178  30.766  31.104  1.00  0.00    -0.248 NA
ATOM     43  C   UNL A   1      37.753  31.184  29.301  1.00  0.00     0.031 C 
ATOM     44  C   UNL A   1      37.327  34.201  33.300  1.00  0.00     0.029 A 
ATOM     45  N   UNL A   1      38.928  32.642  33.360  1.00  0.00    -0.354 N 
ATOM     46  C   UNL A   1      39.396  29.818  30.115  1.00  0.00     0.074 A 
ATOM     47  C   UNL A   1      38.448  30.084  29.054  1.00  0.00     0.031 C 
ATOM     48  C   UNL A   1      37.963  34.322  34.477  1.00  0.00     0.029 A 
ATOM     49  C   UNL A   1      38.998  33.296  34.567  1.00  0.00     0.049 A 
ATOM     50  H   UNL A   1      39.533  31.905  33.111  1.00  0.00     0.167 HD
ATOM     51  C   UNL A   1      40.316  28.827  30.086  1.00  0.00     0.037 A 
ATOM     52  C   UNL A   1      39.796  33.081  35.630  1.00  0.00     0.037 A 
ATOM     53  C   UNL A   1      41.279  28.588  31.128  1.00  0.00     0.049 A 
ATOM     54  C   UNL A   1      40.811  31.972  35.573  1.00  0.00     0.074 A 
ATOM     55  C   UNL A   1      42.298  27.654  31.164  1.00  0.00     0.029 A 
ATOM     56  N   UNL A   1      41.339  29.294  32.321  1.00  0.00    -0.354 N 
ATOM     57  N   UNL A   1      41.053  31.120  34.605  1.00  0.00    -0.248 NA
ATOM     58  C   UNL A   1      41.668  31.793  36.754  1.00  0.00     0.031 C 
ATOM     59  C   UNL A   1      42.951  27.766  32.395  1.00  0.00     0.029 A 
ATOM     60  C   UNL A   1      42.367  28.801  33.108  1.00  0.00     0.049 A 
ATOM     61  H   UNL A   1      40.740  30.034  32.571  1.00  0.00     0.167 HD
ATOM     62  C   UNL A   1      42.104  30.330  35.046  1.00  0.00     0.074 A 
ATOM     63  C   UNL A   1      42.460  30.805  36.366  1.00  0.00     0.031 C 
ATOM     64  C   UNL A   1      42.718  29.300  34.413  1.00  0.00     0.037 A 
BRANCH  51  65
ATOM     65  C   UNL A   1      40.331  27.927  28.885  1.00  0.00     0.064 A 
ATOM     66  C   UNL A   1      41.080  28.240  27.741  1.00  0.00     0.173 A 
ATOM     67  C   UNL A   1      39.615  26.721  28.891  1.00  0.00     0.173 A 
ATOM     68  F   UNL A   1      41.771  29.388  27.680  1.00  0.00    -0.203 F 
ATOM     69  C   UNL A   1      41.086  27.394  26.635  1.00  0.00     0.198 A 
ATOM     70  C   UNL A   1      39.648  25.862  27.796  1.00  0.00     0.198 A 
ATOM     71  F   UNL A   1      38.887  26.370  29.963  1.00  0.00    -0.203 F 
ATOM     72  F   UNL A   1      41.768  27.738  25.534  1.00  0.00    -0.200 F 
ATOM     73  C   UNL A   1      40.377  26.203  26.666  1.00  0.00     0.200 A 
ATOM     74  F   UNL A   1      38.972  24.705  27.832  1.00  0.00    -0.200 F 
ATOM     75  F   UNL A   1      40.391  25.386  25.604  1.00  0.00    -0.200 F 
ENDBRANCH  51  65
BRANCH  52  76
ATOM     76  C   UNL A   1      39.680  33.947  36.832  1.00  0.00     0.064 A 
ATOM     77  C   UNL A   1      38.871  33.570  37.912  1.00  0.00     0.173 A 
ATOM     78  C   UNL A   1      40.371  35.163  36.927  1.00  0.00     0.173 A 
ATOM     79  F   UNL A   1      38.175  32.425  37.858  1.00  0.00    -0.203 F 
ATOM     80  C   UNL A   1      38.742  34.385  39.035  1.00  0.00     0.198 A 
ATOM     81  C   UNL A   1      40.262  35.966  38.061  1.00  0.00     0.198 A 
ATOM     82  F   UNL A   1      41.162  35.568  35.922  1.00  0.00    -0.203 F 
ATOM     83  F   UNL A   1      37.928  34.021  40.034  1.00  0.00    -0.200 F 
ATOM     84  C   UNL A   1      39.442  35.580  39.111  1.00  0.00     0.200 A 
ATOM     85  F   UNL A   1      40.950  37.114  38.137  1.00  0.00    -0.200 F 
ATOM     86  F   UNL A   1      39.320  36.362  40.192  1.00  0.00    -0.200 F 
ENDBRANCH  52  76
BRANCH  64  87
ATOM     87  C   UNL A   1      43.868  28.643  35.116  1.00  0.00     0.064 A 
ATOM     88  C   UNL A   1      45.176  29.139  35.008  1.00  0.00     0.173 A 
ATOM     89  C   UNL A   1      43.648  27.544  35.960  1.00  0.00     0.173 A 
ATOM     90  F   UNL A   1      45.439  30.178  34.202  1.00  0.00    -0.203 F 
ATOM     91  C   UNL A   1      46.223  28.549  35.711  1.00  0.00     0.198 A 
ATOM     92  C   UNL A   1      44.691  26.974  36.682  1.00  0.00     0.198 A 
ATOM     93  F   UNL A   1      42.413  27.038  36.100  1.00  0.00    -0.203 F 
ATOM     94  F   UNL A   1      47.470  29.018  35.568  1.00  0.00    -0.200 F 
ATOM     95  C   UNL A   1      45.979  27.475  36.554  1.00  0.00     0.200 A 
ATOM     96  F   UNL A   1      44.451  25.945  37.506  1.00  0.00    -0.200 F 
ATOM     97  F   UNL A   1      46.985  26.918  37.241  1.00  0.00    -0.200 F 
ENDBRANCH  64  87
ENDBRANCH  38  39
ENDBRANCH  30  33
ENDBRANCH  28  29
ENDBRANCH  27  28
ENDBRANCH   1  27
TORSDOF 16
ENDMDL
MODEL 2
REMARK VINA RESULT:     -11.6      0.537      7.373
REMARK SMILES CC[NH2+][C@]1(C(=O)NCCCCNC(=O)c2ccc(-c3c4nc(c(-c5c(F)c(F)c(F)c(F)c5F)c5ccc([nH]5)c(-c5c(F)c(F)c(F)c(F)c5F)c5nc(c(-c6c(F)c(F)c(F)c(F)c6F)c6ccc3[nH]6)C=C5)C=C4)cc2)CCC[C@@H]([N@@H+](C)CC2CCCC2)C1
REMARK SMILES IDX 9 1 8 2 7 3 5 4 6 5 4 7 78 8 90 9 79 10 81 11 80 12 3 13
REMARK SMILES IDX 2 16 1 17 82 18 83 19 84 21 85 22 86 23 89 24 87 25 88 26
REMARK SMILES IDX 10 27 11 28 12 29 13 30 14 32 15 33 16 34 77 35 17 36 76 37
REMARK SMILES IDX 18 38 19 39 20 40 70 41 21 42 75 43 69 44 71 45 22 46 74 47
REMARK SMILES IDX 68 48 67 49 23 51 55 52 35 53 54 54 36 55 39 56 53 57 72 58
REMARK SMILES IDX 37 59 38 60 52 62 73 63 40 64 24 65 25 66 33 67 26 68 27 69
REMARK SMILES IDX 31 70 34 71 28 72 29 73 32 74 30 75 56 76 57 77 65 78 58 79
REMARK SMILES IDX 59 80 63 81 66 82 60 83 61 84 64 85 62 86 41 87 42 88 50 89
REMARK SMILES IDX 43 90 44 91 48 92 51 93 45 94 46 95 49 96 47 97
REMARK H PARENT 7 6 3 14 3 15 82 20 12 31 71 50 39 61
REMARK Flexibility Score: inf
ROOT
ATOM      1  C   UNL A   1      31.506  30.950  25.805  1.00  0.00     0.023 C 
ENDROOT
BRANCH   1   2
ATOM      2  C   UNL A   1      32.592  29.880  25.945  1.00  0.00     0.116 C 
BRANCH   2   3
ATOM      3  N   UNL A   1      33.374  29.713  24.731  1.00  0.00    -0.351 N 
ATOM      4  C   UNL A   1      33.386  28.786  23.727  1.00  0.00     0.281 C 
ATOM      5  O   UNL A   1      34.225  29.021  22.851  1.00  0.00    -0.268 OA
ATOM      6  H   UNL A   1      34.041  30.427  24.603  1.00  0.00     0.163 HD
BRANCH   4   7
ATOM      7  C   UNL A   1      32.385  27.564  23.660  1.00  0.00     0.181 C 
ATOM      8  C   UNL A   1      32.462  26.909  22.259  1.00  0.00     0.079 C 
ATOM      9  C   UNL A   1      32.738  26.536  24.767  1.00  0.00     0.144 C 
ATOM     10  C   UNL A   1      31.618  25.644  22.130  1.00  0.00     0.013 C 
ATOM     11  C   UNL A   1      32.071  25.145  24.622  1.00  0.00     0.190 C 
ATOM     12  C   UNL A   1      32.082  24.640  23.170  1.00  0.00     0.065 C 
BRANCH   7  13
ATOM     13  N   UNL A   1      30.959  28.000  23.713  1.00  0.00    -0.334 N 
ATOM     14  H   UNL A   1      30.389  27.169  23.557  1.00  0.00     0.347 HD
ATOM     15  H   UNL A   1      30.883  28.453  24.624  1.00  0.00     0.347 HD
BRANCH  13  16
ATOM     16  C   UNL A   1      30.480  29.018  22.791  1.00  0.00     0.257 C 
ATOM     17  C   UNL A   1      28.958  28.889  22.746  1.00  0.00     0.071 C 
ENDBRANCH  13  16
ENDBRANCH   7  13
BRANCH  11  18
ATOM     18  N   UNL A   1      32.553  24.150  25.608  1.00  0.00    -0.334 N 
ATOM     19  C   UNL A   1      31.747  24.050  26.813  1.00  0.00     0.332 C 
ATOM     20  H   UNL A   1      33.413  24.654  25.822  1.00  0.00     0.348 HD
BRANCH  18  21
ATOM     21  C   UNL A   1      33.240  22.914  25.221  1.00  0.00     0.265 C 
BRANCH  21  22
ATOM     22  C   UNL A   1      34.760  22.786  24.952  1.00  0.00     0.044 C 
ATOM     23  C   UNL A   1      35.243  22.883  23.502  1.00  0.00     0.009 C 
ATOM     24  C   UNL A   1      35.689  23.760  25.653  1.00  0.00     0.009 C 
ATOM     25  C   UNL A   1      36.754  23.163  23.596  1.00  0.00     0.001 C 
ATOM     26  C   UNL A   1      37.052  23.453  25.063  1.00  0.00     0.001 C 
ENDBRANCH  21  22
ENDBRANCH  18  21
ENDBRANCH  11  18
ENDBRANCH   4   7
ENDBRANCH   2   3
ENDBRANCH   1   2
BRANCH   1  27
ATOM     27  C   UNL A   1      31.413  31.940  26.961  1.00  0.00     0.023 C 
BRANCH  27  28
ATOM     28  C   UNL A   1      32.670  32.756  27.218  1.00  0.00     0.116 C 
BRANCH  28  29
ATOM     29  N   UNL A   1      32.397  34.142  27.567  1.00  0.00    -0.352 N 
ATOM     30  C   UNL A   1      32.998  34.918  28.532  1.00  0.00     0.251 C 
ATOM     31  H   UNL A   1      31.689  34.585  27.044  1.00  0.00     0.163 HD
ATOM     32  O   UNL A   1      32.587  36.042  28.779  1.00  0.00    -0.269 OA
BRANCH  30  33
ATOM     33  C   UNL A   1      34.127  34.352  29.299  1.00  0.00     0.039 A 
ATOM     34  C   UNL A   1      33.856  33.590  30.438  1.00  0.00     0.014 A 
ATOM     35  C   UNL A   1      35.439  34.522  28.854  1.00  0.00     0.014 A 
ATOM     36  C   UNL A   1      34.900  32.927  31.086  1.00  0.00     0.010 A 
ATOM     37  C   UNL A   1      36.465  33.802  29.454  1.00  0.00     0.010 A 
ATOM     38  C   UNL A   1      36.204  32.993  30.571  1.00  0.00    -0.014 A 
BRANCH  38  39
ATOM     39  C   UNL A   1      37.321  32.228  31.179  1.00  0.00     0.031 A 
ATOM     40  C   UNL A   1      37.827  32.606  32.541  1.00  0.00     0.074 A 
ATOM     41  C   UNL A   1      37.938  31.265  30.467  1.00  0.00     0.049 A 
ATOM     42  N   UNL A   1      38.872  32.161  33.190  1.00  0.00    -0.248 NA
ATOM     43  C   UNL A   1      37.075  33.650  33.255  1.00  0.00     0.031 C 
ATOM     44  C   UNL A   1      37.567  30.840  29.116  1.00  0.00     0.029 A 
ATOM     45  N   UNL A   1      39.025  30.485  30.774  1.00  0.00    -0.354 N 
ATOM     46  C   UNL A   1      38.915  32.884  34.374  1.00  0.00     0.074 A 
ATOM     47  C   UNL A   1      37.822  33.831  34.333  1.00  0.00     0.031 C 
ATOM     48  C   UNL A   1      38.404  29.868  28.716  1.00  0.00     0.029 A 
ATOM     49  C   UNL A   1      39.394  29.631  29.762  1.00  0.00     0.049 A 
ATOM     50  H   UNL A   1      39.497  30.533  31.637  1.00  0.00     0.167 HD
ATOM     51  C   UNL A   1      39.777  32.756  35.409  1.00  0.00     0.037 A 
ATOM     52  C   UNL A   1      40.425  28.767  29.684  1.00  0.00     0.037 A 
ATOM     53  C   UNL A   1      40.842  31.789  35.458  1.00  0.00     0.049 A 
ATOM     54  C   UNL A   1      41.370  28.644  30.848  1.00  0.00     0.074 A 
ATOM     55  C   UNL A   1      41.727  31.533  36.489  1.00  0.00     0.029 A 
ATOM     56  N   UNL A   1      41.163  30.919  34.427  1.00  0.00    -0.354 N 
ATOM     57  N   UNL A   1      41.363  29.288  31.991  1.00  0.00    -0.248 NA
ATOM     58  C   UNL A   1      42.465  27.673  30.715  1.00  0.00     0.031 C 
ATOM     59  C   UNL A   1      42.611  30.535  36.068  1.00  0.00     0.029 A 
ATOM     60  C   UNL A   1      42.247  30.137  34.792  1.00  0.00     0.049 A 
ATOM     61  H   UNL A   1      40.692  30.865  33.565  1.00  0.00     0.167 HD
ATOM     62  C   UNL A   1      42.428  28.781  32.721  1.00  0.00     0.074 A 
ATOM     63  C   UNL A   1      43.057  27.770  31.897  1.00  0.00     0.031 C 
ATOM     64  C   UNL A   1      42.848  29.123  33.964  1.00  0.00     0.037 A 
BRANCH  51  65
ATOM     65  C   UNL A   1      39.603  33.682  36.577  1.00  0.00     0.064 A 
ATOM     66  C   UNL A   1      38.828  33.323  37.690  1.00  0.00     0.173 A 
ATOM     67  C   UNL A   1      40.244  34.929  36.599  1.00  0.00     0.173 A 
ATOM     68  F   UNL A   1      38.183  32.147  37.712  1.00  0.00    -0.203 F 
ATOM     69  C   UNL A   1      38.677  34.190  38.768  1.00  0.00     0.198 A 
ATOM     70  C   UNL A   1      40.117  35.782  37.692  1.00  0.00     0.198 A 
ATOM     71  F   UNL A   1      41.002  35.319  35.562  1.00  0.00    -0.203 F 
ATOM     72  F   UNL A   1      37.892  33.846  39.798  1.00  0.00    -0.200 F 
ATOM     73  C   UNL A   1      39.328  35.415  38.772  1.00  0.00     0.200 A 
ATOM     74  F   UNL A   1      40.756  36.960  37.700  1.00  0.00    -0.200 F 
ATOM     75  F   UNL A   1      39.188  36.246  39.814  1.00  0.00    -0.200 F 
ENDBRANCH  51  65
BRANCH  52  76
ATOM     76  C   UNL A   1      40.605  27.935  28.466  1.00  0.00     0.064 A 
ATOM     77  C   UNL A   1      40.013  26.669  28.368  1.00  0.00     0.173 A 
ATOM     78  C   UNL A   1      41.369  28.385  27.379  1.00  0.00     0.173 A 
ATOM     79  F   UNL A   1      39.291  26.188  29.391  1.00  0.00    -0.203 F 
ATOM     80  C   UNL A   1      40.193  25.875  27.237  1.00  0.00     0.198 A 
ATOM     81  C   UNL A   1      41.527  27.601  26.237  1.00  0.00     0.198 A 
ATOM     82  F   UNL A   1      41.953  29.592  27.421  1.00  0.00    -0.203 F 
ATOM     83  F   UNL A   1      39.652  24.651  27.188  1.00  0.00    -0.200 F 
ATOM     84  C   UNL A   1      40.945  26.344  26.170  1.00  0.00     0.200 A 
ATOM     85  F   UNL A   1      42.243  28.062  25.203  1.00  0.00    -0.200 F 
ATOM     86  F   UNL A   1      41.115  25.581  25.082  1.00  0.00    -0.200 F 
ENDBRANCH  52  76
BRANCH  64  87
ATOM     87  C   UNL A   1      44.015  28.372  34.531  1.00  0.00     0.064 A 
ATOM     88  C   UNL A   1      43.846  27.161  35.219  1.00  0.00     0.173 A 
ATOM     89  C   UNL A   1      45.323  28.836  34.326  1.00  0.00     0.173 A 
ATOM     90  F   UNL A   1      42.614  26.684  35.453  1.00  0.00    -0.203 F 
ATOM     91  C   UNL A   1      44.945  26.449  35.692  1.00  0.00     0.198 A 
ATOM     92  C   UNL A   1      46.420  28.109  34.776  1.00  0.00     0.198 A 
ATOM     93  F   UNL A   1      45.536  29.987  33.669  1.00  0.00    -0.203 F 
ATOM     94  F   UNL A   1      44.760  25.312  36.375  1.00  0.00    -0.200 F 
ATOM     95  C   UNL A   1      46.230  26.918  35.461  1.00  0.00     0.200 A 
ATOM     96  F   UNL A   1      47.662  28.557  34.541  1.00  0.00    -0.200 F 
ATOM     97  F   UNL A   1      47.287  26.224  35.904  1.00  0.00    -0.200 F 
ENDBRANCH  64  87
ENDBRANCH  38  39
ENDBRANCH  30  33
ENDBRANCH  28  29
ENDBRANCH  27  28
ENDBRANCH   1  27
TORSDOF 16
ENDMDL
MODEL 3
REMARK VINA RESULT:     -11.6      0.208      1.597
REMARK SMILES CC[NH2+][C@]1(C(=O)NCCCCNC(=O)c2ccc(-c3c4nc(c(-c5c(F)c(F)c(F)c(F)c5F)c5ccc([nH]5)c(-c5c(F)c(F)c(F)c(F)c5F)c5nc(c(-c6c(F)c(F)c(F)c(F)c6F)c6ccc3[nH]6)C=C5)C=C4)cc2)CCC[C@@H]([N@@H+](C)CC2CCCC2)C1
REMARK SMILES IDX 9 1 8 2 7 3 5 4 6 5 4 7 78 8 90 9 79 10 81 11 80 12 3 13
REMARK SMILES IDX 2 16 1 17 82 18 83 19 84 21 85 22 86 23 89 24 87 25 88 26
REMARK SMILES IDX 10 27 11 28 12 29 13 30 14 32 15 33 16 34 77 35 17 36 76 37
REMARK SMILES IDX 18 38 19 39 20 40 70 41 21 42 75 43 69 44 71 45 22 46 74 47
REMARK SMILES IDX 68 48 67 49 23 51 55 52 35 53 54 54 36 55 39 56 53 57 72 58
REMARK SMILES IDX 37 59 38 60 52 62 73 63 40 64 24 65 25 66 33 67 26 68 27 69
REMARK SMILES IDX 31 70 34 71 28 72 29 73 32 74 30 75 56 76 57 77 65 78 58 79
REMARK SMILES IDX 59 80 63 81 66 82 60 83 61 84 64 85 62 86 41 87 42 88 50 89
REMARK SMILES IDX 43 90 44 91 48 92 51 93 45 94 46 95 49 96 47 97
REMARK H PARENT 7 6 3 14 3 15 82 20 12 31 71 50 39 61
REMARK Flexibility Score: inf
ROOT
ATOM      1  C   UNL A   1      31.824  30.724  26.038  1.00  0.00     0.023 C 
ENDROOT
BRANCH   1   2
ATOM      2  C   UNL A   1      32.911  29.649  26.113  1.00  0.00     0.116 C 
BRANCH   2   3
ATOM      3  N   UNL A   1      33.634  29.495  24.862  1.00  0.00    -0.351 N 
ATOM      4  C   UNL A   1      33.566  28.605  23.826  1.00  0.00     0.281 C 
ATOM      5  O   UNL A   1      34.378  28.838  22.924  1.00  0.00    -0.268 OA
ATOM      6  H   UNL A   1      34.325  30.184  24.731  1.00  0.00     0.163 HD
BRANCH   4   7
ATOM      7  C   UNL A   1      32.513  27.428  23.759  1.00  0.00     0.181 C 
ATOM      8  C   UNL A   1      32.567  26.765  22.361  1.00  0.00     0.079 C 
ATOM      9  C   UNL A   1      32.815  26.390  24.872  1.00  0.00     0.144 C 
ATOM     10  C   UNL A   1      31.669  25.538  22.232  1.00  0.00     0.013 C 
ATOM     11  C   UNL A   1      32.088  25.029  24.729  1.00  0.00     0.190 C 
ATOM     12  C   UNL A   1      32.083  24.518  23.278  1.00  0.00     0.065 C 
BRANCH   7  13
ATOM     13  N   UNL A   1      31.107  27.927  23.804  1.00  0.00    -0.334 N 
ATOM     14  H   UNL A   1      30.502  27.124  23.633  1.00  0.00     0.347 HD
ATOM     15  H   UNL A   1      31.042  28.373  24.719  1.00  0.00     0.347 HD
BRANCH  13  16
ATOM     16  C   UNL A   1      30.683  28.975  22.888  1.00  0.00     0.257 C 
ATOM     17  C   UNL A   1      29.181  28.792  22.676  1.00  0.00     0.071 C 
ENDBRANCH  13  16
ENDBRANCH   7  13
BRANCH  11  18
ATOM     18  N   UNL A   1      32.520  24.018  25.721  1.00  0.00    -0.334 N 
ATOM     19  C   UNL A   1      31.593  23.809  26.819  1.00  0.00     0.332 C 
ATOM     20  H   UNL A   1      33.315  24.563  26.054  1.00  0.00     0.348 HD
BRANCH  18  21
ATOM     21  C   UNL A   1      33.327  22.847  25.364  1.00  0.00     0.265 C 
BRANCH  21  22
ATOM     22  C   UNL A   1      34.875  22.794  25.377  1.00  0.00     0.044 C 
ATOM     23  C   UNL A   1      35.579  22.073  24.223  1.00  0.00     0.009 C 
ATOM     24  C   UNL A   1      35.630  24.109  25.426  1.00  0.00     0.009 C 
ATOM     25  C   UNL A   1      37.039  22.558  24.273  1.00  0.00     0.001 C 
ATOM     26  C   UNL A   1      37.083  23.701  25.281  1.00  0.00     0.001 C 
ENDBRANCH  21  22
ENDBRANCH  18  21
ENDBRANCH  11  18
ENDBRANCH   4   7
ENDBRANCH   2   3
ENDBRANCH   1   2
BRANCH   1  27
ATOM     27  C   UNL A   1      31.768  31.678  27.226  1.00  0.00     0.023 C 
BRANCH  27  28
ATOM     28  C   UNL A   1      32.921  32.664  27.321  1.00  0.00     0.116 C 
BRANCH  28  29
ATOM     29  N   UNL A   1      32.495  34.024  27.616  1.00  0.00    -0.352 N 
ATOM     30  C   UNL A   1      33.001  34.896  28.553  1.00  0.00     0.251 C 
ATOM     31  H   UNL A   1      31.747  34.366  27.075  1.00  0.00     0.163 HD
ATOM     32  O   UNL A   1      32.468  35.977  28.756  1.00  0.00    -0.269 OA
BRANCH  30  33
ATOM     33  C   UNL A   1      34.179  34.486  29.346  1.00  0.00     0.039 A 
ATOM     34  C   UNL A   1      33.981  33.896  30.596  1.00  0.00     0.014 A 
ATOM     35  C   UNL A   1      35.466  34.626  28.822  1.00  0.00     0.014 A 
ATOM     36  C   UNL A   1      35.073  33.370  31.289  1.00  0.00     0.010 A 
ATOM     37  C   UNL A   1      36.540  34.035  29.476  1.00  0.00     0.010 A 
ATOM     38  C   UNL A   1      36.353  33.397  30.712  1.00  0.00    -0.014 A 
BRANCH  38  39
ATOM     39  C   UNL A   1      37.520  32.765  31.377  1.00  0.00     0.031 A 
ATOM     40  C   UNL A   1      38.201  31.595  30.728  1.00  0.00     0.074 A 
ATOM     41  C   UNL A   1      37.899  33.179  32.601  1.00  0.00     0.049 A 
ATOM     42  N   UNL A   1      39.142  30.817  31.199  1.00  0.00    -0.248 NA
ATOM     43  C   UNL A   1      37.738  31.230  29.379  1.00  0.00     0.031 C 
ATOM     44  C   UNL A   1      37.285  34.276  33.353  1.00  0.00     0.029 A 
ATOM     45  N   UNL A   1      38.879  32.710  33.439  1.00  0.00    -0.354 N 
ATOM     46  C   UNL A   1      39.366  29.862  30.218  1.00  0.00     0.074 A 
ATOM     47  C   UNL A   1      38.430  30.125  29.146  1.00  0.00     0.031 C 
ATOM     48  C   UNL A   1      37.911  34.402  34.535  1.00  0.00     0.029 A 
ATOM     49  C   UNL A   1      38.939  33.372  34.642  1.00  0.00     0.049 A 
ATOM     50  H   UNL A   1      39.482  31.968  33.202  1.00  0.00     0.167 HD
ATOM     51  C   UNL A   1      40.282  28.866  30.205  1.00  0.00     0.037 A 
ATOM     52  C   UNL A   1      39.726  33.159  35.715  1.00  0.00     0.037 A 
ATOM     53  C   UNL A   1      41.233  28.630  31.259  1.00  0.00     0.049 A 
ATOM     54  C   UNL A   1      40.736  32.045  35.676  1.00  0.00     0.074 A 
ATOM     55  C   UNL A   1      42.247  27.691  31.311  1.00  0.00     0.029 A 
ATOM     56  N   UNL A   1      41.284  29.343  32.448  1.00  0.00    -0.354 N 
ATOM     57  N   UNL A   1      40.983  31.186  34.716  1.00  0.00    -0.248 NA
ATOM     58  C   UNL A   1      41.580  31.871  36.867  1.00  0.00     0.031 C 
ATOM     59  C   UNL A   1      42.887  27.808  32.548  1.00  0.00     0.029 A 
ATOM     60  C   UNL A   1      42.302  28.851  33.248  1.00  0.00     0.049 A 
ATOM     61  H   UNL A   1      40.686  30.087  32.686  1.00  0.00     0.167 HD
ATOM     62  C   UNL A   1      42.026  30.393  35.173  1.00  0.00     0.074 A 
ATOM     63  C   UNL A   1      42.372  30.876  36.494  1.00  0.00     0.031 C 
ATOM     64  C   UNL A   1      42.642  29.357  34.553  1.00  0.00     0.037 A 
BRANCH  51  65
ATOM     65  C   UNL A   1      40.304  27.958  29.011  1.00  0.00     0.064 A 
ATOM     66  C   UNL A   1      39.569  26.762  28.983  1.00  0.00     0.173 A 
ATOM     67  C   UNL A   1      41.041  28.302  27.868  1.00  0.00     0.173 A 
ATOM     68  F   UNL A   1      38.859  26.381  30.055  1.00  0.00    -0.203 F 
ATOM     69  C   UNL A   1      39.596  25.931  27.867  1.00  0.00     0.198 A 
ATOM     70  C   UNL A   1      41.041  27.483  26.742  1.00  0.00     0.198 A 
ATOM     71  F   UNL A   1      41.756  29.437  27.840  1.00  0.00    -0.203 F 
ATOM     72  F   UNL A   1      38.927  24.770  27.882  1.00  0.00    -0.200 F 
ATOM     73  C   UNL A   1      40.326  26.295  26.745  1.00  0.00     0.200 A 
ATOM     74  F   UNL A   1      41.736  27.843  25.654  1.00  0.00    -0.200 F 
ATOM     75  F   UNL A   1      40.344  25.497  25.668  1.00  0.00    -0.200 F 
ENDBRANCH  51  65
BRANCH  52  76
ATOM     76  C   UNL A   1      39.602  34.034  36.910  1.00  0.00     0.064 A 
ATOM     77  C   UNL A   1      38.814  33.648  38.002  1.00  0.00     0.173 A 
ATOM     78  C   UNL A   1      40.264  35.268  36.987  1.00  0.00     0.173 A 
ATOM     79  F   UNL A   1      38.145  32.486  37.967  1.00  0.00    -0.203 F 
ATOM     80  C   UNL A   1      38.677  34.471  39.119  1.00  0.00     0.198 A 
ATOM     81  C   UNL A   1      40.148  36.079  38.114  1.00  0.00     0.198 A 
ATOM     82  F   UNL A   1      41.034  35.681  35.969  1.00  0.00    -0.203 F 
ATOM     83  F   UNL A   1      37.883  34.097  40.131  1.00  0.00    -0.200 F 
ATOM     84  C   UNL A   1      39.349  35.683  39.176  1.00  0.00     0.200 A 
ATOM     85  F   UNL A   1      40.809  37.243  38.171  1.00  0.00    -0.200 F 
ATOM     86  F   UNL A   1      39.220  36.472  40.251  1.00  0.00    -0.200 F 
ENDBRANCH  52  76
BRANCH  64  87
ATOM     87  C   UNL A   1      43.782  28.699  35.272  1.00  0.00     0.064 A 
ATOM     88  C   UNL A   1      43.578  27.615  36.138  1.00  0.00     0.173 A 
ATOM     89  C   UNL A   1      45.101  29.118  35.039  1.00  0.00     0.173 A 
ATOM     90  F   UNL A   1      42.335  27.188  36.403  1.00  0.00    -0.203 F 
ATOM     91  C   UNL A   1      44.654  26.982  36.755  1.00  0.00     0.198 A 
ATOM     92  C   UNL A   1      46.175  28.467  35.636  1.00  0.00     0.198 A 
ATOM     93  F   UNL A   1      45.347  30.148  34.214  1.00  0.00    -0.203 F 
ATOM     94  F   UNL A   1      44.435  25.970  37.604  1.00  0.00    -0.200 F 
ATOM     95  C   UNL A   1      45.951  27.401  36.496  1.00  0.00     0.200 A 
ATOM     96  F   UNL A   1      47.428  28.865  35.374  1.00  0.00    -0.200 F 
ATOM     97  F   UNL A   1      46.986  26.782  37.079  1.00  0.00    -0.200 F 
ENDBRANCH  64  87
ENDBRANCH  38  39
ENDBRANCH  30  33
ENDBRANCH  28  29
ENDBRANCH  27  28
ENDBRANCH   1  27
TORSDOF 16
ENDMDL
