MODEL 1
REMARK VINA RESULT:     -12.8      0.000      0.000
REMARK SMILES COc1ccc(-c2c(C)n[nH]c2C)c(C(=O)NCCCCNC(=O)c2ccc(-c3c4nc(c(-c5c(F)c(F)c(F)c(F)c5F)c5ccc([nH]5)c(-c5c(F)c(F)c(F)c(F)c5F)c5nc(c(-c6c(F)c(F)c(F)c(F)c6F)c6ccc3[nH]6)C=C5)C=C4)cc2)c1
REMARK SMILES IDX 20 1 19 2 18 3 17 4 15 5 16 6 14 8 3 9 4 10 88 11 5 12 6 13
REMARK SMILES IDX 2 14 1 15 7 16 8 17 12 18 9 19 10 20 11 21 13 22 21 24 22 25
REMARK SMILES IDX 23 26 24 28 25 29 26 30 87 31 27 32 86 33 28 34 29 35 30 36
REMARK SMILES IDX 80 37 31 38 85 39 79 40 81 41 32 42 84 43 78 44 77 45 33 47
REMARK SMILES IDX 65 48 45 49 64 50 46 51 49 52 63 53 82 54 47 55 48 56 62 58
REMARK SMILES IDX 83 59 50 60 34 61 35 62 43 63 36 64 37 65 41 66 44 67 38 68
REMARK SMILES IDX 39 69 42 70 40 71 66 72 67 73 75 74 68 75 69 76 73 77 76 78
REMARK SMILES IDX 70 79 71 80 74 81 72 82 51 83 52 84 60 85 53 86 54 87 58 88
REMARK SMILES IDX 61 89 55 90 56 91 59 92 57 93
REMARK H PARENT 17 7 11 23 22 27 81 46 49 57
REMARK Flexibility Score: inf
ROOT
ATOM      1  C   UNL A   1      31.635  31.726  27.077  1.00  0.00     0.023 C 
ENDROOT
BRANCH   1   2
ATOM      2  C   UNL A   1      31.661  30.851  25.831  1.00  0.00     0.023 C 
BRANCH   2   3
ATOM      3  C   UNL A   1      32.731  29.768  25.764  1.00  0.00     0.116 C 
BRANCH   3   4
ATOM      4  N   UNL A   1      33.357  29.579  24.466  1.00  0.00    -0.352 N 
ATOM      5  C   UNL A   1      32.879  29.011  23.296  1.00  0.00     0.252 C 
ATOM      6  O   UNL A   1      33.573  29.122  22.290  1.00  0.00    -0.269 OA
ATOM      7  H   UNL A   1      34.283  29.912  24.408  1.00  0.00     0.163 HD
BRANCH   5   8
ATOM      8  C   UNL A   1      31.583  28.268  23.271  1.00  0.00     0.051 A 
ATOM      9  C   UNL A   1      29.149  28.388  23.159  1.00  0.00     0.119 A 
ATOM     10  C   UNL A   1      29.068  27.050  23.531  1.00  0.00     0.047 A 
ATOM     11  C   UNL A   1      30.403  28.968  22.972  1.00  0.00     0.060 A 
ATOM     12  C   UNL A   1      30.231  26.297  23.686  1.00  0.00     0.013 A 
ATOM     13  C   UNL A   1      31.499  26.887  23.534  1.00  0.00    -0.002 A 
BRANCH   9  14
ATOM     14  O   UNL A   1      27.951  29.028  23.001  1.00  0.00    -0.497 OA
ATOM     15  C   UNL A   1      27.918  30.074  22.033  1.00  0.00     0.278 C 
ENDBRANCH   9  14
BRANCH  13  16
ATOM     16  C   UNL A   1      32.630  25.980  23.470  1.00  0.00     0.026 A 
ATOM     17  C   UNL A   1      33.166  25.338  22.317  1.00  0.00     0.067 A 
ATOM     18  C   UNL A   1      33.368  25.488  24.526  1.00  0.00     0.040 A 
ATOM     19  C   UNL A   1      32.723  25.488  20.908  1.00  0.00     0.069 C 
ATOM     20  N   UNL A   1      34.166  24.508  22.631  1.00  0.00    -0.180 NA
ATOM     21  N   UNL A   1      34.296  24.655  23.958  1.00  0.00    -0.282 N 
ATOM     22  C   UNL A   1      33.321  25.714  25.986  1.00  0.00     0.067 C 
ATOM     23  H   UNL A   1      35.000  24.203  24.479  1.00  0.00     0.190 HD
ENDBRANCH  13  16
ENDBRANCH   5   8
ENDBRANCH   3   4
ENDBRANCH   2   3
ENDBRANCH   1   2
BRANCH   1  24
ATOM     24  C   UNL A   1      32.808  32.680  27.264  1.00  0.00     0.116 C 
BRANCH  24  25
ATOM     25  N   UNL A   1      32.423  34.034  27.633  1.00  0.00    -0.352 N 
ATOM     26  C   UNL A   1      32.983  34.896  28.550  1.00  0.00     0.251 C 
ATOM     27  H   UNL A   1      31.640  34.389  27.153  1.00  0.00     0.163 HD
ATOM     28  O   UNL A   1      32.469  35.988  28.756  1.00  0.00    -0.269 OA
BRANCH  26  29
ATOM     29  C   UNL A   1      34.174  34.484  29.326  1.00  0.00     0.039 A 
ATOM     30  C   UNL A   1      33.990  33.973  30.615  1.00  0.00     0.014 A 
ATOM     31  C   UNL A   1      35.458  34.568  28.785  1.00  0.00     0.014 A 
ATOM     32  C   UNL A   1      35.081  33.456  31.318  1.00  0.00     0.010 A 
ATOM     33  C   UNL A   1      36.528  33.976  29.450  1.00  0.00     0.010 A 
ATOM     34  C   UNL A   1      36.350  33.405  30.719  1.00  0.00    -0.014 A 
BRANCH  34  35
ATOM     35  C   UNL A   1      37.498  32.747  31.393  1.00  0.00     0.031 A 
ATOM     36  C   UNL A   1      38.191  31.584  30.743  1.00  0.00     0.074 A 
ATOM     37  C   UNL A   1      37.860  33.138  32.630  1.00  0.00     0.049 A 
ATOM     38  N   UNL A   1      39.147  30.821  31.209  1.00  0.00    -0.248 NA
ATOM     39  C   UNL A   1      37.721  31.205  29.401  1.00  0.00     0.031 C 
ATOM     40  C   UNL A   1      37.224  34.210  33.398  1.00  0.00     0.029 A 
ATOM     41  N   UNL A   1      38.838  32.664  33.468  1.00  0.00    -0.354 N 
ATOM     42  C   UNL A   1      39.379  29.865  30.229  1.00  0.00     0.074 A 
ATOM     43  C   UNL A   1      38.424  30.107  29.169  1.00  0.00     0.031 C 
ATOM     44  C   UNL A   1      37.837  34.322  34.586  1.00  0.00     0.029 A 
ATOM     45  C   UNL A   1      38.885  33.311  34.679  1.00  0.00     0.049 A 
ATOM     46  H   UNL A   1      39.449  31.931  33.225  1.00  0.00     0.167 HD
ATOM     47  C   UNL A   1      40.319  28.890  30.203  1.00  0.00     0.037 A 
ATOM     48  C   UNL A   1      39.678  33.106  35.748  1.00  0.00     0.037 A 
ATOM     49  C   UNL A   1      41.282  28.666  31.248  1.00  0.00     0.049 A 
ATOM     50  C   UNL A   1      40.727  32.030  35.691  1.00  0.00     0.074 A 
ATOM     51  C   UNL A   1      42.317  27.747  31.288  1.00  0.00     0.029 A 
ATOM     52  N   UNL A   1      41.326  29.369  32.444  1.00  0.00    -0.354 N 
ATOM     53  N   UNL A   1      40.988  31.180  34.728  1.00  0.00    -0.248 NA
ATOM     54  C   UNL A   1      41.601  31.893  36.865  1.00  0.00     0.031 C 
ATOM     55  C   UNL A   1      42.962  27.868  32.524  1.00  0.00     0.029 A 
ATOM     56  C   UNL A   1      42.358  28.893  33.236  1.00  0.00     0.049 A 
ATOM     57  H   UNL A   1      40.714  30.099  32.692  1.00  0.00     0.167 HD
ATOM     58  C   UNL A   1      42.063  30.422  35.168  1.00  0.00     0.074 A 
ATOM     59  C   UNL A   1      42.418  30.923  36.480  1.00  0.00     0.031 C 
ATOM     60  C   UNL A   1      42.698  29.401  34.541  1.00  0.00     0.037 A 
BRANCH  47  61
ATOM     61  C   UNL A   1      40.346  27.997  28.996  1.00  0.00     0.064 A 
ATOM     62  C   UNL A   1      41.090  28.329  27.852  1.00  0.00     0.173 A 
ATOM     63  C   UNL A   1      39.623  26.795  28.979  1.00  0.00     0.173 A 
ATOM     64  F   UNL A   1      41.790  29.474  27.811  1.00  0.00    -0.203 F 
ATOM     65  C   UNL A   1      41.074  27.515  26.724  1.00  0.00     0.198 A 
ATOM     66  C   UNL A   1      39.636  25.966  27.860  1.00  0.00     0.198 A 
ATOM     67  F   UNL A   1      38.900  26.426  30.047  1.00  0.00    -0.203 F 
ATOM     68  F   UNL A   1      41.741  27.887  25.622  1.00  0.00    -0.200 F 
ATOM     69  C   UNL A   1      40.351  26.332  26.730  1.00  0.00     0.200 A 
ATOM     70  F   UNL A   1      38.946  24.818  27.872  1.00  0.00    -0.200 F 
ATOM     71  F   UNL A   1      40.334  25.550  25.641  1.00  0.00    -0.200 F 
ENDBRANCH  47  61
BRANCH  48  72
ATOM     72  C   UNL A   1      39.522  33.963  36.952  1.00  0.00     0.064 A 
ATOM     73  C   UNL A   1      40.107  35.235  37.008  1.00  0.00     0.173 A 
ATOM     74  C   UNL A   1      38.765  33.542  38.054  1.00  0.00     0.173 A 
ATOM     75  F   UNL A   1      40.857  35.673  35.985  1.00  0.00    -0.203 F 
ATOM     76  C   UNL A   1      39.948  36.051  38.126  1.00  0.00     0.198 A 
ATOM     77  C   UNL A   1      38.586  34.369  39.162  1.00  0.00     0.198 A 
ATOM     78  F   UNL A   1      38.179  32.336  38.044  1.00  0.00    -0.203 F 
ATOM     79  F   UNL A   1      40.544  37.251  38.168  1.00  0.00    -0.200 F 
ATOM     80  C   UNL A   1      39.182  35.621  39.199  1.00  0.00     0.200 A 
ATOM     81  F   UNL A   1      37.832  33.955  40.189  1.00  0.00    -0.200 F 
ATOM     82  F   UNL A   1      39.020  36.410  40.268  1.00  0.00    -0.200 F 
ENDBRANCH  48  72
BRANCH  60  83
ATOM     83  C   UNL A   1      43.857  28.771  35.256  1.00  0.00     0.064 A 
ATOM     84  C   UNL A   1      43.681  27.679  36.119  1.00  0.00     0.173 A 
ATOM     85  C   UNL A   1      45.163  29.237  35.041  1.00  0.00     0.173 A 
ATOM     86  F   UNL A   1      42.451  27.207  36.369  1.00  0.00    -0.203 F 
ATOM     87  C   UNL A   1      44.770  27.091  36.758  1.00  0.00     0.198 A 
ATOM     88  C   UNL A   1      46.251  28.630  35.661  1.00  0.00     0.198 A 
ATOM     89  F   UNL A   1      45.384  30.276  34.221  1.00  0.00    -0.203 F 
ATOM     90  F   UNL A   1      44.575  26.076  37.612  1.00  0.00    -0.200 F 
ATOM     91  C   UNL A   1      46.054  27.561  36.523  1.00  0.00     0.200 A 
ATOM     92  F   UNL A   1      47.491  29.077  35.423  1.00  0.00    -0.200 F 
ATOM     93  F   UNL A   1      47.101  26.989  37.133  1.00  0.00    -0.200 F 
ENDBRANCH  60  83
ENDBRANCH  34  35
ENDBRANCH  26  29
ENDBRANCH  24  25
ENDBRANCH   1  24
TORSDOF 13
ENDMDL
MODEL 2
REMARK VINA RESULT:     -12.8      0.071      1.963
REMARK SMILES COc1ccc(-c2c(C)n[nH]c2C)c(C(=O)NCCCCNC(=O)c2ccc(-c3c4nc(c(-c5c(F)c(F)c(F)c(F)c5F)c5ccc([nH]5)c(-c5c(F)c(F)c(F)c(F)c5F)c5nc(c(-c6c(F)c(F)c(F)c(F)c6F)c6ccc3[nH]6)C=C5)C=C4)cc2)c1
REMARK SMILES IDX 20 1 19 2 18 3 17 4 15 5 16 6 14 8 3 9 4 10 88 11 5 12 6 13
REMARK SMILES IDX 2 14 1 15 7 16 8 17 12 18 9 19 10 20 11 21 13 22 21 24 22 25
REMARK SMILES IDX 23 26 24 28 25 29 26 30 87 31 27 32 86 33 28 34 29 35 30 36
REMARK SMILES IDX 80 37 31 38 85 39 79 40 81 41 32 42 84 43 78 44 77 45 33 47
REMARK SMILES IDX 65 48 45 49 64 50 46 51 49 52 63 53 82 54 47 55 48 56 62 58
REMARK SMILES IDX 83 59 50 60 34 61 35 62 43 63 36 64 37 65 41 66 44 67 38 68
REMARK SMILES IDX 39 69 42 70 40 71 66 72 67 73 75 74 68 75 69 76 73 77 76 78
REMARK SMILES IDX 70 79 71 80 74 81 72 82 51 83 52 84 60 85 53 86 54 87 58 88
REMARK SMILES IDX 61 89 55 90 56 91 59 92 57 93
REMARK H PARENT 17 7 11 23 22 27 81 46 49 57
REMARK Flexibility Score: inf
ROOT
ATOM      1  C   UNL A   1      31.629  31.722  27.070  1.00  0.00     0.023 C 
ENDROOT
BRANCH   1   2
ATOM      2  C   UNL A   1      31.654  30.819  25.845  1.00  0.00     0.023 C 
BRANCH   2   3
ATOM      3  C   UNL A   1      32.742  29.754  25.788  1.00  0.00     0.116 C 
BRANCH   3   4
ATOM      4  N   UNL A   1      33.381  29.572  24.494  1.00  0.00    -0.352 N 
ATOM      5  C   UNL A   1      32.911  29.017  23.315  1.00  0.00     0.252 C 
ATOM      6  O   UNL A   1      33.615  29.133  22.316  1.00  0.00    -0.269 OA
ATOM      7  H   UNL A   1      34.308  29.899  24.448  1.00  0.00     0.163 HD
BRANCH   5   8
ATOM      8  C   UNL A   1      31.610  28.282  23.270  1.00  0.00     0.051 A 
ATOM      9  C   UNL A   1      29.178  28.419  23.144  1.00  0.00     0.119 A 
ATOM     10  C   UNL A   1      29.087  27.076  23.496  1.00  0.00     0.047 A 
ATOM     11  C   UNL A   1      30.436  28.994  22.974  1.00  0.00     0.060 A 
ATOM     12  C   UNL A   1      30.244  26.314  23.648  1.00  0.00     0.013 A 
ATOM     13  C   UNL A   1      31.516  26.899  23.513  1.00  0.00    -0.002 A 
BRANCH   9  14
ATOM     14  O   UNL A   1      27.985  29.069  22.987  1.00  0.00    -0.497 OA
ATOM     15  C   UNL A   1      27.926  30.034  21.941  1.00  0.00     0.278 C 
ENDBRANCH   9  14
BRANCH  13  16
ATOM     16  C   UNL A   1      32.642  25.985  23.444  1.00  0.00     0.026 A 
ATOM     17  C   UNL A   1      33.163  25.334  22.289  1.00  0.00     0.067 A 
ATOM     18  C   UNL A   1      33.388  25.496  24.495  1.00  0.00     0.040 A 
ATOM     19  C   UNL A   1      32.708  25.477  20.883  1.00  0.00     0.069 C 
ATOM     20  N   UNL A   1      34.162  24.501  22.598  1.00  0.00    -0.180 NA
ATOM     21  N   UNL A   1      34.307  24.656  23.923  1.00  0.00    -0.282 N 
ATOM     22  C   UNL A   1      33.357  25.732  25.954  1.00  0.00     0.067 C 
ATOM     23  H   UNL A   1      35.014  24.204  24.439  1.00  0.00     0.190 HD
ENDBRANCH  13  16
ENDBRANCH   5   8
ENDBRANCH   3   4
ENDBRANCH   2   3
ENDBRANCH   1   2
BRANCH   1  24
ATOM     24  C   UNL A   1      32.798  32.685  27.230  1.00  0.00     0.116 C 
BRANCH  24  25
ATOM     25  N   UNL A   1      32.409  34.039  27.597  1.00  0.00    -0.352 N 
ATOM     26  C   UNL A   1      32.963  34.902  28.517  1.00  0.00     0.251 C 
ATOM     27  H   UNL A   1      31.629  34.393  27.112  1.00  0.00     0.163 HD
ATOM     28  O   UNL A   1      32.448  35.994  28.719  1.00  0.00    -0.269 OA
BRANCH  26  29
ATOM     29  C   UNL A   1      34.150  34.492  29.301  1.00  0.00     0.039 A 
ATOM     30  C   UNL A   1      33.955  33.926  30.565  1.00  0.00     0.014 A 
ATOM     31  C   UNL A   1      35.442  34.630  28.789  1.00  0.00     0.014 A 
ATOM     32  C   UNL A   1      35.046  33.411  31.270  1.00  0.00     0.010 A 
ATOM     33  C   UNL A   1      36.514  34.040  29.452  1.00  0.00     0.010 A 
ATOM     34  C   UNL A   1      36.327  33.417  30.694  1.00  0.00    -0.014 A 
BRANCH  34  35
ATOM     35  C   UNL A   1      37.480  32.763  31.365  1.00  0.00     0.031 A 
ATOM     36  C   UNL A   1      38.174  31.601  30.714  1.00  0.00     0.074 A 
ATOM     37  C   UNL A   1      37.843  33.156  32.601  1.00  0.00     0.049 A 
ATOM     38  N   UNL A   1      39.134  30.842  31.179  1.00  0.00    -0.248 NA
ATOM     39  C   UNL A   1      37.701  31.220  29.374  1.00  0.00     0.031 C 
ATOM     40  C   UNL A   1      37.206  34.227  33.370  1.00  0.00     0.029 A 
ATOM     41  N   UNL A   1      38.826  32.686  33.437  1.00  0.00    -0.354 N 
ATOM     42  C   UNL A   1      39.367  29.886  30.198  1.00  0.00     0.074 A 
ATOM     43  C   UNL A   1      38.407  30.124  29.141  1.00  0.00     0.031 C 
ATOM     44  C   UNL A   1      37.822  34.342  34.556  1.00  0.00     0.029 A 
ATOM     45  C   UNL A   1      38.874  33.334  34.647  1.00  0.00     0.049 A 
ATOM     46  H   UNL A   1      39.438  31.955  33.193  1.00  0.00     0.167 HD
ATOM     47  C   UNL A   1      40.310  28.915  30.170  1.00  0.00     0.037 A 
ATOM     48  C   UNL A   1      39.670  33.132  35.714  1.00  0.00     0.037 A 
ATOM     49  C   UNL A   1      41.277  28.695  31.212  1.00  0.00     0.049 A 
ATOM     50  C   UNL A   1      40.723  32.061  35.655  1.00  0.00     0.074 A 
ATOM     51  C   UNL A   1      42.315  27.779  31.251  1.00  0.00     0.029 A 
ATOM     52  N   UNL A   1      41.322  29.399  32.408  1.00  0.00    -0.354 N 
ATOM     53  N   UNL A   1      40.984  31.211  34.692  1.00  0.00    -0.248 NA
ATOM     54  C   UNL A   1      41.601  31.927  36.826  1.00  0.00     0.031 C 
ATOM     55  C   UNL A   1      42.963  27.903  32.485  1.00  0.00     0.029 A 
ATOM     56  C   UNL A   1      42.358  28.926  33.197  1.00  0.00     0.049 A 
ATOM     57  H   UNL A   1      40.708  30.127  32.657  1.00  0.00     0.167 HD
ATOM     58  C   UNL A   1      42.063  30.456  35.129  1.00  0.00     0.074 A 
ATOM     59  C   UNL A   1      42.420  30.960  36.440  1.00  0.00     0.031 C 
ATOM     60  C   UNL A   1      42.700  29.437  34.501  1.00  0.00     0.037 A 
BRANCH  47  61
ATOM     61  C   UNL A   1      40.337  28.021  28.964  1.00  0.00     0.064 A 
ATOM     62  C   UNL A   1      39.632  26.806  28.933  1.00  0.00     0.173 A 
ATOM     63  C   UNL A   1      41.072  28.379  27.824  1.00  0.00     0.173 A 
ATOM     64  F   UNL A   1      38.923  26.410  30.002  1.00  0.00    -0.203 F 
ATOM     65  C   UNL A   1      39.697  25.966  27.826  1.00  0.00     0.198 A 
ATOM     66  C   UNL A   1      41.108  27.551  26.705  1.00  0.00     0.198 A 
ATOM     67  F   UNL A   1      41.759  29.531  27.796  1.00  0.00    -0.203 F 
ATOM     68  F   UNL A   1      39.068  24.783  27.847  1.00  0.00    -0.200 F 
ATOM     69  C   UNL A   1      40.431  26.341  26.711  1.00  0.00     0.200 A 
ATOM     70  F   UNL A   1      41.808  27.919  25.623  1.00  0.00    -0.200 F 
ATOM     71  F   UNL A   1      40.495  25.529  25.647  1.00  0.00    -0.200 F 
ENDBRANCH  47  61
BRANCH  48  72
ATOM     72  C   UNL A   1      39.515  33.990  36.917  1.00  0.00     0.064 A 
ATOM     73  C   UNL A   1      38.756  33.560  38.013  1.00  0.00     0.173 A 
ATOM     74  C   UNL A   1      40.145  35.240  37.007  1.00  0.00     0.173 A 
ATOM     75  F   UNL A   1      38.120  32.380  37.965  1.00  0.00    -0.203 F 
ATOM     76  C   UNL A   1      38.623  34.352  39.151  1.00  0.00     0.198 A 
ATOM     77  C   UNL A   1      40.031  36.021  38.156  1.00  0.00     0.198 A 
ATOM     78  F   UNL A   1      40.888  35.693  35.987  1.00  0.00    -0.203 F 
ATOM     79  F   UNL A   1      37.865  33.931  40.174  1.00  0.00    -0.200 F 
ATOM     80  C   UNL A   1      39.267  35.578  39.226  1.00  0.00     0.200 A 
ATOM     81  F   UNL A   1      40.668  37.198  38.230  1.00  0.00    -0.200 F 
ATOM     82  F   UNL A   1      39.149  36.334  40.325  1.00  0.00    -0.200 F 
ENDBRANCH  48  72
BRANCH  60  83
ATOM     83  C   UNL A   1      43.863  28.812  35.213  1.00  0.00     0.064 A 
ATOM     84  C   UNL A   1      45.168  29.304  35.061  1.00  0.00     0.173 A 
ATOM     85  C   UNL A   1      43.664  27.735  36.090  1.00  0.00     0.173 A 
ATOM     86  F   UNL A   1      45.412  30.322  34.222  1.00  0.00    -0.203 F 
ATOM     87  C   UNL A   1      46.234  28.725  35.746  1.00  0.00     0.198 A 
ATOM     88  C   UNL A   1      44.728  27.177  36.793  1.00  0.00     0.198 A 
ATOM     89  F   UNL A   1      42.434  27.231  36.273  1.00  0.00    -0.203 F 
ATOM     90  F   UNL A   1      47.479  29.184  35.553  1.00  0.00    -0.200 F 
ATOM     91  C   UNL A   1      46.012  27.669  36.616  1.00  0.00     0.200 A 
ATOM     92  F   UNL A   1      44.510  26.164  37.643  1.00  0.00    -0.200 F 
ATOM     93  F   UNL A   1      47.038  27.119  37.280  1.00  0.00    -0.200 F 
ENDBRANCH  60  83
ENDBRANCH  34  35
ENDBRANCH  26  29
ENDBRANCH  24  25
ENDBRANCH   1  24
TORSDOF 13
ENDMDL
MODEL 3
REMARK VINA RESULT:     -12.7      0.533      7.534
REMARK SMILES COc1ccc(-c2c(C)n[nH]c2C)c(C(=O)NCCCCNC(=O)c2ccc(-c3c4nc(c(-c5c(F)c(F)c(F)c(F)c5F)c5ccc([nH]5)c(-c5c(F)c(F)c(F)c(F)c5F)c5nc(c(-c6c(F)c(F)c(F)c(F)c6F)c6ccc3[nH]6)C=C5)C=C4)cc2)c1
REMARK SMILES IDX 20 1 19 2 18 3 17 4 15 5 16 6 14 8 3 9 4 10 88 11 5 12 6 13
REMARK SMILES IDX 2 14 1 15 7 16 8 17 12 18 9 19 10 20 11 21 13 22 21 24 22 25
REMARK SMILES IDX 23 26 24 28 25 29 26 30 87 31 27 32 86 33 28 34 29 35 30 36
REMARK SMILES IDX 80 37 31 38 85 39 79 40 81 41 32 42 84 43 78 44 77 45 33 47
REMARK SMILES IDX 65 48 45 49 64 50 46 51 49 52 63 53 82 54 47 55 48 56 62 58
REMARK SMILES IDX 83 59 50 60 34 61 35 62 43 63 36 64 37 65 41 66 44 67 38 68
REMARK SMILES IDX 39 69 42 70 40 71 66 72 67 73 75 74 68 75 69 76 73 77 76 78
REMARK SMILES IDX 70 79 71 80 74 81 72 82 51 83 52 84 60 85 53 86 54 87 58 88
REMARK SMILES IDX 61 89 55 90 56 91 59 92 57 93
REMARK H PARENT 17 7 11 23 22 27 81 46 49 57
REMARK Flexibility Score: inf
ROOT
ATOM      1  C   UNL A   1      31.395  31.935  26.919  1.00  0.00     0.023 C 
ENDROOT
BRANCH   1   2
ATOM      2  C   UNL A   1      31.489  30.965  25.749  1.00  0.00     0.023 C 
BRANCH   2   3
ATOM      3  C   UNL A   1      32.578  29.902  25.812  1.00  0.00     0.116 C 
BRANCH   3   4
ATOM      4  N   UNL A   1      33.281  29.644  24.565  1.00  0.00    -0.352 N 
ATOM      5  C   UNL A   1      32.871  29.017  23.400  1.00  0.00     0.252 C 
ATOM      6  O   UNL A   1      33.624  29.074  22.432  1.00  0.00    -0.269 OA
ATOM      7  H   UNL A   1      34.210  29.971  24.546  1.00  0.00     0.163 HD
BRANCH   5   8
ATOM      8  C   UNL A   1      31.574  28.277  23.334  1.00  0.00     0.051 A 
ATOM      9  C   UNL A   1      29.143  28.405  23.177  1.00  0.00     0.119 A 
ATOM     10  C   UNL A   1      29.053  27.060  23.521  1.00  0.00     0.047 A 
ATOM     11  C   UNL A   1      30.401  28.986  23.026  1.00  0.00     0.060 A 
ATOM     12  C   UNL A   1      30.211  26.301  23.684  1.00  0.00     0.013 A 
ATOM     13  C   UNL A   1      31.483  26.892  23.569  1.00  0.00    -0.002 A 
BRANCH   9  14
ATOM     14  O   UNL A   1      27.950  29.050  23.007  1.00  0.00    -0.497 OA
ATOM     15  C   UNL A   1      27.925  30.083  22.026  1.00  0.00     0.278 C 
ENDBRANCH   9  14
BRANCH  13  16
ATOM     16  C   UNL A   1      32.613  25.984  23.510  1.00  0.00     0.026 A 
ATOM     17  C   UNL A   1      33.164  25.355  22.356  1.00  0.00     0.067 A 
ATOM     18  C   UNL A   1      33.336  25.478  24.570  1.00  0.00     0.040 A 
ATOM     19  C   UNL A   1      32.741  25.522  20.943  1.00  0.00     0.069 C 
ATOM     20  N   UNL A   1      34.158  24.520  22.675  1.00  0.00    -0.180 NA
ATOM     21  N   UNL A   1      34.271  24.651  24.005  1.00  0.00    -0.282 N 
ATOM     22  C   UNL A   1      33.269  25.687  26.032  1.00  0.00     0.067 C 
ATOM     23  H   UNL A   1      34.966  24.192  24.530  1.00  0.00     0.190 HD
ENDBRANCH  13  16
ENDBRANCH   5   8
ENDBRANCH   3   4
ENDBRANCH   2   3
ENDBRANCH   1   2
BRANCH   1  24
ATOM     24  C   UNL A   1      32.645  32.748  27.231  1.00  0.00     0.116 C 
BRANCH  24  25
ATOM     25  N   UNL A   1      32.378  34.118  27.642  1.00  0.00    -0.352 N 
ATOM     26  C   UNL A   1      33.015  34.903  28.577  1.00  0.00     0.251 C 
ATOM     27  H   UNL A   1      31.624  34.551  27.179  1.00  0.00     0.163 HD
ATOM     28  O   UNL A   1      32.597  36.029  28.818  1.00  0.00    -0.269 OA
BRANCH  26  29
ATOM     29  C   UNL A   1      34.174  34.371  29.330  1.00  0.00     0.039 A 
ATOM     30  C   UNL A   1      33.934  33.635  30.494  1.00  0.00     0.014 A 
ATOM     31  C   UNL A   1      35.482  34.565  28.882  1.00  0.00     0.014 A 
ATOM     32  C   UNL A   1      34.998  33.010  31.151  1.00  0.00     0.010 A 
ATOM     33  C   UNL A   1      36.528  33.874  29.487  1.00  0.00     0.010 A 
ATOM     34  C   UNL A   1      36.297  33.082  30.621  1.00  0.00    -0.014 A 
BRANCH  34  35
ATOM     35  C   UNL A   1      37.422  32.325  31.227  1.00  0.00     0.031 A 
ATOM     36  C   UNL A   1      37.932  32.692  32.591  1.00  0.00     0.074 A 
ATOM     37  C   UNL A   1      38.043  31.368  30.512  1.00  0.00     0.049 A 
ATOM     38  N   UNL A   1      38.959  32.214  33.249  1.00  0.00    -0.248 NA
ATOM     39  C   UNL A   1      37.213  33.764  33.296  1.00  0.00     0.031 C 
ATOM     40  C   UNL A   1      37.688  30.963  29.151  1.00  0.00     0.029 A 
ATOM     41  N   UNL A   1      39.119  30.574  30.824  1.00  0.00    -0.354 N 
ATOM     42  C   UNL A   1      39.017  32.938  34.433  1.00  0.00     0.074 A 
ATOM     43  C   UNL A   1      37.961  33.926  34.376  1.00  0.00     0.031 C 
ATOM     44  C   UNL A   1      38.519  29.988  28.751  1.00  0.00     0.029 A 
ATOM     45  C   UNL A   1      39.485  29.722  29.811  1.00  0.00     0.049 A 
ATOM     46  H   UNL A   1      39.583  30.611  31.691  1.00  0.00     0.167 HD
ATOM     47  C   UNL A   1      39.859  32.777  35.482  1.00  0.00     0.037 A 
ATOM     48  C   UNL A   1      40.493  28.831  29.741  1.00  0.00     0.037 A 
ATOM     49  C   UNL A   1      40.893  31.780  35.545  1.00  0.00     0.049 A 
ATOM     50  C   UNL A   1      41.404  28.656  30.924  1.00  0.00     0.074 A 
ATOM     51  C   UNL A   1      41.756  31.493  36.589  1.00  0.00     0.029 A 
ATOM     52  N   UNL A   1      41.209  30.905  34.515  1.00  0.00    -0.354 N 
ATOM     53  N   UNL A   1      41.404  29.294  32.069  1.00  0.00    -0.248 NA
ATOM     54  C   UNL A   1      42.448  27.628  30.811  1.00  0.00     0.031 C 
ATOM     55  C   UNL A   1      42.618  30.471  36.176  1.00  0.00     0.029 A 
ATOM     56  C   UNL A   1      42.264  30.090  34.891  1.00  0.00     0.049 A 
ATOM     57  H   UNL A   1      40.750  30.869  33.645  1.00  0.00     0.167 HD
ATOM     58  C   UNL A   1      42.429  28.736  32.818  1.00  0.00     0.074 A 
ATOM     59  C   UNL A   1      43.022  27.694  32.004  1.00  0.00     0.031 C 
ATOM     60  C   UNL A   1      42.844  29.058  34.068  1.00  0.00     0.037 A 
BRANCH  47  61
ATOM     61  C   UNL A   1      39.684  33.707  36.648  1.00  0.00     0.064 A 
ATOM     62  C   UNL A   1      38.881  33.364  37.748  1.00  0.00     0.173 A 
ATOM     63  C   UNL A   1      40.325  34.955  36.671  1.00  0.00     0.173 A 
ATOM     64  F   UNL A   1      38.235  32.188  37.771  1.00  0.00    -0.203 F 
ATOM     65  C   UNL A   1      38.692  34.251  38.804  1.00  0.00     0.198 A 
ATOM     66  C   UNL A   1      40.160  35.826  37.744  1.00  0.00     0.198 A 
ATOM     67  F   UNL A   1      41.109  35.331  35.649  1.00  0.00    -0.203 F 
ATOM     68  F   UNL A   1      37.870  33.926  39.811  1.00  0.00    -0.200 F 
ATOM     69  C   UNL A   1      39.336  35.479  38.804  1.00  0.00     0.200 A 
ATOM     70  F   UNL A   1      40.792  37.008  37.749  1.00  0.00    -0.200 F 
ATOM     71  F   UNL A   1      39.151  36.333  39.820  1.00  0.00    -0.200 F 
ENDBRANCH  47  61
BRANCH  48  72
ATOM     72  C   UNL A   1      40.669  28.018  28.510  1.00  0.00     0.064 A 
ATOM     73  C   UNL A   1      40.042  26.772  28.376  1.00  0.00     0.173 A 
ATOM     74  C   UNL A   1      41.440  28.481  27.435  1.00  0.00     0.173 A 
ATOM     75  F   UNL A   1      39.309  26.280  29.386  1.00  0.00    -0.203 F 
ATOM     76  C   UNL A   1      40.188  26.015  27.216  1.00  0.00     0.198 A 
ATOM     77  C   UNL A   1      41.566  27.734  26.265  1.00  0.00     0.198 A 
ATOM     78  F   UNL A   1      42.054  29.671  27.512  1.00  0.00    -0.203 F 
ATOM     79  F   UNL A   1      39.603  24.812  27.125  1.00  0.00    -0.200 F 
ATOM     80  C   UNL A   1      40.943  26.499  26.159  1.00  0.00     0.200 A 
ATOM     81  F   UNL A   1      42.284  28.212  25.240  1.00  0.00    -0.200 F 
ATOM     82  F   UNL A   1      41.073  25.776  25.039  1.00  0.00    -0.200 F 
ENDBRANCH  48  72
BRANCH  60  83
ATOM     83  C   UNL A   1      43.979  28.262  34.643  1.00  0.00     0.064 A 
ATOM     84  C   UNL A   1      45.310  28.686  34.517  1.00  0.00     0.173 A 
ATOM     85  C   UNL A   1      43.727  27.085  35.363  1.00  0.00     0.173 A 
ATOM     86  F   UNL A   1      45.603  29.797  33.825  1.00  0.00    -0.203 F 
ATOM     87  C   UNL A   1      46.350  27.947  35.075  1.00  0.00     0.198 A 
ATOM     88  C   UNL A   1      44.768  26.364  35.942  1.00  0.00     0.198 A 
ATOM     89  F   UNL A   1      42.471  26.641  35.515  1.00  0.00    -0.203 F 
ATOM     90  F   UNL A   1      47.619  28.348  34.907  1.00  0.00    -0.200 F 
ATOM     91  C   UNL A   1      46.078  26.793  35.793  1.00  0.00     0.200 A 
ATOM     92  F   UNL A   1      44.502  25.255  36.646  1.00  0.00    -0.200 F 
ATOM     93  F   UNL A   1      47.080  26.087  36.336  1.00  0.00    -0.200 F 
ENDBRANCH  60  83
ENDBRANCH  34  35
ENDBRANCH  26  29
ENDBRANCH  24  25
ENDBRANCH   1  24
TORSDOF 13
ENDMDL
