MODEL 1
REMARK VINA RESULT:     -12.8      0.000      0.000
REMARK SMILES O=C(NCCCCNC(=O)c1ccnc(Oc2cccc(C(F)(F)F)c2)c1)c1ccc(-c2c3nc(c(-c4c(F)c(F)c(F)c(F)c4F)c4ccc([nH]4)c(-c4c(F)c(F)c(F)c(F)c4F)c4nc(c(-c5c(F)c(F)c(F)c(F)c5F)c5ccc2[nH]5)C=C4)C=C3)cc1
REMARK SMILES IDX 6 1 5 2 4 3 3 4 1 5 2 6 28 8 29 9 90 10 30 11 89 12 31 13
REMARK SMILES IDX 32 14 33 15 83 16 34 17 88 18 82 19 84 20 35 21 87 22 81 23
REMARK SMILES IDX 80 24 36 26 68 27 48 28 67 29 49 30 52 31 66 32 85 33 50 34
REMARK SMILES IDX 51 35 65 37 86 38 53 39 37 40 38 41 46 42 39 43 40 44 44 45
REMARK SMILES IDX 47 46 41 47 42 48 45 49 43 50 69 51 70 52 78 53 71 54 72 55
REMARK SMILES IDX 76 56 79 57 73 58 74 59 77 60 75 61 54 62 55 63 63 64 56 65
REMARK SMILES IDX 57 66 61 67 64 68 58 69 59 70 62 71 60 72 7 73 8 74 9 75
REMARK SMILES IDX 10 77 11 78 12 79 27 80 13 81 15 82 14 83 16 84 17 85 18 86
REMARK SMILES IDX 26 87 19 88 21 89 20 90 22 91 23 92 24 93 25 94
REMARK H PARENT 3 7 84 25 52 36 8 76
REMARK Flexibility Score: inf
ROOT
ATOM      1  C   UNL A   1      31.451  31.248  26.218  1.00  0.00     0.023 C 
ENDROOT
BRANCH   1   2
ATOM      2  C   UNL A   1      31.456  32.744  26.517  1.00  0.00     0.023 C 
BRANCH   2   3
ATOM      3  C   UNL A   1      32.546  33.219  27.471  1.00  0.00     0.116 C 
BRANCH   3   4
ATOM      4  N   UNL A   1      32.360  34.588  27.924  1.00  0.00    -0.352 N 
ATOM      5  O   UNL A   1      32.677  36.406  29.227  1.00  0.00    -0.269 OA
ATOM      6  C   UNL A   1      33.044  35.282  28.895  1.00  0.00     0.251 C 
ATOM      7  H   UNL A   1      31.644  35.090  27.471  1.00  0.00     0.163 HD
BRANCH   6   8
ATOM      8  C   UNL A   1      34.207  34.659  29.563  1.00  0.00     0.039 A 
ATOM      9  C   UNL A   1      35.477  34.718  28.985  1.00  0.00     0.014 A 
ATOM     10  C   UNL A   1      34.023  33.998  30.782  1.00  0.00     0.014 A 
ATOM     11  C   UNL A   1      36.521  33.989  29.539  1.00  0.00     0.010 A 
ATOM     12  C   UNL A   1      35.099  33.341  31.388  1.00  0.00     0.010 A 
ATOM     13  C   UNL A   1      36.351  33.305  30.755  1.00  0.00    -0.014 A 
BRANCH  13  14
ATOM     14  C   UNL A   1      37.522  32.625  31.364  1.00  0.00     0.031 A 
ATOM     15  C   UNL A   1      37.997  32.963  32.748  1.00  0.00     0.074 A 
ATOM     16  C   UNL A   1      38.126  31.647  30.660  1.00  0.00     0.049 A 
ATOM     17  N   UNL A   1      38.969  32.422  33.440  1.00  0.00    -0.248 NA
ATOM     18  C   UNL A   1      37.300  34.052  33.450  1.00  0.00     0.031 C 
ATOM     19  C   UNL A   1      37.762  31.247  29.298  1.00  0.00     0.029 A 
ATOM     20  N   UNL A   1      39.146  30.796  30.994  1.00  0.00    -0.354 N 
ATOM     21  C   UNL A   1      39.009  33.106  34.647  1.00  0.00     0.074 A 
ATOM     22  C   UNL A   1      37.980  34.123  34.587  1.00  0.00     0.031 C 
ATOM     23  C   UNL A   1      38.507  30.194  28.935  1.00  0.00     0.029 A 
ATOM     24  C   UNL A   1      39.441  29.883  30.011  1.00  0.00     0.049 A 
ATOM     25  H   UNL A   1      39.622  30.834  31.855  1.00  0.00     0.167 HD
ATOM     26  C   UNL A   1      39.825  32.896  35.708  1.00  0.00     0.037 A 
ATOM     27  C   UNL A   1      40.369  28.910  29.973  1.00  0.00     0.037 A 
ATOM     28  C   UNL A   1      40.838  31.872  35.768  1.00  0.00     0.049 A 
ATOM     29  C   UNL A   1      41.260  28.708  31.163  1.00  0.00     0.074 A 
ATOM     30  C   UNL A   1      41.698  31.567  36.809  1.00  0.00     0.029 A 
ATOM     31  N   UNL A   1      41.126  30.986  34.741  1.00  0.00    -0.354 N 
ATOM     32  N   UNL A   1      41.268  29.347  32.307  1.00  0.00    -0.248 NA
ATOM     33  C   UNL A   1      42.276  27.653  31.054  1.00  0.00     0.031 C 
ATOM     34  C   UNL A   1      42.532  30.521  36.398  1.00  0.00     0.029 A 
ATOM     35  C   UNL A   1      42.163  30.146  35.118  1.00  0.00     0.049 A 
ATOM     36  H   UNL A   1      40.664  30.957  33.872  1.00  0.00     0.167 HD
ATOM     37  C   UNL A   1      42.281  28.770  33.057  1.00  0.00     0.074 A 
ATOM     38  C   UNL A   1      42.843  27.707  32.251  1.00  0.00     0.031 C 
ATOM     39  C   UNL A   1      42.715  29.098  34.299  1.00  0.00     0.037 A 
BRANCH  26  40
ATOM     40  C   UNL A   1      39.668  33.793  36.903  1.00  0.00     0.064 A 
ATOM     41  C   UNL A   1      40.282  35.052  36.962  1.00  0.00     0.173 A 
ATOM     42  C   UNL A   1      38.830  33.421  37.966  1.00  0.00     0.173 A 
ATOM     43  F   UNL A   1      41.099  35.451  35.976  1.00  0.00    -0.203 F 
ATOM     44  C   UNL A   1      40.073  35.901  38.047  1.00  0.00     0.198 A 
ATOM     45  C   UNL A   1      38.606  34.280  39.038  1.00  0.00     0.198 A 
ATOM     46  F   UNL A   1      38.214  32.229  37.956  1.00  0.00    -0.203 F 
ATOM     47  F   UNL A   1      40.692  37.089  38.094  1.00  0.00    -0.200 F 
ATOM     48  C   UNL A   1      39.229  35.519  39.078  1.00  0.00     0.200 A 
ATOM     49  F   UNL A   1      37.780  33.915  40.028  1.00  0.00    -0.200 F 
ATOM     50  F   UNL A   1      39.018  36.344  40.114  1.00  0.00    -0.200 F 
ENDBRANCH  26  40
BRANCH  27  51
ATOM     51  C   UNL A   1      40.501  28.063  28.760  1.00  0.00     0.064 A 
ATOM     52  C   UNL A   1      41.300  28.463  27.681  1.00  0.00     0.173 A 
ATOM     53  C   UNL A   1      39.834  26.832  28.660  1.00  0.00     0.173 A 
ATOM     54  F   UNL A   1      41.942  29.640  27.723  1.00  0.00    -0.203 F 
ATOM     55  C   UNL A   1      41.411  27.672  26.539  1.00  0.00     0.198 A 
ATOM     56  C   UNL A   1      39.972  26.029  27.531  1.00  0.00     0.198 A 
ATOM     57  F   UNL A   1      39.063  26.402  29.669  1.00  0.00    -0.203 F 
ATOM     58  F   UNL A   1      42.145  28.099  25.502  1.00  0.00    -0.200 F 
ATOM     59  C   UNL A   1      40.753  26.454  26.468  1.00  0.00     0.200 A 
ATOM     60  F   UNL A   1      39.348  24.845  27.475  1.00  0.00    -0.200 F 
ATOM     61  F   UNL A   1      40.865  25.691  25.372  1.00  0.00    -0.200 F 
ENDBRANCH  27  51
BRANCH  39  62
ATOM     62  C   UNL A   1      43.847  28.286  34.853  1.00  0.00     0.064 A 
ATOM     63  C   UNL A   1      45.182  28.675  34.672  1.00  0.00     0.173 A 
ATOM     64  C   UNL A   1      43.595  27.112  35.576  1.00  0.00     0.173 A 
ATOM     65  F   UNL A   1      45.474  29.781  33.970  1.00  0.00    -0.203 F 
ATOM     66  C   UNL A   1      46.226  27.900  35.167  1.00  0.00     0.198 A 
ATOM     67  C   UNL A   1      44.641  26.353  36.094  1.00  0.00     0.198 A 
ATOM     68  F   UNL A   1      42.334  26.700  35.780  1.00  0.00    -0.203 F 
ATOM     69  F   UNL A   1      47.496  28.260  34.933  1.00  0.00    -0.200 F 
ATOM     70  C   UNL A   1      45.954  26.743  35.881  1.00  0.00     0.200 A 
ATOM     71  F   UNL A   1      44.377  25.240  36.791  1.00  0.00    -0.200 F 
ATOM     72  F   UNL A   1      46.961  25.994  36.354  1.00  0.00    -0.200 F 
ENDBRANCH  39  62
ENDBRANCH  13  14
ENDBRANCH   6   8
ENDBRANCH   3   4
ENDBRANCH   2   3
ENDBRANCH   1   2
BRANCH   1  73
ATOM     73  C   UNL A   1      32.685  30.479  26.686  1.00  0.00     0.116 C 
BRANCH  73  74
ATOM     74  N   UNL A   1      32.368  29.412  27.623  1.00  0.00    -0.352 N 
ATOM     75  C   UNL A   1      32.149  28.080  27.383  1.00  0.00     0.251 C 
ATOM     76  H   UNL A   1      32.303  29.687  28.566  1.00  0.00     0.163 HD
ATOM     77  O   UNL A   1      31.777  27.336  28.285  1.00  0.00    -0.269 OA
BRANCH  75  78
ATOM     78  C   UNL A   1      32.318  27.545  26.021  1.00  0.00     0.046 A 
ATOM     79  C   UNL A   1      33.492  26.905  25.643  1.00  0.00     0.034 A 
ATOM     80  C   UNL A   1      31.271  27.709  25.116  1.00  0.00     0.082 A 
ATOM     81  C   UNL A   1      33.603  26.524  24.324  1.00  0.00     0.116 A 
ATOM     82  C   UNL A   1      31.480  27.314  23.805  1.00  0.00     0.219 A 
ATOM     83  N   UNL A   1      32.637  26.734  23.404  1.00  0.00    -0.222 NA
BRANCH  82  84
ATOM     84  O   UNL A   1      30.578  27.468  22.775  1.00  0.00    -0.439 OA
BRANCH  84  85
ATOM     85  C   UNL A   1      29.516  28.323  22.929  1.00  0.00     0.130 A 
ATOM     86  C   UNL A   1      28.258  27.757  23.126  1.00  0.00     0.047 A 
ATOM     87  C   UNL A   1      29.659  29.707  22.797  1.00  0.00     0.060 A 
ATOM     88  C   UNL A   1      27.140  28.579  23.249  1.00  0.00     0.004 A 
ATOM     89  C   UNL A   1      28.543  30.545  22.950  1.00  0.00     0.059 A 
ATOM     90  C   UNL A   1      27.283  29.966  23.173  1.00  0.00     0.013 A 
BRANCH  89  91
ATOM     91  C   UNL A   1      28.681  32.045  22.886  1.00  0.00     0.416 C 
ATOM     92  F   UNL A   1      29.153  32.476  21.683  1.00  0.00    -0.166 F 
ATOM     93  F   UNL A   1      27.494  32.685  23.073  1.00  0.00    -0.166 F 
ATOM     94  F   UNL A   1      29.528  32.554  23.825  1.00  0.00    -0.166 F 
ENDBRANCH  89  91
ENDBRANCH  84  85
ENDBRANCH  82  84
ENDBRANCH  75  78
ENDBRANCH  73  74
ENDBRANCH   1  73
TORSDOF 14
ENDMDL
MODEL 2
REMARK VINA RESULT:     -12.6      0.503      7.370
REMARK SMILES O=C(NCCCCNC(=O)c1ccnc(Oc2cccc(C(F)(F)F)c2)c1)c1ccc(-c2c3nc(c(-c4c(F)c(F)c(F)c(F)c4F)c4ccc([nH]4)c(-c4c(F)c(F)c(F)c(F)c4F)c4nc(c(-c5c(F)c(F)c(F)c(F)c5F)c5ccc2[nH]5)C=C4)C=C3)cc1
REMARK SMILES IDX 6 1 5 2 4 3 3 4 1 5 2 6 28 8 29 9 90 10 30 11 89 12 31 13
REMARK SMILES IDX 32 14 33 15 83 16 34 17 88 18 82 19 84 20 35 21 87 22 81 23
REMARK SMILES IDX 80 24 36 26 68 27 48 28 67 29 49 30 52 31 66 32 85 33 50 34
REMARK SMILES IDX 51 35 65 37 86 38 53 39 37 40 38 41 46 42 39 43 40 44 44 45
REMARK SMILES IDX 47 46 41 47 42 48 45 49 43 50 69 51 70 52 78 53 71 54 72 55
REMARK SMILES IDX 76 56 79 57 73 58 74 59 77 60 75 61 54 62 55 63 63 64 56 65
REMARK SMILES IDX 57 66 61 67 64 68 58 69 59 70 62 71 60 72 7 73 8 74 9 75
REMARK SMILES IDX 10 77 11 78 12 79 27 80 13 81 15 82 14 83 16 84 17 85 18 86
REMARK SMILES IDX 26 87 19 88 21 89 20 90 22 91 23 92 24 93 25 94
REMARK H PARENT 3 7 84 25 52 36 8 76
REMARK Flexibility Score: inf
ROOT
ATOM      1  C   UNL A   1      31.602  31.303  26.156  1.00  0.00     0.023 C 
ENDROOT
BRANCH   1   2
ATOM      2  C   UNL A   1      31.451  32.699  26.753  1.00  0.00     0.023 C 
BRANCH   2   3
ATOM      3  C   UNL A   1      32.664  33.223  27.511  1.00  0.00     0.116 C 
BRANCH   3   4
ATOM      4  N   UNL A   1      32.523  34.606  27.942  1.00  0.00    -0.352 N 
ATOM      5  O   UNL A   1      32.858  36.419  29.245  1.00  0.00    -0.269 OA
ATOM      6  C   UNL A   1      33.186  35.275  28.944  1.00  0.00     0.251 C 
ATOM      7  H   UNL A   1      31.859  35.137  27.445  1.00  0.00     0.163 HD
BRANCH   6   8
ATOM      8  C   UNL A   1      34.278  34.602  29.681  1.00  0.00     0.039 A 
ATOM      9  C   UNL A   1      35.582  34.608  29.184  1.00  0.00     0.014 A 
ATOM     10  C   UNL A   1      33.990  33.948  30.883  1.00  0.00     0.014 A 
ATOM     11  C   UNL A   1      36.557  33.834  29.799  1.00  0.00     0.010 A 
ATOM     12  C   UNL A   1      34.996  33.246  31.553  1.00  0.00     0.010 A 
ATOM     13  C   UNL A   1      36.282  33.157  30.999  1.00  0.00    -0.014 A 
BRANCH  13  14
ATOM     14  C   UNL A   1      37.384  32.427  31.677  1.00  0.00     0.031 A 
ATOM     15  C   UNL A   1      38.116  31.302  31.003  1.00  0.00     0.074 A 
ATOM     16  C   UNL A   1      37.753  32.834  32.908  1.00  0.00     0.049 A 
ATOM     17  N   UNL A   1      39.134  30.604  31.440  1.00  0.00    -0.248 NA
ATOM     18  C   UNL A   1      37.648  30.901  29.668  1.00  0.00     0.031 C 
ATOM     19  C   UNL A   1      37.100  33.903  33.668  1.00  0.00     0.029 A 
ATOM     20  N   UNL A   1      38.776  32.426  33.722  1.00  0.00    -0.354 N 
ATOM     21  C   UNL A   1      39.421  29.678  30.447  1.00  0.00     0.074 A 
ATOM     22  C   UNL A   1      38.452  29.884  29.390  1.00  0.00     0.031 C 
ATOM     23  C   UNL A   1      37.771  34.104  34.811  1.00  0.00     0.029 A 
ATOM     24  C   UNL A   1      38.862  33.140  34.893  1.00  0.00     0.049 A 
ATOM     25  H   UNL A   1      39.390  31.692  33.492  1.00  0.00     0.167 HD
ATOM     26  C   UNL A   1      40.407  28.750  30.418  1.00  0.00     0.037 A 
ATOM     27  C   UNL A   1      39.717  33.026  35.924  1.00  0.00     0.037 A 
ATOM     28  C   UNL A   1      41.379  28.560  31.467  1.00  0.00     0.049 A 
ATOM     29  C   UNL A   1      40.795  31.983  35.864  1.00  0.00     0.074 A 
ATOM     30  C   UNL A   1      42.430  27.661  31.518  1.00  0.00     0.029 A 
ATOM     31  N   UNL A   1      41.416  29.283  32.649  1.00  0.00    -0.354 N 
ATOM     32  N   UNL A   1      41.068  31.133  34.905  1.00  0.00    -0.248 NA
ATOM     33  C   UNL A   1      41.680  31.881  37.031  1.00  0.00     0.031 C 
ATOM     34  C   UNL A   1      43.080  27.814  32.748  1.00  0.00     0.029 A 
ATOM     35  C   UNL A   1      42.461  28.838  33.444  1.00  0.00     0.049 A 
ATOM     36  H   UNL A   1      40.791  30.006  32.890  1.00  0.00     0.167 HD
ATOM     37  C   UNL A   1      42.157  30.399  35.348  1.00  0.00     0.074 A 
ATOM     38  C   UNL A   1      42.516  30.928  36.648  1.00  0.00     0.031 C 
ATOM     39  C   UNL A   1      42.798  29.371  34.739  1.00  0.00     0.037 A 
BRANCH  26  40
ATOM     40  C   UNL A   1      40.495  27.854  29.216  1.00  0.00     0.064 A 
ATOM     41  C   UNL A   1      39.701  26.705  29.097  1.00  0.00     0.173 A 
ATOM     42  C   UNL A   1      41.325  28.192  28.135  1.00  0.00     0.173 A 
ATOM     43  F   UNL A   1      38.897  26.333  30.105  1.00  0.00    -0.203 F 
ATOM     44  C   UNL A   1      39.743  25.920  27.946  1.00  0.00     0.198 A 
ATOM     45  C   UNL A   1      41.348  27.419  26.978  1.00  0.00     0.198 A 
ATOM     46  F   UNL A   1      42.100  29.286  28.195  1.00  0.00    -0.203 F 
ATOM     47  F   UNL A   1      38.995  24.811  27.866  1.00  0.00    -0.200 F 
ATOM     48  C   UNL A   1      40.559  26.283  26.885  1.00  0.00     0.200 A 
ATOM     49  F   UNL A   1      42.128  27.777  25.948  1.00  0.00    -0.200 F 
ATOM     50  F   UNL A   1      40.587  25.534  25.773  1.00  0.00    -0.200 F 
ENDBRANCH  26  40
BRANCH  27  51
ATOM     51  C   UNL A   1      39.578  33.920  37.102  1.00  0.00     0.064 A 
ATOM     52  C   UNL A   1      38.787  33.554  38.200  1.00  0.00     0.173 A 
ATOM     53  C   UNL A   1      40.238  35.157  37.155  1.00  0.00     0.173 A 
ATOM     54  F   UNL A   1      38.122  32.389  38.187  1.00  0.00    -0.203 F 
ATOM     55  C   UNL A   1      38.646  34.401  39.297  1.00  0.00     0.198 A 
ATOM     56  C   UNL A   1      40.121  35.988  38.266  1.00  0.00     0.198 A 
ATOM     57  F   UNL A   1      41.011  35.549  36.132  1.00  0.00    -0.203 F 
ATOM     58  F   UNL A   1      37.849  34.048  40.314  1.00  0.00    -0.200 F 
ATOM     59  C   UNL A   1      39.319  35.613  39.332  1.00  0.00     0.200 A 
ATOM     60  F   UNL A   1      40.787  37.150  38.302  1.00  0.00    -0.200 F 
ATOM     61  F   UNL A   1      39.189  36.424  40.391  1.00  0.00    -0.200 F 
ENDBRANCH  27  51
BRANCH  39  62
ATOM     62  C   UNL A   1      43.954  28.766  35.476  1.00  0.00     0.064 A 
ATOM     63  C   UNL A   1      45.265  29.227  35.284  1.00  0.00     0.173 A 
ATOM     64  C   UNL A   1      43.751  27.718  36.385  1.00  0.00     0.173 A 
ATOM     65  F   UNL A   1      45.512  30.215  34.410  1.00  0.00    -0.203 F 
ATOM     66  C   UNL A   1      46.335  28.640  35.953  1.00  0.00     0.198 A 
ATOM     67  C   UNL A   1      44.820  27.151  37.073  1.00  0.00     0.198 A 
ATOM     68  F   UNL A   1      42.515  27.245  36.606  1.00  0.00    -0.203 F 
ATOM     69  F   UNL A   1      47.585  29.059  35.712  1.00  0.00    -0.200 F 
ATOM     70  C   UNL A   1      46.110  27.606  36.850  1.00  0.00     0.200 A 
ATOM     71  F   UNL A   1      44.602  26.158  37.946  1.00  0.00    -0.200 F 
ATOM     72  F   UNL A   1      47.142  27.038  37.490  1.00  0.00    -0.200 F 
ENDBRANCH  39  62
ENDBRANCH  13  14
ENDBRANCH   6   8
ENDBRANCH   3   4
ENDBRANCH   2   3
ENDBRANCH   1   2
BRANCH   1  73
ATOM     73  C   UNL A   1      32.804  30.502  26.651  1.00  0.00     0.116 C 
BRANCH  73  74
ATOM     74  N   UNL A   1      32.445  29.480  27.622  1.00  0.00    -0.352 N 
ATOM     75  C   UNL A   1      32.176  28.150  27.426  1.00  0.00     0.251 C 
ATOM     76  H   UNL A   1      32.388  29.788  28.555  1.00  0.00     0.163 HD
ATOM     77  O   UNL A   1      31.774  27.451  28.351  1.00  0.00    -0.269 OA
BRANCH  75  78
ATOM     78  C   UNL A   1      32.327  27.564  26.083  1.00  0.00     0.046 A 
ATOM     79  C   UNL A   1      33.478  26.869  25.730  1.00  0.00     0.034 A 
ATOM     80  C   UNL A   1      31.288  27.734  25.170  1.00  0.00     0.082 A 
ATOM     81  C   UNL A   1      33.577  26.440  24.425  1.00  0.00     0.116 A 
ATOM     82  C   UNL A   1      31.485  27.289  23.874  1.00  0.00     0.219 A 
ATOM     83  N   UNL A   1      32.621  26.655  23.496  1.00  0.00    -0.222 NA
BRANCH  82  84
ATOM     84  O   UNL A   1      30.590  27.441  22.837  1.00  0.00    -0.439 OA
BRANCH  84  85
ATOM     85  C   UNL A   1      29.532  28.302  22.978  1.00  0.00     0.130 A 
ATOM     86  C   UNL A   1      28.264  27.743  23.126  1.00  0.00     0.047 A 
ATOM     87  C   UNL A   1      29.690  29.687  22.881  1.00  0.00     0.060 A 
ATOM     88  C   UNL A   1      27.149  28.572  23.234  1.00  0.00     0.004 A 
ATOM     89  C   UNL A   1      28.578  30.532  23.020  1.00  0.00     0.059 A 
ATOM     90  C   UNL A   1      27.306  29.959  23.192  1.00  0.00     0.013 A 
BRANCH  89  91
ATOM     91  C   UNL A   1      28.730  32.032  22.992  1.00  0.00     0.416 C 
ATOM     92  F   UNL A   1      29.272  32.481  21.827  1.00  0.00    -0.166 F 
ATOM     93  F   UNL A   1      27.539  32.677  23.126  1.00  0.00    -0.166 F 
ATOM     94  F   UNL A   1      29.527  32.515  23.986  1.00  0.00    -0.166 F 
ENDBRANCH  89  91
ENDBRANCH  84  85
ENDBRANCH  82  84
ENDBRANCH  75  78
ENDBRANCH  73  74
ENDBRANCH   1  73
TORSDOF 14
ENDMDL
MODEL 3
REMARK VINA RESULT:     -12.6      3.495      5.294
REMARK SMILES O=C(NCCCCNC(=O)c1ccnc(Oc2cccc(C(F)(F)F)c2)c1)c1ccc(-c2c3nc(c(-c4c(F)c(F)c(F)c(F)c4F)c4ccc([nH]4)c(-c4c(F)c(F)c(F)c(F)c4F)c4nc(c(-c5c(F)c(F)c(F)c(F)c5F)c5ccc2[nH]5)C=C4)C=C3)cc1
REMARK SMILES IDX 6 1 5 2 4 3 3 4 1 5 2 6 28 8 29 9 90 10 30 11 89 12 31 13
REMARK SMILES IDX 32 14 33 15 83 16 34 17 88 18 82 19 84 20 35 21 87 22 81 23
REMARK SMILES IDX 80 24 36 26 68 27 48 28 67 29 49 30 52 31 66 32 85 33 50 34
REMARK SMILES IDX 51 35 65 37 86 38 53 39 37 40 38 41 46 42 39 43 40 44 44 45
REMARK SMILES IDX 47 46 41 47 42 48 45 49 43 50 69 51 70 52 78 53 71 54 72 55
REMARK SMILES IDX 76 56 79 57 73 58 74 59 77 60 75 61 54 62 55 63 63 64 56 65
REMARK SMILES IDX 57 66 61 67 64 68 58 69 59 70 62 71 60 72 7 73 8 74 9 75
REMARK SMILES IDX 10 77 11 78 12 79 27 80 13 81 15 82 14 83 16 84 17 85 18 86
REMARK SMILES IDX 26 87 19 88 21 89 20 90 22 91 23 92 24 93 25 94
REMARK H PARENT 3 7 84 25 52 36 8 76
REMARK Flexibility Score: inf
ROOT
ATOM      1  C   UNL A   1      31.742  27.929  26.304  1.00  0.00     0.023 C 
ENDROOT
BRANCH   1   2
ATOM      2  C   UNL A   1      33.248  27.850  26.069  1.00  0.00     0.023 C 
BRANCH   2   3
ATOM      3  C   UNL A   1      33.899  29.127  25.552  1.00  0.00     0.116 C 
BRANCH   3   4
ATOM      4  N   UNL A   1      33.310  30.339  26.102  1.00  0.00    -0.352 N 
ATOM      5  O   UNL A   1      33.049  32.044  27.559  1.00  0.00    -0.269 OA
ATOM      6  C   UNL A   1      33.736  31.109  27.159  1.00  0.00     0.251 C 
ATOM      7  H   UNL A   1      32.491  30.652  25.654  1.00  0.00     0.163 HD
BRANCH   6   8
ATOM      8  C   UNL A   1      35.012  30.789  27.836  1.00  0.00     0.039 A 
ATOM      9  C   UNL A   1      35.186  29.566  28.485  1.00  0.00     0.014 A 
ATOM     10  C   UNL A   1      36.045  31.731  27.829  1.00  0.00     0.014 A 
ATOM     11  C   UNL A   1      36.322  29.349  29.254  1.00  0.00     0.010 A 
ATOM     12  C   UNL A   1      37.229  31.473  28.527  1.00  0.00     0.010 A 
ATOM     13  C   UNL A   1      37.365  30.292  29.272  1.00  0.00    -0.014 A 
BRANCH  13  14
ATOM     14  C   UNL A   1      38.605  29.972  30.024  1.00  0.00     0.031 A 
ATOM     15  C   UNL A   1      38.845  30.500  31.409  1.00  0.00     0.074 A 
ATOM     16  C   UNL A   1      39.501  29.144  29.450  1.00  0.00     0.049 A 
ATOM     17  N   UNL A   1      39.850  30.268  32.216  1.00  0.00    -0.248 NA
ATOM     18  C   UNL A   1      37.832  31.411  31.965  1.00  0.00     0.031 C 
ATOM     19  C   UNL A   1      39.382  28.587  28.100  1.00  0.00     0.029 A 
ATOM     20  N   UNL A   1      40.665  28.605  29.930  1.00  0.00    -0.354 N 
ATOM     21  C   UNL A   1      39.600  31.007  33.365  1.00  0.00     0.074 A 
ATOM     22  C   UNL A   1      38.359  31.720  33.143  1.00  0.00     0.031 C 
ATOM     23  C   UNL A   1      40.399  27.742  27.882  1.00  0.00     0.029 A 
ATOM     24  C   UNL A   1      41.274  27.745  29.049  1.00  0.00     0.049 A 
ATOM     25  H   UNL A   1      41.031  28.813  30.820  1.00  0.00     0.167 HD
ATOM     26  C   UNL A   1      40.336  31.076  34.500  1.00  0.00     0.037 A 
ATOM     27  C   UNL A   1      42.415  27.042  29.162  1.00  0.00     0.037 A 
ATOM     28  C   UNL A   1      41.564  30.352  34.721  1.00  0.00     0.049 A 
ATOM     29  C   UNL A   1      43.210  27.145  30.431  1.00  0.00     0.074 A 
ATOM     30  C   UNL A   1      42.368  30.338  35.847  1.00  0.00     0.029 A 
ATOM     31  N   UNL A   1      42.163  29.512  33.794  1.00  0.00    -0.354 N 
ATOM     32  N   UNL A   1      42.946  27.829  31.518  1.00  0.00    -0.248 NA
ATOM     33  C   UNL A   1      44.463  26.382  30.487  1.00  0.00     0.031 C 
ATOM     34  C   UNL A   1      43.474  29.521  35.589  1.00  0.00     0.029 A 
ATOM     35  C   UNL A   1      43.337  28.991  34.317  1.00  0.00     0.049 A 
ATOM     36  H   UNL A   1      41.809  29.316  32.896  1.00  0.00     0.167 HD
ATOM     37  C   UNL A   1      43.994  27.576  32.388  1.00  0.00     0.074 A 
ATOM     38  C   UNL A   1      44.881  26.649  31.716  1.00  0.00     0.031 C 
ATOM     39  C   UNL A   1      44.210  28.075  33.630  1.00  0.00     0.037 A 
BRANCH  26  40
ATOM     40  C   UNL A   1      39.844  31.968  35.603  1.00  0.00     0.064 A 
ATOM     41  C   UNL A   1      40.337  33.271  35.768  1.00  0.00     0.173 A 
ATOM     42  C   UNL A   1      38.813  31.543  36.456  1.00  0.00     0.173 A 
ATOM     43  F   UNL A   1      41.328  33.721  34.986  1.00  0.00    -0.203 F 
ATOM     44  C   UNL A   1      39.824  34.111  36.754  1.00  0.00     0.198 A 
ATOM     45  C   UNL A   1      38.287  32.393  37.424  1.00  0.00     0.198 A 
ATOM     46  F   UNL A   1      38.302  30.309  36.335  1.00  0.00    -0.203 F 
ATOM     47  F   UNL A   1      40.328  35.343  36.911  1.00  0.00    -0.200 F 
ATOM     48  C   UNL A   1      38.793  33.676  37.574  1.00  0.00     0.200 A 
ATOM     49  F   UNL A   1      37.283  31.976  38.208  1.00  0.00    -0.200 F 
ATOM     50  F   UNL A   1      38.291  34.492  38.512  1.00  0.00    -0.200 F 
ENDBRANCH  26  40
BRANCH  27  51
ATOM     51  C   UNL A   1      42.872  26.189  28.035  1.00  0.00     0.064 A 
ATOM     52  C   UNL A   1      43.601  26.730  26.967  1.00  0.00     0.173 A 
ATOM     53  C   UNL A   1      42.594  24.815  28.008  1.00  0.00     0.173 A 
ATOM     54  F   UNL A   1      43.875  28.043  26.940  1.00  0.00    -0.203 F 
ATOM     55  C   UNL A   1      44.016  25.930  25.905  1.00  0.00     0.198 A 
ATOM     56  C   UNL A   1      43.037  24.012  26.961  1.00  0.00     0.198 A 
ATOM     57  F   UNL A   1      41.905  24.249  29.010  1.00  0.00    -0.203 F 
ATOM     58  F   UNL A   1      44.672  26.480  24.874  1.00  0.00    -0.200 F 
ATOM     59  C   UNL A   1      43.740  24.572  25.906  1.00  0.00     0.200 A 
ATOM     60  F   UNL A   1      42.783  22.696  26.976  1.00  0.00    -0.200 F 
ATOM     61  F   UNL A   1      44.146  23.802  24.887  1.00  0.00    -0.200 F 
ENDBRANCH  27  51
BRANCH  39  62
ATOM     62  C   UNL A   1      45.451  27.615  34.335  1.00  0.00     0.064 A 
ATOM     63  C   UNL A   1      45.454  26.459  35.128  1.00  0.00     0.173 A 
ATOM     64  C   UNL A   1      46.648  28.334  34.213  1.00  0.00     0.173 A 
ATOM     65  F   UNL A   1      44.327  25.748  35.290  1.00  0.00    -0.203 F 
ATOM     66  C   UNL A   1      46.604  26.056  35.800  1.00  0.00     0.198 A 
ATOM     67  C   UNL A   1      47.804  27.913  34.865  1.00  0.00     0.198 A 
ATOM     68  F   UNL A   1      46.698  29.445  33.462  1.00  0.00    -0.203 F 
ATOM     69  F   UNL A   1      46.569  24.979  36.598  1.00  0.00    -0.200 F 
ATOM     70  C   UNL A   1      47.779  26.781  35.664  1.00  0.00     0.200 A 
ATOM     71  F   UNL A   1      48.941  28.609  34.726  1.00  0.00    -0.200 F 
ATOM     72  F   UNL A   1      48.885  26.394  36.315  1.00  0.00    -0.200 F 
ENDBRANCH  39  62
ENDBRANCH  13  14
ENDBRANCH   6   8
ENDBRANCH   3   4
ENDBRANCH   2   3
ENDBRANCH   1   2
BRANCH   1  73
ATOM     73  C   UNL A   1      30.952  26.674  25.938  1.00  0.00     0.116 C 
BRANCH  73  74
ATOM     74  N   UNL A   1      31.145  25.585  26.883  1.00  0.00    -0.352 N 
ATOM     75  C   UNL A   1      31.649  24.328  26.671  1.00  0.00     0.251 C 
ATOM     76  H   UNL A   1      30.877  25.781  27.810  1.00  0.00     0.163 HD
ATOM     77  O   UNL A   1      31.634  23.490  27.567  1.00  0.00    -0.269 OA
BRANCH  75  78
ATOM     78  C   UNL A   1      32.171  23.964  25.343  1.00  0.00     0.046 A 
ATOM     79  C   UNL A   1      31.344  23.401  24.378  1.00  0.00     0.034 A 
ATOM     80  C   UNL A   1      33.521  24.190  25.082  1.00  0.00     0.082 A 
ATOM     81  C   UNL A   1      31.936  23.002  23.200  1.00  0.00     0.116 A 
ATOM     82  C   UNL A   1      34.034  23.736  23.879  1.00  0.00     0.219 A 
ATOM     83  N   UNL A   1      33.255  23.138  22.945  1.00  0.00    -0.222 NA
BRANCH  82  84
ATOM     84  O   UNL A   1      35.355  23.818  23.497  1.00  0.00    -0.439 OA
BRANCH  84  85
ATOM     85  C   UNL A   1      36.316  23.191  24.248  1.00  0.00     0.130 A 
ATOM     86  C   UNL A   1      36.403  21.804  24.155  1.00  0.00     0.047 A 
ATOM     87  C   UNL A   1      37.119  23.893  25.151  1.00  0.00     0.060 A 
ATOM     88  C   UNL A   1      37.336  21.114  24.926  1.00  0.00     0.004 A 
ATOM     89  C   UNL A   1      38.084  23.212  25.909  1.00  0.00     0.059 A 
ATOM     90  C   UNL A   1      38.179  21.815  25.790  1.00  0.00     0.013 A 
BRANCH  89  91
ATOM     91  C   UNL A   1      39.013  23.953  26.837  1.00  0.00     0.416 C 
ATOM     92  F   UNL A   1      39.725  23.118  27.642  1.00  0.00    -0.166 F 
ATOM     93  F   UNL A   1      39.932  24.699  26.164  1.00  0.00    -0.166 F 
ATOM     94  F   UNL A   1      38.371  24.820  27.670  1.00  0.00    -0.166 F 
ENDBRANCH  89  91
ENDBRANCH  84  85
ENDBRANCH  82  84
ENDBRANCH  75  78
ENDBRANCH  73  74
ENDBRANCH   1  73
TORSDOF 14
ENDMDL
