MODEL 1
REMARK VINA RESULT:     -11.2      0.000      0.000
REMARK SMILES C[C@H]1C[C@@H]([NH+]2CC(CC(=O)NCCCCNC(=O)c3ccc(-c4c5nc(c(-c6c(F)c(F)c(F)c(F)c6F)c6ccc([nH]6)c(-c6c(F)c(F)c(F)c(F)c6F)c6nc(c(-c7c(F)c(F)c(F)c(F)c7F)c7ccc4[nH]7)C=C6)C=C5)cc3)C2)CS1
REMARK SMILES IDX 13 1 12 2 11 3 9 4 10 5 8 7 7 8 5 9 6 10 82 11 4 13 1 14
REMARK SMILES IDX 2 15 3 16 84 17 83 18 14 19 15 20 16 21 17 22 18 24 19 25
REMARK SMILES IDX 20 26 81 27 21 28 80 29 22 30 23 31 24 32 74 33 25 34 79 35
REMARK SMILES IDX 73 36 75 37 26 38 78 39 72 40 71 41 27 43 59 44 39 45 58 46
REMARK SMILES IDX 40 47 43 48 57 49 76 50 41 51 42 52 56 54 77 55 44 56 28 57
REMARK SMILES IDX 29 58 37 59 30 60 31 61 35 62 38 63 32 64 33 65 36 66 34 67
REMARK SMILES IDX 60 68 61 69 69 70 62 71 63 72 67 73 70 74 64 75 65 76 68 77
REMARK SMILES IDX 66 78 45 79 46 80 54 81 47 82 48 83 52 84 55 85 49 86 50 87
REMARK SMILES IDX 53 88 51 89
REMARK H PARENT 11 6 5 12 16 23 75 42 43 53
REMARK Flexibility Score: inf
ROOT
ATOM      1  C   UNL A   1      32.219  30.015  27.220  1.00  0.00     0.023 C 
ENDROOT
BRANCH   1   2
ATOM      2  C   UNL A   1      33.621  29.447  27.001  1.00  0.00     0.116 C 
BRANCH   2   3
ATOM      3  N   UNL A   1      33.929  29.340  25.591  1.00  0.00    -0.356 N 
ATOM      4  C   UNL A   1      33.593  28.356  24.713  1.00  0.00     0.220 C 
ATOM      5  O   UNL A   1      34.045  28.410  23.569  1.00  0.00    -0.275 OA
ATOM      6  H   UNL A   1      34.455  30.083  25.214  1.00  0.00     0.163 HD
BRANCH   4   7
ATOM      7  C   UNL A   1      32.721  27.195  25.156  1.00  0.00     0.115 C 
BRANCH   7   8
ATOM      8  C   UNL A   1      33.528  25.924  25.366  1.00  0.00     0.108 C 
ATOM      9  N   UNL A   1      33.545  23.805  25.178  1.00  0.00    -0.331 N 
ATOM     10  C   UNL A   1      33.672  24.912  24.209  1.00  0.00     0.272 C 
ATOM     11  C   UNL A   1      32.882  24.726  26.116  1.00  0.00     0.272 C 
ATOM     12  H   UNL A   1      33.126  22.933  24.860  1.00  0.00     0.348 HD
BRANCH   9  13
ATOM     13  C   UNL A   1      34.796  23.240  25.740  1.00  0.00     0.195 C 
ATOM     14  C   UNL A   1      36.778  22.780  23.100  1.00  0.00     0.019 C 
ATOM     15  C   UNL A   1      37.021  22.770  24.601  1.00  0.00     0.049 C 
ATOM     16  C   UNL A   1      36.212  23.778  25.407  1.00  0.00     0.080 C 
ATOM     17  S   UNL A   1      36.533  21.190  25.336  1.00  0.00    -0.152 SA
ATOM     18  C   UNL A   1      34.823  21.701  25.680  1.00  0.00     0.134 C 
ENDBRANCH   9  13
ENDBRANCH   7   8
ENDBRANCH   4   7
ENDBRANCH   2   3
ENDBRANCH   1   2
BRANCH   1  19
ATOM     19  C   UNL A   1      32.029  31.475  26.834  1.00  0.00     0.023 C 
BRANCH  19  20
ATOM     20  C   UNL A   1      33.070  32.435  27.382  1.00  0.00     0.116 C 
BRANCH  20  21
ATOM     21  N   UNL A   1      32.567  33.779  27.630  1.00  0.00    -0.352 N 
ATOM     22  C   UNL A   1      33.036  34.714  28.524  1.00  0.00     0.251 C 
ATOM     23  H   UNL A   1      31.792  34.053  27.089  1.00  0.00     0.163 HD
ATOM     24  O   UNL A   1      32.466  35.786  28.670  1.00  0.00    -0.269 OA
BRANCH  22  25
ATOM     25  C   UNL A   1      34.214  34.376  29.347  1.00  0.00     0.039 A 
ATOM     26  C   UNL A   1      34.025  33.668  30.535  1.00  0.00     0.014 A 
ATOM     27  C   UNL A   1      35.502  34.668  28.889  1.00  0.00     0.014 A 
ATOM     28  C   UNL A   1      35.134  33.164  31.217  1.00  0.00     0.010 A 
ATOM     29  C   UNL A   1      36.598  34.096  29.522  1.00  0.00     0.010 A 
ATOM     30  C   UNL A   1      36.424  33.328  30.685  1.00  0.00    -0.014 A 
BRANCH  30  31
ATOM     31  C   UNL A   1      37.610  32.695  31.311  1.00  0.00     0.031 A 
ATOM     32  C   UNL A   1      38.262  31.516  30.649  1.00  0.00     0.074 A 
ATOM     33  C   UNL A   1      38.029  33.112  32.523  1.00  0.00     0.049 A 
ATOM     34  N   UNL A   1      39.214  30.737  31.096  1.00  0.00    -0.248 NA
ATOM     35  C   UNL A   1      37.751  31.137  29.321  1.00  0.00     0.031 C 
ATOM     36  C   UNL A   1      37.435  34.205  33.297  1.00  0.00     0.029 A 
ATOM     37  N   UNL A   1      39.039  32.649  33.328  1.00  0.00    -0.354 N 
ATOM     38  C   UNL A   1      39.391  29.762  30.123  1.00  0.00     0.074 A 
ATOM     39  C   UNL A   1      38.424  30.022  29.079  1.00  0.00     0.031 C 
ATOM     40  C   UNL A   1      38.097  34.333  34.458  1.00  0.00     0.029 A 
ATOM     41  C   UNL A   1      39.136  33.310  34.529  1.00  0.00     0.049 A 
ATOM     42  H   UNL A   1      39.638  31.911  33.071  1.00  0.00     0.167 HD
ATOM     43  C   UNL A   1      40.294  28.755  30.095  1.00  0.00     0.037 A 
ATOM     44  C   UNL A   1      39.960  33.104  35.574  1.00  0.00     0.037 A 
ATOM     45  C   UNL A   1      41.291  28.535  31.107  1.00  0.00     0.049 A 
ATOM     46  C   UNL A   1      40.980  32.000  35.496  1.00  0.00     0.074 A 
ATOM     47  C   UNL A   1      42.312  27.601  31.122  1.00  0.00     0.029 A 
ATOM     48  N   UNL A   1      41.394  29.262  32.284  1.00  0.00    -0.354 N 
ATOM     49  N   UNL A   1      41.190  31.135  34.534  1.00  0.00    -0.248 NA
ATOM     50  C   UNL A   1      41.881  31.846  36.647  1.00  0.00     0.031 C 
ATOM     51  C   UNL A   1      43.012  27.738  32.324  1.00  0.00     0.029 A 
ATOM     52  C   UNL A   1      42.451  28.785  33.039  1.00  0.00     0.049 A 
ATOM     53  H   UNL A   1      40.804  30.006  32.541  1.00  0.00     0.167 HD
ATOM     54  C   UNL A   1      42.258  30.353  34.951  1.00  0.00     0.074 A 
ATOM     55  C   UNL A   1      42.666  30.856  36.246  1.00  0.00     0.031 C 
ATOM     56  C   UNL A   1      42.847  29.308  34.321  1.00  0.00     0.037 A 
BRANCH  43  57
ATOM     57  C   UNL A   1      40.260  27.819  28.925  1.00  0.00     0.064 A 
ATOM     58  C   UNL A   1      40.982  28.083  27.751  1.00  0.00     0.173 A 
ATOM     59  C   UNL A   1      39.543  26.615  29.001  1.00  0.00     0.173 A 
ATOM     60  F   UNL A   1      41.670  29.227  27.626  1.00  0.00    -0.203 F 
ATOM     61  C   UNL A   1      40.973  27.183  26.689  1.00  0.00     0.198 A 
ATOM     62  C   UNL A   1      39.558  25.706  27.946  1.00  0.00     0.198 A 
ATOM     63  F   UNL A   1      38.838  26.316  30.102  1.00  0.00    -0.203 F 
ATOM     64  F   UNL A   1      41.640  27.472  25.564  1.00  0.00    -0.200 F 
ATOM     65  C   UNL A   1      40.270  25.992  26.791  1.00  0.00     0.200 A 
ATOM     66  F   UNL A   1      38.885  24.551  28.050  1.00  0.00    -0.200 F 
ATOM     67  F   UNL A   1      40.273  25.121  25.772  1.00  0.00    -0.200 F 
ENDBRANCH  43  57
BRANCH  44  68
ATOM     68  C   UNL A   1      39.865  33.962  36.783  1.00  0.00     0.064 A 
ATOM     69  C   UNL A   1      39.062  33.588  37.870  1.00  0.00     0.173 A 
ATOM     70  C   UNL A   1      40.551  35.183  36.867  1.00  0.00     0.173 A 
ATOM     71  F   UNL A   1      38.371  32.441  37.826  1.00  0.00    -0.203 F 
ATOM     72  C   UNL A   1      38.927  34.415  38.983  1.00  0.00     0.198 A 
ATOM     73  C   UNL A   1      40.436  35.997  37.994  1.00  0.00     0.198 A 
ATOM     74  F   UNL A   1      41.335  35.583  35.857  1.00  0.00    -0.203 F 
ATOM     75  F   UNL A   1      38.111  34.058  39.984  1.00  0.00    -0.200 F 
ATOM     76  C   UNL A   1      39.616  35.617  39.046  1.00  0.00     0.200 A 
ATOM     77  F   UNL A   1      41.113  37.150  38.055  1.00  0.00    -0.200 F 
ATOM     78  F   UNL A   1      39.482  36.414  40.115  1.00  0.00    -0.200 F 
ENDBRANCH  44  68
BRANCH  56  79
ATOM     79  C   UNL A   1      44.012  28.660  35.007  1.00  0.00     0.064 A 
ATOM     80  C   UNL A   1      43.846  27.526  35.815  1.00  0.00     0.173 A 
ATOM     81  C   UNL A   1      45.311  29.153  34.818  1.00  0.00     0.173 A 
ATOM     82  F   UNL A   1      42.621  27.027  36.037  1.00  0.00    -0.203 F 
ATOM     83  C   UNL A   1      44.941  26.921  36.427  1.00  0.00     0.198 A 
ATOM     84  C   UNL A   1      46.405  28.530  35.410  1.00  0.00     0.198 A 
ATOM     85  F   UNL A   1      45.520  30.233  34.049  1.00  0.00    -0.203 F 
ATOM     86  F   UNL A   1      44.757  25.863  37.229  1.00  0.00    -0.200 F 
ATOM     87  C   UNL A   1      46.219  27.419  36.219  1.00  0.00     0.200 A 
ATOM     88  F   UNL A   1      47.640  29.005  35.199  1.00  0.00    -0.200 F 
ATOM     89  F   UNL A   1      47.272  26.830  36.804  1.00  0.00    -0.200 F 
ENDBRANCH  56  79
ENDBRANCH  30  31
ENDBRANCH  22  25
ENDBRANCH  20  21
ENDBRANCH  19  20
ENDBRANCH   1  19
TORSDOF 13
ENDMDL
MODEL 2
REMARK VINA RESULT:     -11.2      0.825      7.651
REMARK SMILES C[C@H]1C[C@@H]([NH+]2CC(CC(=O)NCCCCNC(=O)c3ccc(-c4c5nc(c(-c6c(F)c(F)c(F)c(F)c6F)c6ccc([nH]6)c(-c6c(F)c(F)c(F)c(F)c6F)c6nc(c(-c7c(F)c(F)c(F)c(F)c7F)c7ccc4[nH]7)C=C6)C=C5)cc3)C2)CS1
REMARK SMILES IDX 13 1 12 2 11 3 9 4 10 5 8 7 7 8 5 9 6 10 82 11 4 13 1 14
REMARK SMILES IDX 2 15 3 16 84 17 83 18 14 19 15 20 16 21 17 22 18 24 19 25
REMARK SMILES IDX 20 26 81 27 21 28 80 29 22 30 23 31 24 32 74 33 25 34 79 35
REMARK SMILES IDX 73 36 75 37 26 38 78 39 72 40 71 41 27 43 59 44 39 45 58 46
REMARK SMILES IDX 40 47 43 48 57 49 76 50 41 51 42 52 56 54 77 55 44 56 28 57
REMARK SMILES IDX 29 58 37 59 30 60 31 61 35 62 38 63 32 64 33 65 36 66 34 67
REMARK SMILES IDX 60 68 61 69 69 70 62 71 63 72 67 73 70 74 64 75 65 76 68 77
REMARK SMILES IDX 66 78 45 79 46 80 54 81 47 82 48 83 52 84 55 85 49 86 50 87
REMARK SMILES IDX 53 88 51 89
REMARK H PARENT 11 6 5 12 16 23 75 42 43 53
REMARK Flexibility Score: inf
ROOT
ATOM      1  C   UNL A   1      32.024  30.358  26.725  1.00  0.00     0.023 C 
ENDROOT
BRANCH   1   2
ATOM      2  C   UNL A   1      31.719  29.699  25.381  1.00  0.00     0.116 C 
BRANCH   2   3
ATOM      3  N   UNL A   1      32.874  29.723  24.511  1.00  0.00    -0.356 N 
ATOM      4  C   UNL A   1      33.208  28.868  23.506  1.00  0.00     0.220 C 
ATOM      5  O   UNL A   1      34.297  29.012  22.949  1.00  0.00    -0.275 OA
ATOM      6  H   UNL A   1      33.509  30.460  24.669  1.00  0.00     0.163 HD
BRANCH   4   7
ATOM      7  C   UNL A   1      32.274  27.736  23.118  1.00  0.00     0.115 C 
BRANCH   7   8
ATOM      8  C   UNL A   1      32.776  26.389  23.610  1.00  0.00     0.108 C 
ATOM      9  N   UNL A   1      32.921  24.309  23.188  1.00  0.00    -0.331 N 
ATOM     10  C   UNL A   1      33.622  25.501  22.672  1.00  0.00     0.272 C 
ATOM     11  C   UNL A   1      31.809  25.172  23.622  1.00  0.00     0.272 C 
ATOM     12  H   UNL A   1      32.800  23.513  22.563  1.00  0.00     0.348 HD
BRANCH   9  13
ATOM     13  C   UNL A   1      33.543  23.586  24.324  1.00  0.00     0.195 C 
ATOM     14  C   UNL A   1      36.618  22.845  23.274  1.00  0.00     0.019 C 
ATOM     15  C   UNL A   1      35.946  22.814  24.638  1.00  0.00     0.049 C 
ATOM     16  C   UNL A   1      34.941  23.927  24.902  1.00  0.00     0.080 C 
ATOM     17  S   UNL A   1      34.947  21.320  24.846  1.00  0.00    -0.152 SA
ATOM     18  C   UNL A   1      33.424  22.057  24.182  1.00  0.00     0.134 C 
ENDBRANCH   9  13
ENDBRANCH   7   8
ENDBRANCH   4   7
ENDBRANCH   2   3
ENDBRANCH   1   2
BRANCH   1  19
ATOM     19  C   UNL A   1      31.725  31.848  26.816  1.00  0.00     0.023 C 
BRANCH  19  20
ATOM     20  C   UNL A   1      32.874  32.715  27.304  1.00  0.00     0.116 C 
BRANCH  20  21
ATOM     21  N   UNL A   1      32.489  34.080  27.634  1.00  0.00    -0.352 N 
ATOM     22  C   UNL A   1      33.022  34.908  28.596  1.00  0.00     0.251 C 
ATOM     23  H   UNL A   1      31.753  34.458  27.100  1.00  0.00     0.163 HD
ATOM     24  O   UNL A   1      32.548  36.016  28.804  1.00  0.00    -0.269 OA
BRANCH  22  25
ATOM     25  C   UNL A   1      34.147  34.410  29.412  1.00  0.00     0.039 A 
ATOM     26  C   UNL A   1      33.868  33.672  30.564  1.00  0.00     0.014 A 
ATOM     27  C   UNL A   1      35.464  34.585  28.980  1.00  0.00     0.014 A 
ATOM     28  C   UNL A   1      34.909  33.023  31.231  1.00  0.00     0.010 A 
ATOM     29  C   UNL A   1      36.485  33.873  29.595  1.00  0.00     0.010 A 
ATOM     30  C   UNL A   1      36.215  33.075  30.719  1.00  0.00    -0.014 A 
BRANCH  30  31
ATOM     31  C   UNL A   1      37.320  32.292  31.324  1.00  0.00     0.031 A 
ATOM     32  C   UNL A   1      37.833  32.657  32.688  1.00  0.00     0.074 A 
ATOM     33  C   UNL A   1      37.928  31.327  30.604  1.00  0.00     0.049 A 
ATOM     34  N   UNL A   1      38.874  32.194  33.331  1.00  0.00    -0.248 NA
ATOM     35  C   UNL A   1      37.101  33.711  33.409  1.00  0.00     0.031 C 
ATOM     36  C   UNL A   1      37.563  30.925  29.244  1.00  0.00     0.029 A 
ATOM     37  N   UNL A   1      39.000  30.525  30.908  1.00  0.00    -0.354 N 
ATOM     38  C   UNL A   1      38.938  32.920  34.513  1.00  0.00     0.074 A 
ATOM     39  C   UNL A   1      37.858  33.881  34.482  1.00  0.00     0.031 C 
ATOM     40  C   UNL A   1      38.390  29.948  28.836  1.00  0.00     0.029 A 
ATOM     41  C   UNL A   1      39.364  29.680  29.889  1.00  0.00     0.049 A 
ATOM     42  H   UNL A   1      39.464  30.554  31.776  1.00  0.00     0.167 HD
ATOM     43  C   UNL A   1      39.809  32.781  35.540  1.00  0.00     0.037 A 
ATOM     44  C   UNL A   1      40.380  28.799  29.807  1.00  0.00     0.037 A 
ATOM     45  C   UNL A   1      40.846  31.787  35.591  1.00  0.00     0.049 A 
ATOM     46  C   UNL A   1      41.308  28.641  30.981  1.00  0.00     0.074 A 
ATOM     47  C   UNL A   1      41.717  31.504  36.629  1.00  0.00     0.029 A 
ATOM     48  N   UNL A   1      41.149  30.909  34.561  1.00  0.00    -0.354 N 
ATOM     49  N   UNL A   1      41.309  29.278  32.126  1.00  0.00    -0.248 NA
ATOM     50  C   UNL A   1      42.373  27.636  30.855  1.00  0.00     0.031 C 
ATOM     51  C   UNL A   1      42.571  30.478  36.214  1.00  0.00     0.029 A 
ATOM     52  C   UNL A   1      42.206  30.096  34.932  1.00  0.00     0.049 A 
ATOM     53  H   UNL A   1      40.682  30.871  33.696  1.00  0.00     0.167 HD
ATOM     54  C   UNL A   1      42.354  28.738  32.863  1.00  0.00     0.074 A 
ATOM     55  C   UNL A   1      42.955  27.707  32.043  1.00  0.00     0.031 C 
ATOM     56  C   UNL A   1      42.782  29.068  34.105  1.00  0.00     0.037 A 
BRANCH  43  57
ATOM     57  C   UNL A   1      39.672  33.717  36.703  1.00  0.00     0.064 A 
ATOM     58  C   UNL A   1      40.295  34.974  36.711  1.00  0.00     0.173 A 
ATOM     59  C   UNL A   1      38.860  33.377  37.795  1.00  0.00     0.173 A 
ATOM     60  F   UNL A   1      41.092  35.338  35.696  1.00  0.00    -0.203 F 
ATOM     61  C   UNL A   1      40.124  35.849  37.780  1.00  0.00     0.198 A 
ATOM     62  C   UNL A   1      38.670  34.266  38.850  1.00  0.00     0.198 A 
ATOM     63  F   UNL A   1      38.241  32.187  37.833  1.00  0.00    -0.203 F 
ATOM     64  F   UNL A   1      40.758  37.029  37.784  1.00  0.00    -0.200 F 
ATOM     65  C   UNL A   1      39.305  35.499  38.843  1.00  0.00     0.200 A 
ATOM     66  F   UNL A   1      37.871  33.929  39.872  1.00  0.00    -0.200 F 
ATOM     67  F   UNL A   1      39.131  36.348  39.865  1.00  0.00    -0.200 F 
ENDBRANCH  43  57
BRANCH  44  68
ATOM     68  C   UNL A   1      40.574  27.991  28.575  1.00  0.00     0.064 A 
ATOM     69  C   UNL A   1      41.337  28.481  27.506  1.00  0.00     0.173 A 
ATOM     70  C   UNL A   1      39.980  26.729  28.429  1.00  0.00     0.173 A 
ATOM     71  F   UNL A   1      41.906  29.692  27.591  1.00  0.00    -0.203 F 
ATOM     72  C   UNL A   1      41.477  27.751  26.327  1.00  0.00     0.198 A 
ATOM     73  C   UNL A   1      40.144  25.988  27.259  1.00  0.00     0.198 A 
ATOM     74  F   UNL A   1      39.245  26.214  29.424  1.00  0.00    -0.203 F 
ATOM     75  F   UNL A   1      42.167  28.267  25.301  1.00  0.00    -0.200 F 
ATOM     76  C   UNL A   1      40.883  26.504  26.206  1.00  0.00     0.200 A 
ATOM     77  F   UNL A   1      39.579  24.779  27.151  1.00  0.00    -0.200 F 
ATOM     78  F   UNL A   1      41.014  25.805  25.071  1.00  0.00    -0.200 F 
ENDBRANCH  44  68
BRANCH  56  79
ATOM     79  C   UNL A   1      43.933  28.288  34.665  1.00  0.00     0.064 A 
ATOM     80  C   UNL A   1      45.260  28.695  34.461  1.00  0.00     0.173 A 
ATOM     81  C   UNL A   1      43.705  27.149  35.449  1.00  0.00     0.173 A 
ATOM     82  F   UNL A   1      45.529  29.771  33.706  1.00  0.00    -0.203 F 
ATOM     83  C   UNL A   1      46.318  27.974  35.008  1.00  0.00     0.198 A 
ATOM     84  C   UNL A   1      44.764  26.446  36.015  1.00  0.00     0.198 A 
ATOM     85  F   UNL A   1      42.452  26.724  35.676  1.00  0.00    -0.203 F 
ATOM     86  F   UNL A   1      47.581  28.355  34.767  1.00  0.00    -0.200 F 
ATOM     87  C   UNL A   1      46.069  26.855  35.789  1.00  0.00     0.200 A 
ATOM     88  F   UNL A   1      44.521  25.372  36.779  1.00  0.00    -0.200 F 
ATOM     89  F   UNL A   1      47.090  26.167  36.319  1.00  0.00    -0.200 F 
ENDBRANCH  56  79
ENDBRANCH  30  31
ENDBRANCH  22  25
ENDBRANCH  20  21
ENDBRANCH  19  20
ENDBRANCH   1  19
TORSDOF 13
ENDMDL
MODEL 3
REMARK VINA RESULT:     -11.1      3.731      8.902
REMARK SMILES C[C@H]1C[C@@H]([NH+]2CC(CC(=O)NCCCCNC(=O)c3ccc(-c4c5nc(c(-c6c(F)c(F)c(F)c(F)c6F)c6ccc([nH]6)c(-c6c(F)c(F)c(F)c(F)c6F)c6nc(c(-c7c(F)c(F)c(F)c(F)c7F)c7ccc4[nH]7)C=C6)C=C5)cc3)C2)CS1
REMARK SMILES IDX 13 1 12 2 11 3 9 4 10 5 8 7 7 8 5 9 6 10 82 11 4 13 1 14
REMARK SMILES IDX 2 15 3 16 84 17 83 18 14 19 15 20 16 21 17 22 18 24 19 25
REMARK SMILES IDX 20 26 81 27 21 28 80 29 22 30 23 31 24 32 74 33 25 34 79 35
REMARK SMILES IDX 73 36 75 37 26 38 78 39 72 40 71 41 27 43 59 44 39 45 58 46
REMARK SMILES IDX 40 47 43 48 57 49 76 50 41 51 42 52 56 54 77 55 44 56 28 57
REMARK SMILES IDX 29 58 37 59 30 60 31 61 35 62 38 63 32 64 33 65 36 66 34 67
REMARK SMILES IDX 60 68 61 69 69 70 62 71 63 72 67 73 70 74 64 75 65 76 68 77
REMARK SMILES IDX 66 78 45 79 46 80 54 81 47 82 48 83 52 84 55 85 49 86 50 87
REMARK SMILES IDX 53 88 51 89
REMARK H PARENT 11 6 5 12 16 23 75 42 43 53
REMARK Flexibility Score: inf
ROOT
ATOM      1  C   UNL A   1      32.146  26.997  26.136  1.00  0.00     0.023 C 
ENDROOT
BRANCH   1   2
ATOM      2  C   UNL A   1      30.744  26.480  25.816  1.00  0.00     0.116 C 
BRANCH   2   3
ATOM      3  N   UNL A   1      30.373  25.392  26.695  1.00  0.00    -0.356 N 
ATOM      4  C   UNL A   1      30.384  24.053  26.453  1.00  0.00     0.220 C 
ATOM      5  O   UNL A   1      29.931  23.296  27.312  1.00  0.00    -0.275 OA
ATOM      6  H   UNL A   1      30.070  25.658  27.595  1.00  0.00     0.163 HD
BRANCH   4   7
ATOM      7  C   UNL A   1      30.901  23.516  25.131  1.00  0.00     0.115 C 
BRANCH   7   8
ATOM      8  C   UNL A   1      32.301  22.937  25.258  1.00  0.00     0.108 C 
ATOM      9  N   UNL A   1      33.580  21.311  24.765  1.00  0.00    -0.331 N 
ATOM     10  C   UNL A   1      33.042  22.450  23.994  1.00  0.00     0.272 C 
ATOM     11  C   UNL A   1      32.480  21.468  25.731  1.00  0.00     0.272 C 
ATOM     12  H   UNL A   1      33.768  20.440  24.269  1.00  0.00     0.348 HD
BRANCH   9  13
ATOM     13  C   UNL A   1      34.910  21.479  25.400  1.00  0.00     0.195 C 
ATOM     14  C   UNL A   1      36.785  22.938  23.063  1.00  0.00     0.019 C 
ATOM     15  C   UNL A   1      36.969  22.709  24.556  1.00  0.00     0.049 C 
ATOM     16  C   UNL A   1      35.704  22.810  25.398  1.00  0.00     0.080 C 
ATOM     17  S   UNL A   1      37.541  21.027  24.898  1.00  0.00    -0.152 SA
ATOM     18  C   UNL A   1      35.872  20.326  25.060  1.00  0.00     0.134 C 
ENDBRANCH   9  13
ENDBRANCH   7   8
ENDBRANCH   4   7
ENDBRANCH   2   3
ENDBRANCH   1   2
BRANCH   1  19
ATOM     19  C   UNL A   1      32.209  28.237  27.018  1.00  0.00     0.023 C 
BRANCH  19  20
ATOM     20  C   UNL A   1      33.603  28.784  27.272  1.00  0.00     0.116 C 
BRANCH  20  21
ATOM     21  N   UNL A   1      33.624  30.168  27.726  1.00  0.00    -0.352 N 
ATOM     22  C   UNL A   1      34.660  30.857  28.314  1.00  0.00     0.251 C 
ATOM     23  H   UNL A   1      32.790  30.674  27.596  1.00  0.00     0.163 HD
ATOM     24  O   UNL A   1      34.508  32.005  28.707  1.00  0.00    -0.269 OA
BRANCH  22  25
ATOM     25  C   UNL A   1      35.948  30.162  28.513  1.00  0.00     0.039 A 
ATOM     26  C   UNL A   1      36.908  30.222  27.502  1.00  0.00     0.014 A 
ATOM     27  C   UNL A   1      36.236  29.547  29.733  1.00  0.00     0.014 A 
ATOM     28  C   UNL A   1      38.198  29.749  27.752  1.00  0.00     0.010 A 
ATOM     29  C   UNL A   1      37.539  29.154  30.009  1.00  0.00     0.010 A 
ATOM     30  C   UNL A   1      38.536  29.263  29.025  1.00  0.00    -0.014 A 
BRANCH  30  31
ATOM     31  C   UNL A   1      39.927  28.876  29.366  1.00  0.00     0.031 A 
ATOM     32  C   UNL A   1      40.799  29.829  30.132  1.00  0.00     0.074 A 
ATOM     33  C   UNL A   1      40.433  27.719  28.895  1.00  0.00     0.049 A 
ATOM     34  N   UNL A   1      42.076  29.744  30.406  1.00  0.00    -0.248 NA
ATOM     35  C   UNL A   1      40.161  31.063  30.620  1.00  0.00     0.031 C 
ATOM     36  C   UNL A   1      39.704  26.740  28.085  1.00  0.00     0.029 A 
ATOM     37  N   UNL A   1      41.690  27.180  29.009  1.00  0.00    -0.354 N 
ATOM     38  C   UNL A   1      42.397  30.921  31.069  1.00  0.00     0.074 A 
ATOM     39  C   UNL A   1      41.194  31.722  31.122  1.00  0.00     0.031 C 
ATOM     40  C   UNL A   1      40.523  25.719  27.784  1.00  0.00     0.029 A 
ATOM     41  C   UNL A   1      41.842  25.987  28.347  1.00  0.00     0.049 A 
ATOM     42  H   UNL A   1      42.416  27.610  29.518  1.00  0.00     0.167 HD
ATOM     43  C   UNL A   1      43.585  31.288  31.604  1.00  0.00     0.037 A 
ATOM     44  C   UNL A   1      42.929  25.204  28.198  1.00  0.00     0.037 A 
ATOM     45  C   UNL A   1      44.762  30.464  31.600  1.00  0.00     0.049 A 
ATOM     46  C   UNL A   1      44.225  25.621  28.838  1.00  0.00     0.074 A 
ATOM     47  C   UNL A   1      45.986  30.706  32.200  1.00  0.00     0.029 A 
ATOM     48  N   UNL A   1      44.862  29.234  30.967  1.00  0.00    -0.354 N 
ATOM     49  N   UNL A   1      44.495  26.700  29.531  1.00  0.00    -0.248 NA
ATOM     50  C   UNL A   1      45.367  24.710  28.679  1.00  0.00     0.031 C 
ATOM     51  C   UNL A   1      46.838  29.639  31.900  1.00  0.00     0.029 A 
ATOM     52  C   UNL A   1      46.132  28.714  31.147  1.00  0.00     0.049 A 
ATOM     53  H   UNL A   1      44.137  28.796  30.465  1.00  0.00     0.167 HD
ATOM     54  C   UNL A   1      45.826  26.587  29.911  1.00  0.00     0.074 A 
ATOM     55  C   UNL A   1      46.305  25.325  29.386  1.00  0.00     0.031 C 
ATOM     56  C   UNL A   1      46.586  27.451  30.626  1.00  0.00     0.037 A 
BRANCH  43  57
ATOM     57  C   UNL A   1      43.670  32.636  32.255  1.00  0.00     0.064 A 
ATOM     58  C   UNL A   1      44.020  33.782  31.525  1.00  0.00     0.173 A 
ATOM     59  C   UNL A   1      43.341  32.792  33.609  1.00  0.00     0.173 A 
ATOM     60  F   UNL A   1      44.357  33.681  30.231  1.00  0.00    -0.203 F 
ATOM     61  C   UNL A   1      44.055  35.033  32.134  1.00  0.00     0.198 A 
ATOM     62  C   UNL A   1      43.351  34.049  34.208  1.00  0.00     0.198 A 
ATOM     63  F   UNL A   1      42.998  31.727  34.349  1.00  0.00    -0.203 F 
ATOM     64  F   UNL A   1      44.427  36.109  31.428  1.00  0.00    -0.200 F 
ATOM     65  C   UNL A   1      43.712  35.167  33.471  1.00  0.00     0.200 A 
ATOM     66  F   UNL A   1      43.010  34.178  35.498  1.00  0.00    -0.200 F 
ATOM     67  F   UNL A   1      43.732  36.375  34.052  1.00  0.00    -0.200 F 
ENDBRANCH  43  57
BRANCH  44  68
ATOM     68  C   UNL A   1      42.842  23.943  27.418  1.00  0.00     0.064 A 
ATOM     69  C   UNL A   1      42.454  22.743  28.031  1.00  0.00     0.173 A 
ATOM     70  C   UNL A   1      43.169  23.903  26.055  1.00  0.00     0.173 A 
ATOM     71  F   UNL A   1      42.153  22.727  29.337  1.00  0.00    -0.203 F 
ATOM     72  C   UNL A   1      42.423  21.546  27.317  1.00  0.00     0.198 A 
ATOM     73  C   UNL A   1      43.111  22.710  25.335  1.00  0.00     0.198 A 
ATOM     74  F   UNL A   1      43.540  25.024  25.421  1.00  0.00    -0.203 F 
ATOM     75  F   UNL A   1      42.101  20.405  27.941  1.00  0.00    -0.200 F 
ATOM     76  C   UNL A   1      42.748  21.532  25.969  1.00  0.00     0.200 A 
ATOM     77  F   UNL A   1      43.414  22.703  24.031  1.00  0.00    -0.200 F 
ATOM     78  F   UNL A   1      42.723  20.380  25.284  1.00  0.00    -0.200 F 
ENDBRANCH  44  68
BRANCH  56  79
ATOM     79  C   UNL A   1      48.002  27.049  30.908  1.00  0.00     0.064 A 
ATOM     80  C   UNL A   1      49.063  27.496  30.108  1.00  0.00     0.173 A 
ATOM     81  C   UNL A   1      48.303  26.245  32.016  1.00  0.00     0.173 A 
ATOM     82  F   UNL A   1      48.821  28.256  29.028  1.00  0.00    -0.203 F 
ATOM     83  C   UNL A   1      50.376  27.134  30.397  1.00  0.00     0.198 A 
ATOM     84  C   UNL A   1      49.620  25.906  32.317  1.00  0.00     0.198 A 
ATOM     85  F   UNL A   1      47.323  25.797  32.815  1.00  0.00    -0.203 F 
ATOM     86  F   UNL A   1      51.371  27.538  29.595  1.00  0.00    -0.200 F 
ATOM     87  C   UNL A   1      50.653  26.346  31.504  1.00  0.00     0.200 A 
ATOM     88  F   UNL A   1      49.887  25.154  33.394  1.00  0.00    -0.200 F 
ATOM     89  F   UNL A   1      51.919  26.004  31.784  1.00  0.00    -0.200 F 
ENDBRANCH  56  79
ENDBRANCH  30  31
ENDBRANCH  22  25
ENDBRANCH  20  21
ENDBRANCH  19  20
ENDBRANCH   1  19
TORSDOF 13
ENDMDL
