MODEL 1
REMARK VINA RESULT:     -11.9      0.000      0.000
REMARK SMILES CC(C)Cc1ccc([C@H](CC[C@@H](C)O)C(=O)NCCCCNC(=O)c2ccc(-c3c4nc(c(-c5c(F)c(F)c(F)c(F)c5F)c5ccc([nH]5)c(-c5c(F)c(F)c(F)c(F)c5F)c5nc(c(-c6c(F)c(F)c(F)c(F)c6F)c6ccc3[nH]6)C=C5)C=C4)cc2)cc1
REMARK SMILES IDX 18 1 17 2 15 3 16 4 9 6 8 7 5 8 6 9 89 10 7 11 88 12 4 13
REMARK SMILES IDX 2 14 1 15 3 16 10 17 11 18 12 19 13 20 14 21 19 23 20 24
REMARK SMILES IDX 21 25 22 26 23 27 24 29 25 30 26 31 87 32 27 33 86 34 28 35
REMARK SMILES IDX 29 36 30 37 80 38 31 39 85 40 79 41 81 42 32 43 84 44 78 45
REMARK SMILES IDX 77 46 33 48 65 49 45 50 64 51 46 52 49 53 63 54 82 55 47 56
REMARK SMILES IDX 48 57 62 59 83 60 50 61 34 62 35 63 43 64 36 65 37 66 41 67
REMARK SMILES IDX 44 68 38 69 39 70 42 71 40 72 66 73 67 74 75 75 68 76 69 77
REMARK SMILES IDX 73 78 76 79 70 80 71 81 74 82 72 83 51 84 52 85 60 86 53 87
REMARK SMILES IDX 54 88 58 89 61 90 55 91 56 92 59 93 57 94
REMARK H PARENT 17 5 14 22 22 28 81 47 49 58
REMARK Flexibility Score: inf
ROOT
ATOM      1  C   UNL A   1      33.446  29.577  26.517  1.00  0.00     0.116 C 
ENDROOT
BRANCH   1   2
ATOM      2  N   UNL A   1      33.675  29.709  25.089  1.00  0.00    -0.356 N 
ATOM      3  C   UNL A   1      33.238  28.907  24.070  1.00  0.00     0.227 C 
ATOM      4  O   UNL A   1      33.559  29.205  22.918  1.00  0.00    -0.274 OA
ATOM      5  H   UNL A   1      34.222  30.481  24.816  1.00  0.00     0.163 HD
BRANCH   3   6
ATOM      6  C   UNL A   1      32.375  27.666  24.363  1.00  0.00     0.108 C 
BRANCH   6   7
ATOM      7  C   UNL A   1      33.167  26.358  24.231  1.00  0.00    -0.036 A 
ATOM      8  C   UNL A   1      34.798  24.037  23.966  1.00  0.00    -0.048 A 
ATOM      9  C   UNL A   1      34.820  24.798  25.137  1.00  0.00     0.004 A 
ATOM     10  C   UNL A   1      33.928  24.435  22.942  1.00  0.00     0.004 A 
ATOM     11  C   UNL A   1      33.994  25.916  25.280  1.00  0.00     0.005 A 
ATOM     12  C   UNL A   1      33.113  25.566  23.077  1.00  0.00     0.005 A 
BRANCH   8  13
ATOM     13  C   UNL A   1      35.707  22.850  23.737  1.00  0.00     0.038 C 
BRANCH  13  14
ATOM     14  C   UNL A   1      35.406  21.549  24.512  1.00  0.00    -0.013 C 
ATOM     15  C   UNL A   1      36.325  21.366  25.723  1.00  0.00     0.008 C 
ATOM     16  C   UNL A   1      33.947  21.553  24.981  1.00  0.00     0.008 C 
ENDBRANCH  13  14
ENDBRANCH   8  13
ENDBRANCH   6   7
BRANCH   6  17
ATOM     17  C   UNL A   1      31.087  27.774  23.503  1.00  0.00     0.021 C 
BRANCH  17  18
ATOM     18  C   UNL A   1      30.327  29.094  23.642  1.00  0.00     0.032 C 
BRANCH  18  19
ATOM     19  C   UNL A   1      29.840  29.717  22.327  1.00  0.00     0.111 C 
ATOM     20  C   UNL A   1      28.979  30.964  22.498  1.00  0.00     0.038 C 
BRANCH  19  21
ATOM     21  O   UNL A   1      30.994  30.071  21.562  1.00  0.00    -0.393 OA
ATOM     22  H   UNL A   1      31.517  29.275  21.378  1.00  0.00     0.210 HD
ENDBRANCH  19  21
ENDBRANCH  18  19
ENDBRANCH  17  18
ENDBRANCH   6  17
ENDBRANCH   3   6
ENDBRANCH   1   2
BRANCH   1  23
ATOM     23  C   UNL A   1      32.072  30.107  26.918  1.00  0.00     0.023 C 
BRANCH  23  24
ATOM     24  C   UNL A   1      31.904  31.610  26.729  1.00  0.00     0.023 C 
BRANCH  24  25
ATOM     25  C   UNL A   1      32.920  32.459  27.482  1.00  0.00     0.116 C 
BRANCH  25  26
ATOM     26  N   UNL A   1      32.492  33.840  27.662  1.00  0.00    -0.352 N 
ATOM     27  C   UNL A   1      33.001  34.780  28.525  1.00  0.00     0.251 C 
ATOM     28  H   UNL A   1      31.743  34.137  27.095  1.00  0.00     0.163 HD
ATOM     29  O   UNL A   1      32.470  35.877  28.656  1.00  0.00    -0.269 OA
BRANCH  27  30
ATOM     30  C   UNL A   1      34.186  34.424  29.325  1.00  0.00     0.039 A 
ATOM     31  C   UNL A   1      34.006  33.840  30.581  1.00  0.00     0.014 A 
ATOM     32  C   UNL A   1      35.465  34.583  28.785  1.00  0.00     0.014 A 
ATOM     33  C   UNL A   1      35.113  33.337  31.265  1.00  0.00     0.010 A 
ATOM     34  C   UNL A   1      36.554  34.019  29.434  1.00  0.00     0.010 A 
ATOM     35  C   UNL A   1      36.386  33.383  30.675  1.00  0.00    -0.014 A 
BRANCH  35  36
ATOM     36  C   UNL A   1      37.565  32.763  31.323  1.00  0.00     0.031 A 
ATOM     37  C   UNL A   1      38.244  31.594  30.670  1.00  0.00     0.074 A 
ATOM     38  C   UNL A   1      37.948  33.174  32.547  1.00  0.00     0.049 A 
ATOM     39  N   UNL A   1      39.192  30.821  31.133  1.00  0.00    -0.248 NA
ATOM     40  C   UNL A   1      37.762  31.221  29.330  1.00  0.00     0.031 C 
ATOM     41  C   UNL A   1      37.323  34.256  33.310  1.00  0.00     0.029 A 
ATOM     42  N   UNL A   1      38.937  32.710  33.376  1.00  0.00    -0.354 N 
ATOM     43  C   UNL A   1      39.396  29.854  30.160  1.00  0.00     0.074 A 
ATOM     44  C   UNL A   1      38.446  30.110  29.100  1.00  0.00     0.031 C 
ATOM     45  C   UNL A   1      37.944  34.374  34.494  1.00  0.00     0.029 A 
ATOM     46  C   UNL A   1      38.986  33.356  34.587  1.00  0.00     0.049 A 
ATOM     47  H   UNL A   1      39.552  31.983  33.128  1.00  0.00     0.167 HD
ATOM     48  C   UNL A   1      40.306  28.852  30.147  1.00  0.00     0.037 A 
ATOM     49  C   UNL A   1      39.772  33.139  35.659  1.00  0.00     0.037 A 
ATOM     50  C   UNL A   1      41.277  28.629  31.184  1.00  0.00     0.049 A 
ATOM     51  C   UNL A   1      40.806  32.048  35.602  1.00  0.00     0.074 A 
ATOM     52  C   UNL A   1      42.303  27.702  31.222  1.00  0.00     0.029 A 
ATOM     53  N   UNL A   1      41.338  29.345  32.371  1.00  0.00    -0.354 N 
ATOM     54  N   UNL A   1      41.046  31.188  34.643  1.00  0.00    -0.248 NA
ATOM     55  C   UNL A   1      41.683  31.904  36.772  1.00  0.00     0.031 C 
ATOM     56  C   UNL A   1      42.962  27.832  32.450  1.00  0.00     0.029 A 
ATOM     57  C   UNL A   1      42.374  28.868  33.158  1.00  0.00     0.049 A 
ATOM     58  H   UNL A   1      40.736  30.084  32.618  1.00  0.00     0.167 HD
ATOM     59  C   UNL A   1      42.112  30.415  35.081  1.00  0.00     0.074 A 
ATOM     60  C   UNL A   1      42.481  30.916  36.389  1.00  0.00     0.031 C 
ATOM     61  C   UNL A   1      42.730  29.383  34.455  1.00  0.00     0.037 A 
BRANCH  48  62
ATOM     62  C   UNL A   1      40.290  27.921  28.970  1.00  0.00     0.064 A 
ATOM     63  C   UNL A   1      39.554  26.727  28.984  1.00  0.00     0.173 A 
ATOM     64  C   UNL A   1      41.009  28.235  27.807  1.00  0.00     0.173 A 
ATOM     65  F   UNL A   1      38.860  26.374  30.078  1.00  0.00    -0.203 F 
ATOM     66  C   UNL A   1      39.566  25.865  27.892  1.00  0.00     0.198 A 
ATOM     67  C   UNL A   1      40.996  27.384  26.705  1.00  0.00     0.198 A 
ATOM     68  F   UNL A   1      41.727  29.366  27.740  1.00  0.00    -0.203 F 
ATOM     69  F   UNL A   1      38.902  24.702  27.950  1.00  0.00    -0.200 F 
ATOM     70  C   UNL A   1      40.282  26.196  26.751  1.00  0.00     0.200 A 
ATOM     71  F   UNL A   1      41.680  27.711  25.600  1.00  0.00    -0.200 F 
ATOM     72  F   UNL A   1      40.293  25.365  25.700  1.00  0.00    -0.200 F 
ENDBRANCH  48  62
BRANCH  49  73
ATOM     73  C   UNL A   1      39.621  33.991  36.865  1.00  0.00     0.064 A 
ATOM     74  C   UNL A   1      40.248  35.242  36.945  1.00  0.00     0.173 A 
ATOM     75  C   UNL A   1      38.832  33.584  37.950  1.00  0.00     0.173 A 
ATOM     76  F   UNL A   1      41.027  35.665  35.939  1.00  0.00    -0.203 F 
ATOM     77  C   UNL A   1      40.100  36.050  38.071  1.00  0.00     0.198 A 
ATOM     78  C   UNL A   1      38.665  34.402  39.065  1.00  0.00     0.198 A 
ATOM     79  F   UNL A   1      38.206  32.399  37.917  1.00  0.00    -0.203 F 
ATOM     80  F   UNL A   1      40.735  37.228  38.135  1.00  0.00    -0.200 F 
ATOM     81  C   UNL A   1      39.303  35.632  39.126  1.00  0.00     0.200 A 
ATOM     82  F   UNL A   1      37.883  34.003  40.077  1.00  0.00    -0.200 F 
ATOM     83  F   UNL A   1      39.153  36.414  40.205  1.00  0.00    -0.200 F 
ENDBRANCH  49  73
BRANCH  61  84
ATOM     84  C   UNL A   1      43.887  28.744  35.162  1.00  0.00     0.064 A 
ATOM     85  C   UNL A   1      43.708  27.656  36.028  1.00  0.00     0.173 A 
ATOM     86  C   UNL A   1      45.196  29.193  34.929  1.00  0.00     0.173 A 
ATOM     87  F   UNL A   1      42.474  27.201  36.293  1.00  0.00    -0.203 F 
ATOM     88  C   UNL A   1      44.797  27.050  36.648  1.00  0.00     0.198 A 
ATOM     89  C   UNL A   1      46.284  28.570  35.531  1.00  0.00     0.198 A 
ATOM     90  F   UNL A   1      45.418  30.228  34.104  1.00  0.00    -0.203 F 
ATOM     91  F   UNL A   1      44.602  26.035  37.500  1.00  0.00    -0.200 F 
ATOM     92  C   UNL A   1      46.084  27.502  36.393  1.00  0.00     0.200 A 
ATOM     93  F   UNL A   1      47.527  29.001  35.275  1.00  0.00    -0.200 F 
ATOM     94  F   UNL A   1      47.132  26.912  36.984  1.00  0.00    -0.200 F 
ENDBRANCH  61  84
ENDBRANCH  35  36
ENDBRANCH  27  30
ENDBRANCH  25  26
ENDBRANCH  24  25
ENDBRANCH  23  24
ENDBRANCH   1  23
TORSDOF 18
ENDMDL
MODEL 2
REMARK VINA RESULT:     -11.9      5.918     11.308
REMARK SMILES CC(C)Cc1ccc([C@H](CC[C@@H](C)O)C(=O)NCCCCNC(=O)c2ccc(-c3c4nc(c(-c5c(F)c(F)c(F)c(F)c5F)c5ccc([nH]5)c(-c5c(F)c(F)c(F)c(F)c5F)c5nc(c(-c6c(F)c(F)c(F)c(F)c6F)c6ccc3[nH]6)C=C5)C=C4)cc2)cc1
REMARK SMILES IDX 18 1 17 2 15 3 16 4 9 6 8 7 5 8 6 9 89 10 7 11 88 12 4 13
REMARK SMILES IDX 2 14 1 15 3 16 10 17 11 18 12 19 13 20 14 21 19 23 20 24
REMARK SMILES IDX 21 25 22 26 23 27 24 29 25 30 26 31 87 32 27 33 86 34 28 35
REMARK SMILES IDX 29 36 30 37 80 38 31 39 85 40 79 41 81 42 32 43 84 44 78 45
REMARK SMILES IDX 77 46 33 48 65 49 45 50 64 51 46 52 49 53 63 54 82 55 47 56
REMARK SMILES IDX 48 57 62 59 83 60 50 61 34 62 35 63 43 64 36 65 37 66 41 67
REMARK SMILES IDX 44 68 38 69 39 70 42 71 40 72 66 73 67 74 75 75 68 76 69 77
REMARK SMILES IDX 73 78 76 79 70 80 71 81 74 82 72 83 51 84 52 85 60 86 53 87
REMARK SMILES IDX 54 88 58 89 61 90 55 91 56 92 59 93 57 94
REMARK H PARENT 17 5 14 22 22 28 81 47 49 58
REMARK Flexibility Score: inf
ROOT
ATOM      1  C   UNL A   1      36.789  22.717  25.486  1.00  0.00     0.116 C 
ENDROOT
BRANCH   1   2
ATOM      2  N   UNL A   1      35.945  22.114  26.503  1.00  0.00    -0.356 N 
ATOM      3  C   UNL A   1      34.582  21.995  26.530  1.00  0.00     0.227 C 
ATOM      4  O   UNL A   1      34.067  21.446  27.506  1.00  0.00    -0.274 OA
ATOM      5  H   UNL A   1      36.419  21.741  27.281  1.00  0.00     0.163 HD
BRANCH   3   6
ATOM      6  C   UNL A   1      33.724  22.539  25.373  1.00  0.00     0.108 C 
BRANCH   6   7
ATOM      7  C   UNL A   1      33.275  23.988  25.609  1.00  0.00    -0.036 A 
ATOM      8  C   UNL A   1      32.570  26.686  26.192  1.00  0.00    -0.048 A 
ATOM      9  C   UNL A   1      33.777  26.382  25.560  1.00  0.00     0.004 A 
ATOM     10  C   UNL A   1      31.706  25.626  26.502  1.00  0.00     0.004 A 
ATOM     11  C   UNL A   1      34.106  25.061  25.243  1.00  0.00     0.005 A 
ATOM     12  C   UNL A   1      32.044  24.300  26.200  1.00  0.00     0.005 A 
BRANCH   8  13
ATOM     13  C   UNL A   1      32.186  28.090  26.605  1.00  0.00     0.038 C 
BRANCH  13  14
ATOM     14  C   UNL A   1      32.120  29.174  25.507  1.00  0.00    -0.013 C 
ATOM     15  C   UNL A   1      31.087  28.844  24.426  1.00  0.00     0.008 C 
ATOM     16  C   UNL A   1      31.778  30.528  26.138  1.00  0.00     0.008 C 
ENDBRANCH  13  14
ENDBRANCH   8  13
ENDBRANCH   6   7
BRANCH   6  17
ATOM     17  C   UNL A   1      32.594  21.510  25.100  1.00  0.00     0.021 C 
BRANCH  17  18
ATOM     18  C   UNL A   1      32.962  20.393  24.123  1.00  0.00     0.032 C 
BRANCH  18  19
ATOM     19  C   UNL A   1      32.946  18.974  24.706  1.00  0.00     0.111 C 
ATOM     20  C   UNL A   1      34.211  18.165  24.437  1.00  0.00     0.038 C 
BRANCH  19  21
ATOM     21  O   UNL A   1      32.780  19.089  26.120  1.00  0.00    -0.393 OA
ATOM     22  H   UNL A   1      33.470  18.576  26.570  1.00  0.00     0.210 HD
ENDBRANCH  19  21
ENDBRANCH  18  19
ENDBRANCH  17  18
ENDBRANCH   6  17
ENDBRANCH   3   6
ENDBRANCH   1   2
BRANCH   1  23
ATOM     23  C   UNL A   1      37.220  21.698  24.435  1.00  0.00     0.023 C 
BRANCH  23  24
ATOM     24  C   UNL A   1      37.854  20.438  25.013  1.00  0.00     0.023 C 
BRANCH  24  25
ATOM     25  C   UNL A   1      39.171  20.670  25.742  1.00  0.00     0.116 C 
BRANCH  25  26
ATOM     26  N   UNL A   1      39.981  19.464  25.860  1.00  0.00    -0.352 N 
ATOM     27  C   UNL A   1      41.324  19.368  26.127  1.00  0.00     0.251 C 
ATOM     28  H   UNL A   1      39.505  18.611  25.733  1.00  0.00     0.163 HD
ATOM     29  O   UNL A   1      41.905  18.290  26.086  1.00  0.00    -0.269 OA
BRANCH  27  30
ATOM     30  C   UNL A   1      42.067  20.605  26.426  1.00  0.00     0.039 A 
ATOM     31  C   UNL A   1      42.530  21.392  25.369  1.00  0.00     0.014 A 
ATOM     32  C   UNL A   1      42.215  21.025  27.750  1.00  0.00     0.014 A 
ATOM     33  C   UNL A   1      43.072  22.648  25.639  1.00  0.00     0.010 A 
ATOM     34  C   UNL A   1      42.688  22.303  28.011  1.00  0.00     0.010 A 
ATOM     35  C   UNL A   1      43.113  23.129  26.957  1.00  0.00    -0.014 A 
BRANCH  35  36
ATOM     36  C   UNL A   1      43.581  24.500  27.270  1.00  0.00     0.031 A 
ATOM     37  C   UNL A   1      42.603  25.525  27.764  1.00  0.00     0.074 A 
ATOM     38  C   UNL A   1      44.853  24.848  26.998  1.00  0.00     0.049 A 
ATOM     39  N   UNL A   1      42.773  26.808  27.957  1.00  0.00    -0.248 NA
ATOM     40  C   UNL A   1      41.238  25.050  28.040  1.00  0.00     0.031 C 
ATOM     41  C   UNL A   1      45.878  23.956  26.453  1.00  0.00     0.029 A 
ATOM     42  N   UNL A   1      45.492  26.056  27.116  1.00  0.00    -0.354 N 
ATOM     43  C   UNL A   1      41.533  27.296  28.343  1.00  0.00     0.074 A 
ATOM     44  C   UNL A   1      40.611  26.183  28.316  1.00  0.00     0.031 C 
ATOM     45  C   UNL A   1      47.017  24.646  26.286  1.00  0.00     0.029 A 
ATOM     46  C   UNL A   1      46.794  26.034  26.679  1.00  0.00     0.049 A 
ATOM     47  H   UNL A   1      45.060  26.862  27.479  1.00  0.00     0.167 HD
ATOM     48  C   UNL A   1      41.201  28.559  28.703  1.00  0.00     0.037 A 
ATOM     49  C   UNL A   1      47.700  27.026  26.589  1.00  0.00     0.037 A 
ATOM     50  C   UNL A   1      42.133  29.652  28.768  1.00  0.00     0.049 A 
ATOM     51  C   UNL A   1      47.319  28.411  27.036  1.00  0.00     0.074 A 
ATOM     52  C   UNL A   1      41.919  30.944  29.211  1.00  0.00     0.029 A 
ATOM     53  N   UNL A   1      43.463  29.576  28.378  1.00  0.00    -0.354 N 
ATOM     54  N   UNL A   1      46.165  28.847  27.477  1.00  0.00    -0.248 NA
ATOM     55  C   UNL A   1      48.369  29.437  26.982  1.00  0.00     0.031 C 
ATOM     56  C   UNL A   1      43.109  31.663  29.052  1.00  0.00     0.029 A 
ATOM     57  C   UNL A   1      44.077  30.807  28.551  1.00  0.00     0.049 A 
ATOM     58  H   UNL A   1      43.905  28.768  28.029  1.00  0.00     0.167 HD
ATOM     59  C   UNL A   1      46.351  30.190  27.773  1.00  0.00     0.074 A 
ATOM     60  C   UNL A   1      47.736  30.495  27.473  1.00  0.00     0.031 C 
ATOM     61  C   UNL A   1      45.457  31.089  28.251  1.00  0.00     0.037 A 
BRANCH  48  62
ATOM     62  C   UNL A   1      39.766  28.821  29.051  1.00  0.00     0.064 A 
ATOM     63  C   UNL A   1      39.280  28.648  30.356  1.00  0.00     0.173 A 
ATOM     64  C   UNL A   1      38.867  29.263  28.069  1.00  0.00     0.173 A 
ATOM     65  F   UNL A   1      40.096  28.213  31.328  1.00  0.00    -0.203 F 
ATOM     66  C   UNL A   1      37.940  28.875  30.657  1.00  0.00     0.198 A 
ATOM     67  C   UNL A   1      37.533  29.518  28.380  1.00  0.00     0.198 A 
ATOM     68  F   UNL A   1      39.280  29.447  26.807  1.00  0.00    -0.203 F 
ATOM     69  F   UNL A   1      37.486  28.648  31.898  1.00  0.00    -0.200 F 
ATOM     70  C   UNL A   1      37.069  29.314  29.672  1.00  0.00     0.200 A 
ATOM     71  F   UNL A   1      36.696  29.951  27.429  1.00  0.00    -0.200 F 
ATOM     72  F   UNL A   1      35.780  29.533  29.963  1.00  0.00    -0.200 F 
ENDBRANCH  48  62
BRANCH  49  73
ATOM     73  C   UNL A   1      49.061  26.734  26.071  1.00  0.00     0.064 A 
ATOM     74  C   UNL A   1      49.383  26.964  24.727  1.00  0.00     0.173 A 
ATOM     75  C   UNL A   1      50.069  26.243  26.912  1.00  0.00     0.173 A 
ATOM     76  F   UNL A   1      48.445  27.416  23.882  1.00  0.00    -0.203 F 
ATOM     77  C   UNL A   1      50.662  26.701  24.240  1.00  0.00     0.198 A 
ATOM     78  C   UNL A   1      51.354  26.004  26.430  1.00  0.00     0.198 A 
ATOM     79  F   UNL A   1      49.812  26.015  28.208  1.00  0.00    -0.203 F 
ATOM     80  F   UNL A   1      50.936  26.900  22.943  1.00  0.00    -0.200 F 
ATOM     81  C   UNL A   1      51.648  26.229  25.093  1.00  0.00     0.200 A 
ATOM     82  F   UNL A   1      52.308  25.561  27.259  1.00  0.00    -0.200 F 
ATOM     83  F   UNL A   1      52.881  25.986  24.626  1.00  0.00    -0.200 F 
ENDBRANCH  49  73
BRANCH  61  84
ATOM     84  C   UNL A   1      45.952  32.481  28.508  1.00  0.00     0.064 A 
ATOM     85  C   UNL A   1      46.530  32.840  29.733  1.00  0.00     0.173 A 
ATOM     86  C   UNL A   1      45.894  33.451  27.496  1.00  0.00     0.173 A 
ATOM     87  F   UNL A   1      46.593  31.951  30.736  1.00  0.00    -0.203 F 
ATOM     88  C   UNL A   1      47.018  34.127  29.942  1.00  0.00     0.198 A 
ATOM     89  C   UNL A   1      46.406  34.728  27.699  1.00  0.00     0.198 A 
ATOM     90  F   UNL A   1      45.355  33.153  26.303  1.00  0.00    -0.203 F 
ATOM     91  F   UNL A   1      47.534  34.462  31.133  1.00  0.00    -0.200 F 
ATOM     92  C   UNL A   1      46.963  35.067  28.923  1.00  0.00     0.200 A 
ATOM     93  F   UNL A   1      46.362  35.632  26.710  1.00  0.00    -0.200 F 
ATOM     94  F   UNL A   1      47.442  36.303  29.123  1.00  0.00    -0.200 F 
ENDBRANCH  61  84
ENDBRANCH  35  36
ENDBRANCH  27  30
ENDBRANCH  25  26
ENDBRANCH  24  25
ENDBRANCH  23  24
ENDBRANCH   1  23
TORSDOF 18
ENDMDL
MODEL 3
REMARK VINA RESULT:     -11.5      0.750      7.256
REMARK SMILES CC(C)Cc1ccc([C@H](CC[C@@H](C)O)C(=O)NCCCCNC(=O)c2ccc(-c3c4nc(c(-c5c(F)c(F)c(F)c(F)c5F)c5ccc([nH]5)c(-c5c(F)c(F)c(F)c(F)c5F)c5nc(c(-c6c(F)c(F)c(F)c(F)c6F)c6ccc3[nH]6)C=C5)C=C4)cc2)cc1
REMARK SMILES IDX 18 1 17 2 15 3 16 4 9 6 8 7 5 8 6 9 89 10 7 11 88 12 4 13
REMARK SMILES IDX 2 14 1 15 3 16 10 17 11 18 12 19 13 20 14 21 19 23 20 24
REMARK SMILES IDX 21 25 22 26 23 27 24 29 25 30 26 31 87 32 27 33 86 34 28 35
REMARK SMILES IDX 29 36 30 37 80 38 31 39 85 40 79 41 81 42 32 43 84 44 78 45
REMARK SMILES IDX 77 46 33 48 65 49 45 50 64 51 46 52 49 53 63 54 82 55 47 56
REMARK SMILES IDX 48 57 62 59 83 60 50 61 34 62 35 63 43 64 36 65 37 66 41 67
REMARK SMILES IDX 44 68 38 69 39 70 42 71 40 72 66 73 67 74 75 75 68 76 69 77
REMARK SMILES IDX 73 78 76 79 70 80 71 81 74 82 72 83 51 84 52 85 60 86 53 87
REMARK SMILES IDX 54 88 58 89 61 90 55 91 56 92 59 93 57 94
REMARK H PARENT 17 5 14 22 22 28 81 47 49 58
REMARK Flexibility Score: inf
ROOT
ATOM      1  C   UNL A   1      32.991  29.430  26.342  1.00  0.00     0.116 C 
ENDROOT
BRANCH   1   2
ATOM      2  N   UNL A   1      33.414  29.665  24.973  1.00  0.00    -0.356 N 
ATOM      3  C   UNL A   1      33.137  28.935  23.850  1.00  0.00     0.227 C 
ATOM      4  O   UNL A   1      33.611  29.316  22.778  1.00  0.00    -0.274 OA
ATOM      5  H   UNL A   1      33.980  30.459  24.834  1.00  0.00     0.163 HD
BRANCH   3   6
ATOM      6  C   UNL A   1      32.265  27.669  23.932  1.00  0.00     0.108 C 
BRANCH   6   7
ATOM      7  C   UNL A   1      33.101  26.382  23.961  1.00  0.00    -0.036 A 
ATOM      8  C   UNL A   1      34.812  24.104  24.010  1.00  0.00    -0.048 A 
ATOM      9  C   UNL A   1      34.665  24.913  25.139  1.00  0.00     0.004 A 
ATOM     10  C   UNL A   1      34.070  24.432  22.867  1.00  0.00     0.004 A 
ATOM     11  C   UNL A   1      33.798  26.010  25.125  1.00  0.00     0.005 A 
ATOM     12  C   UNL A   1      33.215  25.542  22.847  1.00  0.00     0.005 A 
BRANCH   8  13
ATOM     13  C   UNL A   1      35.774  22.938  23.952  1.00  0.00     0.038 C 
BRANCH  13  14
ATOM     14  C   UNL A   1      36.211  22.295  25.287  1.00  0.00    -0.013 C 
ATOM     15  C   UNL A   1      36.257  20.767  25.209  1.00  0.00     0.008 C 
ATOM     16  C   UNL A   1      37.592  22.824  25.686  1.00  0.00     0.008 C 
ENDBRANCH  13  14
ENDBRANCH   8  13
ENDBRANCH   6   7
BRANCH   6  17
ATOM     17  C   UNL A   1      31.193  27.761  22.813  1.00  0.00     0.021 C 
BRANCH  17  18
ATOM     18  C   UNL A   1      29.868  28.394  23.240  1.00  0.00     0.032 C 
BRANCH  18  19
ATOM     19  C   UNL A   1      29.446  29.639  22.448  1.00  0.00     0.111 C 
ATOM     20  C   UNL A   1      29.181  30.874  23.305  1.00  0.00     0.038 C 
BRANCH  19  21
ATOM     21  O   UNL A   1      30.499  29.947  21.533  1.00  0.00    -0.393 OA
ATOM     22  H   UNL A   1      30.323  29.518  20.681  1.00  0.00     0.210 HD
ENDBRANCH  19  21
ENDBRANCH  18  19
ENDBRANCH  17  18
ENDBRANCH   6  17
ENDBRANCH   3   6
ENDBRANCH   1   2
BRANCH   1  23
ATOM     23  C   UNL A   1      31.680  30.147  26.657  1.00  0.00     0.023 C 
BRANCH  23  24
ATOM     24  C   UNL A   1      31.730  31.656  26.449  1.00  0.00     0.023 C 
BRANCH  24  25
ATOM     25  C   UNL A   1      32.809  32.370  27.253  1.00  0.00     0.116 C 
BRANCH  25  26
ATOM     26  N   UNL A   1      32.491  33.766  27.525  1.00  0.00    -0.352 N 
ATOM     27  C   UNL A   1      33.053  34.596  28.464  1.00  0.00     0.251 C 
ATOM     28  H   UNL A   1      31.785  34.165  26.965  1.00  0.00     0.163 HD
ATOM     29  O   UNL A   1      32.611  35.722  28.663  1.00  0.00    -0.269 OA
BRANCH  27  30
ATOM     30  C   UNL A   1      34.183  34.086  29.261  1.00  0.00     0.039 A 
ATOM     31  C   UNL A   1      33.919  33.352  30.419  1.00  0.00     0.014 A 
ATOM     32  C   UNL A   1      35.491  34.255  28.801  1.00  0.00     0.014 A 
ATOM     33  C   UNL A   1      34.971  32.715  31.078  1.00  0.00     0.010 A 
ATOM     34  C   UNL A   1      36.524  33.562  29.416  1.00  0.00     0.010 A 
ATOM     35  C   UNL A   1      36.272  32.779  30.554  1.00  0.00    -0.014 A 
BRANCH  35  36
ATOM     36  C   UNL A   1      37.393  32.027  31.164  1.00  0.00     0.031 A 
ATOM     37  C   UNL A   1      37.890  32.409  32.528  1.00  0.00     0.074 A 
ATOM     38  C   UNL A   1      38.035  31.086  30.446  1.00  0.00     0.049 A 
ATOM     39  N   UNL A   1      38.941  31.980  33.178  1.00  0.00    -0.248 NA
ATOM     40  C   UNL A   1      37.121  33.442  33.240  1.00  0.00     0.031 C 
ATOM     41  C   UNL A   1      37.686  30.675  29.085  1.00  0.00     0.029 A 
ATOM     42  N   UNL A   1      39.135  30.325  30.751  1.00  0.00    -0.354 N 
ATOM     43  C   UNL A   1      38.978  32.713  34.355  1.00  0.00     0.074 A 
ATOM     44  C   UNL A   1      37.871  33.642  34.314  1.00  0.00     0.031 C 
ATOM     45  C   UNL A   1      38.552  29.736  28.674  1.00  0.00     0.029 A 
ATOM     46  C   UNL A   1      39.536  29.504  29.726  1.00  0.00     0.049 A 
ATOM     47  H   UNL A   1      39.593  30.364  31.621  1.00  0.00     0.167 HD
ATOM     48  C   UNL A   1      39.851  32.606  35.386  1.00  0.00     0.037 A 
ATOM     49  C   UNL A   1      40.591  28.671  29.640  1.00  0.00     0.037 A 
ATOM     50  C   UNL A   1      40.924  31.651  35.439  1.00  0.00     0.049 A 
ATOM     51  C   UNL A   1      41.520  28.538  30.815  1.00  0.00     0.074 A 
ATOM     52  C   UNL A   1      41.803  31.397  36.476  1.00  0.00     0.029 A 
ATOM     53  N   UNL A   1      41.262  30.789  34.406  1.00  0.00    -0.354 N 
ATOM     54  N   UNL A   1      41.500  29.178  31.958  1.00  0.00    -0.248 NA
ATOM     55  C   UNL A   1      42.611  27.562  30.691  1.00  0.00     0.031 C 
ATOM     56  C   UNL A   1      42.700  30.408  36.056  1.00  0.00     0.029 A 
ATOM     57  C   UNL A   1      42.352  30.015  34.774  1.00  0.00     0.049 A 
ATOM     58  H   UNL A   1      40.798  30.734  33.539  1.00  0.00     0.167 HD
ATOM     59  C   UNL A   1      42.558  28.670  32.699  1.00  0.00     0.074 A 
ATOM     60  C   UNL A   1      43.194  27.658  31.878  1.00  0.00     0.031 C 
ATOM     61  C   UNL A   1      42.966  29.010  33.946  1.00  0.00     0.037 A 
BRANCH  48  62
ATOM     62  C   UNL A   1      39.676  33.552  36.537  1.00  0.00     0.064 A 
ATOM     63  C   UNL A   1      38.860  33.237  37.634  1.00  0.00     0.173 A 
ATOM     64  C   UNL A   1      40.345  34.785  36.549  1.00  0.00     0.173 A 
ATOM     65  F   UNL A   1      38.187  32.076  37.663  1.00  0.00    -0.203 F 
ATOM     66  C   UNL A   1      38.692  34.135  38.683  1.00  0.00     0.198 A 
ATOM     67  C   UNL A   1      40.198  35.669  37.615  1.00  0.00     0.198 A 
ATOM     68  F   UNL A   1      41.140  35.135  35.528  1.00  0.00    -0.203 F 
ATOM     69  F   UNL A   1      37.862  33.837  39.693  1.00  0.00    -0.200 F 
ATOM     70  C   UNL A   1      39.365  35.348  38.677  1.00  0.00     0.200 A 
ATOM     71  F   UNL A   1      40.857  36.836  37.612  1.00  0.00    -0.200 F 
ATOM     72  F   UNL A   1      39.203  36.212  39.688  1.00  0.00    -0.200 F 
ENDBRANCH  48  62
BRANCH  49  73
ATOM     73  C   UNL A   1      40.805  27.884  28.399  1.00  0.00     0.064 A 
ATOM     74  C   UNL A   1      41.596  28.387  27.356  1.00  0.00     0.173 A 
ATOM     75  C   UNL A   1      40.247  26.608  28.240  1.00  0.00     0.173 A 
ATOM     76  F   UNL A   1      42.135  29.610  27.457  1.00  0.00    -0.203 F 
ATOM     77  C   UNL A   1      41.809  27.648  26.195  1.00  0.00     0.198 A 
ATOM     78  C   UNL A   1      40.480  25.860  27.088  1.00  0.00     0.198 A 
ATOM     79  F   UNL A   1      39.490  26.080  29.213  1.00  0.00    -0.203 F 
ATOM     80  F   UNL A   1      42.542  28.165  25.200  1.00  0.00    -0.200 F 
ATOM     81  C   UNL A   1      41.257  26.382  26.065  1.00  0.00     0.200 A 
ATOM     82  F   UNL A   1      39.958  24.632  26.972  1.00  0.00    -0.200 F 
ATOM     83  F   UNL A   1      41.471  25.667  24.952  1.00  0.00    -0.200 F 
ENDBRANCH  49  73
BRANCH  61  84
ATOM     84  C   UNL A   1      44.137  28.264  34.513  1.00  0.00     0.064 A 
ATOM     85  C   UNL A   1      43.968  27.086  35.253  1.00  0.00     0.173 A 
ATOM     86  C   UNL A   1      45.446  28.707  34.267  1.00  0.00     0.173 A 
ATOM     87  F   UNL A   1      42.736  26.631  35.526  1.00  0.00    -0.203 F 
ATOM     88  C   UNL A   1      45.068  26.385  35.741  1.00  0.00     0.198 A 
ATOM     89  C   UNL A   1      46.543  27.991  34.735  1.00  0.00     0.198 A 
ATOM     90  F   UNL A   1      45.658  29.827  33.559  1.00  0.00    -0.203 F 
ATOM     91  F   UNL A   1      44.884  25.281  36.477  1.00  0.00    -0.200 F 
ATOM     92  C   UNL A   1      46.353  26.834  35.475  1.00  0.00     0.200 A 
ATOM     93  F   UNL A   1      47.784  28.420  34.468  1.00  0.00    -0.200 F 
ATOM     94  F   UNL A   1      47.411  26.153  35.938  1.00  0.00    -0.200 F 
ENDBRANCH  61  84
ENDBRANCH  35  36
ENDBRANCH  27  30
ENDBRANCH  25  26
ENDBRANCH  24  25
ENDBRANCH  23  24
ENDBRANCH   1  23
TORSDOF 18
ENDMDL
