MODEL 1
REMARK VINA RESULT:     -13.3      0.000      0.000
REMARK SMILES COc1cc(OC)cc(-n2nnc(C(=O)NCCCCNC(=O)c3ccc(-c4c5nc(c(-c6c(F)c(F)c(F)c(F)c6F)c6ccc([nH]6)c(-c6c(F)c(F)c(F)c(F)c6F)c6nc(c(-c7c(F)c(F)c(F)c(F)c7F)c7ccc4[nH]7)C=C6)C=C5)cc3)c2C(C)(C)C)c1
REMARK SMILES IDX 18 1 17 2 16 3 14 4 15 5 13 7 10 8 11 9 87 10 12 11 9 12
REMARK SMILES IDX 3 13 4 14 92 15 5 16 8 17 2 18 1 19 6 20 7 21 88 22 89 23
REMARK SMILES IDX 90 24 91 25 19 26 20 27 21 28 22 29 23 31 24 32 25 33 86 34
REMARK SMILES IDX 26 35 85 36 27 37 28 38 29 39 79 40 30 41 84 42 78 43 80 44
REMARK SMILES IDX 31 45 83 46 77 47 76 48 32 50 64 51 44 52 63 53 45 54 48 55
REMARK SMILES IDX 62 56 81 57 46 58 47 59 61 61 82 62 49 63 33 64 34 65 42 66
REMARK SMILES IDX 35 67 36 68 40 69 43 70 37 71 38 72 41 73 39 74 65 75 66 76
REMARK SMILES IDX 74 77 67 78 68 79 72 80 75 81 69 82 70 83 73 84 71 85 50 86
REMARK SMILES IDX 51 87 59 88 52 89 53 90 57 91 60 92 54 93 55 94 58 95 56 96
REMARK H PARENT 16 6 21 30 80 49 48 60
REMARK Flexibility Score: inf
ROOT
ATOM      1  C   UNL A   1      36.242  20.919  25.347  1.00  0.00     0.023 C 
ENDROOT
BRANCH   1   2
ATOM      2  C   UNL A   1      35.175  21.556  26.255  1.00  0.00     0.116 C 
BRANCH   2   3
ATOM      3  N   UNL A   1      33.795  21.149  25.985  1.00  0.00    -0.351 N 
ATOM      4  C   UNL A   1      32.548  21.618  25.634  1.00  0.00     0.273 C 
ATOM      5  O   UNL A   1      31.824  20.675  25.276  1.00  0.00    -0.267 OA
ATOM      6  H   UNL A   1      33.736  20.171  26.096  1.00  0.00     0.163 HD
BRANCH   4   7
ATOM      7  C   UNL A   1      31.955  22.983  25.658  1.00  0.00     0.174 A 
ATOM      8  N   UNL A   1      31.246  25.075  25.711  1.00  0.00    -0.216 N 
ATOM      9  N   UNL A   1      30.447  24.366  26.517  1.00  0.00    -0.061 NA
ATOM     10  C   UNL A   1      32.258  24.274  25.179  1.00  0.00     0.083 A 
ATOM     11  N   UNL A   1      30.806  23.101  26.433  1.00  0.00    -0.124 NA
BRANCH   8  12
ATOM     12  C   UNL A   1      31.152  26.476  25.698  1.00  0.00     0.074 A 
ATOM     13  C   UNL A   1      30.845  28.430  24.337  1.00  0.00     0.124 A 
ATOM     14  C   UNL A   1      31.671  29.135  25.223  1.00  0.00     0.093 A 
ATOM     15  C   UNL A   1      30.544  27.097  24.601  1.00  0.00     0.075 A 
ATOM     16  C   UNL A   1      32.203  28.528  26.370  1.00  0.00     0.124 A 
ATOM     17  C   UNL A   1      31.922  27.190  26.626  1.00  0.00     0.075 A 
BRANCH  13  18
ATOM     18  O   UNL A   1      30.506  29.110  23.199  1.00  0.00    -0.497 OA
ATOM     19  C   UNL A   1      29.191  28.917  22.684  1.00  0.00     0.278 C 
ENDBRANCH  13  18
BRANCH  16  20
ATOM     20  O   UNL A   1      33.044  29.321  27.103  1.00  0.00    -0.497 OA
ATOM     21  C   UNL A   1      34.408  28.922  27.177  1.00  0.00     0.278 C 
ENDBRANCH  16  20
ENDBRANCH   8  12
BRANCH  10  22
ATOM     22  C   UNL A   1      33.458  24.766  24.395  1.00  0.00     0.007 C 
ATOM     23  C   UNL A   1      34.535  25.021  25.464  1.00  0.00     0.017 C 
ATOM     24  C   UNL A   1      33.679  23.739  23.263  1.00  0.00     0.017 C 
ATOM     25  C   UNL A   1      33.483  26.107  23.643  1.00  0.00     0.017 C 
ENDBRANCH  10  22
ENDBRANCH   4   7
ENDBRANCH   2   3
ENDBRANCH   1   2
BRANCH   1  26
ATOM     26  C   UNL A   1      37.176  21.895  24.622  1.00  0.00     0.023 C 
BRANCH  26  27
ATOM     27  C   UNL A   1      38.127  22.688  25.512  1.00  0.00     0.116 C 
BRANCH  27  28
ATOM     28  N   UNL A   1      38.845  21.909  26.518  1.00  0.00    -0.352 N 
ATOM     29  C   UNL A   1      39.965  22.337  27.233  1.00  0.00     0.251 C 
ATOM     30  H   UNL A   1      38.508  21.003  26.710  1.00  0.00     0.163 HD
ATOM     31  O   UNL A   1      40.722  21.575  27.780  1.00  0.00    -0.269 OA
BRANCH  29  32
ATOM     32  C   UNL A   1      40.181  23.799  27.292  1.00  0.00     0.039 A 
ATOM     33  C   UNL A   1      39.127  24.699  27.124  1.00  0.00     0.014 A 
ATOM     34  C   UNL A   1      41.438  24.223  27.708  1.00  0.00     0.014 A 
ATOM     35  C   UNL A   1      39.319  26.028  27.502  1.00  0.00     0.010 A 
ATOM     36  C   UNL A   1      41.581  25.501  28.199  1.00  0.00     0.010 A 
ATOM     37  C   UNL A   1      40.536  26.420  28.086  1.00  0.00    -0.014 A 
BRANCH  37  38
ATOM     38  C   UNL A   1      40.677  27.746  28.695  1.00  0.00     0.031 A 
ATOM     39  C   UNL A   1      41.779  28.618  28.169  1.00  0.00     0.074 A 
ATOM     40  C   UNL A   1      39.747  28.289  29.511  1.00  0.00     0.049 A 
ATOM     41  N   UNL A   1      42.761  29.146  28.828  1.00  0.00    -0.248 NA
ATOM     42  C   UNL A   1      41.817  28.907  26.727  1.00  0.00     0.031 C 
ATOM     43  C   UNL A   1      38.442  27.749  29.909  1.00  0.00     0.029 A 
ATOM     44  N   UNL A   1      39.738  29.530  30.072  1.00  0.00    -0.354 N 
ATOM     45  C   UNL A   1      43.465  29.949  27.928  1.00  0.00     0.074 A 
ATOM     46  C   UNL A   1      42.903  29.677  26.629  1.00  0.00     0.031 C 
ATOM     47  C   UNL A   1      37.683  28.738  30.430  1.00  0.00     0.029 A 
ATOM     48  C   UNL A   1      38.506  29.922  30.575  1.00  0.00     0.049 A 
ATOM     49  H   UNL A   1      40.539  30.101  30.116  1.00  0.00     0.167 HD
ATOM     50  C   UNL A   1      44.338  30.910  28.351  1.00  0.00     0.037 A 
ATOM     51  C   UNL A   1      38.178  31.141  31.060  1.00  0.00     0.037 A 
ATOM     52  C   UNL A   1      44.736  30.692  29.718  1.00  0.00     0.049 A 
ATOM     53  C   UNL A   1      39.443  31.818  31.439  1.00  0.00     0.074 A 
ATOM     54  C   UNL A   1      45.350  29.657  30.398  1.00  0.00     0.029 A 
ATOM     55  N   UNL A   1      44.198  31.489  30.699  1.00  0.00    -0.354 N 
ATOM     56  N   UNL A   1      40.204  31.437  32.426  1.00  0.00    -0.248 NA
ATOM     57  C   UNL A   1      40.084  32.662  30.441  1.00  0.00     0.031 C 
ATOM     58  C   UNL A   1      44.680  29.600  31.657  1.00  0.00     0.029 A 
ATOM     59  C   UNL A   1      43.752  30.640  31.678  1.00  0.00     0.049 A 
ATOM     60  H   UNL A   1      44.143  32.472  30.697  1.00  0.00     0.167 HD
ATOM     61  C   UNL A   1      41.496  31.622  31.963  1.00  0.00     0.074 A 
ATOM     62  C   UNL A   1      41.361  32.468  30.780  1.00  0.00     0.031 C 
ATOM     63  C   UNL A   1      42.527  30.846  32.412  1.00  0.00     0.037 A 
BRANCH  50  64
ATOM     64  C   UNL A   1      44.597  32.225  27.651  1.00  0.00     0.064 A 
ATOM     65  C   UNL A   1      45.775  32.385  26.886  1.00  0.00     0.173 A 
ATOM     66  C   UNL A   1      43.909  33.419  27.953  1.00  0.00     0.173 A 
ATOM     67  F   UNL A   1      46.518  31.321  26.544  1.00  0.00    -0.203 F 
ATOM     68  C   UNL A   1      46.270  33.646  26.539  1.00  0.00     0.198 A 
ATOM     69  C   UNL A   1      44.380  34.673  27.559  1.00  0.00     0.198 A 
ATOM     70  F   UNL A   1      42.822  33.433  28.733  1.00  0.00    -0.203 F 
ATOM     71  F   UNL A   1      47.461  33.748  25.933  1.00  0.00    -0.200 F 
ATOM     72  C   UNL A   1      45.577  34.789  26.886  1.00  0.00     0.200 A 
ATOM     73  F   UNL A   1      43.701  35.773  27.916  1.00  0.00    -0.200 F 
ATOM     74  F   UNL A   1      46.083  36.000  26.617  1.00  0.00    -0.200 F 
ENDBRANCH  50  64
BRANCH  51  75
ATOM     75  C   UNL A   1      36.882  31.850  30.982  1.00  0.00     0.064 A 
ATOM     76  C   UNL A   1      36.060  31.974  32.112  1.00  0.00     0.173 A 
ATOM     77  C   UNL A   1      36.557  32.660  29.876  1.00  0.00     0.173 A 
ATOM     78  F   UNL A   1      36.323  31.263  33.219  1.00  0.00    -0.203 F 
ATOM     79  C   UNL A   1      35.001  32.885  32.150  1.00  0.00     0.198 A 
ATOM     80  C   UNL A   1      35.493  33.561  29.912  1.00  0.00     0.198 A 
ATOM     81  F   UNL A   1      37.322  32.663  28.774  1.00  0.00    -0.203 F 
ATOM     82  F   UNL A   1      34.283  33.027  33.274  1.00  0.00    -0.200 F 
ATOM     83  C   UNL A   1      34.727  33.688  31.055  1.00  0.00     0.200 A 
ATOM     84  F   UNL A   1      35.258  34.354  28.856  1.00  0.00    -0.200 F 
ATOM     85  F   UNL A   1      33.755  34.608  31.116  1.00  0.00    -0.200 F 
ENDBRANCH  51  75
BRANCH  63  86
ATOM     86  C   UNL A   1      42.280  29.949  33.591  1.00  0.00     0.064 A 
ATOM     87  C   UNL A   1      41.791  28.635  33.489  1.00  0.00     0.173 A 
ATOM     88  C   UNL A   1      42.691  30.383  34.858  1.00  0.00     0.173 A 
ATOM     89  F   UNL A   1      41.480  28.104  32.301  1.00  0.00    -0.203 F 
ATOM     90  C   UNL A   1      41.672  27.815  34.609  1.00  0.00     0.198 A 
ATOM     91  C   UNL A   1      42.607  29.549  35.970  1.00  0.00     0.198 A 
ATOM     92  F   UNL A   1      43.224  31.606  35.010  1.00  0.00    -0.203 F 
ATOM     93  F   UNL A   1      41.188  26.570  34.483  1.00  0.00    -0.200 F 
ATOM     94  C   UNL A   1      42.085  28.272  35.848  1.00  0.00     0.200 A 
ATOM     95  F   UNL A   1      43.056  29.977  37.158  1.00  0.00    -0.200 F 
ATOM     96  F   UNL A   1      42.008  27.471  36.920  1.00  0.00    -0.200 F 
ENDBRANCH  63  86
ENDBRANCH  37  38
ENDBRANCH  29  32
ENDBRANCH  27  28
ENDBRANCH  26  27
ENDBRANCH   1  26
TORSDOF 15
ENDMDL
MODEL 2
REMARK VINA RESULT:     -13.2      2.964      8.855
REMARK SMILES COc1cc(OC)cc(-n2nnc(C(=O)NCCCCNC(=O)c3ccc(-c4c5nc(c(-c6c(F)c(F)c(F)c(F)c6F)c6ccc([nH]6)c(-c6c(F)c(F)c(F)c(F)c6F)c6nc(c(-c7c(F)c(F)c(F)c(F)c7F)c7ccc4[nH]7)C=C6)C=C5)cc3)c2C(C)(C)C)c1
REMARK SMILES IDX 18 1 17 2 16 3 14 4 15 5 13 7 10 8 11 9 87 10 12 11 9 12
REMARK SMILES IDX 3 13 4 14 92 15 5 16 8 17 2 18 1 19 6 20 7 21 88 22 89 23
REMARK SMILES IDX 90 24 91 25 19 26 20 27 21 28 22 29 23 31 24 32 25 33 86 34
REMARK SMILES IDX 26 35 85 36 27 37 28 38 29 39 79 40 30 41 84 42 78 43 80 44
REMARK SMILES IDX 31 45 83 46 77 47 76 48 32 50 64 51 44 52 63 53 45 54 48 55
REMARK SMILES IDX 62 56 81 57 46 58 47 59 61 61 82 62 49 63 33 64 34 65 42 66
REMARK SMILES IDX 35 67 36 68 40 69 43 70 37 71 38 72 41 73 39 74 65 75 66 76
REMARK SMILES IDX 74 77 67 78 68 79 72 80 75 81 69 82 70 83 73 84 71 85 50 86
REMARK SMILES IDX 51 87 59 88 52 89 53 90 57 91 60 92 54 93 55 94 58 95 56 96
REMARK H PARENT 16 6 21 30 80 49 48 60
REMARK Flexibility Score: inf
ROOT
ATOM      1  C   UNL A   1      32.042  29.174  27.225  1.00  0.00     0.023 C 
ENDROOT
BRANCH   1   2
ATOM      2  C   UNL A   1      32.163  28.024  26.209  1.00  0.00     0.116 C 
BRANCH   2   3
ATOM      3  N   UNL A   1      31.038  27.087  26.182  1.00  0.00    -0.351 N 
ATOM      4  C   UNL A   1      30.704  25.752  26.251  1.00  0.00     0.273 C 
ATOM      5  O   UNL A   1      29.486  25.629  26.458  1.00  0.00    -0.267 OA
ATOM      6  H   UNL A   1      30.208  27.607  26.074  1.00  0.00     0.163 HD
BRANCH   4   7
ATOM      7  C   UNL A   1      31.512  24.514  26.082  1.00  0.00     0.174 A 
ATOM      8  N   UNL A   1      32.616  22.643  25.679  1.00  0.00    -0.216 N 
ATOM      9  N   UNL A   1      32.303  22.645  26.981  1.00  0.00    -0.061 NA
ATOM     10  C   UNL A   1      32.095  23.768  25.038  1.00  0.00     0.083 A 
ATOM     11  N   UNL A   1      31.717  23.793  27.254  1.00  0.00    -0.124 NA
BRANCH   8  12
ATOM     12  C   UNL A   1      33.152  21.483  25.097  1.00  0.00     0.074 A 
ATOM     13  C   UNL A   1      32.865  19.124  24.750  1.00  0.00     0.124 A 
ATOM     14  C   UNL A   1      34.261  18.988  24.763  1.00  0.00     0.093 A 
ATOM     15  C   UNL A   1      32.305  20.393  24.872  1.00  0.00     0.075 A 
ATOM     16  C   UNL A   1      35.106  20.100  24.900  1.00  0.00     0.124 A 
ATOM     17  C   UNL A   1      34.547  21.366  25.044  1.00  0.00     0.075 A 
BRANCH  13  18
ATOM     18  O   UNL A   1      32.170  17.946  24.740  1.00  0.00    -0.497 OA
ATOM     19  C   UNL A   1      32.915  16.745  24.565  1.00  0.00     0.278 C 
ENDBRANCH  13  18
BRANCH  16  20
ATOM     20  O   UNL A   1      36.440  19.804  24.962  1.00  0.00    -0.497 OA
ATOM     21  C   UNL A   1      37.340  20.901  25.075  1.00  0.00     0.278 C 
ENDBRANCH  16  20
ENDBRANCH   8  12
BRANCH  10  22
ATOM     22  C   UNL A   1      32.069  24.002  23.540  1.00  0.00     0.007 C 
ATOM     23  C   UNL A   1      30.638  23.623  23.119  1.00  0.00     0.017 C 
ATOM     24  C   UNL A   1      32.618  25.428  23.321  1.00  0.00     0.017 C 
ATOM     25  C   UNL A   1      32.889  23.168  22.541  1.00  0.00     0.017 C 
ENDBRANCH  10  22
ENDBRANCH   4   7
ENDBRANCH   2   3
ENDBRANCH   1   2
BRANCH   1  26
ATOM     26  C   UNL A   1      32.511  30.551  26.739  1.00  0.00     0.023 C 
BRANCH  26  27
ATOM     27  C   UNL A   1      33.897  30.981  27.206  1.00  0.00     0.116 C 
BRANCH  27  28
ATOM     28  N   UNL A   1      33.923  31.905  28.337  1.00  0.00    -0.352 N 
ATOM     29  C   UNL A   1      34.890  31.932  29.345  1.00  0.00     0.251 C 
ATOM     30  H   UNL A   1      33.197  32.568  28.393  1.00  0.00     0.163 HD
ATOM     31  O   UNL A   1      34.703  32.451  30.416  1.00  0.00    -0.269 OA
BRANCH  29  32
ATOM     32  C   UNL A   1      36.180  31.284  29.026  1.00  0.00     0.039 A 
ATOM     33  C   UNL A   1      37.368  32.016  28.964  1.00  0.00     0.014 A 
ATOM     34  C   UNL A   1      36.181  29.894  28.980  1.00  0.00     0.014 A 
ATOM     35  C   UNL A   1      38.579  31.323  28.979  1.00  0.00     0.010 A 
ATOM     36  C   UNL A   1      37.374  29.224  29.126  1.00  0.00     0.010 A 
ATOM     37  C   UNL A   1      38.582  29.923  29.108  1.00  0.00    -0.014 A 
BRANCH  37  38
ATOM     38  C   UNL A   1      39.834  29.200  29.355  1.00  0.00     0.031 A 
ATOM     39  C   UNL A   1      40.199  28.950  30.788  1.00  0.00     0.074 A 
ATOM     40  C   UNL A   1      40.526  28.565  28.384  1.00  0.00     0.049 A 
ATOM     41  N   UNL A   1      41.275  29.311  31.412  1.00  0.00    -0.248 NA
ATOM     42  C   UNL A   1      39.231  28.246  31.645  1.00  0.00     0.031 C 
ATOM     43  C   UNL A   1      40.190  28.407  26.964  1.00  0.00     0.029 A 
ATOM     44  N   UNL A   1      41.652  27.809  28.508  1.00  0.00    -0.354 N 
ATOM     45  C   UNL A   1      41.198  28.765  32.696  1.00  0.00     0.074 A 
ATOM     46  C   UNL A   1      39.873  28.214  32.816  1.00  0.00     0.031 C 
ATOM     47  C   UNL A   1      40.942  27.423  26.428  1.00  0.00     0.029 A 
ATOM     48  C   UNL A   1      41.933  27.016  27.405  1.00  0.00     0.049 A 
ATOM     49  H   UNL A   1      42.219  27.824  29.313  1.00  0.00     0.167 HD
ATOM     50  C   UNL A   1      42.298  28.654  33.497  1.00  0.00     0.037 A 
ATOM     51  C   UNL A   1      42.902  26.077  27.306  1.00  0.00     0.037 A 
ATOM     52  C   UNL A   1      43.364  29.515  33.048  1.00  0.00     0.049 A 
ATOM     53  C   UNL A   1      43.915  26.380  28.346  1.00  0.00     0.074 A 
ATOM     54  C   UNL A   1      43.493  30.876  32.847  1.00  0.00     0.029 A 
ATOM     55  N   UNL A   1      44.432  28.956  32.390  1.00  0.00    -0.354 N 
ATOM     56  N   UNL A   1      44.688  27.429  28.323  1.00  0.00    -0.248 NA
ATOM     57  C   UNL A   1      43.768  25.736  29.642  1.00  0.00     0.031 C 
ATOM     58  C   UNL A   1      44.274  30.995  31.657  1.00  0.00     0.029 A 
ATOM     59  C   UNL A   1      44.615  29.704  31.256  1.00  0.00     0.049 A 
ATOM     60  H   UNL A   1      44.959  28.175  32.676  1.00  0.00     0.167 HD
ATOM     61  C   UNL A   1      44.774  27.829  29.647  1.00  0.00     0.074 A 
ATOM     62  C   UNL A   1      44.272  26.695  30.421  1.00  0.00     0.031 C 
ATOM     63  C   UNL A   1      44.977  29.137  29.980  1.00  0.00     0.037 A 
BRANCH  50  64
ATOM     64  C   UNL A   1      42.544  27.546  34.497  1.00  0.00     0.064 A 
ATOM     65  C   UNL A   1      43.211  26.372  34.082  1.00  0.00     0.173 A 
ATOM     66  C   UNL A   1      41.885  27.457  35.740  1.00  0.00     0.173 A 
ATOM     67  F   UNL A   1      43.868  26.335  32.912  1.00  0.00    -0.203 F 
ATOM     68  C   UNL A   1      43.139  25.179  34.809  1.00  0.00     0.198 A 
ATOM     69  C   UNL A   1      41.858  26.279  36.489  1.00  0.00     0.198 A 
ATOM     70  F   UNL A   1      41.148  28.461  36.226  1.00  0.00    -0.203 F 
ATOM     71  F   UNL A   1      43.674  24.060  34.304  1.00  0.00    -0.200 F 
ATOM     72  C   UNL A   1      42.453  25.132  36.007  1.00  0.00     0.200 A 
ATOM     73  F   UNL A   1      41.177  26.247  37.643  1.00  0.00    -0.200 F 
ATOM     74  F   UNL A   1      42.322  23.976  36.671  1.00  0.00    -0.200 F 
ENDBRANCH  50  64
BRANCH  51  75
ATOM     75  C   UNL A   1      42.882  24.804  26.552  1.00  0.00     0.064 A 
ATOM     76  C   UNL A   1      43.735  24.604  25.456  1.00  0.00     0.173 A 
ATOM     77  C   UNL A   1      42.235  23.661  27.062  1.00  0.00     0.173 A 
ATOM     78  F   UNL A   1      44.415  25.635  24.933  1.00  0.00    -0.203 F 
ATOM     79  C   UNL A   1      43.959  23.330  24.927  1.00  0.00     0.198 A 
ATOM     80  C   UNL A   1      42.452  22.392  26.526  1.00  0.00     0.198 A 
ATOM     81  F   UNL A   1      41.453  23.739  28.149  1.00  0.00    -0.203 F 
ATOM     82  F   UNL A   1      44.837  23.169  23.926  1.00  0.00    -0.200 F 
ATOM     83  C   UNL A   1      43.329  22.223  25.471  1.00  0.00     0.200 A 
ATOM     84  F   UNL A   1      41.860  21.326  27.083  1.00  0.00    -0.200 F 
ATOM     85  F   UNL A   1      43.597  20.995  25.009  1.00  0.00    -0.200 F 
ENDBRANCH  51  75
BRANCH  63  86
ATOM     86  C   UNL A   1      45.344  30.100  28.887  1.00  0.00     0.064 A 
ATOM     87  C   UNL A   1      44.406  30.784  28.094  1.00  0.00     0.173 A 
ATOM     88  C   UNL A   1      46.691  30.454  28.733  1.00  0.00     0.173 A 
ATOM     89  F   UNL A   1      43.092  30.586  28.254  1.00  0.00    -0.203 F 
ATOM     90  C   UNL A   1      44.802  31.737  27.159  1.00  0.00     0.198 A 
ATOM     91  C   UNL A   1      47.082  31.435  27.825  1.00  0.00     0.198 A 
ATOM     92  F   UNL A   1      47.629  29.882  29.505  1.00  0.00    -0.203 F 
ATOM     93  F   UNL A   1      43.883  32.362  26.407  1.00  0.00    -0.200 F 
ATOM     94  C   UNL A   1      46.139  32.065  27.029  1.00  0.00     0.200 A 
ATOM     95  F   UNL A   1      48.372  31.786  27.740  1.00  0.00    -0.200 F 
ATOM     96  F   UNL A   1      46.518  33.011  26.158  1.00  0.00    -0.200 F 
ENDBRANCH  63  86
ENDBRANCH  37  38
ENDBRANCH  29  32
ENDBRANCH  27  28
ENDBRANCH  26  27
ENDBRANCH   1  26
TORSDOF 15
ENDMDL
MODEL 3
REMARK VINA RESULT:     -13.1      0.570      1.632
REMARK SMILES COc1cc(OC)cc(-n2nnc(C(=O)NCCCCNC(=O)c3ccc(-c4c5nc(c(-c6c(F)c(F)c(F)c(F)c6F)c6ccc([nH]6)c(-c6c(F)c(F)c(F)c(F)c6F)c6nc(c(-c7c(F)c(F)c(F)c(F)c7F)c7ccc4[nH]7)C=C6)C=C5)cc3)c2C(C)(C)C)c1
REMARK SMILES IDX 18 1 17 2 16 3 14 4 15 5 13 7 10 8 11 9 87 10 12 11 9 12
REMARK SMILES IDX 3 13 4 14 92 15 5 16 8 17 2 18 1 19 6 20 7 21 88 22 89 23
REMARK SMILES IDX 90 24 91 25 19 26 20 27 21 28 22 29 23 31 24 32 25 33 86 34
REMARK SMILES IDX 26 35 85 36 27 37 28 38 29 39 79 40 30 41 84 42 78 43 80 44
REMARK SMILES IDX 31 45 83 46 77 47 76 48 32 50 64 51 44 52 63 53 45 54 48 55
REMARK SMILES IDX 62 56 81 57 46 58 47 59 61 61 82 62 49 63 33 64 34 65 42 66
REMARK SMILES IDX 35 67 36 68 40 69 43 70 37 71 38 72 41 73 39 74 65 75 66 76
REMARK SMILES IDX 74 77 67 78 68 79 72 80 75 81 69 82 70 83 73 84 71 85 50 86
REMARK SMILES IDX 51 87 59 88 52 89 53 90 57 91 60 92 54 93 55 94 58 95 56 96
REMARK H PARENT 16 6 21 30 80 49 48 60
REMARK Flexibility Score: inf
ROOT
ATOM      1  C   UNL A   1      36.147  21.129  25.179  1.00  0.00     0.023 C 
ENDROOT
BRANCH   1   2
ATOM      2  C   UNL A   1      35.116  21.516  26.255  1.00  0.00     0.116 C 
BRANCH   2   3
ATOM      3  N   UNL A   1      33.742  21.084  25.993  1.00  0.00    -0.351 N 
ATOM      4  C   UNL A   1      32.488  21.529  25.634  1.00  0.00     0.273 C 
ATOM      5  O   UNL A   1      31.778  20.570  25.294  1.00  0.00    -0.267 OA
ATOM      6  H   UNL A   1      33.697  20.108  26.122  1.00  0.00     0.163 HD
BRANCH   4   7
ATOM      7  C   UNL A   1      31.876  22.886  25.634  1.00  0.00     0.174 A 
ATOM      8  N   UNL A   1      31.136  24.968  25.647  1.00  0.00    -0.216 N 
ATOM      9  N   UNL A   1      30.355  24.265  26.476  1.00  0.00    -0.061 NA
ATOM     10  C   UNL A   1      32.155  24.170  25.123  1.00  0.00     0.083 A 
ATOM     11  N   UNL A   1      30.731  23.004  26.416  1.00  0.00    -0.124 NA
BRANCH   8  12
ATOM     12  C   UNL A   1      31.021  26.366  25.604  1.00  0.00     0.074 A 
ATOM     13  C   UNL A   1      30.653  28.284  24.206  1.00  0.00     0.124 A 
ATOM     14  C   UNL A   1      31.490  29.020  25.056  1.00  0.00     0.093 A 
ATOM     15  C   UNL A   1      30.378  26.953  24.509  1.00  0.00     0.075 A 
ATOM     16  C   UNL A   1      32.059  28.448  26.203  1.00  0.00     0.124 A 
ATOM     17  C   UNL A   1      31.803  27.112  26.496  1.00  0.00     0.075 A 
BRANCH  13  18
ATOM     18  O   UNL A   1      30.277  28.932  23.062  1.00  0.00    -0.497 OA
ATOM     19  C   UNL A   1      28.887  28.965  22.751  1.00  0.00     0.278 C 
ENDBRANCH  13  18
BRANCH  16  20
ATOM     20  O   UNL A   1      32.905  29.270  26.897  1.00  0.00    -0.497 OA
ATOM     21  C   UNL A   1      34.245  28.821  27.068  1.00  0.00     0.278 C 
ENDBRANCH  16  20
ENDBRANCH   8  12
BRANCH  10  22
ATOM     22  C   UNL A   1      33.341  24.662  24.318  1.00  0.00     0.007 C 
ATOM     23  C   UNL A   1      34.406  25.003  25.375  1.00  0.00     0.017 C 
ATOM     24  C   UNL A   1      33.598  23.589  23.237  1.00  0.00     0.017 C 
ATOM     25  C   UNL A   1      33.325  25.965  23.502  1.00  0.00     0.017 C 
ENDBRANCH  10  22
ENDBRANCH   4   7
ENDBRANCH   2   3
ENDBRANCH   1   2
BRANCH   1  26
ATOM     26  C   UNL A   1      36.947  22.287  24.569  1.00  0.00     0.023 C 
BRANCH  26  27
ATOM     27  C   UNL A   1      37.863  23.038  25.529  1.00  0.00     0.116 C 
BRANCH  27  28
ATOM     28  N   UNL A   1      38.614  22.205  26.465  1.00  0.00    -0.352 N 
ATOM     29  C   UNL A   1      39.785  22.578  27.128  1.00  0.00     0.251 C 
ATOM     30  H   UNL A   1      38.263  21.303  26.646  1.00  0.00     0.163 HD
ATOM     31  O   UNL A   1      40.550  21.777  27.604  1.00  0.00    -0.269 OA
BRANCH  29  32
ATOM     32  C   UNL A   1      40.046  24.030  27.223  1.00  0.00     0.039 A 
ATOM     33  C   UNL A   1      39.004  24.959  27.231  1.00  0.00     0.014 A 
ATOM     34  C   UNL A   1      41.357  24.408  27.492  1.00  0.00     0.014 A 
ATOM     35  C   UNL A   1      39.279  26.265  27.640  1.00  0.00     0.010 A 
ATOM     36  C   UNL A   1      41.596  25.658  28.017  1.00  0.00     0.010 A 
ATOM     37  C   UNL A   1      40.570  26.603  28.079  1.00  0.00    -0.014 A 
BRANCH  37  38
ATOM     38  C   UNL A   1      40.824  27.896  28.724  1.00  0.00     0.031 A 
ATOM     39  C   UNL A   1      42.039  28.649  28.272  1.00  0.00     0.074 A 
ATOM     40  C   UNL A   1      39.917  28.524  29.504  1.00  0.00     0.049 A 
ATOM     41  N   UNL A   1      43.038  29.056  28.990  1.00  0.00    -0.248 NA
ATOM     42  C   UNL A   1      42.182  28.955  26.840  1.00  0.00     0.031 C 
ATOM     43  C   UNL A   1      38.542  28.125  29.825  1.00  0.00     0.029 A 
ATOM     44  N   UNL A   1      40.015  29.750  30.091  1.00  0.00    -0.354 N 
ATOM     45  C   UNL A   1      43.870  29.791  28.143  1.00  0.00     0.074 A 
ATOM     46  C   UNL A   1      43.350  29.603  26.812  1.00  0.00     0.031 C 
ATOM     47  C   UNL A   1      37.871  29.182  30.330  1.00  0.00     0.029 A 
ATOM     48  C   UNL A   1      38.809  30.266  30.541  1.00  0.00     0.049 A 
ATOM     49  H   UNL A   1      40.870  30.228  30.187  1.00  0.00     0.167 HD
ATOM     50  C   UNL A   1      44.820  30.642  28.629  1.00  0.00     0.037 A 
ATOM     51  C   UNL A   1      38.591  31.506  31.036  1.00  0.00     0.037 A 
ATOM     52  C   UNL A   1      45.121  30.360  30.009  1.00  0.00     0.049 A 
ATOM     53  C   UNL A   1      39.901  32.033  31.491  1.00  0.00     0.074 A 
ATOM     54  C   UNL A   1      45.583  29.253  30.695  1.00  0.00     0.029 A 
ATOM     55  N   UNL A   1      44.624  31.196  30.979  1.00  0.00    -0.354 N 
ATOM     56  N   UNL A   1      40.564  31.555  32.506  1.00  0.00    -0.248 NA
ATOM     57  C   UNL A   1      40.681  32.818  30.545  1.00  0.00     0.031 C 
ATOM     58  C   UNL A   1      44.847  29.250  31.919  1.00  0.00     0.029 A 
ATOM     59  C   UNL A   1      44.038  30.385  31.917  1.00  0.00     0.049 A 
ATOM     60  H   UNL A   1      44.676  32.178  30.996  1.00  0.00     0.167 HD
ATOM     61  C   UNL A   1      41.892  31.604  32.111  1.00  0.00     0.074 A 
ATOM     62  C   UNL A   1      41.910  32.480  30.941  1.00  0.00     0.031 C 
ATOM     63  C   UNL A   1      42.807  30.713  32.593  1.00  0.00     0.037 A 
BRANCH  50  64
ATOM     64  C   UNL A   1      45.257  31.933  27.972  1.00  0.00     0.064 A 
ATOM     65  C   UNL A   1      44.283  32.889  27.603  1.00  0.00     0.173 A 
ATOM     66  C   UNL A   1      46.536  32.129  27.410  1.00  0.00     0.173 A 
ATOM     67  F   UNL A   1      43.027  32.801  28.070  1.00  0.00    -0.203 F 
ATOM     68  C   UNL A   1      44.548  33.899  26.673  1.00  0.00     0.198 A 
ATOM     69  C   UNL A   1      46.810  33.171  26.522  1.00  0.00     0.198 A 
ATOM     70  F   UNL A   1      47.536  31.264  27.606  1.00  0.00    -0.203 F 
ATOM     71  F   UNL A   1      43.554  34.695  26.255  1.00  0.00    -0.200 F 
ATOM     72  C   UNL A   1      45.809  34.032  26.126  1.00  0.00     0.200 A 
ATOM     73  F   UNL A   1      48.036  33.276  25.990  1.00  0.00    -0.200 F 
ATOM     74  F   UNL A   1      46.047  34.953  25.182  1.00  0.00    -0.200 F 
ENDBRANCH  50  64
BRANCH  51  75
ATOM     75  C   UNL A   1      37.386  32.354  30.909  1.00  0.00     0.064 A 
ATOM     76  C   UNL A   1      37.108  33.035  29.715  1.00  0.00     0.173 A 
ATOM     77  C   UNL A   1      36.342  32.288  31.853  1.00  0.00     0.173 A 
ATOM     78  F   UNL A   1      38.037  33.114  28.751  1.00  0.00    -0.203 F 
ATOM     79  C   UNL A   1      35.847  33.581  29.461  1.00  0.00     0.198 A 
ATOM     80  C   UNL A   1      35.087  32.843  31.602  1.00  0.00     0.198 A 
ATOM     81  F   UNL A   1      36.488  31.602  32.996  1.00  0.00    -0.203 F 
ATOM     82  F   UNL A   1      35.597  34.161  28.278  1.00  0.00    -0.200 F 
ATOM     83  C   UNL A   1      34.833  33.473  30.398  1.00  0.00     0.200 A 
ATOM     84  F   UNL A   1      34.106  32.702  32.506  1.00  0.00    -0.200 F 
ATOM     85  F   UNL A   1      33.606  33.936  30.127  1.00  0.00    -0.200 F 
ENDBRANCH  51  75
BRANCH  63  86
ATOM     86  C   UNL A   1      42.404  29.830  33.739  1.00  0.00     0.064 A 
ATOM     87  C   UNL A   1      41.801  28.569  33.585  1.00  0.00     0.173 A 
ATOM     88  C   UNL A   1      42.774  30.207  35.037  1.00  0.00     0.173 A 
ATOM     89  F   UNL A   1      41.516  28.084  32.371  1.00  0.00    -0.203 F 
ATOM     90  C   UNL A   1      41.535  27.751  34.680  1.00  0.00     0.198 A 
ATOM     91  C   UNL A   1      42.542  29.372  36.127  1.00  0.00     0.198 A 
ATOM     92  F   UNL A   1      43.409  31.372  35.243  1.00  0.00    -0.203 F 
ATOM     93  F   UNL A   1      40.945  26.559  34.503  1.00  0.00    -0.200 F 
ATOM     94  C   UNL A   1      41.911  28.151  35.950  1.00  0.00     0.200 A 
ATOM     95  F   UNL A   1      42.954  29.741  37.347  1.00  0.00    -0.200 F 
ATOM     96  F   UNL A   1      41.692  27.349  37.001  1.00  0.00    -0.200 F 
ENDBRANCH  63  86
ENDBRANCH  37  38
ENDBRANCH  29  32
ENDBRANCH  27  28
ENDBRANCH  26  27
ENDBRANCH   1  26
TORSDOF 15
ENDMDL
