MODEL 1
REMARK VINA RESULT:     -12.0      0.000      0.000
REMARK SMILES CCc1cccc(-c2ccc([C@@H](C)C(=O)NCCCCNC(=O)c3ccc(-c4c5nc(c(-c6c(F)c(F)c(F)c(F)c6F)c6ccc([nH]6)c(-c6c(F)c(F)c(F)c(F)c6F)c6nc(c(-c7c(F)c(F)c(F)c(F)c7F)c7ccc4[nH]7)C=C6)C=C5)cc3)cc2)c1
REMARK SMILES IDX 18 1 17 2 16 3 14 4 15 5 12 7 13 8 11 9 8 10 9 11 88 12
REMARK SMILES IDX 10 13 87 14 7 15 3 16 4 17 89 18 5 19 6 20 2 21 1 22 19 23
REMARK SMILES IDX 20 24 21 25 22 26 23 28 24 29 25 30 86 31 26 32 85 33 27 34
REMARK SMILES IDX 28 35 29 36 79 37 30 38 84 39 78 40 80 41 31 42 83 43 77 44
REMARK SMILES IDX 76 45 32 47 64 48 44 49 63 50 45 51 48 52 62 53 81 54 46 55
REMARK SMILES IDX 47 56 61 58 82 59 49 60 33 61 34 62 42 63 35 64 36 65 40 66
REMARK SMILES IDX 43 67 37 68 38 69 41 70 39 71 65 72 66 73 74 74 67 75 68 76
REMARK SMILES IDX 72 77 75 78 69 79 70 80 73 81 71 82 50 83 51 84 59 85 52 86
REMARK SMILES IDX 53 87 57 88 60 89 54 90 55 91 58 92 56 93
REMARK H PARENT 16 6 21 27 80 46 48 57
REMARK Flexibility Score: inf
ROOT
ATOM      1  C   UNL A   1      32.829  29.500  25.114  1.00  0.00     0.023 C 
ENDROOT
BRANCH   1   2
ATOM      2  C   UNL A   1      31.306  29.474  24.976  1.00  0.00     0.116 C 
BRANCH   2   3
ATOM      3  N   UNL A   1      30.872  29.846  23.645  1.00  0.00    -0.356 N 
ATOM      4  C   UNL A   1      30.331  29.108  22.638  1.00  0.00     0.227 C 
ATOM      5  O   UNL A   1      30.132  29.702  21.570  1.00  0.00    -0.274 OA
ATOM      6  H   UNL A   1      30.989  30.800  23.433  1.00  0.00     0.163 HD
BRANCH   4   7
ATOM      7  C   UNL A   1      29.951  27.625  22.773  1.00  0.00     0.105 C 
ATOM      8  C   UNL A   1      28.627  27.394  23.504  1.00  0.00     0.023 C 
BRANCH   7   9
ATOM      9  C   UNL A   1      31.109  26.732  23.187  1.00  0.00    -0.036 A 
ATOM     10  C   UNL A   1      33.189  24.907  23.956  1.00  0.00    -0.018 A 
ATOM     11  C   UNL A   1      33.313  25.754  22.843  1.00  0.00     0.009 A 
ATOM     12  C   UNL A   1      31.998  25.024  24.693  1.00  0.00     0.009 A 
ATOM     13  C   UNL A   1      32.317  26.675  22.489  1.00  0.00     0.005 A 
ATOM     14  C   UNL A   1      30.972  25.899  24.305  1.00  0.00     0.005 A 
BRANCH  10  15
ATOM     15  C   UNL A   1      34.266  23.948  24.329  1.00  0.00    -0.018 A 
ATOM     16  C   UNL A   1      36.429  23.447  25.413  1.00  0.00    -0.048 A 
ATOM     17  C   UNL A   1      36.305  22.108  25.023  1.00  0.00     0.004 A 
ATOM     18  C   UNL A   1      35.403  24.346  25.065  1.00  0.00     0.012 A 
ATOM     19  C   UNL A   1      35.192  21.681  24.307  1.00  0.00     0.001 A 
ATOM     20  C   UNL A   1      34.196  22.592  23.956  1.00  0.00     0.009 A 
BRANCH  16  21
ATOM     21  C   UNL A   1      37.699  23.866  26.120  1.00  0.00     0.032 C 
ATOM     22  C   UNL A   1      38.795  22.817  26.246  1.00  0.00     0.009 C 
ENDBRANCH  16  21
ENDBRANCH  10  15
ENDBRANCH   7   9
ENDBRANCH   4   7
ENDBRANCH   2   3
ENDBRANCH   1   2
BRANCH   1  23
ATOM     23  C   UNL A   1      33.431  28.302  25.843  1.00  0.00     0.023 C 
BRANCH  23  24
ATOM     24  C   UNL A   1      33.747  28.530  27.316  1.00  0.00     0.116 C 
BRANCH  24  25
ATOM     25  N   UNL A   1      33.722  29.927  27.725  1.00  0.00    -0.352 N 
ATOM     26  C   UNL A   1      34.750  30.680  28.246  1.00  0.00     0.251 C 
ATOM     27  H   UNL A   1      32.861  30.393  27.613  1.00  0.00     0.163 HD
ATOM     28  O   UNL A   1      34.564  31.833  28.610  1.00  0.00    -0.269 OA
BRANCH  26  29
ATOM     29  C   UNL A   1      36.078  30.052  28.412  1.00  0.00     0.039 A 
ATOM     30  C   UNL A   1      37.002  30.145  27.368  1.00  0.00     0.014 A 
ATOM     31  C   UNL A   1      36.429  29.445  29.620  1.00  0.00     0.014 A 
ATOM     32  C   UNL A   1      38.311  29.701  27.568  1.00  0.00     0.010 A 
ATOM     33  C   UNL A   1      37.751  29.076  29.843  1.00  0.00     0.010 A 
ATOM     34  C   UNL A   1      38.705  29.206  28.821  1.00  0.00    -0.014 A 
BRANCH  34  35
ATOM     35  C   UNL A   1      40.112  28.824  29.094  1.00  0.00     0.031 A 
ATOM     36  C   UNL A   1      41.025  29.782  29.804  1.00  0.00     0.074 A 
ATOM     37  C   UNL A   1      40.590  27.655  28.626  1.00  0.00     0.049 A 
ATOM     38  N   UNL A   1      42.304  29.673  30.061  1.00  0.00    -0.248 NA
ATOM     39  C   UNL A   1      40.426  31.048  30.256  1.00  0.00     0.031 C 
ATOM     40  C   UNL A   1      39.818  26.668  27.869  1.00  0.00     0.029 A 
ATOM     41  N   UNL A   1      41.844  27.104  28.708  1.00  0.00    -0.354 N 
ATOM     42  C   UNL A   1      42.666  30.862  30.678  1.00  0.00     0.074 A 
ATOM     43  C   UNL A   1      41.486  31.700  30.710  1.00  0.00     0.031 C 
ATOM     44  C   UNL A   1      40.607  25.621  27.580  1.00  0.00     0.029 A 
ATOM     45  C   UNL A   1      41.946  25.876  28.101  1.00  0.00     0.049 A 
ATOM     46  H   UNL A   1      42.597  27.547  29.159  1.00  0.00     0.167 HD
ATOM     47  C   UNL A   1      43.867  31.215  31.194  1.00  0.00     0.037 A 
ATOM     48  C   UNL A   1      43.004  25.052  27.979  1.00  0.00     0.037 A 
ATOM     49  C   UNL A   1      45.027  30.364  31.193  1.00  0.00     0.049 A 
ATOM     50  C   UNL A   1      44.323  25.456  28.579  1.00  0.00     0.074 A 
ATOM     51  C   UNL A   1      46.268  30.594  31.761  1.00  0.00     0.029 A 
ATOM     52  N   UNL A   1      45.086  29.114  30.594  1.00  0.00    -0.354 N 
ATOM     53  N   UNL A   1      44.635  26.551  29.228  1.00  0.00    -0.248 NA
ATOM     54  C   UNL A   1      45.434  24.506  28.433  1.00  0.00     0.031 C 
ATOM     55  C   UNL A   1      47.090  29.498  31.473  1.00  0.00     0.029 A 
ATOM     56  C   UNL A   1      46.348  28.568  30.761  1.00  0.00     0.049 A 
ATOM     57  H   UNL A   1      44.340  28.679  30.120  1.00  0.00     0.167 HD
ATOM     58  C   UNL A   1      45.968  26.413  29.589  1.00  0.00     0.074 A 
ATOM     59  C   UNL A   1      46.403  25.121  29.098  1.00  0.00     0.031 C 
ATOM     60  C   UNL A   1      46.761  27.278  30.269  1.00  0.00     0.037 A 
BRANCH  47  61
ATOM     61  C   UNL A   1      43.979  32.580  31.804  1.00  0.00     0.064 A 
ATOM     62  C   UNL A   1      43.690  32.806  33.160  1.00  0.00     0.173 A 
ATOM     63  C   UNL A   1      44.384  33.677  31.030  1.00  0.00     0.173 A 
ATOM     64  F   UNL A   1      43.286  31.793  33.941  1.00  0.00    -0.203 F 
ATOM     65  C   UNL A   1      43.766  34.084  33.706  1.00  0.00     0.198 A 
ATOM     66  C   UNL A   1      44.488  34.949  31.586  1.00  0.00     0.198 A 
ATOM     67  F   UNL A   1      44.674  33.516  29.729  1.00  0.00    -0.203 F 
ATOM     68  F   UNL A   1      43.428  34.285  34.987  1.00  0.00    -0.200 F 
ATOM     69  C   UNL A   1      44.169  35.154  32.920  1.00  0.00     0.200 A 
ATOM     70  F   UNL A   1      44.887  35.980  30.829  1.00  0.00    -0.200 F 
ATOM     71  F   UNL A   1      44.239  36.384  33.447  1.00  0.00    -0.200 F 
ENDBRANCH  47  61
BRANCH  48  72
ATOM     72  C   UNL A   1      42.843  23.742  27.300  1.00  0.00     0.064 A 
ATOM     73  C   UNL A   1      43.238  23.577  25.965  1.00  0.00     0.173 A 
ATOM     74  C   UNL A   1      42.310  22.630  27.965  1.00  0.00     0.173 A 
ATOM     75  F   UNL A   1      43.737  24.618  25.281  1.00  0.00    -0.203 F 
ATOM     76  C   UNL A   1      43.094  22.352  25.317  1.00  0.00     0.198 A 
ATOM     77  C   UNL A   1      42.187  21.399  27.324  1.00  0.00     0.198 A 
ATOM     78  F   UNL A   1      41.922  22.736  29.245  1.00  0.00    -0.203 F 
ATOM     79  F   UNL A   1      43.449  22.231  24.030  1.00  0.00    -0.200 F 
ATOM     80  C   UNL A   1      42.575  21.262  26.000  1.00  0.00     0.200 A 
ATOM     81  F   UNL A   1      41.696  20.345  27.990  1.00  0.00    -0.200 F 
ATOM     82  F   UNL A   1      42.443  20.082  25.379  1.00  0.00    -0.200 F 
ENDBRANCH  48  72
BRANCH  60  83
ATOM     83  C   UNL A   1      48.168  26.845  30.546  1.00  0.00     0.064 A 
ATOM     84  C   UNL A   1      48.484  26.036  31.648  1.00  0.00     0.173 A 
ATOM     85  C   UNL A   1      49.207  27.207  29.675  1.00  0.00     0.173 A 
ATOM     86  F   UNL A   1      47.527  25.678  32.518  1.00  0.00    -0.203 F 
ATOM     87  C   UNL A   1      49.793  25.623  31.878  1.00  0.00     0.198 A 
ATOM     88  C   UNL A   1      50.510  26.769  29.895  1.00  0.00     0.198 A 
ATOM     89  F   UNL A   1      48.956  27.975  28.604  1.00  0.00    -0.203 F 
ATOM     90  F   UNL A   1      50.079  24.885  32.960  1.00  0.00    -0.200 F 
ATOM     91  C   UNL A   1      50.803  25.983  30.999  1.00  0.00     0.200 A 
ATOM     92  F   UNL A   1      51.483  27.109  29.038  1.00  0.00    -0.200 F 
ATOM     93  F   UNL A   1      52.061  25.578  31.219  1.00  0.00    -0.200 F 
ENDBRANCH  60  83
ENDBRANCH  34  35
ENDBRANCH  26  29
ENDBRANCH  24  25
ENDBRANCH  23  24
ENDBRANCH   1  23
TORSDOF 14
ENDMDL
MODEL 2
REMARK VINA RESULT:     -11.9      3.259      6.090
REMARK SMILES CCc1cccc(-c2ccc([C@@H](C)C(=O)NCCCCNC(=O)c3ccc(-c4c5nc(c(-c6c(F)c(F)c(F)c(F)c6F)c6ccc([nH]6)c(-c6c(F)c(F)c(F)c(F)c6F)c6nc(c(-c7c(F)c(F)c(F)c(F)c7F)c7ccc4[nH]7)C=C6)C=C5)cc3)cc2)c1
REMARK SMILES IDX 18 1 17 2 16 3 14 4 15 5 12 7 13 8 11 9 8 10 9 11 88 12
REMARK SMILES IDX 10 13 87 14 7 15 3 16 4 17 89 18 5 19 6 20 2 21 1 22 19 23
REMARK SMILES IDX 20 24 21 25 22 26 23 28 24 29 25 30 86 31 26 32 85 33 27 34
REMARK SMILES IDX 28 35 29 36 79 37 30 38 84 39 78 40 80 41 31 42 83 43 77 44
REMARK SMILES IDX 76 45 32 47 64 48 44 49 63 50 45 51 48 52 62 53 81 54 46 55
REMARK SMILES IDX 47 56 61 58 82 59 49 60 33 61 34 62 42 63 35 64 36 65 40 66
REMARK SMILES IDX 43 67 37 68 38 69 41 70 39 71 65 72 66 73 74 74 67 75 68 76
REMARK SMILES IDX 72 77 75 78 69 79 70 80 73 81 71 82 50 83 51 84 59 85 52 86
REMARK SMILES IDX 53 87 57 88 60 89 54 90 55 91 58 92 56 93
REMARK H PARENT 16 6 21 27 80 46 48 57
REMARK Flexibility Score: inf
ROOT
ATOM      1  C   UNL A   1      33.447  34.600  29.311  1.00  0.00     0.023 C 
ENDROOT
BRANCH   1   2
ATOM      2  C   UNL A   1      33.178  36.021  29.810  1.00  0.00     0.116 C 
BRANCH   2   3
ATOM      3  N   UNL A   1      32.094  36.066  30.770  1.00  0.00    -0.356 N 
ATOM      4  C   UNL A   1      32.097  36.245  32.119  1.00  0.00     0.227 C 
ATOM      5  O   UNL A   1      31.000  36.157  32.684  1.00  0.00    -0.274 OA
ATOM      6  H   UNL A   1      31.200  35.948  30.377  1.00  0.00     0.163 HD
BRANCH   4   7
ATOM      7  C   UNL A   1      33.358  36.563  32.937  1.00  0.00     0.105 C 
ATOM      8  C   UNL A   1      33.959  37.937  32.634  1.00  0.00     0.023 C 
BRANCH   7   9
ATOM      9  C   UNL A   1      34.342  35.406  33.019  1.00  0.00    -0.036 A 
ATOM     10  C   UNL A   1      36.280  33.307  33.304  1.00  0.00    -0.018 A 
ATOM     11  C   UNL A   1      34.901  33.070  33.423  1.00  0.00     0.009 A 
ATOM     12  C   UNL A   1      36.659  34.627  33.006  1.00  0.00     0.009 A 
ATOM     13  C   UNL A   1      33.951  34.085  33.244  1.00  0.00     0.005 A 
ATOM     14  C   UNL A   1      35.714  35.658  32.889  1.00  0.00     0.005 A 
BRANCH  10  15
ATOM     15  C   UNL A   1      37.275  32.212  33.478  1.00  0.00    -0.018 A 
ATOM     16  C   UNL A   1      37.975  29.862  33.171  1.00  0.00    -0.048 A 
ATOM     17  C   UNL A   1      39.181  30.144  33.825  1.00  0.00     0.004 A 
ATOM     18  C   UNL A   1      37.043  30.903  33.001  1.00  0.00     0.012 A 
ATOM     19  C   UNL A   1      39.445  31.425  34.297  1.00  0.00     0.001 A 
ATOM     20  C   UNL A   1      38.499  32.438  34.135  1.00  0.00     0.009 A 
BRANCH  16  21
ATOM     21  C   UNL A   1      37.712  28.432  32.752  1.00  0.00     0.032 C 
ATOM     22  C   UNL A   1      38.929  27.565  32.463  1.00  0.00     0.009 C 
ENDBRANCH  16  21
ENDBRANCH  10  15
ENDBRANCH   7   9
ENDBRANCH   4   7
ENDBRANCH   2   3
ENDBRANCH   1   2
BRANCH   1  23
ATOM     23  C   UNL A   1      34.898  34.139  29.427  1.00  0.00     0.023 C 
BRANCH  23  24
ATOM     24  C   UNL A   1      35.094  32.632  29.534  1.00  0.00     0.116 C 
BRANCH  24  25
ATOM     25  N   UNL A   1      34.263  31.854  28.626  1.00  0.00    -0.352 N 
ATOM     26  C   UNL A   1      34.580  30.681  27.978  1.00  0.00     0.251 C 
ATOM     27  H   UNL A   1      33.362  32.211  28.454  1.00  0.00     0.163 HD
ATOM     28  O   UNL A   1      33.801  30.170  27.185  1.00  0.00    -0.269 OA
BRANCH  26  29
ATOM     29  C   UNL A   1      35.907  30.074  28.214  1.00  0.00     0.039 A 
ATOM     30  C   UNL A   1      36.920  30.282  27.275  1.00  0.00     0.014 A 
ATOM     31  C   UNL A   1      36.165  29.369  29.392  1.00  0.00     0.014 A 
ATOM     32  C   UNL A   1      38.218  29.854  27.559  1.00  0.00     0.010 A 
ATOM     33  C   UNL A   1      37.471  29.014  29.707  1.00  0.00     0.010 A 
ATOM     34  C   UNL A   1      38.511  29.258  28.796  1.00  0.00    -0.014 A 
BRANCH  34  35
ATOM     35  C   UNL A   1      39.898  28.887  29.167  1.00  0.00     0.031 A 
ATOM     36  C   UNL A   1      40.730  29.826  29.992  1.00  0.00     0.074 A 
ATOM     37  C   UNL A   1      40.436  27.749  28.688  1.00  0.00     0.049 A 
ATOM     38  N   UNL A   1      41.986  29.728  30.348  1.00  0.00    -0.248 NA
ATOM     39  C   UNL A   1      40.071  31.060  30.448  1.00  0.00     0.031 C 
ATOM     40  C   UNL A   1      39.749  26.786  27.826  1.00  0.00     0.029 A 
ATOM     41  N   UNL A   1      41.690  27.216  28.849  1.00  0.00    -0.354 N 
ATOM     42  C   UNL A   1      42.272  30.893  31.045  1.00  0.00     0.074 A 
ATOM     43  C   UNL A   1      41.077  31.708  31.018  1.00  0.00     0.031 C 
ATOM     44  C   UNL A   1      40.581  25.766  27.557  1.00  0.00     0.029 A 
ATOM     45  C   UNL A   1      41.867  26.020  28.198  1.00  0.00     0.049 A 
ATOM     46  H   UNL A   1      42.396  27.650  29.380  1.00  0.00     0.167 HD
ATOM     47  C   UNL A   1      43.419  31.242  31.674  1.00  0.00     0.037 A 
ATOM     48  C   UNL A   1      42.948  25.220  28.128  1.00  0.00     0.037 A 
ATOM     49  C   UNL A   1      44.592  30.411  31.731  1.00  0.00     0.049 A 
ATOM     50  C   UNL A   1      44.205  25.617  28.852  1.00  0.00     0.074 A 
ATOM     51  C   UNL A   1      45.778  30.635  32.409  1.00  0.00     0.029 A 
ATOM     52  N   UNL A   1      44.726  29.191  31.084  1.00  0.00    -0.354 N 
ATOM     53  N   UNL A   1      44.440  26.687  29.572  1.00  0.00    -0.248 NA
ATOM     54  C   UNL A   1      45.344  24.694  28.756  1.00  0.00     0.031 C 
ATOM     55  C   UNL A   1      46.643  29.568  32.141  1.00  0.00     0.029 A 
ATOM     56  C   UNL A   1      45.981  28.659  31.330  1.00  0.00     0.049 A 
ATOM     57  H   UNL A   1      44.031  28.766  30.531  1.00  0.00     0.167 HD
ATOM     58  C   UNL A   1      45.742  26.554  30.036  1.00  0.00     0.074 A 
ATOM     59  C   UNL A   1      46.242  25.294  29.525  1.00  0.00     0.031 C 
ATOM     60  C   UNL A   1      46.459  27.400  30.817  1.00  0.00     0.037 A 
BRANCH  47  61
ATOM     61  C   UNL A   1      43.453  32.579  32.352  1.00  0.00     0.064 A 
ATOM     62  C   UNL A   1      43.096  32.729  33.701  1.00  0.00     0.173 A 
ATOM     63  C   UNL A   1      43.851  33.726  31.649  1.00  0.00     0.173 A 
ATOM     64  F   UNL A   1      42.694  31.666  34.415  1.00  0.00    -0.203 F 
ATOM     65  C   UNL A   1      43.100  33.981  34.309  1.00  0.00     0.198 A 
ATOM     66  C   UNL A   1      43.883  34.972  32.268  1.00  0.00     0.198 A 
ATOM     67  F   UNL A   1      44.206  33.637  30.357  1.00  0.00    -0.203 F 
ATOM     68  F   UNL A   1      42.697  34.108  35.581  1.00  0.00    -0.200 F 
ATOM     69  C   UNL A   1      43.497  35.100  33.594  1.00  0.00     0.200 A 
ATOM     70  F   UNL A   1      44.277  36.051  31.579  1.00  0.00    -0.200 F 
ATOM     71  F   UNL A   1      43.499  36.306  34.180  1.00  0.00    -0.200 F 
ENDBRANCH  47  61
BRANCH  48  72
ATOM     72  C   UNL A   1      42.870  23.940  27.380  1.00  0.00     0.064 A 
ATOM     73  C   UNL A   1      43.234  23.880  26.027  1.00  0.00     0.173 A 
ATOM     74  C   UNL A   1      42.448  22.754  27.996  1.00  0.00     0.173 A 
ATOM     75  F   UNL A   1      43.625  24.994  25.390  1.00  0.00    -0.203 F 
ATOM     76  C   UNL A   1      43.167  22.685  25.315  1.00  0.00     0.198 A 
ATOM     77  C   UNL A   1      42.404  21.553  27.289  1.00  0.00     0.198 A 
ATOM     78  F   UNL A   1      42.095  22.758  29.290  1.00  0.00    -0.203 F 
ATOM     79  F   UNL A   1      43.488  22.663  24.014  1.00  0.00    -0.200 F 
ATOM     80  C   UNL A   1      42.758  21.521  25.949  1.00  0.00     0.200 A 
ATOM     81  F   UNL A   1      42.019  20.429  27.907  1.00  0.00    -0.200 F 
ATOM     82  F   UNL A   1      42.700  20.369  25.266  1.00  0.00    -0.200 F 
ENDBRANCH  48  72
BRANCH  60  83
ATOM     83  C   UNL A   1      47.848  26.978  31.190  1.00  0.00     0.064 A 
ATOM     84  C   UNL A   1      48.966  27.410  30.462  1.00  0.00     0.173 A 
ATOM     85  C   UNL A   1      48.065  26.168  32.315  1.00  0.00     0.173 A 
ATOM     86  F   UNL A   1      48.807  28.172  29.369  1.00  0.00    -0.203 F 
ATOM     87  C   UNL A   1      50.252  27.028  30.835  1.00  0.00     0.198 A 
ATOM     88  C   UNL A   1      49.354  25.810  32.699  1.00  0.00     0.198 A 
ATOM     89  F   UNL A   1      47.029  25.733  33.046  1.00  0.00    -0.203 F 
ATOM     90  F   UNL A   1      51.304  27.417  30.102  1.00  0.00    -0.200 F 
ATOM     91  C   UNL A   1      50.445  26.235  31.957  1.00  0.00     0.200 A 
ATOM     92  F   UNL A   1      49.540  25.053  33.790  1.00  0.00    -0.200 F 
ATOM     93  F   UNL A   1      51.684  25.875  32.318  1.00  0.00    -0.200 F 
ENDBRANCH  60  83
ENDBRANCH  34  35
ENDBRANCH  26  29
ENDBRANCH  24  25
ENDBRANCH  23  24
ENDBRANCH   1  23
TORSDOF 14
ENDMDL
MODEL 3
REMARK VINA RESULT:     -11.8      4.026      7.514
REMARK SMILES CCc1cccc(-c2ccc([C@@H](C)C(=O)NCCCCNC(=O)c3ccc(-c4c5nc(c(-c6c(F)c(F)c(F)c(F)c6F)c6ccc([nH]6)c(-c6c(F)c(F)c(F)c(F)c6F)c6nc(c(-c7c(F)c(F)c(F)c(F)c7F)c7ccc4[nH]7)C=C6)C=C5)cc3)cc2)c1
REMARK SMILES IDX 18 1 17 2 16 3 14 4 15 5 12 7 13 8 11 9 8 10 9 11 88 12
REMARK SMILES IDX 10 13 87 14 7 15 3 16 4 17 89 18 5 19 6 20 2 21 1 22 19 23
REMARK SMILES IDX 20 24 21 25 22 26 23 28 24 29 25 30 86 31 26 32 85 33 27 34
REMARK SMILES IDX 28 35 29 36 79 37 30 38 84 39 78 40 80 41 31 42 83 43 77 44
REMARK SMILES IDX 76 45 32 47 64 48 44 49 63 50 45 51 48 52 62 53 81 54 46 55
REMARK SMILES IDX 47 56 61 58 82 59 49 60 33 61 34 62 42 63 35 64 36 65 40 66
REMARK SMILES IDX 43 67 37 68 38 69 41 70 39 71 65 72 66 73 74 74 67 75 68 76
REMARK SMILES IDX 72 77 75 78 69 79 70 80 73 81 71 82 50 83 51 84 59 85 52 86
REMARK SMILES IDX 53 87 57 88 60 89 54 90 55 91 58 92 56 93
REMARK H PARENT 16 6 21 27 80 46 48 57
REMARK Flexibility Score: inf
ROOT
ATOM      1  C   UNL A   1      33.824  35.961  28.851  1.00  0.00     0.023 C 
ENDROOT
BRANCH   1   2
ATOM      2  C   UNL A   1      33.015  35.646  30.109  1.00  0.00     0.116 C 
BRANCH   2   3
ATOM      3  N   UNL A   1      33.541  36.318  31.279  1.00  0.00    -0.356 N 
ATOM      4  C   UNL A   1      34.342  35.874  32.286  1.00  0.00     0.227 C 
ATOM      5  O   UNL A   1      34.563  36.675  33.203  1.00  0.00    -0.274 OA
ATOM      6  H   UNL A   1      33.272  37.262  31.359  1.00  0.00     0.163 HD
BRANCH   4   7
ATOM      7  C   UNL A   1      34.979  34.476  32.318  1.00  0.00     0.105 C 
ATOM      8  C   UNL A   1      34.678  33.692  33.597  1.00  0.00     0.023 C 
BRANCH   7   9
ATOM      9  C   UNL A   1      36.422  34.450  31.841  1.00  0.00    -0.036 A 
ATOM     10  C   UNL A   1      39.180  34.276  31.060  1.00  0.00    -0.018 A 
ATOM     11  C   UNL A   1      38.132  34.062  30.150  1.00  0.00     0.009 A 
ATOM     12  C   UNL A   1      38.803  34.611  32.372  1.00  0.00     0.009 A 
ATOM     13  C   UNL A   1      36.785  34.186  30.519  1.00  0.00     0.005 A 
ATOM     14  C   UNL A   1      37.456  34.675  32.760  1.00  0.00     0.005 A 
BRANCH  10  15
ATOM     15  C   UNL A   1      40.606  34.159  30.646  1.00  0.00    -0.018 A 
ATOM     16  C   UNL A   1      42.884  33.260  30.982  1.00  0.00    -0.048 A 
ATOM     17  C   UNL A   1      43.316  33.954  29.845  1.00  0.00     0.004 A 
ATOM     18  C   UNL A   1      41.532  33.368  31.362  1.00  0.00     0.012 A 
ATOM     19  C   UNL A   1      42.427  34.732  29.112  1.00  0.00     0.001 A 
ATOM     20  C   UNL A   1      41.096  34.841  29.517  1.00  0.00     0.009 A 
BRANCH  16  21
ATOM     21  C   UNL A   1      43.915  32.495  31.782  1.00  0.00     0.032 C 
ATOM     22  C   UNL A   1      43.751  32.499  33.296  1.00  0.00     0.009 C 
ENDBRANCH  16  21
ENDBRANCH  10  15
ENDBRANCH   7   9
ENDBRANCH   4   7
ENDBRANCH   2   3
ENDBRANCH   1   2
BRANCH   1  23
ATOM     23  C   UNL A   1      34.261  34.742  28.042  1.00  0.00     0.023 C 
BRANCH  23  24
ATOM     24  C   UNL A   1      33.873  33.395  28.637  1.00  0.00     0.116 C 
BRANCH  24  25
ATOM     25  N   UNL A   1      33.242  32.482  27.694  1.00  0.00    -0.352 N 
ATOM     26  C   UNL A   1      33.703  31.262  27.254  1.00  0.00     0.251 C 
ATOM     27  H   UNL A   1      32.377  32.774  27.325  1.00  0.00     0.163 HD
ATOM     28  O   UNL A   1      33.094  30.630  26.402  1.00  0.00    -0.269 OA
BRANCH  26  29
ATOM     29  C   UNL A   1      34.981  30.748  27.790  1.00  0.00     0.039 A 
ATOM     30  C   UNL A   1      36.103  31.582  27.772  1.00  0.00     0.014 A 
ATOM     31  C   UNL A   1      35.048  29.481  28.374  1.00  0.00     0.014 A 
ATOM     32  C   UNL A   1      37.272  31.174  28.418  1.00  0.00     0.010 A 
ATOM     33  C   UNL A   1      36.185  29.111  29.082  1.00  0.00     0.010 A 
ATOM     34  C   UNL A   1      37.305  29.956  29.116  1.00  0.00    -0.014 A 
BRANCH  34  35
ATOM     35  C   UNL A   1      38.497  29.545  29.896  1.00  0.00     0.031 A 
ATOM     36  C   UNL A   1      38.708  30.084  31.283  1.00  0.00     0.074 A 
ATOM     37  C   UNL A   1      39.431  28.760  29.327  1.00  0.00     0.049 A 
ATOM     38  N   UNL A   1      39.723  29.916  32.093  1.00  0.00    -0.248 NA
ATOM     39  C   UNL A   1      37.651  30.957  31.816  1.00  0.00     0.031 C 
ATOM     40  C   UNL A   1      39.370  28.225  27.965  1.00  0.00     0.029 A 
ATOM     41  N   UNL A   1      40.622  28.286  29.817  1.00  0.00    -0.354 N 
ATOM     42  C   UNL A   1      39.437  30.680  33.215  1.00  0.00     0.074 A 
ATOM     43  C   UNL A   1      38.183  31.354  32.963  1.00  0.00     0.031 C 
ATOM     44  C   UNL A   1      40.460  27.473  27.740  1.00  0.00     0.029 A 
ATOM     45  C   UNL A   1      41.311  27.501  28.925  1.00  0.00     0.049 A 
ATOM     46  H   UNL A   1      40.950  28.489  30.722  1.00  0.00     0.167 HD
ATOM     47  C   UNL A   1      40.146  30.791  34.364  1.00  0.00     0.037 A 
ATOM     48  C   UNL A   1      42.497  26.877  29.052  1.00  0.00     0.037 A 
ATOM     49  C   UNL A   1      41.374  30.089  34.626  1.00  0.00     0.049 A 
ATOM     50  C   UNL A   1      43.256  26.997  30.346  1.00  0.00     0.074 A 
ATOM     51  C   UNL A   1      42.128  30.068  35.786  1.00  0.00     0.029 A 
ATOM     52  N   UNL A   1      42.028  29.278  33.709  1.00  0.00    -0.354 N 
ATOM     53  N   UNL A   1      42.940  27.662  31.430  1.00  0.00    -0.248 NA
ATOM     54  C   UNL A   1      44.532  26.275  30.433  1.00  0.00     0.031 C 
ATOM     55  C   UNL A   1      43.258  29.275  35.559  1.00  0.00     0.029 A 
ATOM     56  C   UNL A   1      43.188  28.768  34.271  1.00  0.00     0.049 A 
ATOM     57  H   UNL A   1      41.715  29.093  32.794  1.00  0.00     0.167 HD
ATOM     58  C   UNL A   1      43.963  27.420  32.336  1.00  0.00     0.074 A 
ATOM     59  C   UNL A   1      44.904  26.536  31.678  1.00  0.00     0.031 C 
ATOM     60  C   UNL A   1      44.110  27.886  33.601  1.00  0.00     0.037 A 
BRANCH  47  61
ATOM     61  C   UNL A   1      39.601  31.703  35.422  1.00  0.00     0.064 A 
ATOM     62  C   UNL A   1      38.657  31.259  36.362  1.00  0.00     0.173 A 
ATOM     63  C   UNL A   1      40.030  33.036  35.505  1.00  0.00     0.173 A 
ATOM     64  F   UNL A   1      38.203  29.997  36.318  1.00  0.00    -0.203 F 
ATOM     65  C   UNL A   1      38.135  32.125  37.318  1.00  0.00     0.198 A 
ATOM     66  C   UNL A   1      39.528  33.892  36.482  1.00  0.00     0.198 A 
ATOM     67  F   UNL A   1      40.934  33.510  34.634  1.00  0.00    -0.203 F 
ATOM     68  F   UNL A   1      37.190  31.695  38.165  1.00  0.00    -0.200 F 
ATOM     69  C   UNL A   1      38.574  33.439  37.380  1.00  0.00     0.200 A 
ATOM     70  F   UNL A   1      39.961  35.158  36.548  1.00  0.00    -0.200 F 
ATOM     71  F   UNL A   1      38.069  34.273  38.300  1.00  0.00    -0.200 F 
ENDBRANCH  47  61
BRANCH  48  72
ATOM     72  C   UNL A   1      43.015  26.043  27.938  1.00  0.00     0.064 A 
ATOM     73  C   UNL A   1      42.641  24.697  27.820  1.00  0.00     0.173 A 
ATOM     74  C   UNL A   1      43.876  26.570  26.966  1.00  0.00     0.173 A 
ATOM     75  F   UNL A   1      41.834  24.145  28.739  1.00  0.00    -0.203 F 
ATOM     76  C   UNL A   1      43.119  23.906  26.779  1.00  0.00     0.198 A 
ATOM     77  C   UNL A   1      44.335  25.783  25.911  1.00  0.00     0.198 A 
ATOM     78  F   UNL A   1      44.258  27.854  27.032  1.00  0.00    -0.203 F 
ATOM     79  F   UNL A   1      42.773  22.613  26.709  1.00  0.00    -0.200 F 
ATOM     80  C   UNL A   1      43.960  24.451  25.821  1.00  0.00     0.200 A 
ATOM     81  F   UNL A   1      45.139  26.317  24.981  1.00  0.00    -0.200 F 
ATOM     82  F   UNL A   1      44.414  23.692  24.815  1.00  0.00    -0.200 F 
ENDBRANCH  48  72
BRANCH  60  83
ATOM     83  C   UNL A   1      45.315  27.428  34.366  1.00  0.00     0.064 A 
ATOM     84  C   UNL A   1      46.520  28.145  34.335  1.00  0.00     0.173 A 
ATOM     85  C   UNL A   1      45.249  26.282  35.173  1.00  0.00     0.173 A 
ATOM     86  F   UNL A   1      46.635  29.238  33.565  1.00  0.00    -0.203 F 
ATOM     87  C   UNL A   1      47.623  27.720  35.069  1.00  0.00     0.198 A 
ATOM     88  C   UNL A   1      46.347  25.875  35.926  1.00  0.00     0.198 A 
ATOM     89  F   UNL A   1      44.118  25.565  35.240  1.00  0.00    -0.203 F 
ATOM     90  F   UNL A   1      48.777  28.395  34.993  1.00  0.00    -0.200 F 
ATOM     91  C   UNL A   1      47.534  26.590  35.869  1.00  0.00     0.200 A 
ATOM     92  F   UNL A   1      46.255  24.790  36.707  1.00  0.00    -0.200 F 
ATOM     93  F   UNL A   1      48.595  26.186  36.581  1.00  0.00    -0.200 F 
ENDBRANCH  60  83
ENDBRANCH  34  35
ENDBRANCH  26  29
ENDBRANCH  24  25
ENDBRANCH  23  24
ENDBRANCH   1  23
TORSDOF 14
ENDMDL
