MODEL 1
REMARK VINA RESULT:     -12.5      0.000      0.000
REMARK SMILES COc1cc(NC(=O)c2ccc([N+](=O)[O-])cc2)c(C(=O)NCCCCNC(=O)c2ccc(-c3c4nc(c(-c5c(F)c(F)c(F)c(F)c5F)c5ccc([nH]5)c(-c5c(F)c(F)c(F)c(F)c5F)c5nc(c(-c6c(F)c(F)c(F)c(F)c6F)c6ccc3[nH]6)C=C5)C=C4)cc2)cc1OC
REMARK SMILES IDX 23 1 22 2 21 3 19 4 20 5 18 7 3 8 4 9 93 10 5 11 92 12 2 13
REMARK SMILES IDX 1 14 94 15 95 16 6 17 7 18 8 20 9 21 10 22 17 23 11 24 16 25
REMARK SMILES IDX 12 26 13 27 14 28 15 29 24 30 25 31 26 32 27 33 28 35 29 36
REMARK SMILES IDX 30 37 91 38 31 39 90 40 32 41 33 42 34 43 84 44 35 45 89 46
REMARK SMILES IDX 83 47 85 48 36 49 88 50 82 51 81 52 37 54 69 55 49 56 68 57
REMARK SMILES IDX 50 58 53 59 67 60 86 61 51 62 52 63 66 65 87 66 54 67 38 68
REMARK SMILES IDX 39 69 47 70 40 71 41 72 45 73 48 74 42 75 43 76 46 77 44 78
REMARK SMILES IDX 70 79 71 80 79 81 72 82 73 83 77 84 80 85 74 86 75 87 78 88
REMARK SMILES IDX 76 89 55 90 56 91 64 92 57 93 58 94 62 95 65 96 59 97 60 98
REMARK SMILES IDX 63 99 61 100
REMARK H PARENT 21 6 6 19 26 34 85 53 53 64
REMARK Flexibility Score: inf
ROOT
ATOM      1  C   UNL A   1      34.798  30.231  27.686  1.00  0.00     0.023 C 
ENDROOT
BRANCH   1   2
ATOM      2  C   UNL A   1      34.188  29.034  26.947  1.00  0.00     0.116 C 
BRANCH   2   3
ATOM      3  N   UNL A   1      32.967  28.601  27.599  1.00  0.00    -0.352 N 
ATOM      4  C   UNL A   1      31.814  28.017  27.135  1.00  0.00     0.253 C 
ATOM      5  O   UNL A   1      30.946  27.790  27.981  1.00  0.00    -0.269 OA
ATOM      6  H   UNL A   1      32.965  28.757  28.571  1.00  0.00     0.163 HD
BRANCH   4   7
ATOM      7  C   UNL A   1      31.573  27.606  25.708  1.00  0.00     0.067 A 
ATOM      8  C   UNL A   1      31.239  26.859  23.012  1.00  0.00     0.162 A 
ATOM      9  C   UNL A   1      31.108  25.915  24.041  1.00  0.00     0.077 A 
ATOM     10  C   UNL A   1      31.435  28.195  23.323  1.00  0.00     0.161 A 
ATOM     11  C   UNL A   1      31.308  26.249  25.391  1.00  0.00     0.058 A 
ATOM     12  C   UNL A   1      31.561  28.547  24.668  1.00  0.00     0.066 A 
BRANCH   8  13
ATOM     13  O   UNL A   1      31.063  26.446  21.720  1.00  0.00    -0.493 OA
ATOM     14  C   UNL A   1      32.268  25.889  21.185  1.00  0.00     0.278 C 
ENDBRANCH   8  13
BRANCH  10  15
ATOM     15  O   UNL A   1      31.494  29.273  22.484  1.00  0.00    -0.493 OA
ATOM     16  C   UNL A   1      30.273  29.818  22.008  1.00  0.00     0.278 C 
ENDBRANCH  10  15
BRANCH  11  17
ATOM     17  N   UNL A   1      31.198  25.300  26.443  1.00  0.00    -0.321 N 
ATOM     18  C   UNL A   1      31.830  24.121  26.760  1.00  0.00     0.255 C 
ATOM     19  H   UNL A   1      30.508  25.545  27.101  1.00  0.00     0.170 HD
ATOM     20  O   UNL A   1      31.403  23.389  27.650  1.00  0.00    -0.269 OA
BRANCH  18  21
ATOM     21  C   UNL A   1      33.054  23.701  26.068  1.00  0.00     0.040 A 
ATOM     22  C   UNL A   1      33.044  22.490  25.365  1.00  0.00     0.021 A 
ATOM     23  C   UNL A   1      34.188  24.521  26.085  1.00  0.00     0.021 A 
ATOM     24  C   UNL A   1      34.148  22.137  24.589  1.00  0.00     0.086 A 
ATOM     25  C   UNL A   1      35.293  24.174  25.308  1.00  0.00     0.086 A 
ATOM     26  C   UNL A   1      35.257  22.997  24.543  1.00  0.00     0.269 A 
BRANCH  26  27
ATOM     27  N   UNL A   1      36.370  22.692  23.640  1.00  0.00     0.062 N 
ATOM     28  O   UNL A   1      36.309  23.129  22.482  1.00  0.00    -0.258 OA
ATOM     29  O   UNL A   1      37.316  22.038  24.102  1.00  0.00    -0.258 OA
ENDBRANCH  26  27
ENDBRANCH  18  21
ENDBRANCH  11  17
ENDBRANCH   4   7
ENDBRANCH   2   3
ENDBRANCH   1   2
BRANCH   1  30
ATOM     30  C   UNL A   1      34.249  31.588  27.253  1.00  0.00     0.023 C 
BRANCH  30  31
ATOM     31  C   UNL A   1      32.879  31.920  27.824  1.00  0.00     0.116 C 
BRANCH  31  32
ATOM     32  N   UNL A   1      32.551  33.337  27.760  1.00  0.00    -0.352 N 
ATOM     33  C   UNL A   1      33.169  34.370  28.423  1.00  0.00     0.251 C 
ATOM     34  H   UNL A   1      31.799  33.583  27.175  1.00  0.00     0.163 HD
ATOM     35  O   UNL A   1      32.747  35.518  28.347  1.00  0.00    -0.269 OA
BRANCH  33  36
ATOM     36  C   UNL A   1      34.328  34.054  29.277  1.00  0.00     0.039 A 
ATOM     37  C   UNL A   1      34.123  33.318  30.446  1.00  0.00     0.014 A 
ATOM     38  C   UNL A   1      35.616  34.396  28.859  1.00  0.00     0.014 A 
ATOM     39  C   UNL A   1      35.225  32.850  31.161  1.00  0.00     0.010 A 
ATOM     40  C   UNL A   1      36.711  33.875  29.537  1.00  0.00     0.010 A 
ATOM     41  C   UNL A   1      36.524  33.088  30.686  1.00  0.00    -0.014 A 
BRANCH  41  42
ATOM     42  C   UNL A   1      37.717  32.521  31.357  1.00  0.00     0.031 A 
ATOM     43  C   UNL A   1      38.440  31.367  30.729  1.00  0.00     0.074 A 
ATOM     44  C   UNL A   1      38.072  32.968  32.575  1.00  0.00     0.049 A 
ATOM     45  N   UNL A   1      39.390  30.616  31.224  1.00  0.00    -0.248 NA
ATOM     46  C   UNL A   1      38.011  30.987  29.374  1.00  0.00     0.031 C 
ATOM     47  C   UNL A   1      37.415  34.053  33.306  1.00  0.00     0.029 A 
ATOM     48  N   UNL A   1      39.059  32.542  33.429  1.00  0.00    -0.354 N 
ATOM     49  C   UNL A   1      39.653  29.660  30.254  1.00  0.00     0.074 A 
ATOM     50  C   UNL A   1      38.736  29.899  29.160  1.00  0.00     0.031 C 
ATOM     51  C   UNL A   1      38.015  34.207  34.497  1.00  0.00     0.029 A 
ATOM     52  C   UNL A   1      39.072  33.209  34.629  1.00  0.00     0.049 A 
ATOM     53  H   UNL A   1      39.696  31.828  33.202  1.00  0.00     0.167 HD
ATOM     54  C   UNL A   1      40.590  28.682  30.269  1.00  0.00     0.037 A 
ATOM     55  C   UNL A   1      39.839  33.021  35.720  1.00  0.00     0.037 A 
ATOM     56  C   UNL A   1      41.516  28.467  31.347  1.00  0.00     0.049 A 
ATOM     57  C   UNL A   1      40.884  31.940  35.706  1.00  0.00     0.074 A 
ATOM     58  C   UNL A   1      42.534  27.535  31.439  1.00  0.00     0.029 A 
ATOM     59  N   UNL A   1      41.538  29.202  32.524  1.00  0.00    -0.354 N 
ATOM     60  N   UNL A   1      41.157  31.069  34.766  1.00  0.00    -0.248 NA
ATOM     61  C   UNL A   1      41.729  31.819  36.902  1.00  0.00     0.031 C 
ATOM     62  C   UNL A   1      43.154  27.687  32.684  1.00  0.00     0.029 A 
ATOM     63  C   UNL A   1      42.547  28.739  33.351  1.00  0.00     0.049 A 
ATOM     64  H   UNL A   1      40.926  29.943  32.738  1.00  0.00     0.167 HD
ATOM     65  C   UNL A   1      42.219  30.313  35.243  1.00  0.00     0.074 A 
ATOM     66  C   UNL A   1      42.546  30.834  36.554  1.00  0.00     0.031 C 
ATOM     67  C   UNL A   1      42.864  29.281  34.648  1.00  0.00     0.037 A 
BRANCH  54  68
ATOM     68  C   UNL A   1      40.650  27.774  29.076  1.00  0.00     0.064 A 
ATOM     69  C   UNL A   1      41.531  28.020  28.013  1.00  0.00     0.173 A 
ATOM     70  C   UNL A   1      39.826  26.643  28.999  1.00  0.00     0.173 A 
ATOM     71  F   UNL A   1      42.329  29.098  28.032  1.00  0.00    -0.203 F 
ATOM     72  C   UNL A   1      41.561  27.184  26.899  1.00  0.00     0.198 A 
ATOM     73  C   UNL A   1      39.877  25.793  27.897  1.00  0.00     0.198 A 
ATOM     74  F   UNL A   1      38.967  26.362  29.991  1.00  0.00    -0.203 F 
ATOM     75  F   UNL A   1      42.370  27.470  25.870  1.00  0.00    -0.200 F 
ATOM     76  C   UNL A   1      40.737  26.070  26.844  1.00  0.00     0.200 A 
ATOM     77  F   UNL A   1      39.088  24.711  27.849  1.00  0.00    -0.200 F 
ATOM     78  F   UNL A   1      40.765  25.267  25.772  1.00  0.00    -0.200 F 
ENDBRANCH  54  68
BRANCH  55  79
ATOM     79  C   UNL A   1      39.651  33.890  36.909  1.00  0.00     0.064 A 
ATOM     80  C   UNL A   1      40.253  35.154  36.977  1.00  0.00     0.173 A 
ATOM     81  C   UNL A   1      38.856  33.484  37.991  1.00  0.00     0.173 A 
ATOM     82  F   UNL A   1      41.036  35.576  35.974  1.00  0.00    -0.203 F 
ATOM     83  C   UNL A   1      40.076  35.975  38.088  1.00  0.00     0.198 A 
ATOM     84  C   UNL A   1      38.662  34.316  39.092  1.00  0.00     0.198 A 
ATOM     85  F   UNL A   1      38.254  32.286  37.969  1.00  0.00    -0.203 F 
ATOM     86  F   UNL A   1      40.688  37.165  38.143  1.00  0.00    -0.200 F 
ATOM     87  C   UNL A   1      39.276  35.559  39.142  1.00  0.00     0.200 A 
ATOM     88  F   UNL A   1      37.878  33.916  40.101  1.00  0.00    -0.200 F 
ATOM     89  F   UNL A   1      39.101  36.352  40.207  1.00  0.00    -0.200 F 
ENDBRANCH  55  79
BRANCH  67  90
ATOM     90  C   UNL A   1      44.012  28.667  35.391  1.00  0.00     0.064 A 
ATOM     91  C   UNL A   1      45.324  29.134  35.229  1.00  0.00     0.173 A 
ATOM     92  C   UNL A   1      43.785  27.638  36.317  1.00  0.00     0.173 A 
ATOM     93  F   UNL A   1      45.590  30.106  34.344  1.00  0.00    -0.203 F 
ATOM     94  C   UNL A   1      46.372  28.582  35.961  1.00  0.00     0.198 A 
ATOM     95  C   UNL A   1      44.832  27.106  37.063  1.00  0.00     0.198 A 
ATOM     96  F   UNL A   1      42.546  27.162  36.509  1.00  0.00    -0.203 F 
ATOM     97  F   UNL A   1      47.624  29.021  35.769  1.00  0.00    -0.200 F 
ATOM     98  C   UNL A   1      46.125  27.575  36.883  1.00  0.00     0.200 A 
ATOM     99  F   UNL A   1      44.590  26.139  37.960  1.00  0.00    -0.200 F 
ATOM    100  F   UNL A   1      47.133  27.053  37.593  1.00  0.00    -0.200 F 
ENDBRANCH  67  90
ENDBRANCH  41  42
ENDBRANCH  33  36
ENDBRANCH  31  32
ENDBRANCH  30  31
ENDBRANCH   1  30
TORSDOF 16
ENDMDL
MODEL 2
REMARK VINA RESULT:     -12.4      0.264      1.669
REMARK SMILES COc1cc(NC(=O)c2ccc([N+](=O)[O-])cc2)c(C(=O)NCCCCNC(=O)c2ccc(-c3c4nc(c(-c5c(F)c(F)c(F)c(F)c5F)c5ccc([nH]5)c(-c5c(F)c(F)c(F)c(F)c5F)c5nc(c(-c6c(F)c(F)c(F)c(F)c6F)c6ccc3[nH]6)C=C5)C=C4)cc2)cc1OC
REMARK SMILES IDX 23 1 22 2 21 3 19 4 20 5 18 7 3 8 4 9 93 10 5 11 92 12 2 13
REMARK SMILES IDX 1 14 94 15 95 16 6 17 7 18 8 20 9 21 10 22 17 23 11 24 16 25
REMARK SMILES IDX 12 26 13 27 14 28 15 29 24 30 25 31 26 32 27 33 28 35 29 36
REMARK SMILES IDX 30 37 91 38 31 39 90 40 32 41 33 42 34 43 84 44 35 45 89 46
REMARK SMILES IDX 83 47 85 48 36 49 88 50 82 51 81 52 37 54 69 55 49 56 68 57
REMARK SMILES IDX 50 58 53 59 67 60 86 61 51 62 52 63 66 65 87 66 54 67 38 68
REMARK SMILES IDX 39 69 47 70 40 71 41 72 45 73 48 74 42 75 43 76 46 77 44 78
REMARK SMILES IDX 70 79 71 80 79 81 72 82 73 83 77 84 80 85 74 86 75 87 78 88
REMARK SMILES IDX 76 89 55 90 56 91 64 92 57 93 58 94 62 95 65 96 59 97 60 98
REMARK SMILES IDX 63 99 61 100
REMARK H PARENT 21 6 6 19 26 34 85 53 53 64
REMARK Flexibility Score: inf
ROOT
ATOM      1  C   UNL A   1      34.737  30.512  27.678  1.00  0.00     0.023 C 
ENDROOT
BRANCH   1   2
ATOM      2  C   UNL A   1      34.077  29.378  26.885  1.00  0.00     0.116 C 
BRANCH   2   3
ATOM      3  N   UNL A   1      32.916  28.871  27.590  1.00  0.00    -0.352 N 
ATOM      4  C   UNL A   1      31.773  28.233  27.175  1.00  0.00     0.253 C 
ATOM      5  O   UNL A   1      30.963  27.947  28.060  1.00  0.00    -0.269 OA
ATOM      6  H   UNL A   1      32.955  29.013  28.563  1.00  0.00     0.163 HD
BRANCH   4   7
ATOM      7  C   UNL A   1      31.481  27.830  25.755  1.00  0.00     0.067 A 
ATOM      8  C   UNL A   1      31.049  27.106  23.067  1.00  0.00     0.162 A 
ATOM      9  C   UNL A   1      31.039  26.138  24.083  1.00  0.00     0.077 A 
ATOM     10  C   UNL A   1      31.172  28.446  23.393  1.00  0.00     0.161 A 
ATOM     11  C   UNL A   1      31.289  26.463  25.426  1.00  0.00     0.058 A 
ATOM     12  C   UNL A   1      31.349  28.784  24.736  1.00  0.00     0.066 A 
BRANCH   8  13
ATOM     13  O   UNL A   1      30.830  26.703  21.778  1.00  0.00    -0.493 OA
ATOM     14  C   UNL A   1      31.980  26.046  21.238  1.00  0.00     0.278 C 
ENDBRANCH   8  13
BRANCH  10  15
ATOM     15  O   UNL A   1      31.114  29.540  22.574  1.00  0.00    -0.493 OA
ATOM     16  C   UNL A   1      29.834  30.021  22.192  1.00  0.00     0.278 C 
ENDBRANCH  10  15
BRANCH  11  17
ATOM     17  N   UNL A   1      31.302  25.492  26.464  1.00  0.00    -0.321 N 
ATOM     18  C   UNL A   1      31.946  24.295  26.669  1.00  0.00     0.255 C 
ATOM     19  H   UNL A   1      30.710  25.733  27.213  1.00  0.00     0.170 HD
ATOM     20  O   UNL A   1      31.627  23.550  27.592  1.00  0.00    -0.269 OA
BRANCH  18  21
ATOM     21  C   UNL A   1      33.058  23.870  25.811  1.00  0.00     0.040 A 
ATOM     22  C   UNL A   1      34.210  24.664  25.765  1.00  0.00     0.021 A 
ATOM     23  C   UNL A   1      32.972  22.673  25.090  1.00  0.00     0.021 A 
ATOM     24  C   UNL A   1      35.329  24.212  25.066  1.00  0.00     0.086 A 
ATOM     25  C   UNL A   1      34.090  22.215  24.392  1.00  0.00     0.086 A 
ATOM     26  C   UNL A   1      35.272  22.974  24.406  1.00  0.00     0.269 A 
BRANCH  26  27
ATOM     27  N   UNL A   1      36.477  22.438  23.769  1.00  0.00     0.062 N 
ATOM     28  O   UNL A   1      37.064  21.506  24.337  1.00  0.00    -0.258 OA
ATOM     29  O   UNL A   1      36.819  22.935  22.686  1.00  0.00    -0.258 OA
ENDBRANCH  26  27
ENDBRANCH  18  21
ENDBRANCH  11  17
ENDBRANCH   4   7
ENDBRANCH   2   3
ENDBRANCH   1   2
BRANCH   1  30
ATOM     30  C   UNL A   1      34.232  31.909  27.322  1.00  0.00     0.023 C 
BRANCH  30  31
ATOM     31  C   UNL A   1      32.826  32.210  27.815  1.00  0.00     0.116 C 
BRANCH  31  32
ATOM     32  N   UNL A   1      32.495  33.628  27.798  1.00  0.00    -0.352 N 
ATOM     33  C   UNL A   1      33.120  34.641  28.486  1.00  0.00     0.251 C 
ATOM     34  H   UNL A   1      31.737  33.891  27.229  1.00  0.00     0.163 HD
ATOM     35  O   UNL A   1      32.697  35.791  28.450  1.00  0.00    -0.269 OA
BRANCH  33  36
ATOM     36  C   UNL A   1      34.287  34.300  29.317  1.00  0.00     0.039 A 
ATOM     37  C   UNL A   1      34.090  33.565  30.488  1.00  0.00     0.014 A 
ATOM     38  C   UNL A   1      35.575  34.618  28.877  1.00  0.00     0.014 A 
ATOM     39  C   UNL A   1      35.196  33.074  31.182  1.00  0.00     0.010 A 
ATOM     40  C   UNL A   1      36.671  34.074  29.534  1.00  0.00     0.010 A 
ATOM     41  C   UNL A   1      36.490  33.288  30.684  1.00  0.00    -0.014 A 
BRANCH  41  42
ATOM     42  C   UNL A   1      37.684  32.696  31.332  1.00  0.00     0.031 A 
ATOM     43  C   UNL A   1      38.395  31.554  30.669  1.00  0.00     0.074 A 
ATOM     44  C   UNL A   1      38.050  33.109  32.558  1.00  0.00     0.049 A 
ATOM     45  N   UNL A   1      39.343  30.784  31.138  1.00  0.00    -0.248 NA
ATOM     46  C   UNL A   1      37.954  31.212  29.308  1.00  0.00     0.031 C 
ATOM     47  C   UNL A   1      37.406  34.179  33.321  1.00  0.00     0.029 A 
ATOM     48  N   UNL A   1      39.041  32.655  33.394  1.00  0.00    -0.354 N 
ATOM     49  C   UNL A   1      39.593  29.852  30.142  1.00  0.00     0.074 A 
ATOM     50  C   UNL A   1      38.670  30.125  29.060  1.00  0.00     0.031 C 
ATOM     51  C   UNL A   1      38.015  34.299  34.512  1.00  0.00     0.029 A 
ATOM     52  C   UNL A   1      39.067  33.290  34.611  1.00  0.00     0.049 A 
ATOM     53  H   UNL A   1      39.672  31.942  33.144  1.00  0.00     0.167 HD
ATOM     54  C   UNL A   1      40.523  28.867  30.124  1.00  0.00     0.037 A 
ATOM     55  C   UNL A   1      39.839  33.069  35.691  1.00  0.00     0.037 A 
ATOM     56  C   UNL A   1      41.455  28.619  31.190  1.00  0.00     0.049 A 
ATOM     57  C   UNL A   1      40.877  31.983  35.641  1.00  0.00     0.074 A 
ATOM     58  C   UNL A   1      42.468  27.678  31.251  1.00  0.00     0.029 A 
ATOM     59  N   UNL A   1      41.490  29.323  32.385  1.00  0.00    -0.354 N 
ATOM     60  N   UNL A   1      41.138  31.134  34.677  1.00  0.00    -0.248 NA
ATOM     61  C   UNL A   1      41.730  31.825  36.828  1.00  0.00     0.031 C 
ATOM     62  C   UNL A   1      43.098  27.794  32.495  1.00  0.00     0.029 A 
ATOM     63  C   UNL A   1      42.502  28.832  33.193  1.00  0.00     0.049 A 
ATOM     64  H   UNL A   1      40.885  30.062  32.623  1.00  0.00     0.167 HD
ATOM     65  C   UNL A   1      42.198  30.359  35.127  1.00  0.00     0.074 A 
ATOM     66  C   UNL A   1      42.538  30.844  36.449  1.00  0.00     0.031 C 
ATOM     67  C   UNL A   1      42.831  29.339  34.501  1.00  0.00     0.037 A 
BRANCH  54  68
ATOM     68  C   UNL A   1      40.569  27.990  28.909  1.00  0.00     0.064 A 
ATOM     69  C   UNL A   1      39.820  26.806  28.831  1.00  0.00     0.173 A 
ATOM     70  C   UNL A   1      41.363  28.339  27.808  1.00  0.00     0.173 A 
ATOM     71  F   UNL A   1      39.057  26.420  29.865  1.00  0.00    -0.203 F 
ATOM     72  C   UNL A   1      39.891  25.986  27.707  1.00  0.00     0.198 A 
ATOM     73  C   UNL A   1      41.410  27.532  26.674  1.00  0.00     0.198 A 
ATOM     74  F   UNL A   1      42.097  29.462  27.831  1.00  0.00    -0.203 F 
ATOM     75  F   UNL A   1      39.211  24.832  27.678  1.00  0.00    -0.200 F 
ATOM     76  C   UNL A   1      40.682  26.352  26.629  1.00  0.00     0.200 A 
ATOM     77  F   UNL A   1      42.168  27.890  25.628  1.00  0.00    -0.200 F 
ATOM     78  F   UNL A   1      40.751  25.562  25.549  1.00  0.00    -0.200 F 
ENDBRANCH  54  68
BRANCH  55  79
ATOM     79  C   UNL A   1      39.666  33.909  36.903  1.00  0.00     0.064 A 
ATOM     80  C   UNL A   1      38.878  33.468  37.975  1.00  0.00     0.173 A 
ATOM     81  C   UNL A   1      40.297  35.156  37.023  1.00  0.00     0.173 A 
ATOM     82  F   UNL A   1      38.241  32.290  37.898  1.00  0.00    -0.203 F 
ATOM     83  C   UNL A   1      38.716  34.249  39.117  1.00  0.00     0.198 A 
ATOM     84  C   UNL A   1      40.152  35.926  38.175  1.00  0.00     0.198 A 
ATOM     85  F   UNL A   1      41.067  35.616  36.026  1.00  0.00    -0.203 F 
ATOM     86  F   UNL A   1      37.931  33.821  40.114  1.00  0.00    -0.200 F 
ATOM     87  C   UNL A   1      39.358  35.475  39.219  1.00  0.00     0.200 A 
ATOM     88  F   UNL A   1      40.785  37.103  38.275  1.00  0.00    -0.200 F 
ATOM     89  F   UNL A   1      39.208  36.223  40.320  1.00  0.00    -0.200 F 
ENDBRANCH  55  79
BRANCH  67  90
ATOM     90  C   UNL A   1      43.981  28.698  35.220  1.00  0.00     0.064 A 
ATOM     91  C   UNL A   1      45.297  29.148  35.045  1.00  0.00     0.173 A 
ATOM     92  C   UNL A   1      43.752  27.661  36.135  1.00  0.00     0.173 A 
ATOM     93  F   UNL A   1      45.566  30.127  34.169  1.00  0.00    -0.203 F 
ATOM     94  C   UNL A   1      46.347  28.571  35.755  1.00  0.00     0.198 A 
ATOM     95  C   UNL A   1      44.801  27.103  36.860  1.00  0.00     0.198 A 
ATOM     96  F   UNL A   1      42.509  27.201  36.339  1.00  0.00    -0.203 F 
ATOM     97  F   UNL A   1      47.603  28.994  35.551  1.00  0.00    -0.200 F 
ATOM     98  C   UNL A   1      46.098  27.556  36.667  1.00  0.00     0.200 A 
ATOM     99  F   UNL A   1      44.557  26.129  37.747  1.00  0.00    -0.200 F 
ATOM    100  F   UNL A   1      47.108  27.010  37.356  1.00  0.00    -0.200 F 
ENDBRANCH  67  90
ENDBRANCH  41  42
ENDBRANCH  33  36
ENDBRANCH  31  32
ENDBRANCH  30  31
ENDBRANCH   1  30
TORSDOF 16
ENDMDL
MODEL 3
REMARK VINA RESULT:     -12.4      2.017      3.245
REMARK SMILES COc1cc(NC(=O)c2ccc([N+](=O)[O-])cc2)c(C(=O)NCCCCNC(=O)c2ccc(-c3c4nc(c(-c5c(F)c(F)c(F)c(F)c5F)c5ccc([nH]5)c(-c5c(F)c(F)c(F)c(F)c5F)c5nc(c(-c6c(F)c(F)c(F)c(F)c6F)c6ccc3[nH]6)C=C5)C=C4)cc2)cc1OC
REMARK SMILES IDX 23 1 22 2 21 3 19 4 20 5 18 7 3 8 4 9 93 10 5 11 92 12 2 13
REMARK SMILES IDX 1 14 94 15 95 16 6 17 7 18 8 20 9 21 10 22 17 23 11 24 16 25
REMARK SMILES IDX 12 26 13 27 14 28 15 29 24 30 25 31 26 32 27 33 28 35 29 36
REMARK SMILES IDX 30 37 91 38 31 39 90 40 32 41 33 42 34 43 84 44 35 45 89 46
REMARK SMILES IDX 83 47 85 48 36 49 88 50 82 51 81 52 37 54 69 55 49 56 68 57
REMARK SMILES IDX 50 58 53 59 67 60 86 61 51 62 52 63 66 65 87 66 54 67 38 68
REMARK SMILES IDX 39 69 47 70 40 71 41 72 45 73 48 74 42 75 43 76 46 77 44 78
REMARK SMILES IDX 70 79 71 80 79 81 72 82 73 83 77 84 80 85 74 86 75 87 78 88
REMARK SMILES IDX 76 89 55 90 56 91 64 92 57 93 58 94 62 95 65 96 59 97 60 98
REMARK SMILES IDX 63 99 61 100
REMARK H PARENT 21 6 6 19 26 34 85 53 53 64
REMARK Flexibility Score: inf
ROOT
ATOM      1  C   UNL A   1      33.529  28.875  24.218  1.00  0.00     0.023 C 
ENDROOT
BRANCH   1   2
ATOM      2  C   UNL A   1      33.260  28.971  22.711  1.00  0.00     0.116 C 
BRANCH   2   3
ATOM      3  N   UNL A   1      33.544  27.707  22.060  1.00  0.00    -0.352 N 
ATOM      4  C   UNL A   1      33.221  26.407  22.359  1.00  0.00     0.253 C 
ATOM      5  O   UNL A   1      33.648  25.552  21.579  1.00  0.00    -0.269 OA
ATOM      6  H   UNL A   1      34.075  27.801  21.237  1.00  0.00     0.163 HD
BRANCH   4   7
ATOM      7  C   UNL A   1      32.362  25.979  23.517  1.00  0.00     0.067 A 
ATOM      8  C   UNL A   1      30.694  25.100  25.612  1.00  0.00     0.162 A 
ATOM      9  C   UNL A   1      32.072  24.840  25.632  1.00  0.00     0.077 A 
ATOM     10  C   UNL A   1      30.156  25.884  24.605  1.00  0.00     0.161 A 
ATOM     11  C   UNL A   1      32.922  25.231  24.585  1.00  0.00     0.058 A 
ATOM     12  C   UNL A   1      31.008  26.339  23.597  1.00  0.00     0.066 A 
BRANCH   8  13
ATOM     13  O   UNL A   1      29.929  24.655  26.655  1.00  0.00    -0.493 OA
ATOM     14  C   UNL A   1      30.111  23.253  26.870  1.00  0.00     0.278 C 
ENDBRANCH   8  13
BRANCH  10  15
ATOM     15  O   UNL A   1      28.871  26.328  24.454  1.00  0.00    -0.493 OA
ATOM     16  C   UNL A   1      28.624  27.347  23.497  1.00  0.00     0.278 C 
ENDBRANCH  10  15
BRANCH  11  17
ATOM     17  N   UNL A   1      34.317  24.957  24.581  1.00  0.00    -0.321 N 
ATOM     18  C   UNL A   1      35.085  23.818  24.614  1.00  0.00     0.255 C 
ATOM     19  H   UNL A   1      34.861  25.777  24.546  1.00  0.00     0.170 HD
ATOM     20  O   UNL A   1      36.299  23.874  24.793  1.00  0.00    -0.269 OA
BRANCH  18  21
ATOM     21  C   UNL A   1      34.492  22.491  24.411  1.00  0.00     0.040 A 
ATOM     22  C   UNL A   1      35.060  21.395  25.073  1.00  0.00     0.021 A 
ATOM     23  C   UNL A   1      33.359  22.344  23.602  1.00  0.00     0.021 A 
ATOM     24  C   UNL A   1      34.432  20.151  25.004  1.00  0.00     0.086 A 
ATOM     25  C   UNL A   1      32.727  21.102  23.533  1.00  0.00     0.086 A 
ATOM     26  C   UNL A   1      33.252  20.019  24.256  1.00  0.00     0.269 A 
BRANCH  26  27
ATOM     27  N   UNL A   1      32.524  18.747  24.274  1.00  0.00     0.062 N 
ATOM     28  O   UNL A   1      32.153  18.311  25.372  1.00  0.00    -0.258 OA
ATOM     29  O   UNL A   1      32.302  18.202  23.183  1.00  0.00    -0.258 OA
ENDBRANCH  26  27
ENDBRANCH  18  21
ENDBRANCH  11  17
ENDBRANCH   4   7
ENDBRANCH   2   3
ENDBRANCH   1   2
BRANCH   1  30
ATOM     30  C   UNL A   1      32.435  29.480  25.094  1.00  0.00     0.023 C 
BRANCH  30  31
ATOM     31  C   UNL A   1      32.910  29.925  26.469  1.00  0.00     0.116 C 
BRANCH  31  32
ATOM     32  N   UNL A   1      32.638  31.328  26.751  1.00  0.00    -0.352 N 
ATOM     33  C   UNL A   1      33.432  32.211  27.441  1.00  0.00     0.251 C 
ATOM     34  H   UNL A   1      31.787  31.683  26.409  1.00  0.00     0.163 HD
ATOM     35  O   UNL A   1      33.056  33.352  27.683  1.00  0.00    -0.269 OA
BRANCH  33  36
ATOM     36  C   UNL A   1      34.736  31.735  27.936  1.00  0.00     0.039 A 
ATOM     37  C   UNL A   1      35.802  32.635  28.001  1.00  0.00     0.014 A 
ATOM     38  C   UNL A   1      34.863  30.434  28.429  1.00  0.00     0.014 A 
ATOM     39  C   UNL A   1      36.982  32.252  28.640  1.00  0.00     0.010 A 
ATOM     40  C   UNL A   1      36.014  30.078  29.121  1.00  0.00     0.010 A 
ATOM     41  C   UNL A   1      37.077  30.988  29.243  1.00  0.00    -0.014 A 
BRANCH  41  42
ATOM     42  C   UNL A   1      38.270  30.582  30.021  1.00  0.00     0.031 A 
ATOM     43  C   UNL A   1      39.223  29.578  29.445  1.00  0.00     0.074 A 
ATOM     44  C   UNL A   1      38.429  31.030  31.280  1.00  0.00     0.049 A 
ATOM     45  N   UNL A   1      40.223  28.961  30.018  1.00  0.00    -0.248 NA
ATOM     46  C   UNL A   1      38.995  29.191  28.044  1.00  0.00     0.031 C 
ATOM     47  C   UNL A   1      37.543  31.973  31.963  1.00  0.00     0.029 A 
ATOM     48  N   UNL A   1      39.381  30.726  32.222  1.00  0.00    -0.354 N 
ATOM     49  C   UNL A   1      40.727  28.095  29.058  1.00  0.00     0.074 A 
ATOM     50  C   UNL A   1      39.897  28.235  27.880  1.00  0.00     0.031 C 
ATOM     51  C   UNL A   1      37.990  32.169  33.214  1.00  0.00     0.029 A 
ATOM     52  C   UNL A   1      39.171  31.338  33.432  1.00  0.00     0.049 A 
ATOM     53  H   UNL A   1      40.141  30.126  32.045  1.00  0.00     0.167 HD
ATOM     54  C   UNL A   1      41.798  27.270  29.147  1.00  0.00     0.037 A 
ATOM     55  C   UNL A   1      39.845  31.226  34.592  1.00  0.00     0.037 A 
ATOM     56  C   UNL A   1      42.634  27.156  30.311  1.00  0.00     0.049 A 
ATOM     57  C   UNL A   1      41.042  30.319  34.661  1.00  0.00     0.074 A 
ATOM     58  C   UNL A   1      43.771  26.387  30.486  1.00  0.00     0.029 A 
ATOM     59  N   UNL A   1      42.425  27.839  31.500  1.00  0.00    -0.354 N 
ATOM     60  N   UNL A   1      41.539  29.537  33.734  1.00  0.00    -0.248 NA
ATOM     61  C   UNL A   1      41.773  30.280  35.936  1.00  0.00     0.031 C 
ATOM     62  C   UNL A   1      44.233  26.582  31.792  1.00  0.00     0.029 A 
ATOM     63  C   UNL A   1      43.406  27.502  32.417  1.00  0.00     0.049 A 
ATOM     64  H   UNL A   1      41.687  28.469  31.667  1.00  0.00     0.167 HD
ATOM     65  C   UNL A   1      42.652  28.932  34.301  1.00  0.00     0.074 A 
ATOM     66  C   UNL A   1      42.763  29.445  35.652  1.00  0.00     0.031 C 
ATOM     67  C   UNL A   1      43.505  28.034  33.752  1.00  0.00     0.037 A 
BRANCH  54  68
ATOM     68  C   UNL A   1      42.116  26.430  27.946  1.00  0.00     0.064 A 
ATOM     69  C   UNL A   1      41.480  25.200  27.723  1.00  0.00     0.173 A 
ATOM     70  C   UNL A   1      43.062  26.861  27.006  1.00  0.00     0.173 A 
ATOM     71  F   UNL A   1      40.579  24.736  28.603  1.00  0.00    -0.203 F 
ATOM     72  C   UNL A   1      41.802  24.416  26.619  1.00  0.00     0.198 A 
ATOM     73  C   UNL A   1      43.362  26.088  25.887  1.00  0.00     0.198 A 
ATOM     74  F   UNL A   1      43.698  28.030  27.171  1.00  0.00    -0.203 F 
ATOM     75  F   UNL A   1      41.223  23.219  26.456  1.00  0.00    -0.200 F 
ATOM     76  C   UNL A   1      42.740  24.863  25.699  1.00  0.00     0.200 A 
ATOM     77  F   UNL A   1      44.261  26.524  24.994  1.00  0.00    -0.200 F 
ATOM     78  F   UNL A   1      43.051  24.107  24.637  1.00  0.00    -0.200 F 
ENDBRANCH  54  68
BRANCH  55  79
ATOM     79  C   UNL A   1      39.408  32.009  35.776  1.00  0.00     0.064 A 
ATOM     80  C   UNL A   1      39.995  33.246  36.074  1.00  0.00     0.173 A 
ATOM     81  C   UNL A   1      38.387  31.547  36.619  1.00  0.00     0.173 A 
ATOM     82  F   UNL A   1      40.987  33.719  35.307  1.00  0.00    -0.203 F 
ATOM     83  C   UNL A   1      39.585  33.987  37.181  1.00  0.00     0.198 A 
ATOM     84  C   UNL A   1      37.963  32.300  37.712  1.00  0.00     0.198 A 
ATOM     85  F   UNL A   1      37.791  30.372  36.369  1.00  0.00    -0.203 F 
ATOM     86  F   UNL A   1      40.185  35.151  37.464  1.00  0.00    -0.200 F 
ATOM     87  C   UNL A   1      38.566  33.517  37.996  1.00  0.00     0.200 A 
ATOM     88  F   UNL A   1      36.969  31.849  38.488  1.00  0.00    -0.200 F 
ATOM     89  F   UNL A   1      38.167  34.233  39.055  1.00  0.00    -0.200 F 
ENDBRANCH  55  79
BRANCH  67  90
ATOM     90  C   UNL A   1      44.655  27.573  34.596  1.00  0.00     0.064 A 
ATOM     91  C   UNL A   1      45.895  28.226  34.566  1.00  0.00     0.173 A 
ATOM     92  C   UNL A   1      44.494  26.500  35.485  1.00  0.00     0.173 A 
ATOM     93  F   UNL A   1      46.100  29.247  33.721  1.00  0.00    -0.203 F 
ATOM     94  C   UNL A   1      46.938  27.812  35.390  1.00  0.00     0.198 A 
ATOM     95  C   UNL A   1      45.531  26.105  36.323  1.00  0.00     0.198 A 
ATOM     96  F   UNL A   1      43.324  25.848  35.552  1.00  0.00    -0.203 F 
ATOM     97  F   UNL A   1      48.126  28.430  35.324  1.00  0.00    -0.200 F 
ATOM     98  C   UNL A   1      46.754  26.759  36.273  1.00  0.00     0.200 A 
ATOM     99  F   UNL A   1      45.349  25.092  37.182  1.00  0.00    -0.200 F 
ATOM    100  F   UNL A   1      47.756  26.369  37.072  1.00  0.00    -0.200 F 
ENDBRANCH  67  90
ENDBRANCH  41  42
ENDBRANCH  33  36
ENDBRANCH  31  32
ENDBRANCH  30  31
ENDBRANCH   1  30
TORSDOF 16
ENDMDL
