MODEL 1
REMARK VINA RESULT:     -11.0      0.000      0.000
REMARK SMILES CC(C)(C)C[C@@H](O)[C@@H](F)C(=O)NCCCCNC(=O)c1ccc(-c2c3nc(c(-c4c(F)c(F)c(F)c(F)c4F)c4ccc([nH]4)c(-c4c(F)c(F)c(F)c(F)c4F)c4nc(c(-c5c(F)c(F)c(F)c(F)c5F)c5ccc2[nH]5)C=C4)C=C3)cc1
REMARK SMILES IDX 14 1 13 2 12 3 10 4 11 5 8 7 9 8 6 9 5 10 2 11 1 12 3 13
REMARK SMILES IDX 4 14 7 15 15 17 16 18 17 19 18 20 19 22 20 23 21 24 82 25
REMARK SMILES IDX 22 26 81 27 23 28 24 29 25 30 75 31 26 32 80 33 74 34 76 35
REMARK SMILES IDX 27 36 79 37 73 38 72 39 28 41 60 42 40 43 59 44 41 45 44 46
REMARK SMILES IDX 58 47 77 48 42 49 43 50 57 52 78 53 45 54 29 55 30 56 38 57
REMARK SMILES IDX 31 58 32 59 36 60 39 61 33 62 34 63 37 64 35 65 61 66 62 67
REMARK SMILES IDX 70 68 63 69 64 70 68 71 71 72 65 73 66 74 69 75 67 76 46 77
REMARK SMILES IDX 47 78 55 79 48 80 49 81 53 82 56 83 50 84 51 85 54 86 52 87
REMARK H PARENT 12 6 7 16 17 21 76 40 44 51
REMARK Flexibility Score: inf
ROOT
ATOM      1  C   UNL A   1      36.973  20.240  25.080  1.00  0.00     0.023 C 
ENDROOT
BRANCH   1   2
ATOM      2  C   UNL A   1      36.673  21.668  25.543  1.00  0.00     0.116 C 
BRANCH   2   3
ATOM      3  N   UNL A   1      35.588  21.700  26.507  1.00  0.00    -0.353 N 
ATOM      4  C   UNL A   1      34.236  21.704  26.291  1.00  0.00     0.257 C 
ATOM      5  O   UNL A   1      33.503  21.759  27.282  1.00  0.00    -0.272 OA
ATOM      6  H   UNL A   1      35.864  21.721  27.452  1.00  0.00     0.163 HD
BRANCH   4   7
ATOM      7  C   UNL A   1      33.672  21.677  24.871  1.00  0.00     0.283 C 
ATOM      8  F   UNL A   1      32.926  22.798  24.631  1.00  0.00    -0.234 F 
BRANCH   7   9
ATOM      9  C   UNL A   1      32.813  20.420  24.635  1.00  0.00     0.159 C 
BRANCH   9  10
ATOM     10  C   UNL A   1      33.644  19.132  24.778  1.00  0.00     0.041 C 
BRANCH  10  11
ATOM     11  C   UNL A   1      33.142  17.899  23.966  1.00  0.00    -0.036 C 
ATOM     12  C   UNL A   1      32.289  18.302  22.754  1.00  0.00     0.011 C 
ATOM     13  C   UNL A   1      32.277  17.038  24.907  1.00  0.00     0.011 C 
ATOM     14  C   UNL A   1      34.324  17.039  23.481  1.00  0.00     0.011 C 
ENDBRANCH  10  11
ENDBRANCH   9  10
BRANCH   9  15
ATOM     15  O   UNL A   1      31.743  20.367  25.583  1.00  0.00    -0.390 OA
ATOM     16  H   UNL A   1      31.805  21.125  26.184  1.00  0.00     0.211 HD
ENDBRANCH   9  15
ENDBRANCH   7   9
ENDBRANCH   4   7
ENDBRANCH   2   3
ENDBRANCH   1   2
BRANCH   1  17
ATOM     17  C   UNL A   1      38.438  19.966  24.742  1.00  0.00     0.023 C 
BRANCH  17  18
ATOM     18  C   UNL A   1      39.406  20.104  25.907  1.00  0.00     0.116 C 
BRANCH  18  19
ATOM     19  N   UNL A   1      40.391  19.036  25.958  1.00  0.00    -0.352 N 
ATOM     20  C   UNL A   1      41.752  19.120  26.137  1.00  0.00     0.251 C 
ATOM     21  H   UNL A   1      40.033  18.125  25.850  1.00  0.00     0.163 HD
ATOM     22  O   UNL A   1      42.452  18.126  26.026  1.00  0.00    -0.269 OA
BRANCH  20  23
ATOM     23  C   UNL A   1      42.368  20.433  26.429  1.00  0.00     0.039 A 
ATOM     24  C   UNL A   1      42.834  21.208  25.365  1.00  0.00     0.014 A 
ATOM     25  C   UNL A   1      42.466  20.906  27.740  1.00  0.00     0.014 A 
ATOM     26  C   UNL A   1      43.331  22.489  25.608  1.00  0.00     0.010 A 
ATOM     27  C   UNL A   1      42.889  22.210  27.974  1.00  0.00     0.010 A 
ATOM     28  C   UNL A   1      43.326  23.016  26.911  1.00  0.00    -0.014 A 
BRANCH  28  29
ATOM     29  C   UNL A   1      43.769  24.405  27.182  1.00  0.00     0.031 A 
ATOM     30  C   UNL A   1      42.787  25.428  27.679  1.00  0.00     0.074 A 
ATOM     31  C   UNL A   1      45.042  24.763  26.917  1.00  0.00     0.049 A 
ATOM     32  N   UNL A   1      42.963  26.706  27.904  1.00  0.00    -0.248 NA
ATOM     33  C   UNL A   1      41.416  24.958  27.931  1.00  0.00     0.031 C 
ATOM     34  C   UNL A   1      46.077  23.874  26.389  1.00  0.00     0.029 A 
ATOM     35  N   UNL A   1      45.677  25.973  27.046  1.00  0.00    -0.354 N 
ATOM     36  C   UNL A   1      41.727  27.192  28.310  1.00  0.00     0.074 A 
ATOM     37  C   UNL A   1      40.796  26.085  28.246  1.00  0.00     0.031 C 
ATOM     38  C   UNL A   1      47.224  24.561  26.264  1.00  0.00     0.029 A 
ATOM     39  C   UNL A   1      46.996  25.946  26.663  1.00  0.00     0.049 A 
ATOM     40  H   UNL A   1      45.230  26.782  27.382  1.00  0.00     0.167 HD
ATOM     41  C   UNL A   1      41.404  28.440  28.722  1.00  0.00     0.037 A 
ATOM     42  C   UNL A   1      47.915  26.930  26.631  1.00  0.00     0.037 A 
ATOM     43  C   UNL A   1      42.338  29.532  28.806  1.00  0.00     0.049 A 
ATOM     44  C   UNL A   1      47.525  28.312  27.082  1.00  0.00     0.074 A 
ATOM     45  C   UNL A   1      42.121  30.820  29.263  1.00  0.00     0.029 A 
ATOM     46  N   UNL A   1      43.669  29.463  28.420  1.00  0.00    -0.354 N 
ATOM     47  N   UNL A   1      46.370  28.744  27.526  1.00  0.00    -0.248 NA
ATOM     48  C   UNL A   1      48.571  29.343  27.032  1.00  0.00     0.031 C 
ATOM     49  C   UNL A   1      43.308  31.544  29.110  1.00  0.00     0.029 A 
ATOM     50  C   UNL A   1      44.280  30.692  28.609  1.00  0.00     0.049 A 
ATOM     51  H   UNL A   1      44.114  28.660  28.066  1.00  0.00     0.167 HD
ATOM     52  C   UNL A   1      46.557  30.083  27.838  1.00  0.00     0.074 A 
ATOM     53  C   UNL A   1      47.942  30.391  27.544  1.00  0.00     0.031 C 
ATOM     54  C   UNL A   1      45.662  30.979  28.323  1.00  0.00     0.037 A 
BRANCH  41  55
ATOM     55  C   UNL A   1      39.979  28.691  29.123  1.00  0.00     0.064 A 
ATOM     56  C   UNL A   1      39.025  29.147  28.200  1.00  0.00     0.173 A 
ATOM     57  C   UNL A   1      39.551  28.438  30.435  1.00  0.00     0.173 A 
ATOM     58  F   UNL A   1      39.384  29.416  26.936  1.00  0.00    -0.203 F 
ATOM     59  C   UNL A   1      37.705  29.367  28.583  1.00  0.00     0.198 A 
ATOM     60  C   UNL A   1      38.224  28.629  30.807  1.00  0.00     0.198 A 
ATOM     61  F   UNL A   1      40.421  27.996  31.356  1.00  0.00    -0.203 F 
ATOM     62  F   UNL A   1      36.824  29.851  27.695  1.00  0.00    -0.200 F 
ATOM     63  C   UNL A   1      37.303  29.101  29.883  1.00  0.00     0.200 A 
ATOM     64  F   UNL A   1      37.834  28.359  32.060  1.00  0.00    -0.200 F 
ATOM     65  F   UNL A   1      36.030  29.306  30.247  1.00  0.00    -0.200 F 
ENDBRANCH  41  55
BRANCH  42  66
ATOM     66  C   UNL A   1      49.301  26.640  26.182  1.00  0.00     0.064 A 
ATOM     67  C   UNL A   1      50.257  26.144  27.079  1.00  0.00     0.173 A 
ATOM     68  C   UNL A   1      49.703  26.858  24.856  1.00  0.00     0.173 A 
ATOM     69  F   UNL A   1      49.928  25.939  28.363  1.00  0.00    -0.203 F 
ATOM     70  C   UNL A   1      51.567  25.900  26.673  1.00  0.00     0.198 A 
ATOM     71  C   UNL A   1      51.006  26.585  24.444  1.00  0.00     0.198 A 
ATOM     72  F   UNL A   1      48.824  27.326  23.957  1.00  0.00    -0.203 F 
ATOM     73  F   UNL A   1      52.473  25.472  27.564  1.00  0.00    -0.200 F 
ATOM     74  C   UNL A   1      51.939  26.115  25.356  1.00  0.00     0.200 A 
ATOM     75  F   UNL A   1      51.356  26.780  23.165  1.00  0.00    -0.200 F 
ATOM     76  F   UNL A   1      53.199  25.876  24.965  1.00  0.00    -0.200 F 
ENDBRANCH  42  66
BRANCH  54  77
ATOM     77  C   UNL A   1      46.161  32.367  28.607  1.00  0.00     0.064 A 
ATOM     78  C   UNL A   1      46.089  33.387  27.648  1.00  0.00     0.173 A 
ATOM     79  C   UNL A   1      46.681  32.687  29.870  1.00  0.00     0.173 A 
ATOM     80  F   UNL A   1      45.613  33.128  26.420  1.00  0.00    -0.203 F 
ATOM     81  C   UNL A   1      46.544  34.672  27.935  1.00  0.00     0.198 A 
ATOM     82  C   UNL A   1      47.106  33.980  30.164  1.00  0.00     0.198 A 
ATOM     83  F   UNL A   1      46.767  31.749  30.825  1.00  0.00    -0.203 F 
ATOM     84  F   UNL A   1      46.509  35.619  26.988  1.00  0.00    -0.200 F 
ATOM     85  C   UNL A   1      47.043  34.969  29.194  1.00  0.00     0.200 A 
ATOM     86  F   UNL A   1      47.575  34.268  31.386  1.00  0.00    -0.200 F 
ATOM     87  F   UNL A   1      47.472  36.208  29.471  1.00  0.00    -0.200 F 
ENDBRANCH  54  77
ENDBRANCH  28  29
ENDBRANCH  20  23
ENDBRANCH  18  19
ENDBRANCH  17  18
ENDBRANCH   1  17
TORSDOF 15
ENDMDL
MODEL 2
REMARK VINA RESULT:     -11.0      6.774     10.776
REMARK SMILES CC(C)(C)C[C@@H](O)[C@@H](F)C(=O)NCCCCNC(=O)c1ccc(-c2c3nc(c(-c4c(F)c(F)c(F)c(F)c4F)c4ccc([nH]4)c(-c4c(F)c(F)c(F)c(F)c4F)c4nc(c(-c5c(F)c(F)c(F)c(F)c5F)c5ccc2[nH]5)C=C4)C=C3)cc1
REMARK SMILES IDX 14 1 13 2 12 3 10 4 11 5 8 7 9 8 6 9 5 10 2 11 1 12 3 13
REMARK SMILES IDX 4 14 7 15 15 17 16 18 17 19 18 20 19 22 20 23 21 24 82 25
REMARK SMILES IDX 22 26 81 27 23 28 24 29 25 30 75 31 26 32 80 33 74 34 76 35
REMARK SMILES IDX 27 36 79 37 73 38 72 39 28 41 60 42 40 43 59 44 41 45 44 46
REMARK SMILES IDX 58 47 77 48 42 49 43 50 57 52 78 53 45 54 29 55 30 56 38 57
REMARK SMILES IDX 31 58 32 59 36 60 39 61 33 62 34 63 37 64 35 65 61 66 62 67
REMARK SMILES IDX 70 68 63 69 64 70 68 71 71 72 65 73 66 74 69 75 67 76 46 77
REMARK SMILES IDX 47 78 55 79 48 80 49 81 53 82 56 83 50 84 51 85 54 86 52 87
REMARK H PARENT 12 6 7 16 17 21 76 40 44 51
REMARK Flexibility Score: inf
ROOT
ATOM      1  C   UNL A   1      32.487  30.468  26.998  1.00  0.00     0.023 C 
ENDROOT
BRANCH   1   2
ATOM      2  C   UNL A   1      31.823  29.697  25.855  1.00  0.00     0.116 C 
BRANCH   2   3
ATOM      3  N   UNL A   1      32.782  29.330  24.828  1.00  0.00    -0.353 N 
ATOM      4  C   UNL A   1      32.585  28.633  23.667  1.00  0.00     0.257 C 
ATOM      5  O   UNL A   1      33.571  28.422  22.957  1.00  0.00    -0.272 OA
ATOM      6  H   UNL A   1      33.706  29.626  24.990  1.00  0.00     0.163 HD
BRANCH   4   7
ATOM      7  C   UNL A   1      31.197  28.113  23.294  1.00  0.00     0.283 C 
ATOM      8  F   UNL A   1      31.294  26.910  22.650  1.00  0.00    -0.234 F 
BRANCH   7   9
ATOM      9  C   UNL A   1      30.442  29.119  22.406  1.00  0.00     0.159 C 
BRANCH   9  10
ATOM     10  C   UNL A   1      29.573  30.073  23.244  1.00  0.00     0.041 C 
BRANCH  10  11
ATOM     11  C   UNL A   1      28.093  30.237  22.782  1.00  0.00    -0.036 C 
ATOM     12  C   UNL A   1      27.978  30.547  21.281  1.00  0.00     0.011 C 
ATOM     13  C   UNL A   1      27.482  31.411  23.572  1.00  0.00     0.011 C 
ATOM     14  C   UNL A   1      27.273  28.972  23.095  1.00  0.00     0.011 C 
ENDBRANCH  10  11
ENDBRANCH   9  10
BRANCH   9  15
ATOM     15  O   UNL A   1      31.370  29.908  21.654  1.00  0.00    -0.390 OA
ATOM     16  H   UNL A   1      31.027  30.810  21.562  1.00  0.00     0.211 HD
ENDBRANCH   9  15
ENDBRANCH   7   9
ENDBRANCH   4   7
ENDBRANCH   2   3
ENDBRANCH   1   2
BRANCH   1  17
ATOM     17  C   UNL A   1      31.950  31.881  27.222  1.00  0.00     0.023 C 
BRANCH  17  18
ATOM     18  C   UNL A   1      32.964  32.997  27.016  1.00  0.00     0.116 C 
BRANCH  18  19
ATOM     19  N   UNL A   1      32.553  34.256  27.616  1.00  0.00    -0.352 N 
ATOM     20  C   UNL A   1      33.031  34.874  28.748  1.00  0.00     0.251 C 
ATOM     21  H   UNL A   1      31.832  34.733  27.145  1.00  0.00     0.163 HD
ATOM     22  O   UNL A   1      32.483  35.873  29.185  1.00  0.00    -0.269 OA
BRANCH  20  23
ATOM     23  C   UNL A   1      34.196  34.296  29.455  1.00  0.00     0.039 A 
ATOM     24  C   UNL A   1      33.969  33.420  30.519  1.00  0.00     0.014 A 
ATOM     25  C   UNL A   1      35.500  34.598  29.058  1.00  0.00     0.014 A 
ATOM     26  C   UNL A   1      35.049  32.790  31.138  1.00  0.00     0.010 A 
ATOM     27  C   UNL A   1      36.571  33.913  29.623  1.00  0.00     0.010 A 
ATOM     28  C   UNL A   1      36.357  33.001  30.669  1.00  0.00    -0.014 A 
BRANCH  28  29
ATOM     29  C   UNL A   1      37.512  32.278  31.255  1.00  0.00     0.031 A 
ATOM     30  C   UNL A   1      38.026  32.653  32.616  1.00  0.00     0.074 A 
ATOM     31  C   UNL A   1      38.139  31.328  30.533  1.00  0.00     0.049 A 
ATOM     32  N   UNL A   1      39.064  32.191  33.266  1.00  0.00    -0.248 NA
ATOM     33  C   UNL A   1      37.292  33.709  33.331  1.00  0.00     0.031 C 
ATOM     34  C   UNL A   1      37.764  30.905  29.184  1.00  0.00     0.029 A 
ATOM     35  N   UNL A   1      39.231  30.552  30.832  1.00  0.00    -0.354 N 
ATOM     36  C   UNL A   1      39.114  32.905  34.456  1.00  0.00     0.074 A 
ATOM     37  C   UNL A   1      38.037  33.871  34.414  1.00  0.00     0.031 C 
ATOM     38  C   UNL A   1      38.595  29.931  28.781  1.00  0.00     0.029 A 
ATOM     39  C   UNL A   1      39.585  29.687  29.825  1.00  0.00     0.049 A 
ATOM     40  H   UNL A   1      39.715  30.610  31.686  1.00  0.00     0.167 HD
ATOM     41  C   UNL A   1      39.964  32.753  35.498  1.00  0.00     0.037 A 
ATOM     42  C   UNL A   1      40.597  28.803  29.751  1.00  0.00     0.037 A 
ATOM     43  C   UNL A   1      41.021  31.776  35.545  1.00  0.00     0.049 A 
ATOM     44  C   UNL A   1      41.537  28.663  30.918  1.00  0.00     0.074 A 
ATOM     45  C   UNL A   1      41.901  31.506  36.578  1.00  0.00     0.029 A 
ATOM     46  N   UNL A   1      41.340  30.909  34.511  1.00  0.00    -0.354 N 
ATOM     47  N   UNL A   1      41.534  29.299  32.065  1.00  0.00    -0.248 NA
ATOM     48  C   UNL A   1      42.618  27.677  30.783  1.00  0.00     0.031 C 
ATOM     49  C   UNL A   1      42.782  30.508  36.151  1.00  0.00     0.029 A 
ATOM     50  C   UNL A   1      42.418  30.118  34.873  1.00  0.00     0.049 A 
ATOM     51  H   UNL A   1      40.869  30.862  33.647  1.00  0.00     0.167 HD
ATOM     52  C   UNL A   1      42.587  28.770  32.797  1.00  0.00     0.074 A 
ATOM     53  C   UNL A   1      43.201  27.751  31.971  1.00  0.00     0.031 C 
ATOM     54  C   UNL A   1      43.010  29.100  34.043  1.00  0.00     0.037 A 
BRANCH  41  55
ATOM     55  C   UNL A   1      39.783  33.662  36.680  1.00  0.00     0.064 A 
ATOM     56  C   UNL A   1      40.465  34.884  36.779  1.00  0.00     0.173 A 
ATOM     57  C   UNL A   1      38.888  33.326  37.707  1.00  0.00     0.173 A 
ATOM     58  F   UNL A   1      41.341  35.247  35.830  1.00  0.00    -0.203 F 
ATOM     59  C   UNL A   1      40.281  35.721  37.876  1.00  0.00     0.198 A 
ATOM     60  C   UNL A   1      38.683  34.179  38.787  1.00  0.00     0.198 A 
ATOM     61  F   UNL A   1      38.206  32.172  37.660  1.00  0.00    -0.203 F 
ATOM     62  F   UNL A   1      40.982  36.860  37.974  1.00  0.00    -0.200 F 
ATOM     63  C   UNL A   1      39.385  35.372  38.876  1.00  0.00     0.200 A 
ATOM     64  F   UNL A   1      37.806  33.847  39.746  1.00  0.00    -0.200 F 
ATOM     65  F   UNL A   1      39.203  36.183  39.926  1.00  0.00    -0.200 F 
ENDBRANCH  41  55
BRANCH  42  66
ATOM     66  C   UNL A   1      40.761  27.959  28.539  1.00  0.00     0.064 A 
ATOM     67  C   UNL A   1      41.540  28.396  27.459  1.00  0.00     0.173 A 
ATOM     68  C   UNL A   1      40.139  26.706  28.428  1.00  0.00     0.173 A 
ATOM     69  F   UNL A   1      42.138  29.596  27.508  1.00  0.00    -0.203 F 
ATOM     70  C   UNL A   1      41.672  27.625  26.306  1.00  0.00     0.198 A 
ATOM     71  C   UNL A   1      40.296  25.922  27.287  1.00  0.00     0.198 A 
ATOM     72  F   UNL A   1      39.388  26.239  29.436  1.00  0.00    -0.203 F 
ATOM     73  F   UNL A   1      42.384  28.090  25.270  1.00  0.00    -0.200 F 
ATOM     74  C   UNL A   1      41.055  26.386  26.223  1.00  0.00     0.200 A 
ATOM     75  F   UNL A   1      39.710  24.719  27.218  1.00  0.00    -0.200 F 
ATOM     76  F   UNL A   1      41.186  25.643  25.116  1.00  0.00    -0.200 F 
ENDBRANCH  42  66
BRANCH  54  77
ATOM     77  C   UNL A   1      44.165  28.324  34.606  1.00  0.00     0.064 A 
ATOM     78  C   UNL A   1      45.485  28.786  34.503  1.00  0.00     0.173 A 
ATOM     79  C   UNL A   1      43.942  27.121  35.294  1.00  0.00     0.173 A 
ATOM     80  F   UNL A   1      45.752  29.923  33.842  1.00  0.00    -0.203 F 
ATOM     81  C   UNL A   1      46.542  28.059  35.045  1.00  0.00     0.198 A 
ATOM     82  C   UNL A   1      44.997  26.413  35.862  1.00  0.00     0.198 A 
ATOM     83  F   UNL A   1      42.698  26.638  35.427  1.00  0.00    -0.203 F 
ATOM     84  F   UNL A   1      47.800  28.496  34.892  1.00  0.00    -0.200 F 
ATOM     85  C   UNL A   1      46.297  26.879  35.731  1.00  0.00     0.200 A 
ATOM     86  F   UNL A   1      44.757  25.280  36.536  1.00  0.00    -0.200 F 
ATOM     87  F   UNL A   1      47.315  26.186  36.258  1.00  0.00    -0.200 F 
ENDBRANCH  54  77
ENDBRANCH  28  29
ENDBRANCH  20  23
ENDBRANCH  18  19
ENDBRANCH  17  18
ENDBRANCH   1  17
TORSDOF 15
ENDMDL
MODEL 3
REMARK VINA RESULT:     -11.0      3.602      9.965
REMARK SMILES CC(C)(C)C[C@@H](O)[C@@H](F)C(=O)NCCCCNC(=O)c1ccc(-c2c3nc(c(-c4c(F)c(F)c(F)c(F)c4F)c4ccc([nH]4)c(-c4c(F)c(F)c(F)c(F)c4F)c4nc(c(-c5c(F)c(F)c(F)c(F)c5F)c5ccc2[nH]5)C=C4)C=C3)cc1
REMARK SMILES IDX 14 1 13 2 12 3 10 4 11 5 8 7 9 8 6 9 5 10 2 11 1 12 3 13
REMARK SMILES IDX 4 14 7 15 15 17 16 18 17 19 18 20 19 22 20 23 21 24 82 25
REMARK SMILES IDX 22 26 81 27 23 28 24 29 25 30 75 31 26 32 80 33 74 34 76 35
REMARK SMILES IDX 27 36 79 37 73 38 72 39 28 41 60 42 40 43 59 44 41 45 44 46
REMARK SMILES IDX 58 47 77 48 42 49 43 50 57 52 78 53 45 54 29 55 30 56 38 57
REMARK SMILES IDX 31 58 32 59 36 60 39 61 33 62 34 63 37 64 35 65 61 66 62 67
REMARK SMILES IDX 70 68 63 69 64 70 68 71 71 72 65 73 66 74 69 75 67 76 46 77
REMARK SMILES IDX 47 78 55 79 48 80 49 81 53 82 56 83 50 84 51 85 54 86 52 87
REMARK H PARENT 12 6 7 16 17 21 76 40 44 51
REMARK Flexibility Score: inf
ROOT
ATOM      1  C   UNL A   1      42.281  19.736  25.750  1.00  0.00     0.023 C 
ENDROOT
BRANCH   1   2
ATOM      2  C   UNL A   1      43.583  18.965  25.981  1.00  0.00     0.116 C 
BRANCH   2   3
ATOM      3  N   UNL A   1      44.214  18.592  24.728  1.00  0.00    -0.353 N 
ATOM      4  C   UNL A   1      45.246  19.196  24.063  1.00  0.00     0.257 C 
ATOM      5  O   UNL A   1      45.598  18.701  22.989  1.00  0.00    -0.272 OA
ATOM      6  H   UNL A   1      43.848  17.787  24.295  1.00  0.00     0.163 HD
BRANCH   4   7
ATOM      7  C   UNL A   1      45.906  20.456  24.625  1.00  0.00     0.283 C 
ATOM      8  F   UNL A   1      46.028  20.367  25.984  1.00  0.00    -0.234 F 
BRANCH   7   9
ATOM      9  C   UNL A   1      45.105  21.718  24.256  1.00  0.00     0.159 C 
BRANCH   9  10
ATOM     10  C   UNL A   1      45.996  22.972  24.250  1.00  0.00     0.041 C 
BRANCH  10  11
ATOM     11  C   UNL A   1      45.606  24.097  25.256  1.00  0.00    -0.036 C 
ATOM     12  C   UNL A   1      45.751  23.652  26.719  1.00  0.00     0.011 C 
ATOM     13  C   UNL A   1      44.131  24.465  25.001  1.00  0.00     0.011 C 
ATOM     14  C   UNL A   1      46.459  25.360  25.032  1.00  0.00     0.011 C 
ENDBRANCH  10  11
ENDBRANCH   9  10
BRANCH   9  15
ATOM     15  O   UNL A   1      44.528  21.576  22.954  1.00  0.00    -0.390 OA
ATOM     16  H   UNL A   1      45.081  22.036  22.303  1.00  0.00     0.211 HD
ENDBRANCH   9  15
ENDBRANCH   7   9
ENDBRANCH   4   7
ENDBRANCH   2   3
ENDBRANCH   1   2
BRANCH   1  17
ATOM     17  C   UNL A   1      42.274  21.167  26.285  1.00  0.00     0.023 C 
BRANCH  17  18
ATOM     18  C   UNL A   1      41.098  21.512  27.187  1.00  0.00     0.116 C 
BRANCH  18  19
ATOM     19  N   UNL A   1      39.827  21.534  26.482  1.00  0.00    -0.352 N 
ATOM     20  C   UNL A   1      38.972  22.589  26.267  1.00  0.00     0.251 C 
ATOM     21  H   UNL A   1      39.539  20.671  26.104  1.00  0.00     0.163 HD
ATOM     22  O   UNL A   1      37.877  22.404  25.760  1.00  0.00    -0.269 OA
BRANCH  20  23
ATOM     23  C   UNL A   1      39.375  23.949  26.689  1.00  0.00     0.039 A 
ATOM     24  C   UNL A   1      39.146  24.337  28.011  1.00  0.00     0.014 A 
ATOM     25  C   UNL A   1      39.994  24.826  25.795  1.00  0.00     0.014 A 
ATOM     26  C   UNL A   1      39.603  25.578  28.456  1.00  0.00     0.010 A 
ATOM     27  C   UNL A   1      40.517  26.029  26.258  1.00  0.00     0.010 A 
ATOM     28  C   UNL A   1      40.328  26.418  27.593  1.00  0.00    -0.014 A 
BRANCH  28  29
ATOM     29  C   UNL A   1      40.898  27.703  28.067  1.00  0.00     0.031 A 
ATOM     30  C   UNL A   1      42.385  27.914  28.070  1.00  0.00     0.074 A 
ATOM     31  C   UNL A   1      40.079  28.654  28.558  1.00  0.00     0.049 A 
ATOM     32  N   UNL A   1      43.077  28.934  28.511  1.00  0.00    -0.248 NA
ATOM     33  C   UNL A   1      43.208  26.821  27.528  1.00  0.00     0.031 C 
ATOM     34  C   UNL A   1      38.622  28.551  28.652  1.00  0.00     0.029 A 
ATOM     35  N   UNL A   1      40.357  29.893  29.080  1.00  0.00    -0.354 N 
ATOM     36  C   UNL A   1      44.410  28.601  28.312  1.00  0.00     0.074 A 
ATOM     37  C   UNL A   1      44.434  27.262  27.764  1.00  0.00     0.031 C 
ATOM     38  C   UNL A   1      38.133  29.687  29.174  1.00  0.00     0.029 A 
ATOM     39  C   UNL A   1      39.241  30.582  29.489  1.00  0.00     0.049 A 
ATOM     40  H   UNL A   1      41.270  30.253  29.155  1.00  0.00     0.167 HD
ATOM     41  C   UNL A   1      45.513  29.353  28.543  1.00  0.00     0.037 A 
ATOM     42  C   UNL A   1      39.127  31.796  30.060  1.00  0.00     0.037 A 
ATOM     43  C   UNL A   1      45.483  30.693  29.067  1.00  0.00     0.049 A 
ATOM     44  C   UNL A   1      40.370  32.605  30.318  1.00  0.00     0.074 A 
ATOM     45  C   UNL A   1      46.541  31.558  29.285  1.00  0.00     0.029 A 
ATOM     46  N   UNL A   1      44.333  31.363  29.458  1.00  0.00    -0.354 N 
ATOM     47  N   UNL A   1      41.621  32.306  30.065  1.00  0.00    -0.248 NA
ATOM     48  C   UNL A   1      40.183  33.926  30.936  1.00  0.00     0.031 C 
ATOM     49  C   UNL A   1      46.037  32.732  29.852  1.00  0.00     0.029 A 
ATOM     50  C   UNL A   1      44.658  32.621  29.936  1.00  0.00     0.049 A 
ATOM     51  H   UNL A   1      43.420  30.997  29.403  1.00  0.00     0.167 HD
ATOM     52  C   UNL A   1      42.365  33.408  30.462  1.00  0.00     0.074 A 
ATOM     53  C   UNL A   1      41.424  34.390  30.961  1.00  0.00     0.031 C 
ATOM     54  C   UNL A   1      43.708  33.591  30.419  1.00  0.00     0.037 A 
BRANCH  41  55
ATOM     55  C   UNL A   1      46.847  28.744  28.221  1.00  0.00     0.064 A 
ATOM     56  C   UNL A   1      47.372  28.767  26.920  1.00  0.00     0.173 A 
ATOM     57  C   UNL A   1      47.628  28.163  29.232  1.00  0.00     0.173 A 
ATOM     58  F   UNL A   1      46.661  29.301  25.915  1.00  0.00    -0.203 F 
ATOM     59  C   UNL A   1      48.614  28.207  26.638  1.00  0.00     0.198 A 
ATOM     60  C   UNL A   1      48.883  27.631  28.952  1.00  0.00     0.198 A 
ATOM     61  F   UNL A   1      47.176  28.118  30.494  1.00  0.00    -0.203 F 
ATOM     62  F   UNL A   1      49.072  28.196  25.377  1.00  0.00    -0.200 F 
ATOM     63  C   UNL A   1      49.373  27.646  27.655  1.00  0.00     0.200 A 
ATOM     64  F   UNL A   1      49.621  27.101  29.938  1.00  0.00    -0.200 F 
ATOM     65  F   UNL A   1      50.571  27.114  27.382  1.00  0.00    -0.200 F 
ENDBRANCH  41  55
BRANCH  42  66
ATOM     66  C   UNL A   1      37.786  32.335  30.401  1.00  0.00     0.064 A 
ATOM     67  C   UNL A   1      37.084  33.143  29.496  1.00  0.00     0.173 A 
ATOM     68  C   UNL A   1      37.180  32.065  31.638  1.00  0.00     0.173 A 
ATOM     69  F   UNL A   1      37.630  33.448  28.309  1.00  0.00    -0.203 F 
ATOM     70  C   UNL A   1      35.840  33.678  29.821  1.00  0.00     0.198 A 
ATOM     71  C   UNL A   1      35.922  32.576  31.951  1.00  0.00     0.198 A 
ATOM     72  F   UNL A   1      37.807  31.292  32.537  1.00  0.00    -0.203 F 
ATOM     73  F   UNL A   1      35.213  34.486  28.955  1.00  0.00    -0.200 F 
ATOM     74  C   UNL A   1      35.257  33.390  31.045  1.00  0.00     0.200 A 
ATOM     75  F   UNL A   1      35.357  32.282  33.129  1.00  0.00    -0.200 F 
ATOM     76  F   UNL A   1      34.058  33.901  31.357  1.00  0.00    -0.200 F 
ENDBRANCH  42  66
BRANCH  54  77
ATOM     77  C   UNL A   1      44.238  34.917  30.884  1.00  0.00     0.064 A 
ATOM     78  C   UNL A   1      44.643  35.124  32.211  1.00  0.00     0.173 A 
ATOM     79  C   UNL A   1      44.379  35.980  29.979  1.00  0.00     0.173 A 
ATOM     80  F   UNL A   1      44.515  34.144  33.118  1.00  0.00    -0.203 F 
ATOM     81  C   UNL A   1      45.147  36.357  32.620  1.00  0.00     0.198 A 
ATOM     82  C   UNL A   1      44.912  37.200  30.385  1.00  0.00     0.198 A 
ATOM     83  F   UNL A   1      44.013  35.832  28.698  1.00  0.00    -0.203 F 
ATOM     84  F   UNL A   1      45.483  36.548  33.903  1.00  0.00    -0.200 F 
ATOM     85  C   UNL A   1      45.288  37.390  31.705  1.00  0.00     0.200 A 
ATOM     86  F   UNL A   1      45.061  38.193  29.496  1.00  0.00    -0.200 F 
ATOM     87  F   UNL A   1      45.781  38.572  32.100  1.00  0.00    -0.200 F 
ENDBRANCH  54  77
ENDBRANCH  28  29
ENDBRANCH  20  23
ENDBRANCH  18  19
ENDBRANCH  17  18
ENDBRANCH   1  17
TORSDOF 15
ENDMDL
