MODEL 1
REMARK VINA RESULT:     -12.6      0.000      0.000
REMARK SMILES O=C(NCCCCNC(=O)c1cncc(Nc2cc(Cl)ccc2Cl)n1)c1ccc(-c2c3nc(c(-c4c(F)c(F)c(F)c(F)c4F)c4ccc([nH]4)c(-c4c(F)c(F)c(F)c(F)c4F)c4nc(c(-c5c(F)c(F)c(F)c(F)c5F)c5ccc2[nH]5)C=C4)C=C3)cc1
REMARK SMILES IDX 5 1 4 2 3 3 1 4 2 5 26 7 27 8 88 9 28 10 87 11 29 12 30 13
REMARK SMILES IDX 31 14 81 15 32 16 86 17 80 18 82 19 33 20 85 21 79 22 78 23
REMARK SMILES IDX 34 25 66 26 46 27 65 28 47 29 50 30 64 31 83 32 48 33 49 34
REMARK SMILES IDX 63 36 84 37 51 38 35 39 36 40 44 41 37 42 38 43 42 44 45 45
REMARK SMILES IDX 39 46 40 47 43 48 41 49 67 50 68 51 76 52 69 53 70 54 74 55
REMARK SMILES IDX 77 56 71 57 72 58 75 59 73 60 52 61 53 62 61 63 54 64 55 65
REMARK SMILES IDX 59 66 62 67 56 68 57 69 60 70 58 71 6 72 7 73 8 74 9 75
REMARK SMILES IDX 10 77 11 78 12 79 25 80 13 81 15 82 14 83 16 84 17 86 18 87
REMARK SMILES IDX 23 88 19 89 22 90 24 91 20 92 21 93
REMARK H PARENT 3 6 82 24 50 35 8 76 16 85
REMARK Flexibility Score: inf
ROOT
ATOM      1  C   UNL A   1      31.403  32.692  26.512  1.00  0.00     0.023 C 
ENDROOT
BRANCH   1   2
ATOM      2  C   UNL A   1      32.595  33.240  27.287  1.00  0.00     0.116 C 
BRANCH   2   3
ATOM      3  N   UNL A   1      32.364  34.573  27.820  1.00  0.00    -0.352 N 
ATOM      4  O   UNL A   1      32.573  36.299  29.260  1.00  0.00    -0.269 OA
ATOM      5  C   UNL A   1      32.994  35.219  28.857  1.00  0.00     0.251 C 
ATOM      6  H   UNL A   1      31.654  35.089  27.373  1.00  0.00     0.163 HD
BRANCH   5   7
ATOM      7  C   UNL A   1      34.165  34.595  29.510  1.00  0.00     0.039 A 
ATOM      8  C   UNL A   1      35.427  34.649  28.915  1.00  0.00     0.014 A 
ATOM      9  C   UNL A   1      33.996  33.947  30.738  1.00  0.00     0.014 A 
ATOM     10  C   UNL A   1      36.482  33.931  29.466  1.00  0.00     0.010 A 
ATOM     11  C   UNL A   1      35.079  33.297  31.336  1.00  0.00     0.010 A 
ATOM     12  C   UNL A   1      36.323  33.255  30.688  1.00  0.00    -0.014 A 
BRANCH  12  13
ATOM     13  C   UNL A   1      37.491  32.567  31.294  1.00  0.00     0.031 A 
ATOM     14  C   UNL A   1      37.981  32.925  32.668  1.00  0.00     0.074 A 
ATOM     15  C   UNL A   1      38.093  31.586  30.595  1.00  0.00     0.049 A 
ATOM     16  N   UNL A   1      38.971  32.405  33.351  1.00  0.00    -0.248 NA
ATOM     17  C   UNL A   1      37.276  34.009  33.367  1.00  0.00     0.031 C 
ATOM     18  C   UNL A   1      37.713  31.163  29.246  1.00  0.00     0.029 A 
ATOM     19  N   UNL A   1      39.133  30.757  30.923  1.00  0.00    -0.354 N 
ATOM     20  C   UNL A   1      39.019  33.107  34.548  1.00  0.00     0.074 A 
ATOM     21  C   UNL A   1      37.975  34.108  34.491  1.00  0.00     0.031 C 
ATOM     22  C   UNL A   1      38.477  30.125  28.878  1.00  0.00     0.029 A 
ATOM     23  C   UNL A   1      39.439  29.848  29.940  1.00  0.00     0.049 A 
ATOM     24  H   UNL A   1      39.616  30.808  31.780  1.00  0.00     0.167 HD
ATOM     25  C   UNL A   1      39.855  32.925  35.599  1.00  0.00     0.037 A 
ATOM     26  C   UNL A   1      40.396  28.905  29.890  1.00  0.00     0.037 A 
ATOM     27  C   UNL A   1      40.882  31.916  35.657  1.00  0.00     0.049 A 
ATOM     28  C   UNL A   1      41.319  28.740  31.062  1.00  0.00     0.074 A 
ATOM     29  C   UNL A   1      41.749  31.624  36.696  1.00  0.00     0.029 A 
ATOM     30  N   UNL A   1      41.183  31.034  34.628  1.00  0.00    -0.354 N 
ATOM     31  N   UNL A   1      41.331  29.386  32.201  1.00  0.00    -0.248 NA
ATOM     32  C   UNL A   1      42.366  27.717  30.937  1.00  0.00     0.031 C 
ATOM     33  C   UNL A   1      42.605  30.597  36.279  1.00  0.00     0.029 A 
ATOM     34  C   UNL A   1      42.240  30.216  34.998  1.00  0.00     0.049 A 
ATOM     35  H   UNL A   1      40.714  30.995  33.763  1.00  0.00     0.167 HD
ATOM     36  C   UNL A   1      42.375  28.843  32.935  1.00  0.00     0.074 A 
ATOM     37  C   UNL A   1      42.960  27.798  32.119  1.00  0.00     0.031 C 
ATOM     38  C   UNL A   1      42.813  29.185  34.171  1.00  0.00     0.037 A 
BRANCH  25  39
ATOM     39  C   UNL A   1      39.708  33.848  36.775  1.00  0.00     0.064 A 
ATOM     40  C   UNL A   1      38.919  33.511  37.885  1.00  0.00     0.173 A 
ATOM     41  C   UNL A   1      40.409  35.063  36.815  1.00  0.00     0.173 A 
ATOM     42  F   UNL A   1      38.221  32.365  37.894  1.00  0.00    -0.203 F 
ATOM     43  C   UNL A   1      38.819  34.366  38.980  1.00  0.00     0.198 A 
ATOM     44  C   UNL A   1      40.327  35.904  37.922  1.00  0.00     0.198 A 
ATOM     45  F   UNL A   1      41.184  35.431  35.784  1.00  0.00    -0.203 F 
ATOM     46  F   UNL A   1      38.027  34.040  40.012  1.00  0.00    -0.200 F 
ATOM     47  C   UNL A   1      39.527  35.558  39.000  1.00  0.00     0.200 A 
ATOM     48  F   UNL A   1      41.022  37.049  37.946  1.00  0.00    -0.200 F 
ATOM     49  F   UNL A   1      39.436  36.376  40.058  1.00  0.00    -0.200 F 
ENDBRANCH  25  39
BRANCH  26  50
ATOM     50  C   UNL A   1      40.522  28.051  28.682  1.00  0.00     0.064 A 
ATOM     51  C   UNL A   1      41.306  28.452  27.593  1.00  0.00     0.173 A 
ATOM     52  C   UNL A   1      39.882  26.804  28.604  1.00  0.00     0.173 A 
ATOM     53  F   UNL A   1      41.922  29.643  27.616  1.00  0.00    -0.203 F 
ATOM     54  C   UNL A   1      41.439  27.643  26.467  1.00  0.00     0.198 A 
ATOM     55  C   UNL A   1      40.039  25.984  27.491  1.00  0.00     0.198 A 
ATOM     56  F   UNL A   1      39.125  26.373  29.624  1.00  0.00    -0.203 F 
ATOM     57  F   UNL A   1      42.167  28.064  25.425  1.00  0.00    -0.200 F 
ATOM     58  C   UNL A   1      40.812  26.406  26.421  1.00  0.00     0.200 A 
ATOM     59  F   UNL A   1      39.446  24.783  27.457  1.00  0.00    -0.200 F 
ATOM     60  F   UNL A   1      40.950  25.624  25.342  1.00  0.00    -0.200 F 
ENDBRANCH  26  50
BRANCH  38  61
ATOM     61  C   UNL A   1      43.972  28.406  34.720  1.00  0.00     0.064 A 
ATOM     62  C   UNL A   1      43.779  27.209  35.425  1.00  0.00     0.173 A 
ATOM     63  C   UNL A   1      45.287  28.850  34.521  1.00  0.00     0.173 A 
ATOM     64  F   UNL A   1      42.539  26.753  35.657  1.00  0.00    -0.203 F 
ATOM     65  C   UNL A   1      44.862  26.497  35.934  1.00  0.00     0.198 A 
ATOM     66  C   UNL A   1      46.369  28.122  35.007  1.00  0.00     0.198 A 
ATOM     67  F   UNL A   1      45.523  29.987  33.851  1.00  0.00    -0.203 F 
ATOM     68  F   UNL A   1      44.655  25.381  36.646  1.00  0.00    -0.200 F 
ATOM     69  C   UNL A   1      46.155  26.951  35.719  1.00  0.00     0.200 A 
ATOM     70  F   UNL A   1      47.619  28.555  34.791  1.00  0.00    -0.200 F 
ATOM     71  F   UNL A   1      47.198  26.263  36.207  1.00  0.00    -0.200 F 
ENDBRANCH  38  61
ENDBRANCH  12  13
ENDBRANCH   5   7
ENDBRANCH   2   3
ENDBRANCH   1   2
BRANCH   1  72
ATOM     72  C   UNL A   1      31.496  31.216  26.129  1.00  0.00     0.023 C 
BRANCH  72  73
ATOM     73  C   UNL A   1      32.662  30.454  26.754  1.00  0.00     0.116 C 
BRANCH  73  74
ATOM     74  N   UNL A   1      32.226  29.326  27.561  1.00  0.00    -0.351 N 
ATOM     75  C   UNL A   1      32.008  28.023  27.164  1.00  0.00     0.271 C 
ATOM     76  H   UNL A   1      32.064  29.517  28.514  1.00  0.00     0.163 HD
ATOM     77  O   UNL A   1      31.580  27.199  27.965  1.00  0.00    -0.267 OA
BRANCH  75  78
ATOM     78  C   UNL A   1      32.330  27.634  25.775  1.00  0.00     0.148 A 
ATOM     79  C   UNL A   1      33.580  27.103  25.502  1.00  0.00     0.145 A 
ATOM     80  N   UNL A   1      31.399  27.887  24.818  1.00  0.00    -0.222 NA
ATOM     81  N   UNL A   1      33.982  26.844  24.242  1.00  0.00    -0.258 NA
ATOM     82  C   UNL A   1      31.763  27.595  23.551  1.00  0.00     0.149 A 
ATOM     83  C   UNL A   1      33.051  27.110  23.288  1.00  0.00     0.158 A 
BRANCH  82  84
ATOM     84  N   UNL A   1      30.818  27.857  22.561  1.00  0.00    -0.338 N 
ATOM     85  H   UNL A   1      30.997  27.402  21.706  1.00  0.00     0.168 HD
BRANCH  84  86
ATOM     86  C   UNL A   1      29.657  28.650  22.553  1.00  0.00     0.060 A 
ATOM     87  C   UNL A   1      29.674  29.964  22.061  1.00  0.00     0.048 A 
ATOM     88  C   UNL A   1      28.463  28.178  23.133  1.00  0.00     0.064 A 
ATOM     89  C   UNL A   1      28.557  30.791  22.188  1.00  0.00     0.043 A 
ATOM     90  C   UNL A   1      27.346  29.009  23.262  1.00  0.00     0.024 A 
ATOM     91  Cl  UNL A   1      28.354  26.564  23.747  1.00  0.00    -0.082 Cl
ATOM     92  Cl  UNL A   1      28.625  32.407  21.604  1.00  0.00    -0.084 Cl
ATOM     93  C   UNL A   1      27.398  30.323  22.799  1.00  0.00     0.022 A 
ENDBRANCH  84  86
ENDBRANCH  82  84
ENDBRANCH  75  78
ENDBRANCH  73  74
ENDBRANCH  72  73
ENDBRANCH   1  72
TORSDOF 13
ENDMDL
MODEL 2
REMARK VINA RESULT:     -12.5      0.403      7.449
REMARK SMILES O=C(NCCCCNC(=O)c1cncc(Nc2cc(Cl)ccc2Cl)n1)c1ccc(-c2c3nc(c(-c4c(F)c(F)c(F)c(F)c4F)c4ccc([nH]4)c(-c4c(F)c(F)c(F)c(F)c4F)c4nc(c(-c5c(F)c(F)c(F)c(F)c5F)c5ccc2[nH]5)C=C4)C=C3)cc1
REMARK SMILES IDX 5 1 4 2 3 3 1 4 2 5 26 7 27 8 88 9 28 10 87 11 29 12 30 13
REMARK SMILES IDX 31 14 81 15 32 16 86 17 80 18 82 19 33 20 85 21 79 22 78 23
REMARK SMILES IDX 34 25 66 26 46 27 65 28 47 29 50 30 64 31 83 32 48 33 49 34
REMARK SMILES IDX 63 36 84 37 51 38 35 39 36 40 44 41 37 42 38 43 42 44 45 45
REMARK SMILES IDX 39 46 40 47 43 48 41 49 67 50 68 51 76 52 69 53 70 54 74 55
REMARK SMILES IDX 77 56 71 57 72 58 75 59 73 60 52 61 53 62 61 63 54 64 55 65
REMARK SMILES IDX 59 66 62 67 56 68 57 69 60 70 58 71 6 72 7 73 8 74 9 75
REMARK SMILES IDX 10 77 11 78 12 79 25 80 13 81 15 82 14 83 16 84 17 86 18 87
REMARK SMILES IDX 23 88 19 89 22 90 24 91 20 92 21 93
REMARK H PARENT 3 6 82 24 50 35 8 76 16 85
REMARK Flexibility Score: inf
ROOT
ATOM      1  C   UNL A   1      31.430  32.732  26.554  1.00  0.00     0.023 C 
ENDROOT
BRANCH   1   2
ATOM      2  C   UNL A   1      32.575  33.193  27.445  1.00  0.00     0.116 C 
BRANCH   2   3
ATOM      3  N   UNL A   1      32.459  34.586  27.847  1.00  0.00    -0.352 N 
ATOM      4  O   UNL A   1      32.821  36.419  29.114  1.00  0.00    -0.269 OA
ATOM      5  C   UNL A   1      33.149  35.274  28.818  1.00  0.00     0.251 C 
ATOM      6  H   UNL A   1      31.789  35.113  27.354  1.00  0.00     0.163 HD
BRANCH   5   7
ATOM      7  C   UNL A   1      34.270  34.622  29.527  1.00  0.00     0.039 A 
ATOM      8  C   UNL A   1      35.559  34.636  28.990  1.00  0.00     0.014 A 
ATOM      9  C   UNL A   1      34.026  33.986  30.749  1.00  0.00     0.014 A 
ATOM     10  C   UNL A   1      36.566  33.892  29.593  1.00  0.00     0.010 A 
ATOM     11  C   UNL A   1      35.061  33.310  31.399  1.00  0.00     0.010 A 
ATOM     12  C   UNL A   1      36.332  33.229  30.810  1.00  0.00    -0.014 A 
BRANCH  12  13
ATOM     13  C   UNL A   1      37.451  32.512  31.472  1.00  0.00     0.031 A 
ATOM     14  C   UNL A   1      38.174  31.389  30.783  1.00  0.00     0.074 A 
ATOM     15  C   UNL A   1      37.832  32.908  32.701  1.00  0.00     0.049 A 
ATOM     16  N   UNL A   1      39.186  30.675  31.212  1.00  0.00    -0.248 NA
ATOM     17  C   UNL A   1      37.699  31.009  29.445  1.00  0.00     0.031 C 
ATOM     18  C   UNL A   1      37.194  33.978  33.472  1.00  0.00     0.029 A 
ATOM     19  N   UNL A   1      38.850  32.477  33.510  1.00  0.00    -0.354 N 
ATOM     20  C   UNL A   1      39.457  29.755  30.208  1.00  0.00     0.074 A 
ATOM     21  C   UNL A   1      38.487  29.982  29.157  1.00  0.00     0.031 C 
ATOM     22  C   UNL A   1      37.862  34.151  34.621  1.00  0.00     0.029 A 
ATOM     23  C   UNL A   1      38.937  33.167  34.695  1.00  0.00     0.049 A 
ATOM     24  H   UNL A   1      39.460  31.744  33.266  1.00  0.00     0.167 HD
ATOM     25  C   UNL A   1      40.432  28.814  30.167  1.00  0.00     0.037 A 
ATOM     26  C   UNL A   1      39.777  33.015  35.733  1.00  0.00     0.037 A 
ATOM     27  C   UNL A   1      41.404  28.605  31.210  1.00  0.00     0.049 A 
ATOM     28  C   UNL A   1      40.834  31.951  35.667  1.00  0.00     0.074 A 
ATOM     29  C   UNL A   1      42.457  27.706  31.241  1.00  0.00     0.029 A 
ATOM     30  N   UNL A   1      41.440  29.301  32.410  1.00  0.00    -0.354 N 
ATOM     31  N   UNL A   1      41.101  31.112  34.698  1.00  0.00    -0.248 NA
ATOM     32  C   UNL A   1      41.702  31.810  36.844  1.00  0.00     0.031 C 
ATOM     33  C   UNL A   1      43.101  27.827  32.478  1.00  0.00     0.029 A 
ATOM     34  C   UNL A   1      42.481  28.834  33.199  1.00  0.00     0.049 A 
ATOM     35  H   UNL A   1      40.819  30.022  32.663  1.00  0.00     0.167 HD
ATOM     36  C   UNL A   1      42.174  30.352  35.138  1.00  0.00     0.074 A 
ATOM     37  C   UNL A   1      42.522  30.845  36.456  1.00  0.00     0.031 C 
ATOM     38  C   UNL A   1      42.809  29.332  34.510  1.00  0.00     0.037 A 
BRANCH  25  39
ATOM     39  C   UNL A   1      40.490  27.922  28.961  1.00  0.00     0.064 A 
ATOM     40  C   UNL A   1      41.296  28.228  27.854  1.00  0.00     0.173 A 
ATOM     41  C   UNL A   1      39.770  26.718  28.933  1.00  0.00     0.173 A 
ATOM     42  F   UNL A   1      41.998  29.372  27.826  1.00  0.00    -0.203 F 
ATOM     43  C   UNL A   1      41.361  27.374  26.756  1.00  0.00     0.198 A 
ATOM     44  C   UNL A   1      39.857  25.854  27.844  1.00  0.00     0.198 A 
ATOM     45  F   UNL A   1      38.989  26.373  29.968  1.00  0.00    -0.203 F 
ATOM     46  F   UNL A   1      42.107  27.707  25.693  1.00  0.00    -0.200 F 
ATOM     47  C   UNL A   1      40.647  26.186  26.754  1.00  0.00     0.200 A 
ATOM     48  F   UNL A   1      39.176  24.700  27.850  1.00  0.00    -0.200 F 
ATOM     49  F   UNL A   1      40.717  25.361  25.700  1.00  0.00    -0.200 F 
ENDBRANCH  25  39
BRANCH  26  50
ATOM     50  C   UNL A   1      39.644  33.897  36.919  1.00  0.00     0.064 A 
ATOM     51  C   UNL A   1      40.261  35.154  36.957  1.00  0.00     0.173 A 
ATOM     52  C   UNL A   1      38.872  33.513  38.027  1.00  0.00     0.173 A 
ATOM     53  F   UNL A   1      41.023  35.556  35.929  1.00  0.00    -0.203 F 
ATOM     54  C   UNL A   1      40.121  35.989  38.063  1.00  0.00     0.198 A 
ATOM     55  C   UNL A   1      38.709  34.362  39.119  1.00  0.00     0.198 A 
ATOM     56  F   UNL A   1      38.255  32.322  38.035  1.00  0.00    -0.203 F 
ATOM     57  F   UNL A   1      40.750  37.173  38.089  1.00  0.00    -0.200 F 
ATOM     58  C   UNL A   1      39.339  35.596  39.139  1.00  0.00     0.200 A 
ATOM     59  F   UNL A   1      37.938  33.985  40.148  1.00  0.00    -0.200 F 
ATOM     60  F   UNL A   1      39.195  36.407  40.195  1.00  0.00    -0.200 F 
ENDBRANCH  26  50
BRANCH  38  61
ATOM     61  C   UNL A   1      43.956  28.695  35.237  1.00  0.00     0.064 A 
ATOM     62  C   UNL A   1      45.275  29.133  35.047  1.00  0.00     0.173 A 
ATOM     63  C   UNL A   1      43.732  27.653  36.149  1.00  0.00     0.173 A 
ATOM     64  F   UNL A   1      45.542  30.115  34.173  1.00  0.00    -0.203 F 
ATOM     65  C   UNL A   1      46.332  28.532  35.725  1.00  0.00     0.198 A 
ATOM     66  C   UNL A   1      44.788  27.073  36.845  1.00  0.00     0.198 A 
ATOM     67  F   UNL A   1      42.488  27.201  36.366  1.00  0.00    -0.203 F 
ATOM     68  F   UNL A   1      47.590  28.932  35.493  1.00  0.00    -0.200 F 
ATOM     69  C   UNL A   1      46.087  27.507  36.627  1.00  0.00     0.200 A 
ATOM     70  F   UNL A   1      44.550  26.089  37.723  1.00  0.00    -0.200 F 
ATOM     71  F   UNL A   1      47.106  26.930  37.280  1.00  0.00    -0.200 F 
ENDBRANCH  38  61
ENDBRANCH  12  13
ENDBRANCH   5   7
ENDBRANCH   2   3
ENDBRANCH   1   2
BRANCH   1  72
ATOM     72  C   UNL A   1      31.416  31.239  26.228  1.00  0.00     0.023 C 
BRANCH  72  73
ATOM     73  C   UNL A   1      32.586  30.439  26.795  1.00  0.00     0.116 C 
BRANCH  73  74
ATOM     74  N   UNL A   1      32.156  29.245  27.507  1.00  0.00    -0.351 N 
ATOM     75  C   UNL A   1      31.969  27.973  27.008  1.00  0.00     0.271 C 
ATOM     76  H   UNL A   1      31.976  29.360  28.468  1.00  0.00     0.163 HD
ATOM     77  O   UNL A   1      31.543  27.083  27.736  1.00  0.00    -0.267 OA
BRANCH  75  78
ATOM     78  C   UNL A   1      32.321  27.697  25.599  1.00  0.00     0.148 A 
ATOM     79  C   UNL A   1      33.601  27.255  25.304  1.00  0.00     0.145 A 
ATOM     80  N   UNL A   1      31.384  27.962  24.652  1.00  0.00    -0.222 NA
ATOM     81  N   UNL A   1      34.024  27.104  24.034  1.00  0.00    -0.258 NA
ATOM     82  C   UNL A   1      31.771  27.776  23.372  1.00  0.00     0.149 A 
ATOM     83  C   UNL A   1      33.086  27.381  23.090  1.00  0.00     0.158 A 
BRANCH  82  84
ATOM     84  N   UNL A   1      30.820  28.052  22.391  1.00  0.00    -0.338 N 
ATOM     85  H   UNL A   1      31.005  27.626  21.523  1.00  0.00     0.168 HD
BRANCH  84  86
ATOM     86  C   UNL A   1      29.645  28.822  22.410  1.00  0.00     0.060 A 
ATOM     87  C   UNL A   1      29.622  30.132  21.907  1.00  0.00     0.048 A 
ATOM     88  C   UNL A   1      28.476  28.332  23.028  1.00  0.00     0.064 A 
ATOM     89  C   UNL A   1      28.494  30.938  22.059  1.00  0.00     0.043 A 
ATOM     90  C   UNL A   1      27.348  29.144  23.183  1.00  0.00     0.024 A 
ATOM     91  Cl  UNL A   1      28.416  26.723  23.659  1.00  0.00    -0.082 Cl
ATOM     92  Cl  UNL A   1      28.514  32.550  21.459  1.00  0.00    -0.084 Cl
ATOM     93  C   UNL A   1      27.362  30.454  22.707  1.00  0.00     0.022 A 
ENDBRANCH  84  86
ENDBRANCH  82  84
ENDBRANCH  75  78
ENDBRANCH  73  74
ENDBRANCH  72  73
ENDBRANCH   1  72
TORSDOF 13
ENDMDL
MODEL 3
REMARK VINA RESULT:     -12.5      6.505     10.725
REMARK SMILES O=C(NCCCCNC(=O)c1cncc(Nc2cc(Cl)ccc2Cl)n1)c1ccc(-c2c3nc(c(-c4c(F)c(F)c(F)c(F)c4F)c4ccc([nH]4)c(-c4c(F)c(F)c(F)c(F)c4F)c4nc(c(-c5c(F)c(F)c(F)c(F)c5F)c5ccc2[nH]5)C=C4)C=C3)cc1
REMARK SMILES IDX 5 1 4 2 3 3 1 4 2 5 26 7 27 8 88 9 28 10 87 11 29 12 30 13
REMARK SMILES IDX 31 14 81 15 32 16 86 17 80 18 82 19 33 20 85 21 79 22 78 23
REMARK SMILES IDX 34 25 66 26 46 27 65 28 47 29 50 30 64 31 83 32 48 33 49 34
REMARK SMILES IDX 63 36 84 37 51 38 35 39 36 40 44 41 37 42 38 43 42 44 45 45
REMARK SMILES IDX 39 46 40 47 43 48 41 49 67 50 68 51 76 52 69 53 70 54 74 55
REMARK SMILES IDX 77 56 71 57 72 58 75 59 73 60 52 61 53 62 61 63 54 64 55 65
REMARK SMILES IDX 59 66 62 67 56 68 57 69 60 70 58 71 6 72 7 73 8 74 9 75
REMARK SMILES IDX 10 77 11 78 12 79 25 80 13 81 15 82 14 83 16 84 17 86 18 87
REMARK SMILES IDX 23 88 19 89 22 90 24 91 20 92 21 93
REMARK H PARENT 3 6 82 24 50 35 8 76 16 85
REMARK Flexibility Score: inf
ROOT
ATOM      1  C   UNL A   1      38.468  19.165  25.133  1.00  0.00     0.023 C 
ENDROOT
BRANCH   1   2
ATOM      2  C   UNL A   1      39.647  19.731  25.913  1.00  0.00     0.116 C 
BRANCH   2   3
ATOM      3  N   UNL A   1      40.767  18.807  26.001  1.00  0.00    -0.352 N 
ATOM      4  O   UNL A   1      42.931  18.168  26.085  1.00  0.00    -0.269 OA
ATOM      5  C   UNL A   1      42.106  19.073  26.169  1.00  0.00     0.251 C 
ATOM      6  H   UNL A   1      40.534  17.853  25.932  1.00  0.00     0.163 HD
BRANCH   5   7
ATOM      7  C   UNL A   1      42.555  20.459  26.422  1.00  0.00     0.039 A 
ATOM      8  C   UNL A   1      42.573  20.979  27.718  1.00  0.00     0.014 A 
ATOM      9  C   UNL A   1      42.966  21.249  25.344  1.00  0.00     0.014 A 
ATOM     10  C   UNL A   1      42.853  22.325  27.918  1.00  0.00     0.010 A 
ATOM     11  C   UNL A   1      43.332  22.581  25.558  1.00  0.00     0.010 A 
ATOM     12  C   UNL A   1      43.246  23.139  26.843  1.00  0.00    -0.014 A 
BRANCH  12  13
ATOM     13  C   UNL A   1      43.621  24.552  27.102  1.00  0.00     0.031 A 
ATOM     14  C   UNL A   1      42.631  25.531  27.666  1.00  0.00     0.074 A 
ATOM     15  C   UNL A   1      44.885  24.940  26.848  1.00  0.00     0.049 A 
ATOM     16  N   UNL A   1      42.803  26.793  27.973  1.00  0.00    -0.248 NA
ATOM     17  C   UNL A   1      41.269  25.036  27.914  1.00  0.00     0.031 C 
ATOM     18  C   UNL A   1      45.929  24.080  26.286  1.00  0.00     0.029 A 
ATOM     19  N   UNL A   1      45.514  26.141  27.043  1.00  0.00    -0.354 N 
ATOM     20  C   UNL A   1      41.573  27.246  28.432  1.00  0.00     0.074 A 
ATOM     21  C   UNL A   1      40.654  26.131  28.340  1.00  0.00     0.031 C 
ATOM     22  C   UNL A   1      47.079  24.766  26.223  1.00  0.00     0.029 A 
ATOM     23  C   UNL A   1      46.840  26.129  26.684  1.00  0.00     0.049 A 
ATOM     24  H   UNL A   1      45.060  26.936  27.404  1.00  0.00     0.167 HD
ATOM     25  C   UNL A   1      41.247  28.478  28.893  1.00  0.00     0.037 A 
ATOM     26  C   UNL A   1      47.759  27.111  26.708  1.00  0.00     0.037 A 
ATOM     27  C   UNL A   1      42.171  29.579  28.997  1.00  0.00     0.049 A 
ATOM     28  C   UNL A   1      47.363  28.470  27.206  1.00  0.00     0.074 A 
ATOM     29  C   UNL A   1      41.946  30.852  29.494  1.00  0.00     0.029 A 
ATOM     30  N   UNL A   1      43.498  29.538  28.594  1.00  0.00    -0.354 N 
ATOM     31  N   UNL A   1      46.207  28.874  27.670  1.00  0.00    -0.248 NA
ATOM     32  C   UNL A   1      48.400  29.510  27.179  1.00  0.00     0.031 C 
ATOM     33  C   UNL A   1      43.124  31.595  29.347  1.00  0.00     0.029 A 
ATOM     34  C   UNL A   1      44.097  30.771  28.805  1.00  0.00     0.049 A 
ATOM     35  H   UNL A   1      43.949  28.749  28.214  1.00  0.00     0.167 HD
ATOM     36  C   UNL A   1      46.376  30.210  28.001  1.00  0.00     0.074 A 
ATOM     37  C   UNL A   1      47.756  30.542  27.705  1.00  0.00     0.031 C 
ATOM     38  C   UNL A   1      45.469  31.086  28.499  1.00  0.00     0.037 A 
BRANCH  25  39
ATOM     39  C   UNL A   1      39.823  28.713  29.309  1.00  0.00     0.064 A 
ATOM     40  C   UNL A   1      39.389  28.481  30.622  1.00  0.00     0.173 A 
ATOM     41  C   UNL A   1      38.892  29.226  28.393  1.00  0.00     0.173 A 
ATOM     42  F   UNL A   1      40.237  27.982  31.535  1.00  0.00    -0.203 F 
ATOM     43  C   UNL A   1      38.072  28.733  30.998  1.00  0.00     0.198 A 
ATOM     44  C   UNL A   1      37.582  29.501  28.778  1.00  0.00     0.198 A 
ATOM     45  F   UNL A   1      39.256  29.473  27.126  1.00  0.00    -0.203 F 
ATOM     46  F   UNL A   1      37.671  28.466  32.249  1.00  0.00    -0.200 F 
ATOM     47  C   UNL A   1      37.172  29.248  30.078  1.00  0.00     0.200 A 
ATOM     48  F   UNL A   1      36.717  30.011  27.891  1.00  0.00    -0.200 F 
ATOM     49  F   UNL A   1      35.906  29.497  30.443  1.00  0.00    -0.200 F 
ENDBRANCH  25  39
BRANCH  26  50
ATOM     50  C   UNL A   1      49.141  26.832  26.243  1.00  0.00     0.064 A 
ATOM     51  C   UNL A   1      50.109  26.325  27.119  1.00  0.00     0.173 A 
ATOM     52  C   UNL A   1      49.513  27.039  24.906  1.00  0.00     0.173 A 
ATOM     53  F   UNL A   1      49.805  26.128  28.411  1.00  0.00    -0.203 F 
ATOM     54  C   UNL A   1      51.401  26.047  26.679  1.00  0.00     0.198 A 
ATOM     55  C   UNL A   1      50.795  26.733  24.460  1.00  0.00     0.198 A 
ATOM     56  F   UNL A   1      48.619  27.516  24.026  1.00  0.00    -0.203 F 
ATOM     57  F   UNL A   1      52.319  25.596  27.544  1.00  0.00    -0.200 F 
ATOM     58  C   UNL A   1      51.740  26.243  25.348  1.00  0.00     0.200 A 
ATOM     59  F   UNL A   1      51.114  26.907  23.170  1.00  0.00    -0.200 F 
ATOM     60  F   UNL A   1      52.979  25.962  24.923  1.00  0.00    -0.200 F 
ENDBRANCH  26  50
BRANCH  38  61
ATOM     61  C   UNL A   1      45.949  32.481  28.771  1.00  0.00     0.064 A 
ATOM     62  C   UNL A   1      46.518  32.831  30.004  1.00  0.00     0.173 A 
ATOM     63  C   UNL A   1      45.858  33.470  27.781  1.00  0.00     0.173 A 
ATOM     64  F   UNL A   1      46.610  31.923  30.988  1.00  0.00    -0.203 F 
ATOM     65  C   UNL A   1      46.956  34.130  30.245  1.00  0.00     0.198 A 
ATOM     66  C   UNL A   1      46.322  34.761  28.017  1.00  0.00     0.198 A 
ATOM     67  F   UNL A   1      45.325  33.184  26.585  1.00  0.00    -0.203 F 
ATOM     68  F   UNL A   1      47.452  34.456  31.447  1.00  0.00    -0.200 F 
ATOM     69  C   UNL A   1      46.863  35.092  29.250  1.00  0.00     0.200 A 
ATOM     70  F   UNL A   1      46.241  35.688  27.051  1.00  0.00    -0.200 F 
ATOM     71  F   UNL A   1      47.287  36.342  29.483  1.00  0.00    -0.200 F 
ENDBRANCH  38  61
ENDBRANCH  12  13
ENDBRANCH   5   7
ENDBRANCH   2   3
ENDBRANCH   1   2
BRANCH   1  72
ATOM     72  C   UNL A   1      37.253  20.086  25.027  1.00  0.00     0.023 C 
BRANCH  72  73
ATOM     73  C   UNL A   1      37.524  21.558  25.326  1.00  0.00     0.116 C 
BRANCH  73  74
ATOM     74  N   UNL A   1      37.289  22.417  24.176  1.00  0.00    -0.351 N 
ATOM     75  C   UNL A   1      36.118  23.040  23.799  1.00  0.00     0.271 C 
ATOM     76  H   UNL A   1      38.066  22.572  23.590  1.00  0.00     0.163 HD
ATOM     77  O   UNL A   1      36.073  23.688  22.759  1.00  0.00    -0.267 OA
BRANCH  75  78
ATOM     78  C   UNL A   1      34.938  22.942  24.683  1.00  0.00     0.148 A 
ATOM     79  C   UNL A   1      34.753  23.905  25.662  1.00  0.00     0.145 A 
ATOM     80  N   UNL A   1      34.127  21.861  24.534  1.00  0.00    -0.222 NA
ATOM     81  N   UNL A   1      33.770  23.806  26.578  1.00  0.00    -0.258 NA
ATOM     82  C   UNL A   1      33.107  21.764  25.414  1.00  0.00     0.149 A 
ATOM     83  C   UNL A   1      32.969  22.718  26.431  1.00  0.00     0.158 A 
BRANCH  82  84
ATOM     84  N   UNL A   1      32.274  20.656  25.274  1.00  0.00    -0.338 N 
ATOM     85  H   UNL A   1      31.391  20.764  25.695  1.00  0.00     0.168 HD
BRANCH  84  86
ATOM     86  C   UNL A   1      32.457  19.414  24.643  1.00  0.00     0.060 A 
ATOM     87  C   UNL A   1      32.843  18.276  25.369  1.00  0.00     0.048 A 
ATOM     88  C   UNL A   1      32.353  19.299  23.242  1.00  0.00     0.064 A 
ATOM     89  C   UNL A   1      33.161  17.085  24.717  1.00  0.00     0.043 A 
ATOM     90  C   UNL A   1      32.676  18.104  22.590  1.00  0.00     0.024 A 
ATOM     91  Cl  UNL A   1      31.867  20.649  22.277  1.00  0.00    -0.082 Cl
ATOM     92  Cl  UNL A   1      33.663  15.720  25.636  1.00  0.00    -0.084 Cl
ATOM     93  C   UNL A   1      33.093  16.998  23.330  1.00  0.00     0.022 A 
ENDBRANCH  84  86
ENDBRANCH  82  84
ENDBRANCH  75  78
ENDBRANCH  73  74
ENDBRANCH  72  73
ENDBRANCH   1  72
TORSDOF 13
ENDMDL
