MODEL 1
REMARK VINA RESULT:     -11.5      0.000      0.000
REMARK SMILES O=C(/C=C/Nc1cc(Cl)ccc1Cl)NCCCCNC(=O)c1ccc(-c2c3nc(c(-c4c(F)c(F)c(F)c(F)c4F)c4ccc([nH]4)c(-c4c(F)c(F)c(F)c(F)c4F)c4nc(c(-c5c(F)c(F)c(F)c(F)c5F)c5ccc2[nH]5)C=C4)C=C3)cc1
REMARK SMILES IDX 16 1 15 2 14 3 1 4 2 5 3 7 4 8 5 9 6 11 7 12 12 13 8 14
REMARK SMILES IDX 11 15 13 16 9 17 10 18 17 19 18 20 19 21 20 22 21 24 22 25
REMARK SMILES IDX 23 26 84 27 24 28 83 29 25 30 26 31 27 32 77 33 28 34 82 35
REMARK SMILES IDX 76 36 78 37 29 38 81 39 75 40 74 41 30 43 62 44 42 45 61 46
REMARK SMILES IDX 43 47 46 48 60 49 79 50 44 51 45 52 59 54 80 55 47 56 31 57
REMARK SMILES IDX 32 58 40 59 33 60 34 61 38 62 41 63 35 64 36 65 39 66 37 67
REMARK SMILES IDX 63 68 64 69 72 70 65 71 66 72 70 73 73 74 67 75 68 76 71 77
REMARK SMILES IDX 69 78 48 79 49 80 57 81 50 82 51 83 55 84 58 85 52 86 53 87
REMARK SMILES IDX 56 88 54 89
REMARK H PARENT 14 6 5 10 19 23 78 42 46 53
REMARK Flexibility Score: inf
ROOT
ATOM      1  C   UNL A   1      31.600  30.631  26.184  1.00  0.00     0.023 C 
ENDROOT
BRANCH   1   2
ATOM      2  C   UNL A   1      32.779  29.939  26.869  1.00  0.00     0.116 C 
BRANCH   2   3
ATOM      3  N   UNL A   1      33.385  28.918  26.036  1.00  0.00    -0.353 N 
ATOM      4  O   UNL A   1      32.110  27.177  26.824  1.00  0.00    -0.270 OA
ATOM      5  C   UNL A   1      32.996  27.604  26.093  1.00  0.00     0.245 C 
ATOM      6  H   UNL A   1      34.099  29.177  25.409  1.00  0.00     0.163 HD
BRANCH   5   7
ATOM      7  C   UNL A   1      33.654  26.681  25.132  1.00  0.00     0.089 C 
ATOM      8  C   UNL A   1      34.066  25.434  25.397  1.00  0.00     0.088 C 
BRANCH   8   9
ATOM      9  N   UNL A   1      34.721  24.601  24.525  1.00  0.00    -0.360 N 
ATOM     10  H   UNL A   1      34.746  24.897  23.587  1.00  0.00     0.166 HD
BRANCH   9  11
ATOM     11  C   UNL A   1      35.364  23.375  24.800  1.00  0.00     0.058 A 
ATOM     12  C   UNL A   1      36.675  23.316  25.293  1.00  0.00     0.048 A 
ATOM     13  C   UNL A   1      34.717  22.155  24.502  1.00  0.00     0.064 A 
ATOM     14  C   UNL A   1      37.314  22.087  25.481  1.00  0.00     0.043 A 
ATOM     15  C   UNL A   1      35.362  20.928  24.679  1.00  0.00     0.024 A 
ATOM     16  Cl  UNL A   1      33.103  22.143  23.876  1.00  0.00    -0.082 Cl
ATOM     17  Cl  UNL A   1      38.919  22.050  26.098  1.00  0.00    -0.084 Cl
ATOM     18  C   UNL A   1      36.667  20.895  25.168  1.00  0.00     0.022 A 
ENDBRANCH   9  11
ENDBRANCH   8   9
ENDBRANCH   5   7
ENDBRANCH   2   3
ENDBRANCH   1   2
BRANCH   1  19
ATOM     19  C   UNL A   1      31.420  32.110  26.536  1.00  0.00     0.023 C 
BRANCH  19  20
ATOM     20  C   UNL A   1      32.592  32.764  27.260  1.00  0.00     0.116 C 
BRANCH  20  21
ATOM     21  N   UNL A   1      32.342  34.150  27.618  1.00  0.00    -0.352 N 
ATOM     22  C   UNL A   1      32.952  34.934  28.569  1.00  0.00     0.251 C 
ATOM     23  H   UNL A   1      31.630  34.595  27.103  1.00  0.00     0.163 HD
ATOM     24  O   UNL A   1      32.507  36.053  28.816  1.00  0.00    -0.269 OA
BRANCH  22  25
ATOM     25  C   UNL A   1      34.120  34.430  29.326  1.00  0.00     0.039 A 
ATOM     26  C   UNL A   1      33.908  33.845  30.578  1.00  0.00     0.014 A 
ATOM     27  C   UNL A   1      35.418  34.536  28.818  1.00  0.00     0.014 A 
ATOM     28  C   UNL A   1      34.985  33.301  31.284  1.00  0.00     0.010 A 
ATOM     29  C   UNL A   1      36.478  33.925  29.486  1.00  0.00     0.010 A 
ATOM     30  C   UNL A   1      36.274  33.298  30.725  1.00  0.00    -0.014 A 
BRANCH  30  31
ATOM     31  C   UNL A   1      37.412  32.632  31.414  1.00  0.00     0.031 A 
ATOM     32  C   UNL A   1      38.108  31.459  30.779  1.00  0.00     0.074 A 
ATOM     33  C   UNL A   1      37.780  33.042  32.645  1.00  0.00     0.049 A 
ATOM     34  N   UNL A   1      39.071  30.710  31.254  1.00  0.00    -0.248 NA
ATOM     35  C   UNL A   1      37.642  31.059  29.442  1.00  0.00     0.031 C 
ATOM     36  C   UNL A   1      37.160  34.139  33.390  1.00  0.00     0.029 A 
ATOM     37  N   UNL A   1      38.756  32.578  33.492  1.00  0.00    -0.354 N 
ATOM     38  C   UNL A   1      39.316  29.746  30.285  1.00  0.00     0.074 A 
ATOM     39  C   UNL A   1      38.364  29.972  29.217  1.00  0.00     0.031 C 
ATOM     40  C   UNL A   1      37.786  34.280  34.569  1.00  0.00     0.029 A 
ATOM     41  C   UNL A   1      38.820  33.258  34.685  1.00  0.00     0.049 A 
ATOM     42  H   UNL A   1      39.354  31.829  33.266  1.00  0.00     0.167 HD
ATOM     43  C   UNL A   1      40.261  28.775  30.276  1.00  0.00     0.037 A 
ATOM     44  C   UNL A   1      39.616  33.071  35.756  1.00  0.00     0.037 A 
ATOM     45  C   UNL A   1      41.220  28.565  31.329  1.00  0.00     0.049 A 
ATOM     46  C   UNL A   1      40.642  31.969  35.727  1.00  0.00     0.074 A 
ATOM     47  C   UNL A   1      42.256  27.650  31.381  1.00  0.00     0.029 A 
ATOM     48  N   UNL A   1      41.255  29.277  32.519  1.00  0.00    -0.354 N 
ATOM     49  N   UNL A   1      40.912  31.111  34.774  1.00  0.00    -0.248 NA
ATOM     50  C   UNL A   1      41.478  31.814  36.926  1.00  0.00     0.031 C 
ATOM     51  C   UNL A   1      42.881  27.765  32.627  1.00  0.00     0.029 A 
ATOM     52  C   UNL A   1      42.277  28.798  33.326  1.00  0.00     0.049 A 
ATOM     53  H   UNL A   1      40.646  30.013  32.756  1.00  0.00     0.167 HD
ATOM     54  C   UNL A   1      41.968  30.340  35.241  1.00  0.00     0.074 A 
ATOM     55  C   UNL A   1      42.299  30.840  36.558  1.00  0.00     0.031 C 
ATOM     56  C   UNL A   1      42.605  29.309  34.632  1.00  0.00     0.037 A 
BRANCH  43  57
ATOM     57  C   UNL A   1      40.303  27.854  29.087  1.00  0.00     0.064 A 
ATOM     58  C   UNL A   1      39.613  26.633  29.073  1.00  0.00     0.173 A 
ATOM     59  C   UNL A   1      41.009  28.220  27.930  1.00  0.00     0.173 A 
ATOM     60  F   UNL A   1      38.928  26.231  30.154  1.00  0.00    -0.203 F 
ATOM     61  C   UNL A   1      39.653  25.798  27.959  1.00  0.00     0.198 A 
ATOM     62  C   UNL A   1      41.020  27.400  26.806  1.00  0.00     0.198 A 
ATOM     63  F   UNL A   1      41.681  29.380  27.885  1.00  0.00    -0.203 F 
ATOM     64  F   UNL A   1      39.028  24.613  27.989  1.00  0.00    -0.200 F 
ATOM     65  C   UNL A   1      40.349  26.186  26.824  1.00  0.00     0.200 A 
ATOM     66  F   UNL A   1      41.679  27.783  25.704  1.00  0.00    -0.200 F 
ATOM     67  F   UNL A   1      40.379  25.386  25.749  1.00  0.00    -0.200 F 
ENDBRANCH  43  57
BRANCH  44  68
ATOM     68  C   UNL A   1      39.492  33.960  36.941  1.00  0.00     0.064 A 
ATOM     69  C   UNL A   1      38.720  33.580  38.048  1.00  0.00     0.173 A 
ATOM     70  C   UNL A   1      40.126  35.211  36.988  1.00  0.00     0.173 A 
ATOM     71  F   UNL A   1      38.076  32.403  38.042  1.00  0.00    -0.203 F 
ATOM     72  C   UNL A   1      38.567  34.425  39.145  1.00  0.00     0.198 A 
ATOM     73  C   UNL A   1      39.998  36.042  38.100  1.00  0.00     0.198 A 
ATOM     74  F   UNL A   1      40.878  35.622  35.957  1.00  0.00    -0.203 F 
ATOM     75  F   UNL A   1      37.779  34.058  40.166  1.00  0.00    -0.200 F 
ATOM     76  C   UNL A   1      39.210  35.653  39.173  1.00  0.00     0.200 A 
ATOM     77  F   UNL A   1      40.633  37.221  38.129  1.00  0.00    -0.200 F 
ATOM     78  F   UNL A   1      39.064  36.464  40.229  1.00  0.00    -0.200 F 
ENDBRANCH  44  68
BRANCH  56  79
ATOM     79  C   UNL A   1      43.757  28.680  35.364  1.00  0.00     0.064 A 
ATOM     80  C   UNL A   1      45.076  29.127  35.191  1.00  0.00     0.173 A 
ATOM     81  C   UNL A   1      43.531  27.640  36.279  1.00  0.00     0.173 A 
ATOM     82  F   UNL A   1      45.348  30.107  34.317  1.00  0.00    -0.203 F 
ATOM     83  C   UNL A   1      46.128  28.536  35.886  1.00  0.00     0.198 A 
ATOM     84  C   UNL A   1      44.581  27.077  36.998  1.00  0.00     0.198 A 
ATOM     85  F   UNL A   1      42.288  27.181  36.489  1.00  0.00    -0.203 F 
ATOM     86  F   UNL A   1      47.386  28.942  35.665  1.00  0.00    -0.200 F 
ATOM     87  C   UNL A   1      45.880  27.518  36.795  1.00  0.00     0.200 A 
ATOM     88  F   UNL A   1      44.337  26.104  37.888  1.00  0.00    -0.200 F 
ATOM     89  F   UNL A   1      46.893  26.957  37.470  1.00  0.00    -0.200 F 
ENDBRANCH  56  79
ENDBRANCH  30  31
ENDBRANCH  22  25
ENDBRANCH  20  21
ENDBRANCH  19  20
ENDBRANCH   1  19
TORSDOF 13
ENDMDL
MODEL 2
REMARK VINA RESULT:     -11.4      0.686      1.805
REMARK SMILES O=C(/C=C/Nc1cc(Cl)ccc1Cl)NCCCCNC(=O)c1ccc(-c2c3nc(c(-c4c(F)c(F)c(F)c(F)c4F)c4ccc([nH]4)c(-c4c(F)c(F)c(F)c(F)c4F)c4nc(c(-c5c(F)c(F)c(F)c(F)c5F)c5ccc2[nH]5)C=C4)C=C3)cc1
REMARK SMILES IDX 16 1 15 2 14 3 1 4 2 5 3 7 4 8 5 9 6 11 7 12 12 13 8 14
REMARK SMILES IDX 11 15 13 16 9 17 10 18 17 19 18 20 19 21 20 22 21 24 22 25
REMARK SMILES IDX 23 26 84 27 24 28 83 29 25 30 26 31 27 32 77 33 28 34 82 35
REMARK SMILES IDX 76 36 78 37 29 38 81 39 75 40 74 41 30 43 62 44 42 45 61 46
REMARK SMILES IDX 43 47 46 48 60 49 79 50 44 51 45 52 59 54 80 55 47 56 31 57
REMARK SMILES IDX 32 58 40 59 33 60 34 61 38 62 41 63 35 64 36 65 39 66 37 67
REMARK SMILES IDX 63 68 64 69 72 70 65 71 66 72 70 73 73 74 67 75 68 76 71 77
REMARK SMILES IDX 69 78 48 79 49 80 57 81 50 82 51 83 55 84 58 85 52 86 53 87
REMARK SMILES IDX 56 88 54 89
REMARK H PARENT 14 6 5 10 19 23 78 42 46 53
REMARK Flexibility Score: inf
ROOT
ATOM      1  C   UNL A   1      31.596  30.777  26.248  1.00  0.00     0.023 C 
ENDROOT
BRANCH   1   2
ATOM      2  C   UNL A   1      32.717  30.051  26.992  1.00  0.00     0.116 C 
BRANCH   2   3
ATOM      3  N   UNL A   1      32.817  28.653  26.619  1.00  0.00    -0.353 N 
ATOM      4  O   UNL A   1      31.054  27.935  27.904  1.00  0.00    -0.270 OA
ATOM      5  C   UNL A   1      31.968  27.701  27.122  1.00  0.00     0.245 C 
ATOM      6  H   UNL A   1      33.519  28.378  25.985  1.00  0.00     0.163 HD
BRANCH   5   7
ATOM      7  C   UNL A   1      32.142  26.322  26.599  1.00  0.00     0.089 C 
ATOM      8  C   UNL A   1      33.072  25.927  25.719  1.00  0.00     0.088 C 
BRANCH   8   9
ATOM      9  N   UNL A   1      33.200  24.664  25.195  1.00  0.00    -0.360 N 
ATOM     10  H   UNL A   1      32.377  24.127  25.168  1.00  0.00     0.166 HD
BRANCH   9  11
ATOM     11  C   UNL A   1      34.360  24.038  24.691  1.00  0.00     0.058 A 
ATOM     12  C   UNL A   1      35.490  23.809  25.489  1.00  0.00     0.048 A 
ATOM     13  C   UNL A   1      34.440  23.695  23.323  1.00  0.00     0.064 A 
ATOM     14  C   UNL A   1      36.652  23.259  24.943  1.00  0.00     0.043 A 
ATOM     15  C   UNL A   1      35.608  23.156  22.776  1.00  0.00     0.024 A 
ATOM     16  Cl  UNL A   1      33.093  23.959  22.267  1.00  0.00    -0.082 Cl
ATOM     17  Cl  UNL A   1      38.017  22.981  25.952  1.00  0.00    -0.084 Cl
ATOM     18  C   UNL A   1      36.719  22.940  23.589  1.00  0.00     0.022 A 
ENDBRANCH   9  11
ENDBRANCH   8   9
ENDBRANCH   5   7
ENDBRANCH   2   3
ENDBRANCH   1   2
BRANCH   1  19
ATOM     19  C   UNL A   1      31.424  32.254  26.612  1.00  0.00     0.023 C 
BRANCH  19  20
ATOM     20  C   UNL A   1      32.602  32.897  27.338  1.00  0.00     0.116 C 
BRANCH  20  21
ATOM     21  N   UNL A   1      32.361  34.283  27.703  1.00  0.00    -0.352 N 
ATOM     22  C   UNL A   1      32.984  35.061  28.650  1.00  0.00     0.251 C 
ATOM     23  H   UNL A   1      31.646  34.732  27.197  1.00  0.00     0.163 HD
ATOM     24  O   UNL A   1      32.547  36.181  28.906  1.00  0.00    -0.269 OA
BRANCH  22  25
ATOM     25  C   UNL A   1      34.158  34.549  29.394  1.00  0.00     0.039 A 
ATOM     26  C   UNL A   1      33.958  33.973  30.652  1.00  0.00     0.014 A 
ATOM     27  C   UNL A   1      35.450  34.640  28.868  1.00  0.00     0.014 A 
ATOM     28  C   UNL A   1      35.039  33.422  31.345  1.00  0.00     0.010 A 
ATOM     29  C   UNL A   1      36.513  34.022  29.524  1.00  0.00     0.010 A 
ATOM     30  C   UNL A   1      36.320  33.403  30.769  1.00  0.00    -0.014 A 
BRANCH  30  31
ATOM     31  C   UNL A   1      37.461  32.729  31.446  1.00  0.00     0.031 A 
ATOM     32  C   UNL A   1      38.137  31.548  30.806  1.00  0.00     0.074 A 
ATOM     33  C   UNL A   1      37.848  33.141  32.670  1.00  0.00     0.049 A 
ATOM     34  N   UNL A   1      39.100  30.792  31.271  1.00  0.00    -0.248 NA
ATOM     35  C   UNL A   1      37.651  31.148  29.477  1.00  0.00     0.031 C 
ATOM     36  C   UNL A   1      37.248  34.246  33.418  1.00  0.00     0.029 A 
ATOM     37  N   UNL A   1      38.832  32.671  33.506  1.00  0.00    -0.354 N 
ATOM     38  C   UNL A   1      39.324  29.823  30.303  1.00  0.00     0.074 A 
ATOM     39  C   UNL A   1      38.361  30.053  29.247  1.00  0.00     0.031 C 
ATOM     40  C   UNL A   1      37.891  34.386  34.589  1.00  0.00     0.029 A 
ATOM     41  C   UNL A   1      38.917  33.354  34.695  1.00  0.00     0.049 A 
ATOM     42  H   UNL A   1      39.419  31.916  33.275  1.00  0.00     0.167 HD
ATOM     43  C   UNL A   1      40.260  28.843  30.285  1.00  0.00     0.037 A 
ATOM     44  C   UNL A   1      39.725  33.165  35.756  1.00  0.00     0.037 A 
ATOM     45  C   UNL A   1      41.231  28.628  31.326  1.00  0.00     0.049 A 
ATOM     46  C   UNL A   1      40.741  32.054  35.718  1.00  0.00     0.074 A 
ATOM     47  C   UNL A   1      42.259  27.704  31.368  1.00  0.00     0.029 A 
ATOM     48  N   UNL A   1      41.288  29.344  32.513  1.00  0.00    -0.354 N 
ATOM     49  N   UNL A   1      40.991  31.190  34.765  1.00  0.00    -0.248 NA
ATOM     50  C   UNL A   1      41.591  31.895  36.907  1.00  0.00     0.031 C 
ATOM     51  C   UNL A   1      42.901  27.819  32.606  1.00  0.00     0.029 A 
ATOM     52  C   UNL A   1      42.315  28.859  33.308  1.00  0.00     0.049 A 
ATOM     53  H   UNL A   1      40.689  30.086  32.755  1.00  0.00     0.167 HD
ATOM     54  C   UNL A   1      42.046  30.410  35.222  1.00  0.00     0.074 A 
ATOM     55  C   UNL A   1      42.398  30.913  36.533  1.00  0.00     0.031 C 
ATOM     56  C   UNL A   1      42.665  29.372  34.609  1.00  0.00     0.037 A 
BRANCH  43  57
ATOM     57  C   UNL A   1      40.278  27.918  29.099  1.00  0.00     0.064 A 
ATOM     58  C   UNL A   1      41.029  28.203  27.949  1.00  0.00     0.173 A 
ATOM     59  C   UNL A   1      39.568  26.707  29.132  1.00  0.00     0.173 A 
ATOM     60  F   UNL A   1      41.720  29.350  27.862  1.00  0.00    -0.203 F 
ATOM     61  C   UNL A   1      41.044  27.330  26.865  1.00  0.00     0.198 A 
ATOM     62  C   UNL A   1      39.612  25.819  28.061  1.00  0.00     0.198 A 
ATOM     63  F   UNL A   1      38.838  26.379  30.209  1.00  0.00    -0.203 F 
ATOM     64  F   UNL A   1      41.727  27.650  25.758  1.00  0.00    -0.200 F 
ATOM     65  C   UNL A   1      40.343  26.135  26.925  1.00  0.00     0.200 A 
ATOM     66  F   UNL A   1      38.947  24.658  28.127  1.00  0.00    -0.200 F 
ATOM     67  F   UNL A   1      40.365  25.290  25.885  1.00  0.00    -0.200 F 
ENDBRANCH  43  57
BRANCH  44  68
ATOM     68  C   UNL A   1      39.624  34.059  36.940  1.00  0.00     0.064 A 
ATOM     69  C   UNL A   1      38.848  33.699  38.050  1.00  0.00     0.173 A 
ATOM     70  C   UNL A   1      40.286  35.296  36.982  1.00  0.00     0.173 A 
ATOM     71  F   UNL A   1      38.178  32.537  38.049  1.00  0.00    -0.203 F 
ATOM     72  C   UNL A   1      38.717  34.550  39.145  1.00  0.00     0.198 A 
ATOM     73  C   UNL A   1      40.180  36.132  38.092  1.00  0.00     0.198 A 
ATOM     74  F   UNL A   1      41.044  35.687  35.948  1.00  0.00    -0.203 F 
ATOM     75  F   UNL A   1      37.924  34.203  40.169  1.00  0.00    -0.200 F 
ATOM     76  C   UNL A   1      39.387  35.763  39.168  1.00  0.00     0.200 A 
ATOM     77  F   UNL A   1      40.841  37.297  38.116  1.00  0.00    -0.200 F 
ATOM     78  F   UNL A   1      39.262  36.580  40.222  1.00  0.00    -0.200 F 
ENDBRANCH  44  68
BRANCH  56  79
ATOM     79  C   UNL A   1      43.821  28.735  35.327  1.00  0.00     0.064 A 
ATOM     80  C   UNL A   1      43.642  27.657  36.207  1.00  0.00     0.173 A 
ATOM     81  C   UNL A   1      45.131  29.186  35.101  1.00  0.00     0.173 A 
ATOM     82  F   UNL A   1      42.410  27.197  36.470  1.00  0.00    -0.203 F 
ATOM     83  C   UNL A   1      44.728  27.074  36.855  1.00  0.00     0.198 A 
ATOM     84  C   UNL A   1      46.217  28.578  35.723  1.00  0.00     0.198 A 
ATOM     85  F   UNL A   1      45.359  30.208  34.263  1.00  0.00    -0.203 F 
ATOM     86  F   UNL A   1      44.528  26.081  37.732  1.00  0.00    -0.200 F 
ATOM     87  C   UNL A   1      46.014  27.529  36.607  1.00  0.00     0.200 A 
ATOM     88  F   UNL A   1      47.461  29.008  35.469  1.00  0.00    -0.200 F 
ATOM     89  F   UNL A   1      47.059  26.960  37.225  1.00  0.00    -0.200 F 
ENDBRANCH  56  79
ENDBRANCH  30  31
ENDBRANCH  22  25
ENDBRANCH  20  21
ENDBRANCH  19  20
ENDBRANCH   1  19
TORSDOF 13
ENDMDL
MODEL 3
REMARK VINA RESULT:     -11.4      0.357      1.224
REMARK SMILES O=C(/C=C/Nc1cc(Cl)ccc1Cl)NCCCCNC(=O)c1ccc(-c2c3nc(c(-c4c(F)c(F)c(F)c(F)c4F)c4ccc([nH]4)c(-c4c(F)c(F)c(F)c(F)c4F)c4nc(c(-c5c(F)c(F)c(F)c(F)c5F)c5ccc2[nH]5)C=C4)C=C3)cc1
REMARK SMILES IDX 16 1 15 2 14 3 1 4 2 5 3 7 4 8 5 9 6 11 7 12 12 13 8 14
REMARK SMILES IDX 11 15 13 16 9 17 10 18 17 19 18 20 19 21 20 22 21 24 22 25
REMARK SMILES IDX 23 26 84 27 24 28 83 29 25 30 26 31 27 32 77 33 28 34 82 35
REMARK SMILES IDX 76 36 78 37 29 38 81 39 75 40 74 41 30 43 62 44 42 45 61 46
REMARK SMILES IDX 43 47 46 48 60 49 79 50 44 51 45 52 59 54 80 55 47 56 31 57
REMARK SMILES IDX 32 58 40 59 33 60 34 61 38 62 41 63 35 64 36 65 39 66 37 67
REMARK SMILES IDX 63 68 64 69 72 70 65 71 66 72 70 73 73 74 67 75 68 76 71 77
REMARK SMILES IDX 69 78 48 79 49 80 57 81 50 82 51 83 55 84 58 85 52 86 53 87
REMARK SMILES IDX 56 88 54 89
REMARK H PARENT 14 6 5 10 19 23 78 42 46 53
REMARK Flexibility Score: inf
ROOT
ATOM      1  C   UNL A   1      31.577  30.656  26.241  1.00  0.00     0.023 C 
ENDROOT
BRANCH   1   2
ATOM      2  C   UNL A   1      32.820  29.992  26.833  1.00  0.00     0.116 C 
BRANCH   2   3
ATOM      3  N   UNL A   1      33.137  28.731  26.190  1.00  0.00    -0.353 N 
ATOM      4  O   UNL A   1      31.715  27.450  27.460  1.00  0.00    -0.270 OA
ATOM      5  C   UNL A   1      32.553  27.551  26.571  1.00  0.00     0.245 C 
ATOM      6  H   UNL A   1      33.794  28.723  25.456  1.00  0.00     0.163 HD
BRANCH   5   7
ATOM      7  C   UNL A   1      32.919  26.349  25.777  1.00  0.00     0.089 C 
ATOM      8  C   UNL A   1      33.847  26.298  24.812  1.00  0.00     0.088 C 
BRANCH   8   9
ATOM      9  N   UNL A   1      34.149  25.202  24.043  1.00  0.00    -0.360 N 
ATOM     10  H   UNL A   1      33.961  25.288  23.082  1.00  0.00     0.166 HD
BRANCH   9  11
ATOM     11  C   UNL A   1      34.693  23.966  24.455  1.00  0.00     0.058 A 
ATOM     12  C   UNL A   1      36.006  23.853  24.934  1.00  0.00     0.048 A 
ATOM     13  C   UNL A   1      33.939  22.779  24.313  1.00  0.00     0.064 A 
ATOM     14  C   UNL A   1      36.544  22.605  25.258  1.00  0.00     0.043 A 
ATOM     15  C   UNL A   1      34.483  21.531  24.628  1.00  0.00     0.024 A 
ATOM     16  Cl  UNL A   1      32.315  22.833  23.715  1.00  0.00    -0.082 Cl
ATOM     17  Cl  UNL A   1      38.154  22.503  25.854  1.00  0.00    -0.084 Cl
ATOM     18  C   UNL A   1      35.792  21.444  25.100  1.00  0.00     0.022 A 
ENDBRANCH   9  11
ENDBRANCH   8   9
ENDBRANCH   5   7
ENDBRANCH   2   3
ENDBRANCH   1   2
BRANCH   1  19
ATOM     19  C   UNL A   1      31.432  32.150  26.542  1.00  0.00     0.023 C 
BRANCH  19  20
ATOM     20  C   UNL A   1      32.584  32.784  27.314  1.00  0.00     0.116 C 
BRANCH  20  21
ATOM     21  N   UNL A   1      32.349  34.178  27.651  1.00  0.00    -0.352 N 
ATOM     22  C   UNL A   1      32.977  34.973  28.580  1.00  0.00     0.251 C 
ATOM     23  H   UNL A   1      31.635  34.619  27.136  1.00  0.00     0.163 HD
ATOM     24  O   UNL A   1      32.544  36.100  28.813  1.00  0.00    -0.269 OA
BRANCH  22  25
ATOM     25  C   UNL A   1      34.150  34.472  29.333  1.00  0.00     0.039 A 
ATOM     26  C   UNL A   1      33.946  33.895  30.590  1.00  0.00     0.014 A 
ATOM     27  C   UNL A   1      35.444  34.574  28.816  1.00  0.00     0.014 A 
ATOM     28  C   UNL A   1      35.027  33.354  31.292  1.00  0.00     0.010 A 
ATOM     29  C   UNL A   1      36.508  33.966  29.480  1.00  0.00     0.010 A 
ATOM     30  C   UNL A   1      36.312  33.347  30.724  1.00  0.00    -0.014 A 
BRANCH  30  31
ATOM     31  C   UNL A   1      37.454  32.684  31.410  1.00  0.00     0.031 A 
ATOM     32  C   UNL A   1      38.140  31.503  30.780  1.00  0.00     0.074 A 
ATOM     33  C   UNL A   1      37.834  33.105  32.633  1.00  0.00     0.049 A 
ATOM     34  N   UNL A   1      39.105  30.755  31.254  1.00  0.00    -0.248 NA
ATOM     35  C   UNL A   1      37.662  31.091  29.451  1.00  0.00     0.031 C 
ATOM     36  C   UNL A   1      37.224  34.211  33.372  1.00  0.00     0.029 A 
ATOM     37  N   UNL A   1      38.816  32.646  33.476  1.00  0.00    -0.354 N 
ATOM     38  C   UNL A   1      39.338  29.781  30.292  1.00  0.00     0.074 A 
ATOM     39  C   UNL A   1      38.378  29.999  29.231  1.00  0.00     0.031 C 
ATOM     40  C   UNL A   1      37.861  34.362  34.544  1.00  0.00     0.029 A 
ATOM     41  C   UNL A   1      38.893  33.337  34.661  1.00  0.00     0.049 A 
ATOM     42  H   UNL A   1      39.410  31.893  33.252  1.00  0.00     0.167 HD
ATOM     43  C   UNL A   1      40.280  28.806  30.284  1.00  0.00     0.037 A 
ATOM     44  C   UNL A   1      39.698  33.159  35.727  1.00  0.00     0.037 A 
ATOM     45  C   UNL A   1      41.248  28.604  31.331  1.00  0.00     0.049 A 
ATOM     46  C   UNL A   1      40.720  32.053  35.700  1.00  0.00     0.074 A 
ATOM     47  C   UNL A   1      42.282  27.686  31.383  1.00  0.00     0.029 A 
ATOM     48  N   UNL A   1      41.296  29.327  32.514  1.00  0.00    -0.354 N 
ATOM     49  N   UNL A   1      40.979  31.185  34.753  1.00  0.00    -0.248 NA
ATOM     50  C   UNL A   1      41.567  31.907  36.893  1.00  0.00     0.031 C 
ATOM     51  C   UNL A   1      42.918  27.812  32.622  1.00  0.00     0.029 A 
ATOM     52  C   UNL A   1      42.323  28.853  33.316  1.00  0.00     0.049 A 
ATOM     53  H   UNL A   1      40.692  30.067  32.749  1.00  0.00     0.167 HD
ATOM     54  C   UNL A   1      42.036  30.414  35.219  1.00  0.00     0.074 A 
ATOM     55  C   UNL A   1      42.381  30.927  36.528  1.00  0.00     0.031 C 
ATOM     56  C   UNL A   1      42.665  29.376  34.615  1.00  0.00     0.037 A 
BRANCH  43  57
ATOM     57  C   UNL A   1      40.308  27.874  29.105  1.00  0.00     0.064 A 
ATOM     58  C   UNL A   1      39.568  26.682  29.085  1.00  0.00     0.173 A 
ATOM     59  C   UNL A   1      41.054  28.200  27.960  1.00  0.00     0.173 A 
ATOM     60  F   UNL A   1      38.844  26.320  30.155  1.00  0.00    -0.203 F 
ATOM     61  C   UNL A   1      39.597  25.837  27.979  1.00  0.00     0.198 A 
ATOM     62  C   UNL A   1      41.054  27.369  26.843  1.00  0.00     0.198 A 
ATOM     63  F   UNL A   1      41.776  29.330  27.920  1.00  0.00    -0.203 F 
ATOM     64  F   UNL A   1      38.922  24.679  28.005  1.00  0.00    -0.200 F 
ATOM     65  C   UNL A   1      40.332  26.184  26.856  1.00  0.00     0.200 A 
ATOM     66  F   UNL A   1      41.752  27.714  25.753  1.00  0.00    -0.200 F 
ATOM     67  F   UNL A   1      40.352  25.374  25.790  1.00  0.00    -0.200 F 
ENDBRANCH  43  57
BRANCH  44  68
ATOM     68  C   UNL A   1      39.587  34.060  36.905  1.00  0.00     0.064 A 
ATOM     69  C   UNL A   1      40.254  35.292  36.933  1.00  0.00     0.173 A 
ATOM     70  C   UNL A   1      38.827  33.705  38.029  1.00  0.00     0.173 A 
ATOM     71  F   UNL A   1      41.011  35.667  35.891  1.00  0.00    -0.203 F 
ATOM     72  C   UNL A   1      40.186  36.123  38.049  1.00  0.00     0.198 A 
ATOM     73  C   UNL A   1      38.734  34.552  39.133  1.00  0.00     0.198 A 
ATOM     74  F   UNL A   1      38.166  32.538  38.053  1.00  0.00    -0.203 F 
ATOM     75  F   UNL A   1      40.878  37.271  38.069  1.00  0.00    -0.200 F 
ATOM     76  C   UNL A   1      39.422  35.755  39.146  1.00  0.00     0.200 A 
ATOM     77  F   UNL A   1      37.982  34.199  40.184  1.00  0.00    -0.200 F 
ATOM     78  F   UNL A   1      39.356  36.556  40.218  1.00  0.00    -0.200 F 
ENDBRANCH  44  68
BRANCH  56  79
ATOM     79  C   UNL A   1      43.821  28.750  35.342  1.00  0.00     0.064 A 
ATOM     80  C   UNL A   1      45.144  29.164  35.123  1.00  0.00     0.173 A 
ATOM     81  C   UNL A   1      43.597  27.749  36.299  1.00  0.00     0.173 A 
ATOM     82  F   UNL A   1      45.415  30.106  34.208  1.00  0.00    -0.203 F 
ATOM     83  C   UNL A   1      46.201  28.577  35.815  1.00  0.00     0.198 A 
ATOM     84  C   UNL A   1      44.653  27.190  37.014  1.00  0.00     0.198 A 
ATOM     85  F   UNL A   1      42.351  27.322  36.553  1.00  0.00    -0.203 F 
ATOM     86  F   UNL A   1      47.461  28.950  35.551  1.00  0.00    -0.200 F 
ATOM     87  C   UNL A   1      45.954  27.598  36.765  1.00  0.00     0.200 A 
ATOM     88  F   UNL A   1      44.410  26.255  37.944  1.00  0.00    -0.200 F 
ATOM     89  F   UNL A   1      46.972  27.041  37.437  1.00  0.00    -0.200 F 
ENDBRANCH  56  79
ENDBRANCH  30  31
ENDBRANCH  22  25
ENDBRANCH  20  21
ENDBRANCH  19  20
ENDBRANCH   1  19
TORSDOF 13
ENDMDL
