MODEL 1
REMARK VINA RESULT:     -12.9      0.000      0.000
REMARK SMILES CSCC[C@H](C(=O)NCCCCNC(=O)c1ccc(-c2c3nc(c(-c4c(F)c(F)c(F)c(F)c4F)c4ccc([nH]4)c(-c4c(F)c(F)c(F)c(F)c4F)c4nc(c(-c5c(F)c(F)c(F)c(F)c5F)c5ccc2[nH]5)C=C4)C=C3)cc1)N1C(=O)/C(=C/c2ccc3ncccc3c2)SC1=S
REMARK SMILES IDX 10 1 9 2 8 3 6 4 7 5 5 7 4 8 3 9 2 10 1 11 79 12 80 13 95 14
REMARK SMILES IDX 81 15 82 16 94 17 96 18 83 19 84 20 85 21 93 22 86 23 92 24
REMARK SMILES IDX 87 25 91 26 88 27 90 28 89 29 11 30 12 31 13 32 14 33 15 35
REMARK SMILES IDX 16 36 17 37 78 38 18 39 77 40 19 41 20 42 21 43 71 44 22 45
REMARK SMILES IDX 76 46 70 47 72 48 23 49 75 50 69 51 68 52 24 54 56 55 36 56
REMARK SMILES IDX 55 57 37 58 40 59 54 60 73 61 38 62 39 63 53 65 74 66 41 67
REMARK SMILES IDX 25 68 26 69 34 70 27 71 28 72 32 73 35 74 29 75 30 76 33 77
REMARK SMILES IDX 31 78 57 79 58 80 66 81 59 82 60 83 64 84 67 85 61 86 62 87
REMARK SMILES IDX 65 88 63 89 42 90 43 91 51 92 44 93 45 94 49 95 52 96 46 97
REMARK SMILES IDX 47 98 50 99 48 100
REMARK H PARENT 8 6 13 34 72 53 40 64
REMARK Flexibility Score: inf
ROOT
ATOM      1  C   UNL A   1      31.875  30.692  26.074  1.00  0.00     0.023 C 
ENDROOT
BRANCH   1   2
ATOM      2  C   UNL A   1      32.955  29.684  25.750  1.00  0.00     0.116 C 
BRANCH   2   3
ATOM      3  N   UNL A   1      33.321  29.515  24.376  1.00  0.00    -0.354 N 
ATOM      4  C   UNL A   1      32.682  28.689  23.492  1.00  0.00     0.243 C 
ATOM      5  O   UNL A   1      32.753  28.993  22.297  1.00  0.00    -0.273 OA
ATOM      6  H   UNL A   1      34.090  30.032  24.042  1.00  0.00     0.163 HD
BRANCH   4   7
ATOM      7  C   UNL A   1      31.839  27.460  23.958  1.00  0.00     0.182 C 
BRANCH   7   8
ATOM      8  C   UNL A   1      30.295  27.628  23.872  1.00  0.00     0.046 C 
BRANCH   8   9
ATOM      9  C   UNL A   1      29.588  28.332  22.722  1.00  0.00     0.072 C 
BRANCH   9  10
ATOM     10  S   UNL A   1      29.170  30.084  23.008  1.00  0.00    -0.165 SA
ATOM     11  C   UNL A   1      28.166  30.444  21.555  1.00  0.00     0.085 C 
ENDBRANCH   9  10
ENDBRANCH   8   9
ENDBRANCH   7   8
BRANCH   7  12
ATOM     12  N   UNL A   1      32.550  26.158  23.821  1.00  0.00    -0.280 N 
ATOM     13  C   UNL A   1      32.877  25.483  25.012  1.00  0.00     0.266 C 
ATOM     14  C   UNL A   1      33.003  25.517  22.680  1.00  0.00     0.149 C 
ATOM     15  O   UNL A   1      32.518  25.770  26.145  1.00  0.00    -0.268 OA
ATOM     16  C   UNL A   1      33.627  24.234  24.706  1.00  0.00     0.081 C 
ATOM     17  S   UNL A   1      34.221  24.341  23.108  1.00  0.00    -0.054 SA
ATOM     18  S   UNL A   1      32.589  25.581  21.072  1.00  0.00    -0.052 S 
ATOM     19  C   UNL A   1      33.619  23.143  25.491  1.00  0.00     0.029 C 
BRANCH  19  20
ATOM     20  C   UNL A   1      34.017  21.807  25.008  1.00  0.00    -0.024 A 
ATOM     21  C   UNL A   1      35.331  21.384  25.221  1.00  0.00     0.010 A 
ATOM     22  C   UNL A   1      33.097  20.889  24.489  1.00  0.00     0.018 A 
ATOM     23  C   UNL A   1      35.686  20.046  25.003  1.00  0.00     0.029 A 
ATOM     24  C   UNL A   1      33.437  19.533  24.347  1.00  0.00     0.001 A 
ATOM     25  C   UNL A   1      34.753  19.098  24.604  1.00  0.00     0.070 A 
ATOM     26  C   UNL A   1      32.478  18.571  24.009  1.00  0.00     0.012 A 
ATOM     27  N   UNL A   1      35.113  17.807  24.509  1.00  0.00    -0.256 NA
ATOM     28  C   UNL A   1      32.838  17.232  23.939  1.00  0.00     0.021 A 
ATOM     29  C   UNL A   1      34.158  16.904  24.189  1.00  0.00     0.112 A 
ENDBRANCH  19  20
ENDBRANCH   7  12
ENDBRANCH   4   7
ENDBRANCH   2   3
ENDBRANCH   1   2
BRANCH   1  30
ATOM     30  C   UNL A   1      32.044  31.437  27.392  1.00  0.00     0.023 C 
BRANCH  30  31
ATOM     31  C   UNL A   1      33.091  32.548  27.435  1.00  0.00     0.116 C 
BRANCH  31  32
ATOM     32  N   UNL A   1      32.568  33.889  27.662  1.00  0.00    -0.352 N 
ATOM     33  C   UNL A   1      33.030  34.862  28.524  1.00  0.00     0.251 C 
ATOM     34  H   UNL A   1      31.777  34.134  27.128  1.00  0.00     0.163 HD
ATOM     35  O   UNL A   1      32.459  35.942  28.624  1.00  0.00    -0.269 OA
BRANCH  33  36
ATOM     36  C   UNL A   1      34.198  34.564  29.378  1.00  0.00     0.039 A 
ATOM     37  C   UNL A   1      33.984  34.018  30.646  1.00  0.00     0.014 A 
ATOM     38  C   UNL A   1      35.493  34.723  28.882  1.00  0.00     0.014 A 
ATOM     39  C   UNL A   1      35.067  33.516  31.368  1.00  0.00     0.010 A 
ATOM     40  C   UNL A   1      36.559  34.146  29.564  1.00  0.00     0.010 A 
ATOM     41  C   UNL A   1      36.354  33.517  30.804  1.00  0.00    -0.014 A 
BRANCH  41  42
ATOM     42  C   UNL A   1      37.494  32.838  31.472  1.00  0.00     0.031 A 
ATOM     43  C   UNL A   1      38.172  31.674  30.807  1.00  0.00     0.074 A 
ATOM     44  C   UNL A   1      37.854  33.205  32.718  1.00  0.00     0.049 A 
ATOM     45  N   UNL A   1      39.110  30.887  31.269  1.00  0.00    -0.248 NA
ATOM     46  C   UNL A   1      37.707  31.326  29.456  1.00  0.00     0.031 C 
ATOM     47  C   UNL A   1      37.233  34.276  33.501  1.00  0.00     0.029 A 
ATOM     48  N   UNL A   1      38.824  32.708  33.553  1.00  0.00    -0.354 N 
ATOM     49  C   UNL A   1      39.327  29.938  30.279  1.00  0.00     0.074 A 
ATOM     50  C   UNL A   1      38.389  30.215  29.213  1.00  0.00     0.031 C 
ATOM     51  C   UNL A   1      37.855  34.373  34.687  1.00  0.00     0.029 A 
ATOM     52  C   UNL A   1      38.893  33.351  34.765  1.00  0.00     0.049 A 
ATOM     53  H   UNL A   1      39.415  31.960  33.306  1.00  0.00     0.167 HD
ATOM     54  C   UNL A   1      40.241  28.940  30.252  1.00  0.00     0.037 A 
ATOM     55  C   UNL A   1      39.701  33.137  35.822  1.00  0.00     0.037 A 
ATOM     56  C   UNL A   1      41.205  28.694  31.291  1.00  0.00     0.049 A 
ATOM     57  C   UNL A   1      40.727  32.040  35.752  1.00  0.00     0.074 A 
ATOM     58  C   UNL A   1      42.227  27.762  31.317  1.00  0.00     0.029 A 
ATOM     59  N   UNL A   1      41.268  29.392  32.488  1.00  0.00    -0.354 N 
ATOM     60  N   UNL A   1      40.973  31.197  34.781  1.00  0.00    -0.248 NA
ATOM     61  C   UNL A   1      41.594  31.868  36.928  1.00  0.00     0.031 C 
ATOM     62  C   UNL A   1      42.888  27.872  32.545  1.00  0.00     0.029 A 
ATOM     63  C   UNL A   1      42.302  28.900  33.267  1.00  0.00     0.049 A 
ATOM     64  H   UNL A   1      40.667  30.129  32.745  1.00  0.00     0.167 HD
ATOM     65  C   UNL A   1      42.036  30.416  35.212  1.00  0.00     0.074 A 
ATOM     66  C   UNL A   1      42.397  30.892  36.531  1.00  0.00     0.031 C 
ATOM     67  C   UNL A   1      42.656  29.395  34.572  1.00  0.00     0.037 A 
BRANCH  54  68
ATOM     68  C   UNL A   1      40.248  28.044  29.048  1.00  0.00     0.064 A 
ATOM     69  C   UNL A   1      40.976  28.369  27.894  1.00  0.00     0.173 A 
ATOM     70  C   UNL A   1      39.540  26.832  29.060  1.00  0.00     0.173 A 
ATOM     71  F   UNL A   1      41.657  29.523  27.829  1.00  0.00    -0.203 F 
ATOM     72  C   UNL A   1      40.969  27.531  26.783  1.00  0.00     0.198 A 
ATOM     73  C   UNL A   1      39.560  25.982  27.957  1.00  0.00     0.198 A 
ATOM     74  F   UNL A   1      38.832  26.472  30.140  1.00  0.00    -0.203 F 
ATOM     75  F   UNL A   1      41.629  27.887  25.673  1.00  0.00    -0.200 F 
ATOM     76  C   UNL A   1      40.267  26.335  26.818  1.00  0.00     0.200 A 
ATOM     77  F   UNL A   1      38.889  24.822  27.995  1.00  0.00    -0.200 F 
ATOM     78  F   UNL A   1      40.265  25.527  25.749  1.00  0.00    -0.200 F 
ENDBRANCH  54  68
BRANCH  55  79
ATOM     79  C   UNL A   1      39.600  34.005  37.023  1.00  0.00     0.064 A 
ATOM     80  C   UNL A   1      38.834  33.608  38.129  1.00  0.00     0.173 A 
ATOM     81  C   UNL A   1      40.251  35.245  37.092  1.00  0.00     0.173 A 
ATOM     82  F   UNL A   1      38.176  32.439  38.101  1.00  0.00    -0.203 F 
ATOM     83  C   UNL A   1      38.709  34.425  39.250  1.00  0.00     0.198 A 
ATOM     84  C   UNL A   1      40.144  36.050  38.224  1.00  0.00     0.198 A 
ATOM     85  F   UNL A   1      40.998  35.669  36.062  1.00  0.00    -0.203 F 
ATOM     86  F   UNL A   1      37.937  34.039  40.275  1.00  0.00    -0.200 F 
ATOM     87  C   UNL A   1      39.368  35.644  39.299  1.00  0.00     0.200 A 
ATOM     88  F   UNL A   1      40.791  37.223  38.273  1.00  0.00    -0.200 F 
ATOM     89  F   UNL A   1      39.248  36.429  40.378  1.00  0.00    -0.200 F 
ENDBRANCH  55  79
BRANCH  67  90
ATOM     90  C   UNL A   1      43.814  28.748  35.272  1.00  0.00     0.064 A 
ATOM     91  C   UNL A   1      43.636  27.648  36.123  1.00  0.00     0.173 A 
ATOM     92  C   UNL A   1      45.122  29.206  35.050  1.00  0.00     0.173 A 
ATOM     93  F   UNL A   1      42.403  27.185  36.378  1.00  0.00    -0.203 F 
ATOM     94  C   UNL A   1      44.724  27.043  36.745  1.00  0.00     0.198 A 
ATOM     95  C   UNL A   1      46.210  28.582  35.653  1.00  0.00     0.198 A 
ATOM     96  F   UNL A   1      45.343  30.251  34.239  1.00  0.00    -0.203 F 
ATOM     97  F   UNL A   1      44.529  26.020  37.589  1.00  0.00    -0.200 F 
ATOM     98  C   UNL A   1      46.011  27.505  36.504  1.00  0.00     0.200 A 
ATOM     99  F   UNL A   1      47.453  29.023  35.410  1.00  0.00    -0.200 F 
ATOM    100  F   UNL A   1      47.057  26.917  37.098  1.00  0.00    -0.200 F 
ENDBRANCH  67  90
ENDBRANCH  41  42
ENDBRANCH  33  36
ENDBRANCH  31  32
ENDBRANCH  30  31
ENDBRANCH   1  30
TORSDOF 16
ENDMDL
MODEL 2
REMARK VINA RESULT:     -12.9      0.590      7.221
REMARK SMILES CSCC[C@H](C(=O)NCCCCNC(=O)c1ccc(-c2c3nc(c(-c4c(F)c(F)c(F)c(F)c4F)c4ccc([nH]4)c(-c4c(F)c(F)c(F)c(F)c4F)c4nc(c(-c5c(F)c(F)c(F)c(F)c5F)c5ccc2[nH]5)C=C4)C=C3)cc1)N1C(=O)/C(=C/c2ccc3ncccc3c2)SC1=S
REMARK SMILES IDX 10 1 9 2 8 3 6 4 7 5 5 7 4 8 3 9 2 10 1 11 79 12 80 13 95 14
REMARK SMILES IDX 81 15 82 16 94 17 96 18 83 19 84 20 85 21 93 22 86 23 92 24
REMARK SMILES IDX 87 25 91 26 88 27 90 28 89 29 11 30 12 31 13 32 14 33 15 35
REMARK SMILES IDX 16 36 17 37 78 38 18 39 77 40 19 41 20 42 21 43 71 44 22 45
REMARK SMILES IDX 76 46 70 47 72 48 23 49 75 50 69 51 68 52 24 54 56 55 36 56
REMARK SMILES IDX 55 57 37 58 40 59 54 60 73 61 38 62 39 63 53 65 74 66 41 67
REMARK SMILES IDX 25 68 26 69 34 70 27 71 28 72 32 73 35 74 29 75 30 76 33 77
REMARK SMILES IDX 31 78 57 79 58 80 66 81 59 82 60 83 64 84 67 85 61 86 62 87
REMARK SMILES IDX 65 88 63 89 42 90 43 91 51 92 44 93 45 94 49 95 52 96 46 97
REMARK SMILES IDX 47 98 50 99 48 100
REMARK H PARENT 8 6 13 34 72 53 40 64
REMARK Flexibility Score: inf
ROOT
ATOM      1  C   UNL A   1      31.968  30.528  26.013  1.00  0.00     0.023 C 
ENDROOT
BRANCH   1   2
ATOM      2  C   UNL A   1      33.203  29.671  25.840  1.00  0.00     0.116 C 
BRANCH   2   3
ATOM      3  N   UNL A   1      33.668  29.432  24.506  1.00  0.00    -0.354 N 
ATOM      4  C   UNL A   1      33.088  28.567  23.619  1.00  0.00     0.243 C 
ATOM      5  O   UNL A   1      33.251  28.811  22.418  1.00  0.00    -0.273 OA
ATOM      6  H   UNL A   1      34.465  29.927  24.206  1.00  0.00     0.163 HD
BRANCH   4   7
ATOM      7  C   UNL A   1      32.200  27.368  24.079  1.00  0.00     0.182 C 
BRANCH   7   8
ATOM      8  C   UNL A   1      30.664  27.606  24.030  1.00  0.00     0.046 C 
BRANCH   8   9
ATOM      9  C   UNL A   1      29.920  28.041  22.776  1.00  0.00     0.072 C 
BRANCH   9  10
ATOM     10  S   UNL A   1      29.540  29.822  22.663  1.00  0.00    -0.165 SA
ATOM     11  C   UNL A   1      27.743  29.787  22.532  1.00  0.00     0.085 C 
ENDBRANCH   9  10
ENDBRANCH   8   9
ENDBRANCH   7   8
BRANCH   7  12
ATOM     12  N   UNL A   1      32.850  26.038  23.902  1.00  0.00    -0.280 N 
ATOM     13  C   UNL A   1      33.254  25.366  25.070  1.00  0.00     0.266 C 
ATOM     14  C   UNL A   1      33.178  25.366  22.737  1.00  0.00     0.149 C 
ATOM     15  O   UNL A   1      33.006  25.681  26.225  1.00  0.00    -0.268 OA
ATOM     16  C   UNL A   1      33.930  24.087  24.720  1.00  0.00     0.081 C 
ATOM     17  S   UNL A   1      34.386  24.151  23.076  1.00  0.00    -0.054 SA
ATOM     18  S   UNL A   1      32.628  25.426  21.169  1.00  0.00    -0.052 S 
ATOM     19  C   UNL A   1      33.950  23.007  25.520  1.00  0.00     0.029 C 
BRANCH  19  20
ATOM     20  C   UNL A   1      34.257  21.651  25.026  1.00  0.00    -0.024 A 
ATOM     21  C   UNL A   1      35.550  21.152  25.201  1.00  0.00     0.010 A 
ATOM     22  C   UNL A   1      33.270  20.789  24.533  1.00  0.00     0.018 A 
ATOM     23  C   UNL A   1      35.820  19.796  24.972  1.00  0.00     0.029 A 
ATOM     24  C   UNL A   1      33.527  19.415  24.382  1.00  0.00     0.001 A 
ATOM     25  C   UNL A   1      34.822  18.905  24.600  1.00  0.00     0.070 A 
ATOM     26  C   UNL A   1      32.504  18.511  24.071  1.00  0.00     0.012 A 
ATOM     27  N   UNL A   1      35.104  17.595  24.494  1.00  0.00    -0.256 NA
ATOM     28  C   UNL A   1      32.785  17.154  23.990  1.00  0.00     0.021 A 
ATOM     29  C   UNL A   1      34.090  16.750  24.202  1.00  0.00     0.112 A 
ENDBRANCH  19  20
ENDBRANCH   7  12
ENDBRANCH   4   7
ENDBRANCH   2   3
ENDBRANCH   1   2
BRANCH   1  30
ATOM     30  C   UNL A   1      31.977  31.455  27.222  1.00  0.00     0.023 C 
BRANCH  30  31
ATOM     31  C   UNL A   1      33.042  32.549  27.253  1.00  0.00     0.116 C 
BRANCH  31  32
ATOM     32  N   UNL A   1      32.559  33.879  27.604  1.00  0.00    -0.352 N 
ATOM     33  C   UNL A   1      33.056  34.758  28.544  1.00  0.00     0.251 C 
ATOM     34  H   UNL A   1      31.772  34.192  27.102  1.00  0.00     0.163 HD
ATOM     35  O   UNL A   1      32.517  35.840  28.745  1.00  0.00    -0.269 OA
BRANCH  33  36
ATOM     36  C   UNL A   1      34.222  34.353  29.355  1.00  0.00     0.039 A 
ATOM     37  C   UNL A   1      34.003  33.707  30.574  1.00  0.00     0.014 A 
ATOM     38  C   UNL A   1      35.517  34.514  28.859  1.00  0.00     0.014 A 
ATOM     39  C   UNL A   1      35.076  33.112  31.238  1.00  0.00     0.010 A 
ATOM     40  C   UNL A   1      36.570  33.848  29.477  1.00  0.00     0.010 A 
ATOM     41  C   UNL A   1      36.357  33.123  30.661  1.00  0.00    -0.014 A 
BRANCH  41  42
ATOM     42  C   UNL A   1      37.481  32.354  31.256  1.00  0.00     0.031 A 
ATOM     43  C   UNL A   1      38.001  32.712  32.619  1.00  0.00     0.074 A 
ATOM     44  C   UNL A   1      38.096  31.399  30.530  1.00  0.00     0.049 A 
ATOM     45  N   UNL A   1      39.034  32.233  33.264  1.00  0.00    -0.248 NA
ATOM     46  C   UNL A   1      37.285  33.777  33.338  1.00  0.00     0.031 C 
ATOM     47  C   UNL A   1      37.732  31.001  29.168  1.00  0.00     0.029 A 
ATOM     48  N   UNL A   1      39.170  30.598  30.830  1.00  0.00    -0.354 N 
ATOM     49  C   UNL A   1      39.107  32.955  34.447  1.00  0.00     0.074 A 
ATOM     50  C   UNL A   1      38.047  33.938  34.410  1.00  0.00     0.031 C 
ATOM     51  C   UNL A   1      38.547  30.013  28.764  1.00  0.00     0.029 A 
ATOM     52  C   UNL A   1      39.514  29.733  29.820  1.00  0.00     0.049 A 
ATOM     53  H   UNL A   1      39.648  30.639  31.690  1.00  0.00     0.167 HD
ATOM     54  C   UNL A   1      39.967  32.797  35.481  1.00  0.00     0.037 A 
ATOM     55  C   UNL A   1      40.501  28.818  29.753  1.00  0.00     0.037 A 
ATOM     56  C   UNL A   1      40.991  31.788  35.538  1.00  0.00     0.049 A 
ATOM     57  C   UNL A   1      41.423  28.644  30.928  1.00  0.00     0.074 A 
ATOM     58  C   UNL A   1      41.855  31.493  36.577  1.00  0.00     0.029 A 
ATOM     59  N   UNL A   1      41.284  30.905  34.510  1.00  0.00    -0.354 N 
ATOM     60  N   UNL A   1      41.436  29.282  32.071  1.00  0.00    -0.248 NA
ATOM     61  C   UNL A   1      42.468  27.617  30.803  1.00  0.00     0.031 C 
ATOM     62  C   UNL A   1      42.695  30.453  36.165  1.00  0.00     0.029 A 
ATOM     63  C   UNL A   1      42.328  30.074  34.884  1.00  0.00     0.049 A 
ATOM     64  H   UNL A   1      40.818  30.872  33.643  1.00  0.00     0.167 HD
ATOM     65  C   UNL A   1      42.464  28.717  32.813  1.00  0.00     0.074 A 
ATOM     66  C   UNL A   1      43.048  27.677  31.993  1.00  0.00     0.031 C 
ATOM     67  C   UNL A   1      42.887  29.034  34.061  1.00  0.00     0.037 A 
BRANCH  54  68
ATOM     68  C   UNL A   1      39.826  33.734  36.645  1.00  0.00     0.064 A 
ATOM     69  C   UNL A   1      38.985  33.438  37.728  1.00  0.00     0.173 A 
ATOM     70  C   UNL A   1      40.561  34.928  36.688  1.00  0.00     0.173 A 
ATOM     71  F   UNL A   1      38.251  32.316  37.726  1.00  0.00    -0.203 F 
ATOM     72  C   UNL A   1      38.860  34.320  38.798  1.00  0.00     0.198 A 
ATOM     73  C   UNL A   1      40.455  35.793  37.775  1.00  0.00     0.198 A 
ATOM     74  F   UNL A   1      41.382  35.255  35.680  1.00  0.00    -0.203 F 
ATOM     75  F   UNL A   1      38.012  34.041  39.798  1.00  0.00    -0.200 F 
ATOM     76  C   UNL A   1      39.600  35.492  38.824  1.00  0.00     0.200 A 
ATOM     77  F   UNL A   1      41.178  36.921  37.804  1.00  0.00    -0.200 F 
ATOM     78  F   UNL A   1      39.482  36.338  39.857  1.00  0.00    -0.200 F 
ENDBRANCH  54  68
BRANCH  55  79
ATOM     79  C   UNL A   1      40.646  27.968  28.543  1.00  0.00     0.064 A 
ATOM     80  C   UNL A   1      41.423  28.398  27.457  1.00  0.00     0.173 A 
ATOM     81  C   UNL A   1      40.012  26.722  28.439  1.00  0.00     0.173 A 
ATOM     82  F   UNL A   1      42.031  29.592  27.502  1.00  0.00    -0.203 F 
ATOM     83  C   UNL A   1      41.544  27.622  26.306  1.00  0.00     0.198 A 
ATOM     84  C   UNL A   1      40.154  25.937  27.297  1.00  0.00     0.198 A 
ATOM     85  F   UNL A   1      39.261  26.264  29.452  1.00  0.00    -0.203 F 
ATOM     86  F   UNL A   1      42.257  28.077  25.267  1.00  0.00    -0.200 F 
ATOM     87  C   UNL A   1      40.913  26.390  26.229  1.00  0.00     0.200 A 
ATOM     88  F   UNL A   1      39.552  24.741  27.229  1.00  0.00    -0.200 F 
ATOM     89  F   UNL A   1      41.031  25.643  25.122  1.00  0.00    -0.200 F 
ENDBRANCH  55  79
BRANCH  67  90
ATOM     90  C   UNL A   1      44.011  28.222  34.632  1.00  0.00     0.064 A 
ATOM     91  C   UNL A   1      45.348  28.621  34.495  1.00  0.00     0.173 A 
ATOM     92  C   UNL A   1      43.742  27.056  35.365  1.00  0.00     0.173 A 
ATOM     93  F   UNL A   1      45.656  29.720  33.790  1.00  0.00    -0.203 F 
ATOM     94  C   UNL A   1      46.378  27.869  35.054  1.00  0.00     0.198 A 
ATOM     95  C   UNL A   1      44.772  26.321  35.944  1.00  0.00     0.198 A 
ATOM     96  F   UNL A   1      42.478  26.637  35.528  1.00  0.00    -0.203 F 
ATOM     97  F   UNL A   1      47.652  28.245  34.876  1.00  0.00    -0.200 F 
ATOM     98  C   UNL A   1      46.089  26.725  35.784  1.00  0.00     0.200 A 
ATOM     99  F   UNL A   1      44.490  25.222  36.658  1.00  0.00    -0.200 F 
ATOM    100  F   UNL A   1      47.082  26.007  36.326  1.00  0.00    -0.200 F 
ENDBRANCH  67  90
ENDBRANCH  41  42
ENDBRANCH  33  36
ENDBRANCH  31  32
ENDBRANCH  30  31
ENDBRANCH   1  30
TORSDOF 16
ENDMDL
MODEL 3
REMARK VINA RESULT:     -12.1      1.119      2.426
REMARK SMILES CSCC[C@H](C(=O)NCCCCNC(=O)c1ccc(-c2c3nc(c(-c4c(F)c(F)c(F)c(F)c4F)c4ccc([nH]4)c(-c4c(F)c(F)c(F)c(F)c4F)c4nc(c(-c5c(F)c(F)c(F)c(F)c5F)c5ccc2[nH]5)C=C4)C=C3)cc1)N1C(=O)/C(=C/c2ccc3ncccc3c2)SC1=S
REMARK SMILES IDX 10 1 9 2 8 3 6 4 7 5 5 7 4 8 3 9 2 10 1 11 79 12 80 13 95 14
REMARK SMILES IDX 81 15 82 16 94 17 96 18 83 19 84 20 85 21 93 22 86 23 92 24
REMARK SMILES IDX 87 25 91 26 88 27 90 28 89 29 11 30 12 31 13 32 14 33 15 35
REMARK SMILES IDX 16 36 17 37 78 38 18 39 77 40 19 41 20 42 21 43 71 44 22 45
REMARK SMILES IDX 76 46 70 47 72 48 23 49 75 50 69 51 68 52 24 54 56 55 36 56
REMARK SMILES IDX 55 57 37 58 40 59 54 60 73 61 38 62 39 63 53 65 74 66 41 67
REMARK SMILES IDX 25 68 26 69 34 70 27 71 28 72 32 73 35 74 29 75 30 76 33 77
REMARK SMILES IDX 31 78 57 79 58 80 66 81 59 82 60 83 64 84 67 85 61 86 62 87
REMARK SMILES IDX 65 88 63 89 42 90 43 91 51 92 44 93 45 94 49 95 52 96 46 97
REMARK SMILES IDX 47 98 50 99 48 100
REMARK H PARENT 8 6 13 34 72 53 40 64
REMARK Flexibility Score: inf
ROOT
ATOM      1  C   UNL A   1      31.035  30.864  25.392  1.00  0.00     0.023 C 
ENDROOT
BRANCH   1   2
ATOM      2  C   UNL A   1      32.133  29.891  25.762  1.00  0.00     0.116 C 
BRANCH   2   3
ATOM      3  N   UNL A   1      33.207  29.710  24.830  1.00  0.00    -0.354 N 
ATOM      4  C   UNL A   1      33.108  29.034  23.645  1.00  0.00     0.243 C 
ATOM      5  O   UNL A   1      33.895  29.363  22.751  1.00  0.00    -0.273 OA
ATOM      6  H   UNL A   1      34.080  30.102  25.061  1.00  0.00     0.163 HD
BRANCH   4   7
ATOM      7  C   UNL A   1      32.015  27.949  23.390  1.00  0.00     0.182 C 
BRANCH   7   8
ATOM      8  C   UNL A   1      30.872  28.356  22.417  1.00  0.00     0.046 C 
BRANCH   8   9
ATOM      9  C   UNL A   1      29.650  29.159  22.843  1.00  0.00     0.072 C 
BRANCH   9  10
ATOM     10  S   UNL A   1      28.125  28.193  23.104  1.00  0.00    -0.165 SA
ATOM     11  C   UNL A   1      28.788  26.689  23.845  1.00  0.00     0.085 C 
ENDBRANCH   9  10
ENDBRANCH   8   9
ENDBRANCH   7   8
BRANCH   7  12
ATOM     12  N   UNL A   1      32.500  26.552  23.577  1.00  0.00    -0.280 N 
ATOM     13  C   UNL A   1      32.639  26.098  24.901  1.00  0.00     0.266 C 
ATOM     14  C   UNL A   1      32.901  25.625  22.630  1.00  0.00     0.149 C 
ATOM     15  O   UNL A   1      32.270  26.667  25.918  1.00  0.00    -0.268 OA
ATOM     16  C   UNL A   1      33.182  24.712  24.915  1.00  0.00     0.081 C 
ATOM     17  S   UNL A   1      33.875  24.389  23.388  1.00  0.00    -0.054 SA
ATOM     18  S   UNL A   1      32.596  25.416  21.009  1.00  0.00    -0.052 S 
ATOM     19  C   UNL A   1      32.942  23.824  25.895  1.00  0.00     0.029 C 
BRANCH  19  20
ATOM     20  C   UNL A   1      33.134  22.371  25.722  1.00  0.00    -0.024 A 
ATOM     21  C   UNL A   1      32.037  21.591  25.352  1.00  0.00     0.010 A 
ATOM     22  C   UNL A   1      34.398  21.769  25.761  1.00  0.00     0.018 A 
ATOM     23  C   UNL A   1      32.220  20.263  24.943  1.00  0.00     0.029 A 
ATOM     24  C   UNL A   1      34.586  20.464  25.274  1.00  0.00     0.001 A 
ATOM     25  C   UNL A   1      33.483  19.692  24.860  1.00  0.00     0.070 A 
ATOM     26  C   UNL A   1      35.867  19.917  25.131  1.00  0.00     0.012 A 
ATOM     27  N   UNL A   1      33.623  18.451  24.362  1.00  0.00    -0.256 NA
ATOM     28  C   UNL A   1      36.018  18.648  24.589  1.00  0.00     0.021 A 
ATOM     29  C   UNL A   1      34.875  17.959  24.229  1.00  0.00     0.112 A 
ENDBRANCH  19  20
ENDBRANCH   7  12
ENDBRANCH   4   7
ENDBRANCH   2   3
ENDBRANCH   1   2
BRANCH   1  30
ATOM     30  C   UNL A   1      31.018  32.166  26.184  1.00  0.00     0.023 C 
BRANCH  30  31
ATOM     31  C   UNL A   1      32.300  32.549  26.921  1.00  0.00     0.116 C 
BRANCH  31  32
ATOM     32  N   UNL A   1      32.294  33.870  27.537  1.00  0.00    -0.352 N 
ATOM     33  C   UNL A   1      33.241  34.444  28.359  1.00  0.00     0.251 C 
ATOM     34  H   UNL A   1      31.507  34.428  27.340  1.00  0.00     0.163 HD
ATOM     35  O   UNL A   1      33.078  35.566  28.826  1.00  0.00    -0.269 OA
BRANCH  33  36
ATOM     36  C   UNL A   1      34.441  33.662  28.722  1.00  0.00     0.039 A 
ATOM     37  C   UNL A   1      35.699  34.248  28.566  1.00  0.00     0.014 A 
ATOM     38  C   UNL A   1      34.311  32.404  29.314  1.00  0.00     0.014 A 
ATOM     39  C   UNL A   1      36.819  33.624  29.117  1.00  0.00     0.010 A 
ATOM     40  C   UNL A   1      35.413  31.827  29.935  1.00  0.00     0.010 A 
ATOM     41  C   UNL A   1      36.674  32.441  29.861  1.00  0.00    -0.014 A 
BRANCH  41  42
ATOM     42  C   UNL A   1      37.818  31.847  30.602  1.00  0.00     0.031 A 
ATOM     43  C   UNL A   1      38.670  30.795  29.953  1.00  0.00     0.074 A 
ATOM     44  C   UNL A   1      38.027  32.183  31.890  1.00  0.00     0.049 A 
ATOM     45  N   UNL A   1      39.643  30.084  30.464  1.00  0.00    -0.248 NA
ATOM     46  C   UNL A   1      38.364  30.472  28.550  1.00  0.00     0.031 C 
ATOM     47  C   UNL A   1      37.230  33.143  32.658  1.00  0.00     0.029 A 
ATOM     48  N   UNL A   1      38.968  31.745  32.789  1.00  0.00    -0.354 N 
ATOM     49  C   UNL A   1      40.044  29.215  29.459  1.00  0.00     0.074 A 
ATOM     50  C   UNL A   1      39.178  29.451  28.324  1.00  0.00     0.031 C 
ATOM     51  C   UNL A   1      37.733  33.241  33.899  1.00  0.00     0.029 A 
ATOM     52  C   UNL A   1      38.862  32.326  34.028  1.00  0.00     0.049 A 
ATOM     53  H   UNL A   1      39.654  31.075  32.565  1.00  0.00     0.167 HD
ATOM     54  C   UNL A   1      41.058  28.318  29.473  1.00  0.00     0.037 A 
ATOM     55  C   UNL A   1      39.594  32.141  35.145  1.00  0.00     0.037 A 
ATOM     56  C   UNL A   1      41.948  28.117  30.585  1.00  0.00     0.049 A 
ATOM     57  C   UNL A   1      40.732  31.159  35.123  1.00  0.00     0.074 A 
ATOM     58  C   UNL A   1      43.057  27.294  30.665  1.00  0.00     0.029 A 
ATOM     59  N   UNL A   1      41.832  28.754  31.811  1.00  0.00    -0.354 N 
ATOM     60  N   UNL A   1      41.149  30.397  34.143  1.00  0.00    -0.248 NA
ATOM     61  C   UNL A   1      41.506  31.015  36.365  1.00  0.00     0.031 C 
ATOM     62  C   UNL A   1      43.593  27.406  31.952  1.00  0.00     0.029 A 
ATOM     63  C   UNL A   1      42.841  28.329  32.661  1.00  0.00     0.049 A 
ATOM     64  H   UNL A   1      41.137  29.412  32.043  1.00  0.00     0.167 HD
ATOM     65  C   UNL A   1      42.248  29.707  34.636  1.00  0.00     0.074 A 
ATOM     66  C   UNL A   1      42.440  30.148  36.002  1.00  0.00     0.031 C 
ATOM     67  C   UNL A   1      43.026  28.789  34.012  1.00  0.00     0.037 A 
BRANCH  54  68
ATOM     68  C   UNL A   1      41.265  27.491  28.238  1.00  0.00     0.064 A 
ATOM     69  C   UNL A   1      40.644  26.244  28.077  1.00  0.00     0.173 A 
ATOM     70  C   UNL A   1      42.073  27.964  27.193  1.00  0.00     0.173 A 
ATOM     71  F   UNL A   1      39.874  25.742  29.054  1.00  0.00    -0.203 F 
ATOM     72  C   UNL A   1      40.850  25.485  26.928  1.00  0.00     0.198 A 
ATOM     73  C   UNL A   1      42.252  27.215  26.032  1.00  0.00     0.198 A 
ATOM     74  F   UNL A   1      42.685  29.153  27.295  1.00  0.00    -0.203 F 
ATOM     75  F   UNL A   1      40.288  24.273  26.819  1.00  0.00    -0.200 F 
ATOM     76  C   UNL A   1      41.648  25.974  25.905  1.00  0.00     0.200 A 
ATOM     77  F   UNL A   1      43.015  27.692  25.040  1.00  0.00    -0.200 F 
ATOM     78  F   UNL A   1      41.841  25.244  24.797  1.00  0.00    -0.200 F 
ENDBRANCH  54  68
BRANCH  55  79
ATOM     79  C   UNL A   1      39.297  32.930  36.368  1.00  0.00     0.064 A 
ATOM     80  C   UNL A   1      39.906  34.176  36.580  1.00  0.00     0.173 A 
ATOM     81  C   UNL A   1      38.413  32.461  37.350  1.00  0.00     0.173 A 
ATOM     82  F   UNL A   1      40.776  34.656  35.679  1.00  0.00    -0.203 F 
ATOM     83  C   UNL A   1      39.657  34.912  37.736  1.00  0.00     0.198 A 
ATOM     84  C   UNL A   1      38.146  33.210  38.494  1.00  0.00     0.198 A 
ATOM     85  F   UNL A   1      37.801  31.277  37.192  1.00  0.00    -0.203 F 
ATOM     86  F   UNL A   1      40.286  36.079  37.933  1.00  0.00    -0.200 F 
ATOM     87  C   UNL A   1      38.774  34.431  38.690  1.00  0.00     0.200 A 
ATOM     88  F   UNL A   1      37.283  32.748  39.409  1.00  0.00    -0.200 F 
ATOM     89  F   UNL A   1      38.534  35.141  39.801  1.00  0.00    -0.200 F 
ENDBRANCH  55  79
BRANCH  67  90
ATOM     90  C   UNL A   1      44.181  28.227  34.787  1.00  0.00     0.064 A 
ATOM     91  C   UNL A   1      45.455  28.809  34.731  1.00  0.00     0.173 A 
ATOM     92  C   UNL A   1      43.996  27.122  35.631  1.00  0.00     0.173 A 
ATOM     93  F   UNL A   1      45.684  29.857  33.926  1.00  0.00    -0.203 F 
ATOM     94  C   UNL A   1      46.510  28.290  35.476  1.00  0.00     0.198 A 
ATOM     95  C   UNL A   1      45.047  26.622  36.395  1.00  0.00     0.198 A 
ATOM     96  F   UNL A   1      42.794  26.535  35.724  1.00  0.00    -0.203 F 
ATOM     97  F   UNL A   1      47.731  28.834  35.376  1.00  0.00    -0.200 F 
ATOM     98  C   UNL A   1      46.304  27.202  36.313  1.00  0.00     0.200 A 
ATOM     99  F   UNL A   1      44.843  25.578  37.211  1.00  0.00    -0.200 F 
ATOM    100  F   UNL A   1      47.319  26.709  37.035  1.00  0.00    -0.200 F 
ENDBRANCH  67  90
ENDBRANCH  41  42
ENDBRANCH  33  36
ENDBRANCH  31  32
ENDBRANCH  30  31
ENDBRANCH   1  30
TORSDOF 16
ENDMDL
