MODEL 1
REMARK VINA RESULT:     -12.0      0.000      0.000
REMARK SMILES CC(C)N1C[C@@H](C(=O)N[C@@H](C)CC(=O)NCCCCNC(=O)c2ccc(-c3c4nc(c(-c5c(F)c(F)c(F)c(F)c5F)c5ccc([nH]5)c(-c5c(F)c(F)c(F)c(F)c5F)c5nc(c(-c6c(F)c(F)c(F)c(F)c6F)c6ccc3[nH]6)C=C5)C=C4)cc2)CC1=O
REMARK SMILES IDX 16 1 15 2 13 3 14 4 12 6 10 7 11 8 9 9 7 10 8 11 6 13 4 14
REMARK SMILES IDX 5 15 87 16 86 17 88 18 2 19 1 20 3 21 17 22 18 23 19 24
REMARK SMILES IDX 20 25 21 26 22 28 23 29 24 30 85 31 25 32 84 33 26 34 27 35
REMARK SMILES IDX 28 36 78 37 29 38 83 39 77 40 79 41 30 42 82 43 76 44 75 45
REMARK SMILES IDX 31 47 63 48 43 49 62 50 44 51 47 52 61 53 80 54 45 55 46 56
REMARK SMILES IDX 60 58 81 59 48 60 32 61 33 62 41 63 34 64 35 65 39 66 42 67
REMARK SMILES IDX 36 68 37 69 40 70 38 71 64 72 65 73 73 74 66 75 67 76 71 77
REMARK SMILES IDX 74 78 68 79 69 80 72 81 70 82 49 83 50 84 58 85 51 86 52 87
REMARK SMILES IDX 56 88 59 89 53 90 54 91 57 92 55 93
REMARK H PARENT 15 5 9 12 20 27 79 46 47 57
REMARK Flexibility Score: inf
ROOT
ATOM      1  C   UNL A   1      33.463  29.112  26.607  1.00  0.00     0.116 C 
ENDROOT
BRANCH   1   2
ATOM      2  N   UNL A   1      33.667  29.467  25.215  1.00  0.00    -0.356 N 
ATOM      3  C   UNL A   1      33.142  28.891  24.097  1.00  0.00     0.222 C 
ATOM      4  O   UNL A   1      33.588  29.231  23.000  1.00  0.00    -0.275 OA
ATOM      5  H   UNL A   1      34.268  30.230  25.056  1.00  0.00     0.163 HD
BRANCH   3   6
ATOM      6  C   UNL A   1      32.030  27.867  24.205  1.00  0.00     0.124 C 
BRANCH   6   7
ATOM      7  C   UNL A   1      31.130  27.747  22.963  1.00  0.00     0.088 C 
ATOM      8  C   UNL A   1      29.876  26.952  23.339  1.00  0.00     0.031 C 
BRANCH   7   9
ATOM      9  N   UNL A   1      31.779  27.028  21.866  1.00  0.00    -0.353 N 
ATOM     10  C   UNL A   1      32.557  25.919  21.815  1.00  0.00     0.225 C 
ATOM     11  O   UNL A   1      33.087  25.679  20.724  1.00  0.00    -0.275 OA
ATOM     12  H   UNL A   1      31.617  27.433  20.983  1.00  0.00     0.163 HD
BRANCH  10  13
ATOM     13  C   UNL A   1      32.806  24.980  22.977  1.00  0.00     0.107 C 
ATOM     14  N   UNL A   1      34.285  23.257  23.598  1.00  0.00    -0.339 N 
ATOM     15  C   UNL A   1      34.244  24.679  23.357  1.00  0.00     0.133 C 
ATOM     16  C   UNL A   1      33.057  22.648  23.402  1.00  0.00     0.223 C 
ATOM     17  C   UNL A   1      32.129  23.640  22.761  1.00  0.00     0.115 C 
ATOM     18  O   UNL A   1      32.753  21.495  23.648  1.00  0.00    -0.275 OA
BRANCH  14  19
ATOM     19  C   UNL A   1      35.486  22.616  24.142  1.00  0.00     0.078 C 
ATOM     20  C   UNL A   1      36.685  22.811  23.219  1.00  0.00     0.031 C 
ATOM     21  C   UNL A   1      35.813  23.073  25.566  1.00  0.00     0.031 C 
ENDBRANCH  14  19
ENDBRANCH  10  13
ENDBRANCH   7   9
ENDBRANCH   6   7
ENDBRANCH   3   6
ENDBRANCH   1   2
BRANCH   1  22
ATOM     22  C   UNL A   1      32.270  29.868  27.182  1.00  0.00     0.023 C 
BRANCH  22  23
ATOM     23  C   UNL A   1      32.143  31.326  26.784  1.00  0.00     0.023 C 
BRANCH  23  24
ATOM     24  C   UNL A   1      33.104  32.253  27.498  1.00  0.00     0.116 C 
BRANCH  24  25
ATOM     25  N   UNL A   1      32.606  33.615  27.636  1.00  0.00    -0.352 N 
ATOM     26  C   UNL A   1      33.049  34.617  28.468  1.00  0.00     0.251 C 
ATOM     27  H   UNL A   1      31.849  33.852  27.053  1.00  0.00     0.163 HD
ATOM     28  O   UNL A   1      32.459  35.689  28.536  1.00  0.00    -0.269 OA
BRANCH  26  29
ATOM     29  C   UNL A   1      34.220  34.357  29.327  1.00  0.00     0.039 A 
ATOM     30  C   UNL A   1      34.024  33.768  30.577  1.00  0.00     0.014 A 
ATOM     31  C   UNL A   1      35.510  34.579  28.839  1.00  0.00     0.014 A 
ATOM     32  C   UNL A   1      35.126  33.298  31.290  1.00  0.00     0.010 A 
ATOM     33  C   UNL A   1      36.591  34.004  29.492  1.00  0.00     0.010 A 
ATOM     34  C   UNL A   1      36.410  33.350  30.720  1.00  0.00    -0.014 A 
BRANCH  34  35
ATOM     35  C   UNL A   1      37.576  32.705  31.372  1.00  0.00     0.031 A 
ATOM     36  C   UNL A   1      38.245  31.531  30.719  1.00  0.00     0.074 A 
ATOM     37  C   UNL A   1      37.962  33.111  32.599  1.00  0.00     0.049 A 
ATOM     38  N   UNL A   1      39.205  30.767  31.172  1.00  0.00    -0.248 NA
ATOM     39  C   UNL A   1      37.742  31.140  29.393  1.00  0.00     0.031 C 
ATOM     40  C   UNL A   1      37.344  34.195  33.365  1.00  0.00     0.029 A 
ATOM     41  N   UNL A   1      38.956  32.646  33.424  1.00  0.00    -0.354 N 
ATOM     42  C   UNL A   1      39.403  29.797  30.199  1.00  0.00     0.074 A 
ATOM     43  C   UNL A   1      38.422  30.028  29.163  1.00  0.00     0.031 C 
ATOM     44  C   UNL A   1      37.983  34.324  34.539  1.00  0.00     0.029 A 
ATOM     45  C   UNL A   1      39.021  33.302  34.630  1.00  0.00     0.049 A 
ATOM     46  H   UNL A   1      39.564  31.913  33.176  1.00  0.00     0.167 HD
ATOM     47  C   UNL A   1      40.338  28.818  30.163  1.00  0.00     0.037 A 
ATOM     48  C   UNL A   1      39.812  33.090  35.698  1.00  0.00     0.037 A 
ATOM     49  C   UNL A   1      41.323  28.610  31.191  1.00  0.00     0.049 A 
ATOM     50  C   UNL A   1      40.840  31.992  35.640  1.00  0.00     0.074 A 
ATOM     51  C   UNL A   1      42.370  27.706  31.211  1.00  0.00     0.029 A 
ATOM     52  N   UNL A   1      41.374  29.309  32.389  1.00  0.00    -0.354 N 
ATOM     53  N   UNL A   1      41.086  31.142  34.672  1.00  0.00    -0.248 NA
ATOM     54  C   UNL A   1      41.701  31.825  36.818  1.00  0.00     0.031 C 
ATOM     55  C   UNL A   1      43.010  27.809  32.450  1.00  0.00     0.029 A 
ATOM     56  C   UNL A   1      42.406  28.824  33.176  1.00  0.00     0.049 A 
ATOM     57  H   UNL A   1      40.767  30.042  32.642  1.00  0.00     0.167 HD
ATOM     58  C   UNL A   1      42.135  30.349  35.116  1.00  0.00     0.074 A 
ATOM     59  C   UNL A   1      42.495  30.835  36.432  1.00  0.00     0.031 C 
ATOM     60  C   UNL A   1      42.743  29.310  34.491  1.00  0.00     0.037 A 
BRANCH  47  61
ATOM     61  C   UNL A   1      40.324  27.891  28.981  1.00  0.00     0.064 A 
ATOM     62  C   UNL A   1      41.057  28.165  27.814  1.00  0.00     0.173 A 
ATOM     63  C   UNL A   1      39.575  26.705  29.018  1.00  0.00     0.173 A 
ATOM     64  F   UNL A   1      41.782  29.290  27.720  1.00  0.00    -0.203 F 
ATOM     65  C   UNL A   1      41.005  27.310  26.715  1.00  0.00     0.198 A 
ATOM     66  C   UNL A   1      39.555  25.834  27.931  1.00  0.00     0.198 A 
ATOM     67  F   UNL A   1      38.859  26.390  30.108  1.00  0.00    -0.203 F 
ATOM     68  F   UNL A   1      41.658  27.628  25.589  1.00  0.00    -0.200 F 
ATOM     69  C   UNL A   1      40.259  26.143  26.777  1.00  0.00     0.200 A 
ATOM     70  F   UNL A   1      38.846  24.699  27.998  1.00  0.00    -0.200 F 
ATOM     71  F   UNL A   1      40.210  25.320  25.720  1.00  0.00    -0.200 F 
ENDBRANCH  47  61
BRANCH  48  72
ATOM     72  C   UNL A   1      39.658  33.938  36.910  1.00  0.00     0.064 A 
ATOM     73  C   UNL A   1      40.287  35.186  37.008  1.00  0.00     0.173 A 
ATOM     74  C   UNL A   1      38.855  33.526  37.986  1.00  0.00     0.173 A 
ATOM     75  F   UNL A   1      41.079  35.616  36.016  1.00  0.00    -0.203 F 
ATOM     76  C   UNL A   1      40.129  35.984  38.140  1.00  0.00     0.198 A 
ATOM     77  C   UNL A   1      38.674  34.339  39.103  1.00  0.00     0.198 A 
ATOM     78  F   UNL A   1      38.226  32.343  37.940  1.00  0.00    -0.203 F 
ATOM     79  F   UNL A   1      40.773  37.157  38.224  1.00  0.00    -0.200 F 
ATOM     80  C   UNL A   1      39.317  35.565  39.182  1.00  0.00     0.200 A 
ATOM     81  F   UNL A   1      37.873  33.936  40.099  1.00  0.00    -0.200 F 
ATOM     82  F   UNL A   1      39.156  36.339  40.263  1.00  0.00    -0.200 F 
ENDBRANCH  48  72
BRANCH  60  83
ATOM     83  C   UNL A   1      43.867  28.630  35.218  1.00  0.00     0.064 A 
ATOM     84  C   UNL A   1      43.637  27.539  36.069  1.00  0.00     0.173 A 
ATOM     85  C   UNL A   1      45.196  29.035  35.016  1.00  0.00     0.173 A 
ATOM     86  F   UNL A   1      42.384  27.121  36.308  1.00  0.00    -0.203 F 
ATOM     87  C   UNL A   1      44.693  26.893  36.706  1.00  0.00     0.198 A 
ATOM     88  C   UNL A   1      46.251  28.366  35.627  1.00  0.00     0.198 A 
ATOM     89  F   UNL A   1      45.471  30.069  34.206  1.00  0.00    -0.203 F 
ATOM     90  F   UNL A   1      44.445  25.882  37.550  1.00  0.00    -0.200 F 
ATOM     91  C   UNL A   1      45.999  27.300  36.477  1.00  0.00     0.200 A 
ATOM     92  F   UNL A   1      47.512  28.750  35.390  1.00  0.00    -0.200 F 
ATOM     93  F   UNL A   1      47.015  26.667  37.079  1.00  0.00    -0.200 F 
ENDBRANCH  60  83
ENDBRANCH  34  35
ENDBRANCH  26  29
ENDBRANCH  24  25
ENDBRANCH  23  24
ENDBRANCH  22  23
ENDBRANCH   1  22
TORSDOF 15
ENDMDL
MODEL 2
REMARK VINA RESULT:     -11.7      5.966     11.146
REMARK SMILES CC(C)N1C[C@@H](C(=O)N[C@@H](C)CC(=O)NCCCCNC(=O)c2ccc(-c3c4nc(c(-c5c(F)c(F)c(F)c(F)c5F)c5ccc([nH]5)c(-c5c(F)c(F)c(F)c(F)c5F)c5nc(c(-c6c(F)c(F)c(F)c(F)c6F)c6ccc3[nH]6)C=C5)C=C4)cc2)CC1=O
REMARK SMILES IDX 16 1 15 2 13 3 14 4 12 6 10 7 11 8 9 9 7 10 8 11 6 13 4 14
REMARK SMILES IDX 5 15 87 16 86 17 88 18 2 19 1 20 3 21 17 22 18 23 19 24
REMARK SMILES IDX 20 25 21 26 22 28 23 29 24 30 85 31 25 32 84 33 26 34 27 35
REMARK SMILES IDX 28 36 78 37 29 38 83 39 77 40 79 41 30 42 82 43 76 44 75 45
REMARK SMILES IDX 31 47 63 48 43 49 62 50 44 51 47 52 61 53 80 54 45 55 46 56
REMARK SMILES IDX 60 58 81 59 48 60 32 61 33 62 41 63 34 64 35 65 39 66 42 67
REMARK SMILES IDX 36 68 37 69 40 70 38 71 64 72 65 73 73 74 66 75 67 76 71 77
REMARK SMILES IDX 74 78 68 79 69 80 72 81 70 82 49 83 50 84 58 85 51 86 52 87
REMARK SMILES IDX 56 88 59 89 53 90 54 91 57 92 55 93
REMARK H PARENT 15 5 9 12 20 27 79 46 47 57
REMARK Flexibility Score: inf
ROOT
ATOM      1  C   UNL A   1      36.888  22.734  24.100  1.00  0.00     0.116 C 
ENDROOT
BRANCH   1   2
ATOM      2  N   UNL A   1      36.018  23.828  24.488  1.00  0.00    -0.356 N 
ATOM      3  C   UNL A   1      34.818  24.198  23.959  1.00  0.00     0.222 C 
ATOM      4  O   UNL A   1      34.328  25.271  24.317  1.00  0.00    -0.275 OA
ATOM      5  H   UNL A   1      36.340  24.380  25.237  1.00  0.00     0.163 HD
BRANCH   3   6
ATOM      6  C   UNL A   1      34.103  23.306  22.966  1.00  0.00     0.124 C 
BRANCH   6   7
ATOM      7  C   UNL A   1      33.042  22.370  23.574  1.00  0.00     0.088 C 
ATOM      8  C   UNL A   1      31.709  23.120  23.645  1.00  0.00     0.031 C 
BRANCH   7   9
ATOM      9  N   UNL A   1      33.374  21.957  24.939  1.00  0.00    -0.353 N 
ATOM     10  C   UNL A   1      33.096  20.847  25.666  1.00  0.00     0.225 C 
ATOM     11  O   UNL A   1      33.389  20.897  26.866  1.00  0.00    -0.275 OA
ATOM     12  H   UNL A   1      33.908  22.623  25.430  1.00  0.00     0.163 HD
BRANCH  10  13
ATOM     13  C   UNL A   1      32.471  19.583  25.113  1.00  0.00     0.107 C 
ATOM     14  N   UNL A   1      33.088  17.383  24.548  1.00  0.00    -0.339 N 
ATOM     15  C   UNL A   1      32.923  18.253  25.687  1.00  0.00     0.133 C 
ATOM     16  C   UNL A   1      32.806  18.016  23.348  1.00  0.00     0.223 C 
ATOM     17  C   UNL A   1      32.652  19.486  23.610  1.00  0.00     0.115 C 
ATOM     18  O   UNL A   1      32.735  17.512  22.242  1.00  0.00    -0.275 OA
BRANCH  14  19
ATOM     19  C   UNL A   1      33.372  15.954  24.720  1.00  0.00     0.078 C 
ATOM     20  C   UNL A   1      34.808  15.726  25.181  1.00  0.00     0.031 C 
ATOM     21  C   UNL A   1      32.380  15.259  25.656  1.00  0.00     0.031 C 
ENDBRANCH  14  19
ENDBRANCH  10  13
ENDBRANCH   7   9
ENDBRANCH   6   7
ENDBRANCH   3   6
ENDBRANCH   1   2
BRANCH   1  22
ATOM     22  C   UNL A   1      37.057  21.750  25.253  1.00  0.00     0.023 C 
BRANCH  22  23
ATOM     23  C   UNL A   1      38.030  20.609  25.026  1.00  0.00     0.023 C 
BRANCH  23  24
ATOM     24  C   UNL A   1      39.325  20.731  25.801  1.00  0.00     0.116 C 
BRANCH  24  25
ATOM     25  N   UNL A   1      40.090  19.492  25.858  1.00  0.00    -0.352 N 
ATOM     26  C   UNL A   1      41.426  19.312  26.133  1.00  0.00     0.251 C 
ATOM     27  H   UNL A   1      39.580  18.670  25.674  1.00  0.00     0.163 HD
ATOM     28  O   UNL A   1      41.945  18.206  26.048  1.00  0.00    -0.269 OA
BRANCH  26  29
ATOM     29  C   UNL A   1      42.241  20.492  26.480  1.00  0.00     0.039 A 
ATOM     30  C   UNL A   1      42.885  21.191  25.458  1.00  0.00     0.014 A 
ATOM     31  C   UNL A   1      42.258  20.972  27.791  1.00  0.00     0.014 A 
ATOM     32  C   UNL A   1      43.453  22.435  25.735  1.00  0.00     0.010 A 
ATOM     33  C   UNL A   1      42.715  22.258  28.037  1.00  0.00     0.010 A 
ATOM     34  C   UNL A   1      43.310  23.007  27.011  1.00  0.00    -0.014 A 
BRANCH  34  35
ATOM     35  C   UNL A   1      43.748  24.397  27.292  1.00  0.00     0.031 A 
ATOM     36  C   UNL A   1      42.746  25.422  27.739  1.00  0.00     0.074 A 
ATOM     37  C   UNL A   1      45.023  24.757  27.043  1.00  0.00     0.049 A 
ATOM     38  N   UNL A   1      42.905  26.705  27.935  1.00  0.00    -0.248 NA
ATOM     39  C   UNL A   1      41.372  24.946  27.961  1.00  0.00     0.031 C 
ATOM     40  C   UNL A   1      46.071  23.867  26.538  1.00  0.00     0.029 A 
ATOM     41  N   UNL A   1      45.649  25.972  27.162  1.00  0.00    -0.354 N 
ATOM     42  C   UNL A   1      41.651  27.190  28.279  1.00  0.00     0.074 A 
ATOM     43  C   UNL A   1      40.730  26.079  28.204  1.00  0.00     0.031 C 
ATOM     44  C   UNL A   1      47.213  24.561  26.409  1.00  0.00     0.029 A 
ATOM     45  C   UNL A   1      46.967  25.953  26.773  1.00  0.00     0.049 A 
ATOM     46  H   UNL A   1      45.199  26.781  27.495  1.00  0.00     0.167 HD
ATOM     47  C   UNL A   1      41.306  28.445  28.651  1.00  0.00     0.037 A 
ATOM     48  C   UNL A   1      47.871  26.948  26.695  1.00  0.00     0.037 A 
ATOM     49  C   UNL A   1      42.236  29.540  28.743  1.00  0.00     0.049 A 
ATOM     50  C   UNL A   1      47.464  28.337  27.108  1.00  0.00     0.074 A 
ATOM     51  C   UNL A   1      42.008  30.827  29.195  1.00  0.00     0.029 A 
ATOM     52  N   UNL A   1      43.569  29.477  28.363  1.00  0.00    -0.354 N 
ATOM     53  N   UNL A   1      46.299  28.765  27.528  1.00  0.00    -0.248 NA
ATOM     54  C   UNL A   1      48.497  29.380  27.037  1.00  0.00     0.031 C 
ATOM     55  C   UNL A   1      43.185  31.563  29.022  1.00  0.00     0.029 A 
ATOM     56  C   UNL A   1      44.166  30.717  28.526  1.00  0.00     0.049 A 
ATOM     57  H   UNL A   1      44.024  28.671  28.028  1.00  0.00     0.167 HD
ATOM     58  C   UNL A   1      46.458  30.120  27.785  1.00  0.00     0.074 A 
ATOM     59  C   UNL A   1      47.842  30.437  27.495  1.00  0.00     0.031 C 
ATOM     60  C   UNL A   1      45.542  31.020  28.219  1.00  0.00     0.037 A 
BRANCH  47  61
ATOM     61  C   UNL A   1      39.860  28.700  28.970  1.00  0.00     0.064 A 
ATOM     62  C   UNL A   1      38.956  29.163  28.000  1.00  0.00     0.173 A 
ATOM     63  C   UNL A   1      39.368  28.469  30.264  1.00  0.00     0.173 A 
ATOM     64  F   UNL A   1      39.374  29.411  26.750  1.00  0.00    -0.203 F 
ATOM     65  C   UNL A   1      37.627  29.425  28.324  1.00  0.00     0.198 A 
ATOM     66  C   UNL A   1      38.029  28.696  30.574  1.00  0.00     0.198 A 
ATOM     67  F   UNL A   1      40.185  28.023  31.230  1.00  0.00    -0.203 F 
ATOM     68  F   UNL A   1      36.801  29.931  27.397  1.00  0.00    -0.200 F 
ATOM     69  C   UNL A   1      37.163  29.186  29.608  1.00  0.00     0.200 A 
ATOM     70  F   UNL A   1      37.580  28.451  31.812  1.00  0.00    -0.200 F 
ATOM     71  F   UNL A   1      35.884  29.438  29.918  1.00  0.00    -0.200 F 
ENDBRANCH  47  61
BRANCH  48  72
ATOM     72  C   UNL A   1      49.245  26.659  26.206  1.00  0.00     0.064 A 
ATOM     73  C   UNL A   1      49.602  26.884  24.870  1.00  0.00     0.173 A 
ATOM     74  C   UNL A   1      50.237  26.175  27.074  1.00  0.00     0.173 A 
ATOM     75  F   UNL A   1      48.687  27.327  23.998  1.00  0.00    -0.203 F 
ATOM     76  C   UNL A   1      50.895  26.625  24.418  1.00  0.00     0.198 A 
ATOM     77  C   UNL A   1      51.537  25.945  26.627  1.00  0.00     0.198 A 
ATOM     78  F   UNL A   1      49.949  25.948  28.364  1.00  0.00    -0.203 F 
ATOM     79  F   UNL A   1      51.201  26.812  23.126  1.00  0.00    -0.200 F 
ATOM     80  C   UNL A   1      51.863  26.164  25.297  1.00  0.00     0.200 A 
ATOM     81  F   UNL A   1      52.472  25.518  27.486  1.00  0.00    -0.200 F 
ATOM     82  F   UNL A   1      53.108  25.928  24.865  1.00  0.00    -0.200 F 
ENDBRANCH  48  72
BRANCH  60  83
ATOM     83  C   UNL A   1      46.003  32.436  28.415  1.00  0.00     0.064 A 
ATOM     84  C   UNL A   1      46.584  32.858  29.620  1.00  0.00     0.173 A 
ATOM     85  C   UNL A   1      45.916  33.366  27.367  1.00  0.00     0.173 A 
ATOM     86  F   UNL A   1      46.677  32.012  30.658  1.00  0.00    -0.203 F 
ATOM     87  C   UNL A   1      47.043  34.163  29.774  1.00  0.00     0.198 A 
ATOM     88  C   UNL A   1      46.406  34.660  27.514  1.00  0.00     0.198 A 
ATOM     89  F   UNL A   1      45.374  33.011  26.192  1.00  0.00    -0.203 F 
ATOM     90  F   UNL A   1      47.554  34.557  30.950  1.00  0.00    -0.200 F 
ATOM     91  C   UNL A   1      46.963  35.059  28.719  1.00  0.00     0.200 A 
ATOM     92  F   UNL A   1      46.344  35.518  26.487  1.00  0.00    -0.200 F 
ATOM     93  F   UNL A   1      47.418  36.311  28.865  1.00  0.00    -0.200 F 
ENDBRANCH  60  83
ENDBRANCH  34  35
ENDBRANCH  26  29
ENDBRANCH  24  25
ENDBRANCH  23  24
ENDBRANCH  22  23
ENDBRANCH   1  22
TORSDOF 15
ENDMDL
MODEL 3
REMARK VINA RESULT:     -11.7      5.597     11.038
REMARK SMILES CC(C)N1C[C@@H](C(=O)N[C@@H](C)CC(=O)NCCCCNC(=O)c2ccc(-c3c4nc(c(-c5c(F)c(F)c(F)c(F)c5F)c5ccc([nH]5)c(-c5c(F)c(F)c(F)c(F)c5F)c5nc(c(-c6c(F)c(F)c(F)c(F)c6F)c6ccc3[nH]6)C=C5)C=C4)cc2)CC1=O
REMARK SMILES IDX 16 1 15 2 13 3 14 4 12 6 10 7 11 8 9 9 7 10 8 11 6 13 4 14
REMARK SMILES IDX 5 15 87 16 86 17 88 18 2 19 1 20 3 21 17 22 18 23 19 24
REMARK SMILES IDX 20 25 21 26 22 28 23 29 24 30 85 31 25 32 84 33 26 34 27 35
REMARK SMILES IDX 28 36 78 37 29 38 83 39 77 40 79 41 30 42 82 43 76 44 75 45
REMARK SMILES IDX 31 47 63 48 43 49 62 50 44 51 47 52 61 53 80 54 45 55 46 56
REMARK SMILES IDX 60 58 81 59 48 60 32 61 33 62 41 63 34 64 35 65 39 66 42 67
REMARK SMILES IDX 36 68 37 69 40 70 38 71 64 72 65 73 73 74 66 75 67 76 71 77
REMARK SMILES IDX 74 78 68 79 69 80 72 81 70 82 49 83 50 84 58 85 51 86 52 87
REMARK SMILES IDX 56 88 59 89 53 90 54 91 57 92 55 93
REMARK H PARENT 15 5 9 12 20 27 79 46 47 57
REMARK Flexibility Score: inf
ROOT
ATOM      1  C   UNL A   1      36.743  23.159  25.464  1.00  0.00     0.116 C 
ENDROOT
BRANCH   1   2
ATOM      2  N   UNL A   1      35.988  22.524  26.528  1.00  0.00    -0.356 N 
ATOM      3  C   UNL A   1      34.672  22.170  26.552  1.00  0.00     0.222 C 
ATOM      4  O   UNL A   1      34.183  21.808  27.623  1.00  0.00    -0.275 OA
ATOM      5  H   UNL A   1      36.496  22.322  27.346  1.00  0.00     0.163 HD
BRANCH   3   6
ATOM      6  C   UNL A   1      33.838  22.211  25.288  1.00  0.00     0.124 C 
BRANCH   6   7
ATOM      7  C   UNL A   1      32.580  21.325  25.306  1.00  0.00     0.088 C 
ATOM      8  C   UNL A   1      32.019  21.236  23.884  1.00  0.00     0.031 C 
BRANCH   7   9
ATOM      9  N   UNL A   1      31.518  21.875  26.151  1.00  0.00    -0.353 N 
ATOM     10  C   UNL A   1      31.071  23.134  26.377  1.00  0.00     0.225 C 
ATOM     11  O   UNL A   1      30.254  23.263  27.296  1.00  0.00    -0.275 OA
ATOM     12  H   UNL A   1      31.028  21.188  26.659  1.00  0.00     0.163 HD
BRANCH  10  13
ATOM     13  C   UNL A   1      31.495  24.359  25.593  1.00  0.00     0.107 C 
ATOM     14  N   UNL A   1      31.401  26.706  25.755  1.00  0.00    -0.339 N 
ATOM     15  C   UNL A   1      32.021  25.555  26.365  1.00  0.00     0.133 C 
ATOM     16  C   UNL A   1      30.552  26.365  24.715  1.00  0.00     0.223 C 
ATOM     17  C   UNL A   1      30.367  24.875  24.719  1.00  0.00     0.115 C 
ATOM     18  O   UNL A   1      29.992  27.116  23.937  1.00  0.00    -0.275 OA
BRANCH  14  19
ATOM     19  C   UNL A   1      31.791  28.067  26.136  1.00  0.00     0.078 C 
ATOM     20  C   UNL A   1      31.589  28.304  27.629  1.00  0.00     0.031 C 
ATOM     21  C   UNL A   1      33.220  28.418  25.716  1.00  0.00     0.031 C 
ENDBRANCH  14  19
ENDBRANCH  10  13
ENDBRANCH   7   9
ENDBRANCH   6   7
ENDBRANCH   3   6
ENDBRANCH   1   2
BRANCH   1  22
ATOM     22  C   UNL A   1      37.358  22.109  24.546  1.00  0.00     0.023 C 
BRANCH  22  23
ATOM     23  C   UNL A   1      37.846  20.836  25.212  1.00  0.00     0.023 C 
BRANCH  23  24
ATOM     24  C   UNL A   1      39.215  20.950  25.847  1.00  0.00     0.116 C 
BRANCH  24  25
ATOM     25  N   UNL A   1      39.974  19.706  25.826  1.00  0.00    -0.352 N 
ATOM     26  C   UNL A   1      41.319  19.510  26.037  1.00  0.00     0.251 C 
ATOM     27  H   UNL A   1      39.452  18.894  25.634  1.00  0.00     0.163 HD
ATOM     28  O   UNL A   1      41.827  18.405  25.889  1.00  0.00    -0.269 OA
BRANCH  26  29
ATOM     29  C   UNL A   1      42.156  20.673  26.390  1.00  0.00     0.039 A 
ATOM     30  C   UNL A   1      42.686  21.460  25.366  1.00  0.00     0.014 A 
ATOM     31  C   UNL A   1      42.305  21.049  27.727  1.00  0.00     0.014 A 
ATOM     32  C   UNL A   1      43.269  22.687  25.682  1.00  0.00     0.010 A 
ATOM     33  C   UNL A   1      42.775  22.319  28.026  1.00  0.00     0.010 A 
ATOM     34  C   UNL A   1      43.254  23.155  27.007  1.00  0.00    -0.014 A 
BRANCH  34  35
ATOM     35  C   UNL A   1      43.707  24.526  27.351  1.00  0.00     0.031 A 
ATOM     36  C   UNL A   1      42.709  25.554  27.800  1.00  0.00     0.074 A 
ATOM     37  C   UNL A   1      44.996  24.869  27.158  1.00  0.00     0.049 A 
ATOM     38  N   UNL A   1      42.885  26.827  28.045  1.00  0.00    -0.248 NA
ATOM     39  C   UNL A   1      41.320  25.098  27.958  1.00  0.00     0.031 C 
ATOM     40  C   UNL A   1      46.045  23.977  26.658  1.00  0.00     0.029 A 
ATOM     41  N   UNL A   1      45.640  26.068  27.341  1.00  0.00    -0.354 N 
ATOM     42  C   UNL A   1      41.629  27.324  28.364  1.00  0.00     0.074 A 
ATOM     43  C   UNL A   1      40.691  26.234  28.218  1.00  0.00     0.031 C 
ATOM     44  C   UNL A   1      47.203  24.653  26.591  1.00  0.00     0.029 A 
ATOM     45  C   UNL A   1      46.970  26.036  26.995  1.00  0.00     0.049 A 
ATOM     46  H   UNL A   1      45.193  26.874  27.686  1.00  0.00     0.167 HD
ATOM     47  C   UNL A   1      41.294  28.572  28.767  1.00  0.00     0.037 A 
ATOM     48  C   UNL A   1      47.894  27.015  26.983  1.00  0.00     0.037 A 
ATOM     49  C   UNL A   1      42.240  29.645  28.929  1.00  0.00     0.049 A 
ATOM     50  C   UNL A   1      47.499  28.397  27.430  1.00  0.00     0.074 A 
ATOM     51  C   UNL A   1      42.021  30.920  29.417  1.00  0.00     0.029 A 
ATOM     52  N   UNL A   1      43.584  29.569  28.592  1.00  0.00    -0.354 N 
ATOM     53  N   UNL A   1      46.328  28.833  27.825  1.00  0.00    -0.248 NA
ATOM     54  C   UNL A   1      48.552  29.421  27.431  1.00  0.00     0.031 C 
ATOM     55  C   UNL A   1      43.216  31.638  29.310  1.00  0.00     0.029 A 
ATOM     56  C   UNL A   1      44.197  30.791  28.818  1.00  0.00     0.049 A 
ATOM     57  H   UNL A   1      44.036  28.766  28.244  1.00  0.00     0.167 HD
ATOM     58  C   UNL A   1      46.503  30.176  28.134  1.00  0.00     0.074 A 
ATOM     59  C   UNL A   1      47.901  30.476  27.903  1.00  0.00     0.031 C 
ATOM     60  C   UNL A   1      45.588  31.078  28.568  1.00  0.00     0.037 A 
BRANCH  47  61
ATOM     61  C   UNL A   1      39.843  28.844  29.046  1.00  0.00     0.064 A 
ATOM     62  C   UNL A   1      38.957  29.251  28.036  1.00  0.00     0.173 A 
ATOM     63  C   UNL A   1      39.328  28.685  30.341  1.00  0.00     0.173 A 
ATOM     64  F   UNL A   1      39.397  29.430  26.781  1.00  0.00    -0.203 F 
ATOM     65  C   UNL A   1      37.622  29.531  28.320  1.00  0.00     0.198 A 
ATOM     66  C   UNL A   1      37.984  28.929  30.615  1.00  0.00     0.198 A 
ATOM     67  F   UNL A   1      40.127  28.294  31.345  1.00  0.00    -0.203 F 
ATOM     68  F   UNL A   1      36.813  29.984  27.353  1.00  0.00    -0.200 F 
ATOM     69  C   UNL A   1      37.136  29.364  29.608  1.00  0.00     0.200 A 
ATOM     70  F   UNL A   1      37.513  28.752  31.856  1.00  0.00    -0.200 F 
ATOM     71  F   UNL A   1      35.851  29.632  29.881  1.00  0.00    -0.200 F 
ENDBRANCH  47  61
BRANCH  48  72
ATOM     72  C   UNL A   1      49.279  26.717  26.531  1.00  0.00     0.064 A 
ATOM     73  C   UNL A   1      49.669  26.925  25.202  1.00  0.00     0.173 A 
ATOM     74  C   UNL A   1      50.248  26.241  27.428  1.00  0.00     0.173 A 
ATOM     75  F   UNL A   1      48.776  27.360  24.302  1.00  0.00    -0.203 F 
ATOM     76  C   UNL A   1      50.971  26.656  24.784  1.00  0.00     0.198 A 
ATOM     77  C   UNL A   1      51.557  26.002  27.016  1.00  0.00     0.198 A 
ATOM     78  F   UNL A   1      49.928  26.030  28.714  1.00  0.00    -0.203 F 
ATOM     79  F   UNL A   1      51.309  26.827  23.497  1.00  0.00    -0.200 F 
ATOM     80  C   UNL A   1      51.916  26.204  25.692  1.00  0.00     0.200 A 
ATOM     81  F   UNL A   1      52.470  25.583  27.902  1.00  0.00    -0.200 F 
ATOM     82  F   UNL A   1      53.171  25.959  25.292  1.00  0.00    -0.200 F 
ENDBRANCH  48  72
BRANCH  60  83
ATOM     83  C   UNL A   1      46.068  32.477  28.829  1.00  0.00     0.064 A 
ATOM     84  C   UNL A   1      46.009  33.469  27.840  1.00  0.00     0.173 A 
ATOM     85  C   UNL A   1      46.539  32.844  30.099  1.00  0.00     0.173 A 
ATOM     86  F   UNL A   1      45.581  33.166  26.604  1.00  0.00    -0.203 F 
ATOM     87  C   UNL A   1      46.421  34.772  28.107  1.00  0.00     0.198 A 
ATOM     88  C   UNL A   1      46.918  34.155  30.372  1.00  0.00     0.198 A 
ATOM     89  F   UNL A   1      46.609  31.935  31.083  1.00  0.00    -0.203 F 
ATOM     90  F   UNL A   1      46.397  35.693  27.133  1.00  0.00    -0.200 F 
ATOM     91  C   UNL A   1      46.865  35.116  29.374  1.00  0.00     0.200 A 
ATOM     92  F   UNL A   1      47.329  34.488  31.603  1.00  0.00    -0.200 F 
ATOM     93  F   UNL A   1      47.247  36.374  29.634  1.00  0.00    -0.200 F 
ENDBRANCH  60  83
ENDBRANCH  34  35
ENDBRANCH  26  29
ENDBRANCH  24  25
ENDBRANCH  23  24
ENDBRANCH  22  23
ENDBRANCH   1  22
TORSDOF 15
ENDMDL
