MODEL 1
REMARK VINA RESULT:     -13.1      0.000      0.000
REMARK SMILES Cc1nsc(NC(=O)CC2([NH3+])CCC2)c1C(=O)NCCCCNC(=O)c1ccc(-c2c3nc(c(-c4c(F)c(F)c(F)c(F)c4F)c4ccc([nH]4)c(-c4c(F)c(F)c(F)c(F)c4F)c4nc(c(-c5c(F)c(F)c(F)c(F)c5F)c5ccc2[nH]5)C=C4)C=C3)cc1
REMARK SMILES IDX 19 1 18 2 16 3 17 4 15 6 1 7 2 8 3 9 4 10 5 11 6 12 7 13
REMARK SMILES IDX 8 15 9 16 10 17 12 18 14 19 13 20 11 21 20 25 21 26 22 27
REMARK SMILES IDX 23 28 24 29 25 31 26 32 27 33 88 34 28 35 87 36 29 37 30 38
REMARK SMILES IDX 31 39 81 40 32 41 86 42 80 43 82 44 33 45 85 46 79 47 78 48
REMARK SMILES IDX 34 50 66 51 46 52 65 53 47 54 50 55 64 56 83 57 48 58 49 59
REMARK SMILES IDX 63 61 84 62 51 63 35 64 36 65 44 66 37 67 38 68 42 69 45 70
REMARK SMILES IDX 39 71 40 72 43 73 41 74 67 75 68 76 76 77 69 78 70 79 74 80
REMARK SMILES IDX 77 81 71 82 72 83 75 84 73 85 52 86 53 87 61 88 54 89 55 90
REMARK SMILES IDX 59 91 62 92 56 93 57 94 60 95 58 96
REMARK H PARENT 18 5 6 14 11 22 11 23 11 24 23 30 82 49 50 60
REMARK Flexibility Score: inf
ROOT
ATOM      1  C   UNL A   1      32.459  27.572  26.496  1.00  0.00     0.116 C 
ENDROOT
BRANCH   1   2
ATOM      2  N   UNL A   1      31.825  26.351  26.939  1.00  0.00    -0.352 N 
ATOM      3  C   UNL A   1      31.620  25.128  26.360  1.00  0.00     0.256 C 
ATOM      4  O   UNL A   1      30.981  24.325  27.049  1.00  0.00    -0.269 OA
ATOM      5  H   UNL A   1      31.464  26.412  27.854  1.00  0.00     0.163 HD
BRANCH   3   6
ATOM      6  C   UNL A   1      32.217  24.715  25.090  1.00  0.00     0.097 A 
ATOM      7  C   UNL A   1      30.664  25.555  23.110  1.00  0.00     0.069 C 
ATOM      8  C   UNL A   1      31.913  25.002  23.700  1.00  0.00     0.066 A 
ATOM      9  N   UNL A   1      32.847  24.642  22.813  1.00  0.00    -0.195 NA
ATOM     10  S   UNL A   1      33.981  23.723  23.583  1.00  0.00    -0.017 S 
ATOM     11  C   UNL A   1      33.157  23.683  25.067  1.00  0.00     0.129 A 
BRANCH  11  12
ATOM     12  N   UNL A   1      33.535  22.846  26.091  1.00  0.00    -0.316 N 
ATOM     13  C   UNL A   1      33.334  21.507  26.249  1.00  0.00     0.231 C 
ATOM     14  H   UNL A   1      34.026  23.283  26.825  1.00  0.00     0.170 HD
ATOM     15  O   UNL A   1      33.781  20.992  27.283  1.00  0.00    -0.274 OA
BRANCH  13  16
ATOM     16  C   UNL A   1      32.502  20.666  25.297  1.00  0.00     0.168 C 
BRANCH  16  17
ATOM     17  C   UNL A   1      32.898  19.194  25.179  1.00  0.00     0.103 C 
ATOM     18  C   UNL A   1      32.386  18.269  24.034  1.00  0.00     0.069 C 
ATOM     19  C   UNL A   1      34.330  18.947  24.612  1.00  0.00     0.069 C 
ATOM     20  C   UNL A   1      33.804  17.685  23.899  1.00  0.00     0.013 C 
BRANCH  17  21
ATOM     21  N   UNL A   1      32.810  18.455  26.451  1.00  0.00    -0.352 N 
ATOM     22  H   UNL A   1      33.547  17.750  26.487  1.00  0.00     0.344 HD
ATOM     23  H   UNL A   1      31.900  17.998  26.516  1.00  0.00     0.344 HD
ATOM     24  H   UNL A   1      32.921  19.103  27.230  1.00  0.00     0.344 HD
ENDBRANCH  17  21
ENDBRANCH  16  17
ENDBRANCH  13  16
ENDBRANCH  11  12
ENDBRANCH   3   6
ENDBRANCH   1   2
BRANCH   1  25
ATOM     25  C   UNL A   1      31.870  28.769  27.252  1.00  0.00     0.023 C 
BRANCH  25  26
ATOM     26  C   UNL A   1      32.374  30.141  26.781  1.00  0.00     0.023 C 
BRANCH  26  27
ATOM     27  C   UNL A   1      33.784  30.487  27.243  1.00  0.00     0.116 C 
BRANCH  27  28
ATOM     28  N   UNL A   1      33.809  31.609  28.179  1.00  0.00    -0.352 N 
ATOM     29  C   UNL A   1      34.731  31.870  29.173  1.00  0.00     0.251 C 
ATOM     30  H   UNL A   1      33.075  32.259  28.090  1.00  0.00     0.163 HD
ATOM     31  O   UNL A   1      34.464  32.592  30.117  1.00  0.00    -0.269 OA
BRANCH  29  32
ATOM     32  C   UNL A   1      36.064  31.257  29.056  1.00  0.00     0.039 A 
ATOM     33  C   UNL A   1      37.220  32.040  29.066  1.00  0.00     0.014 A 
ATOM     34  C   UNL A   1      36.130  29.866  28.996  1.00  0.00     0.014 A 
ATOM     35  C   UNL A   1      38.457  31.403  29.106  1.00  0.00     0.010 A 
ATOM     36  C   UNL A   1      37.343  29.243  29.163  1.00  0.00     0.010 A 
ATOM     37  C   UNL A   1      38.512  30.002  29.179  1.00  0.00    -0.014 A 
BRANCH  37  38
ATOM     38  C   UNL A   1      39.787  29.323  29.394  1.00  0.00     0.031 A 
ATOM     39  C   UNL A   1      40.148  29.085  30.822  1.00  0.00     0.074 A 
ATOM     40  C   UNL A   1      40.482  28.746  28.391  1.00  0.00     0.049 A 
ATOM     41  N   UNL A   1      41.179  29.527  31.464  1.00  0.00    -0.248 NA
ATOM     42  C   UNL A   1      39.199  28.343  31.670  1.00  0.00     0.031 C 
ATOM     43  C   UNL A   1      40.098  28.613  26.980  1.00  0.00     0.029 A 
ATOM     44  N   UNL A   1      41.643  28.039  28.448  1.00  0.00    -0.354 N 
ATOM     45  C   UNL A   1      41.110  28.980  32.744  1.00  0.00     0.074 A 
ATOM     46  C   UNL A   1      39.801  28.394  32.859  1.00  0.00     0.031 C 
ATOM     47  C   UNL A   1      40.868  27.676  26.387  1.00  0.00     0.029 A 
ATOM     48  C   UNL A   1      41.905  27.274  27.318  1.00  0.00     0.049 A 
ATOM     49  H   UNL A   1      42.248  28.069  29.225  1.00  0.00     0.167 HD
ATOM     50  C   UNL A   1      42.225  28.861  33.520  1.00  0.00     0.037 A 
ATOM     51  C   UNL A   1      42.883  26.347  27.173  1.00  0.00     0.037 A 
ATOM     52  C   UNL A   1      43.286  29.709  33.033  1.00  0.00     0.049 A 
ATOM     53  C   UNL A   1      43.906  26.616  28.213  1.00  0.00     0.074 A 
ATOM     54  C   UNL A   1      43.429  31.068  32.830  1.00  0.00     0.029 A 
ATOM     55  N   UNL A   1      44.300  29.124  32.316  1.00  0.00    -0.354 N 
ATOM     56  N   UNL A   1      44.668  27.673  28.226  1.00  0.00    -0.248 NA
ATOM     57  C   UNL A   1      43.771  25.928  29.487  1.00  0.00     0.031 C 
ATOM     58  C   UNL A   1      44.177  31.182  31.620  1.00  0.00     0.029 A 
ATOM     59  C   UNL A   1      44.506  29.893  31.201  1.00  0.00     0.049 A 
ATOM     60  H   UNL A   1      44.789  28.304  32.559  1.00  0.00     0.167 HD
ATOM     61  C   UNL A   1      44.731  28.041  29.561  1.00  0.00     0.074 A 
ATOM     62  C   UNL A   1      44.247  26.877  30.298  1.00  0.00     0.031 C 
ATOM     63  C   UNL A   1      44.892  29.348  29.921  1.00  0.00     0.037 A 
BRANCH  50  64
ATOM     64  C   UNL A   1      42.497  27.719  34.475  1.00  0.00     0.064 A 
ATOM     65  C   UNL A   1      43.060  26.526  33.973  1.00  0.00     0.173 A 
ATOM     66  C   UNL A   1      41.945  27.626  35.771  1.00  0.00     0.173 A 
ATOM     67  F   UNL A   1      43.611  26.492  32.750  1.00  0.00    -0.203 F 
ATOM     68  C   UNL A   1      42.976  25.316  34.667  1.00  0.00     0.198 A 
ATOM     69  C   UNL A   1      41.910  26.428  36.483  1.00  0.00     0.198 A 
ATOM     70  F   UNL A   1      41.314  28.650  36.355  1.00  0.00    -0.203 F 
ATOM     71  F   UNL A   1      43.395  24.184  34.085  1.00  0.00    -0.200 F 
ATOM     72  C   UNL A   1      42.391  25.266  35.918  1.00  0.00     0.200 A 
ATOM     73  F   UNL A   1      41.326  26.397  37.689  1.00  0.00    -0.200 F 
ATOM     74  F   UNL A   1      42.242  24.098  36.555  1.00  0.00    -0.200 F 
ENDBRANCH  50  64
BRANCH  51  75
ATOM     75  C   UNL A   1      42.841  25.077  26.411  1.00  0.00     0.064 A 
ATOM     76  C   UNL A   1      43.714  24.852  25.335  1.00  0.00     0.173 A 
ATOM     77  C   UNL A   1      42.149  23.952  26.902  1.00  0.00     0.173 A 
ATOM     78  F   UNL A   1      44.439  25.862  24.834  1.00  0.00    -0.203 F 
ATOM     79  C   UNL A   1      43.912  23.573  24.806  1.00  0.00     0.198 A 
ATOM     80  C   UNL A   1      42.343  22.677  26.369  1.00  0.00     0.198 A 
ATOM     81  F   UNL A   1      41.349  24.048  27.974  1.00  0.00    -0.203 F 
ATOM     82  F   UNL A   1      44.808  23.386  23.827  1.00  0.00    -0.200 F 
ATOM     83  C   UNL A   1      43.237  22.484  25.333  1.00  0.00     0.200 A 
ATOM     84  F   UNL A   1      41.709  21.628  26.912  1.00  0.00    -0.200 F 
ATOM     85  F   UNL A   1      43.478  21.249  24.874  1.00  0.00    -0.200 F 
ENDBRANCH  51  75
BRANCH  63  86
ATOM     86  C   UNL A   1      45.285  30.328  28.850  1.00  0.00     0.064 A 
ATOM     87  C   UNL A   1      44.375  30.998  28.012  1.00  0.00     0.173 A 
ATOM     88  C   UNL A   1      46.636  30.687  28.746  1.00  0.00     0.173 A 
ATOM     89  F   UNL A   1      43.057  30.797  28.120  1.00  0.00    -0.203 F 
ATOM     90  C   UNL A   1      44.808  31.935  27.076  1.00  0.00     0.198 A 
ATOM     91  C   UNL A   1      47.060  31.653  27.838  1.00  0.00     0.198 A 
ATOM     92  F   UNL A   1      47.545  30.125  29.558  1.00  0.00    -0.203 F 
ATOM     93  F   UNL A   1      43.921  32.541  26.271  1.00  0.00    -0.200 F 
ATOM     94  C   UNL A   1      46.149  32.266  26.992  1.00  0.00     0.200 A 
ATOM     95  F   UNL A   1      48.352  32.005  27.798  1.00  0.00    -0.200 F 
ATOM     96  F   UNL A   1      46.563  33.191  26.115  1.00  0.00    -0.200 F 
ENDBRANCH  63  86
ENDBRANCH  37  38
ENDBRANCH  29  32
ENDBRANCH  27  28
ENDBRANCH  26  27
ENDBRANCH  25  26
ENDBRANCH   1  25
TORSDOF 15
ENDMDL
MODEL 2
REMARK VINA RESULT:     -13.1      1.446      2.138
REMARK SMILES Cc1nsc(NC(=O)CC2([NH3+])CCC2)c1C(=O)NCCCCNC(=O)c1ccc(-c2c3nc(c(-c4c(F)c(F)c(F)c(F)c4F)c4ccc([nH]4)c(-c4c(F)c(F)c(F)c(F)c4F)c4nc(c(-c5c(F)c(F)c(F)c(F)c5F)c5ccc2[nH]5)C=C4)C=C3)cc1
REMARK SMILES IDX 19 1 18 2 16 3 17 4 15 6 1 7 2 8 3 9 4 10 5 11 6 12 7 13
REMARK SMILES IDX 8 15 9 16 10 17 12 18 14 19 13 20 11 21 20 25 21 26 22 27
REMARK SMILES IDX 23 28 24 29 25 31 26 32 27 33 88 34 28 35 87 36 29 37 30 38
REMARK SMILES IDX 31 39 81 40 32 41 86 42 80 43 82 44 33 45 85 46 79 47 78 48
REMARK SMILES IDX 34 50 66 51 46 52 65 53 47 54 50 55 64 56 83 57 48 58 49 59
REMARK SMILES IDX 63 61 84 62 51 63 35 64 36 65 44 66 37 67 38 68 42 69 45 70
REMARK SMILES IDX 39 71 40 72 43 73 41 74 67 75 68 76 76 77 69 78 70 79 74 80
REMARK SMILES IDX 77 81 71 82 72 83 75 84 73 85 52 86 53 87 61 88 54 89 55 90
REMARK SMILES IDX 59 91 62 92 56 93 57 94 60 95 58 96
REMARK H PARENT 18 5 6 14 11 22 11 23 11 24 23 30 82 49 50 60
REMARK Flexibility Score: inf
ROOT
ATOM      1  C   UNL A   1      34.194  28.714  26.590  1.00  0.00     0.116 C 
ENDROOT
BRANCH   1   2
ATOM      2  N   UNL A   1      33.034  28.336  27.365  1.00  0.00    -0.352 N 
ATOM      3  C   UNL A   1      31.787  27.877  27.037  1.00  0.00     0.256 C 
ATOM      4  O   UNL A   1      31.027  27.701  27.995  1.00  0.00    -0.269 OA
ATOM      5  H   UNL A   1      33.169  28.428  28.336  1.00  0.00     0.163 HD
BRANCH   3   6
ATOM      6  C   UNL A   1      31.393  27.475  25.686  1.00  0.00     0.097 A 
ATOM      7  C   UNL A   1      30.861  29.657  24.274  1.00  0.00     0.069 C 
ATOM      8  C   UNL A   1      31.135  28.206  24.459  1.00  0.00     0.066 A 
ATOM      9  N   UNL A   1      31.043  27.467  23.348  1.00  0.00    -0.195 NA
ATOM     10  S   UNL A   1      31.000  25.874  23.777  1.00  0.00    -0.017 S 
ATOM     11  C   UNL A   1      30.959  26.170  25.448  1.00  0.00     0.129 A 
BRANCH  11  12
ATOM     12  N   UNL A   1      30.694  25.176  26.361  1.00  0.00    -0.316 N 
ATOM     13  C   UNL A   1      31.448  24.102  26.733  1.00  0.00     0.231 C 
ATOM     14  H   UNL A   1      29.824  25.251  26.817  1.00  0.00     0.170 HD
ATOM     15  O   UNL A   1      30.964  23.348  27.587  1.00  0.00    -0.274 OA
BRANCH  13  16
ATOM     16  C   UNL A   1      32.765  23.734  26.072  1.00  0.00     0.168 C 
BRANCH  16  17
ATOM     17  C   UNL A   1      32.973  22.250  25.770  1.00  0.00     0.103 C 
ATOM     18  C   UNL A   1      32.022  21.433  24.845  1.00  0.00     0.069 C 
ATOM     19  C   UNL A   1      34.094  21.948  24.727  1.00  0.00     0.069 C 
ATOM     20  C   UNL A   1      33.252  20.769  24.199  1.00  0.00     0.013 C 
BRANCH  17  21
ATOM     21  N   UNL A   1      33.273  21.439  26.964  1.00  0.00    -0.352 N 
ATOM     22  H   UNL A   1      34.162  21.740  27.365  1.00  0.00     0.344 HD
ATOM     23  H   UNL A   1      33.335  20.456  26.700  1.00  0.00     0.344 HD
ATOM     24  H   UNL A   1      32.531  21.560  27.652  1.00  0.00     0.344 HD
ENDBRANCH  17  21
ENDBRANCH  16  17
ENDBRANCH  13  16
ENDBRANCH  11  12
ENDBRANCH   3   6
ENDBRANCH   1   2
BRANCH   1  25
ATOM     25  C   UNL A   1      34.851  29.954  27.210  1.00  0.00     0.023 C 
BRANCH  25  26
ATOM     26  C   UNL A   1      33.871  31.050  27.651  1.00  0.00     0.023 C 
BRANCH  26  27
ATOM     27  C   UNL A   1      34.526  32.385  27.983  1.00  0.00     0.116 C 
BRANCH  27  28
ATOM     28  N   UNL A   1      34.431  32.720  29.402  1.00  0.00    -0.352 N 
ATOM     29  C   UNL A   1      35.115  32.154  30.460  1.00  0.00     0.251 C 
ATOM     30  H   UNL A   1      33.799  33.439  29.633  1.00  0.00     0.163 HD
ATOM     31  O   UNL A   1      34.701  32.231  31.602  1.00  0.00    -0.269 OA
BRANCH  29  32
ATOM     32  C   UNL A   1      36.378  31.456  30.170  1.00  0.00     0.039 A 
ATOM     33  C   UNL A   1      37.539  32.168  29.860  1.00  0.00     0.014 A 
ATOM     34  C   UNL A   1      36.386  30.066  30.275  1.00  0.00     0.014 A 
ATOM     35  C   UNL A   1      38.738  31.471  29.744  1.00  0.00     0.010 A 
ATOM     36  C   UNL A   1      37.587  29.399  30.286  1.00  0.00     0.010 A 
ATOM     37  C   UNL A   1      38.761  30.087  29.982  1.00  0.00    -0.014 A 
BRANCH  37  38
ATOM     38  C   UNL A   1      40.030  29.368  30.034  1.00  0.00     0.031 A 
ATOM     39  C   UNL A   1      40.588  29.158  31.403  1.00  0.00     0.074 A 
ATOM     40  C   UNL A   1      40.553  28.735  28.962  1.00  0.00     0.049 A 
ATOM     41  N   UNL A   1      41.715  29.580  31.873  1.00  0.00    -0.248 NA
ATOM     42  C   UNL A   1      39.747  28.478  32.403  1.00  0.00     0.031 C 
ATOM     43  C   UNL A   1      39.964  28.576  27.626  1.00  0.00     0.029 A 
ATOM     44  N   UNL A   1      41.686  27.987  28.875  1.00  0.00    -0.354 N 
ATOM     45  C   UNL A   1      41.814  29.074  33.169  1.00  0.00     0.074 A 
ATOM     46  C   UNL A   1      40.517  28.541  33.492  1.00  0.00     0.031 C 
ATOM     47  C   UNL A   1      40.608  27.594  26.962  1.00  0.00     0.029 A 
ATOM     48  C   UNL A   1      41.755  27.180  27.747  1.00  0.00     0.049 A 
ATOM     49  H   UNL A   1      42.398  28.017  29.555  1.00  0.00     0.167 HD
ATOM     50  C   UNL A   1      43.026  28.936  33.779  1.00  0.00     0.037 A 
ATOM     51  C   UNL A   1      42.670  26.213  27.495  1.00  0.00     0.037 A 
ATOM     52  C   UNL A   1      44.032  29.728  33.115  1.00  0.00     0.049 A 
ATOM     53  C   UNL A   1      43.843  26.473  28.365  1.00  0.00     0.074 A 
ATOM     54  C   UNL A   1      44.189  31.074  32.847  1.00  0.00     0.029 A 
ATOM     55  N   UNL A   1      44.911  29.084  32.280  1.00  0.00    -0.354 N 
ATOM     56  N   UNL A   1      44.632  27.501  28.232  1.00  0.00    -0.248 NA
ATOM     57  C   UNL A   1      43.871  25.829  29.669  1.00  0.00     0.031 C 
ATOM     58  C   UNL A   1      44.757  31.124  31.538  1.00  0.00     0.029 A 
ATOM     59  C   UNL A   1      44.978  29.812  31.121  1.00  0.00     0.049 A 
ATOM     60  H   UNL A   1      45.403  28.254  32.478  1.00  0.00     0.167 HD
ATOM     61  C   UNL A   1      44.901  27.906  29.531  1.00  0.00     0.074 A 
ATOM     62  C   UNL A   1      44.491  26.782  30.370  1.00  0.00     0.031 C 
ATOM     63  C   UNL A   1      45.156  29.215  29.818  1.00  0.00     0.037 A 
BRANCH  50  64
ATOM     64  C   UNL A   1      43.396  27.813  34.724  1.00  0.00     0.064 A 
ATOM     65  C   UNL A   1      43.815  28.131  36.033  1.00  0.00     0.173 A 
ATOM     66  C   UNL A   1      43.664  26.490  34.311  1.00  0.00     0.173 A 
ATOM     67  F   UNL A   1      43.618  29.360  36.535  1.00  0.00    -0.203 F 
ATOM     68  C   UNL A   1      44.539  27.231  36.821  1.00  0.00     0.198 A 
ATOM     69  C   UNL A   1      44.340  25.577  35.119  1.00  0.00     0.198 A 
ATOM     70  F   UNL A   1      43.392  26.058  33.075  1.00  0.00    -0.203 F 
ATOM     71  F   UNL A   1      45.039  27.629  37.998  1.00  0.00    -0.200 F 
ATOM     72  C   UNL A   1      44.810  25.958  36.358  1.00  0.00     0.200 A 
ATOM     73  F   UNL A   1      44.606  24.352  34.647  1.00  0.00    -0.200 F 
ATOM     74  F   UNL A   1      45.565  25.117  37.077  1.00  0.00    -0.200 F 
ENDBRANCH  50  64
BRANCH  51  75
ATOM     75  C   UNL A   1      42.476  24.923  26.791  1.00  0.00     0.064 A 
ATOM     76  C   UNL A   1      43.131  24.658  25.578  1.00  0.00     0.173 A 
ATOM     77  C   UNL A   1      41.879  23.821  27.434  1.00  0.00     0.173 A 
ATOM     78  F   UNL A   1      43.759  25.644  24.921  1.00  0.00    -0.203 F 
ATOM     79  C   UNL A   1      43.217  23.362  25.059  1.00  0.00     0.198 A 
ATOM     80  C   UNL A   1      41.958  22.530  26.912  1.00  0.00     0.198 A 
ATOM     81  F   UNL A   1      41.293  23.958  28.633  1.00  0.00    -0.203 F 
ATOM     82  F   UNL A   1      43.912  23.136  23.935  1.00  0.00    -0.200 F 
ATOM     83  C   UNL A   1      42.642  22.297  25.733  1.00  0.00     0.200 A 
ATOM     84  F   UNL A   1      41.428  21.505  27.594  1.00  0.00    -0.200 F 
ATOM     85  F   UNL A   1      42.783  21.047  25.274  1.00  0.00    -0.200 F 
ENDBRANCH  51  75
BRANCH  63  86
ATOM     86  C   UNL A   1      45.421  30.147  28.669  1.00  0.00     0.064 A 
ATOM     87  C   UNL A   1      44.423  30.832  27.953  1.00  0.00     0.173 A 
ATOM     88  C   UNL A   1      46.754  30.446  28.354  1.00  0.00     0.173 A 
ATOM     89  F   UNL A   1      43.128  30.690  28.262  1.00  0.00    -0.203 F 
ATOM     90  C   UNL A   1      44.745  31.724  26.932  1.00  0.00     0.198 A 
ATOM     91  C   UNL A   1      47.074  31.368  27.361  1.00  0.00     0.198 A 
ATOM     92  F   UNL A   1      47.752  29.869  29.041  1.00  0.00    -0.203 F 
ATOM     93  F   UNL A   1      43.772  32.345  26.248  1.00  0.00    -0.200 F 
ATOM     94  C   UNL A   1      46.071  31.995  26.639  1.00  0.00     0.200 A 
ATOM     95  F   UNL A   1      48.358  31.664  27.119  1.00  0.00    -0.200 F 
ATOM     96  F   UNL A   1      46.383  32.878  25.680  1.00  0.00    -0.200 F 
ENDBRANCH  63  86
ENDBRANCH  37  38
ENDBRANCH  29  32
ENDBRANCH  27  28
ENDBRANCH  26  27
ENDBRANCH  25  26
ENDBRANCH   1  25
TORSDOF 15
ENDMDL
MODEL 3
REMARK VINA RESULT:     -12.8      2.997      8.799
REMARK SMILES Cc1nsc(NC(=O)CC2([NH3+])CCC2)c1C(=O)NCCCCNC(=O)c1ccc(-c2c3nc(c(-c4c(F)c(F)c(F)c(F)c4F)c4ccc([nH]4)c(-c4c(F)c(F)c(F)c(F)c4F)c4nc(c(-c5c(F)c(F)c(F)c(F)c5F)c5ccc2[nH]5)C=C4)C=C3)cc1
REMARK SMILES IDX 19 1 18 2 16 3 17 4 15 6 1 7 2 8 3 9 4 10 5 11 6 12 7 13
REMARK SMILES IDX 8 15 9 16 10 17 12 18 14 19 13 20 11 21 20 25 21 26 22 27
REMARK SMILES IDX 23 28 24 29 25 31 26 32 27 33 88 34 28 35 87 36 29 37 30 38
REMARK SMILES IDX 31 39 81 40 32 41 86 42 80 43 82 44 33 45 85 46 79 47 78 48
REMARK SMILES IDX 34 50 66 51 46 52 65 53 47 54 50 55 64 56 83 57 48 58 49 59
REMARK SMILES IDX 63 61 84 62 51 63 35 64 36 65 44 66 37 67 38 68 42 69 45 70
REMARK SMILES IDX 39 71 40 72 43 73 41 74 67 75 68 76 76 77 69 78 70 79 74 80
REMARK SMILES IDX 77 81 71 82 72 83 75 84 73 85 52 86 53 87 61 88 54 89 55 90
REMARK SMILES IDX 59 91 62 92 56 93 57 94 60 95 58 96
REMARK H PARENT 18 5 6 14 11 22 11 23 11 24 23 30 82 49 50 60
REMARK Flexibility Score: inf
ROOT
ATOM      1  C   UNL A   1      37.328  23.100  25.776  1.00  0.00     0.116 C 
ENDROOT
BRANCH   1   2
ATOM      2  N   UNL A   1      36.285  22.155  26.110  1.00  0.00    -0.352 N 
ATOM      3  C   UNL A   1      35.022  21.934  25.632  1.00  0.00     0.256 C 
ATOM      4  O   UNL A   1      34.394  21.042  26.211  1.00  0.00    -0.269 OA
ATOM      5  H   UNL A   1      36.539  21.538  26.834  1.00  0.00     0.163 HD
BRANCH   3   6
ATOM      6  C   UNL A   1      34.475  22.581  24.439  1.00  0.00     0.097 A 
ATOM      7  C   UNL A   1      36.465  23.093  22.762  1.00  0.00     0.069 C 
ATOM      8  C   UNL A   1      35.037  22.952  23.154  1.00  0.00     0.066 A 
ATOM      9  N   UNL A   1      34.154  23.301  22.210  1.00  0.00    -0.195 NA
ATOM     10  S   UNL A   1      32.666  23.446  22.907  1.00  0.00    -0.017 S 
ATOM     11  C   UNL A   1      33.217  23.186  24.492  1.00  0.00     0.129 A 
BRANCH  11  12
ATOM     12  N   UNL A   1      32.419  23.407  25.590  1.00  0.00    -0.316 N 
ATOM     13  C   UNL A   1      32.179  24.556  26.284  1.00  0.00     0.231 C 
ATOM     14  H   UNL A   1      31.948  22.611  25.928  1.00  0.00     0.170 HD
ATOM     15  O   UNL A   1      31.411  24.476  27.251  1.00  0.00    -0.274 OA
BRANCH  13  16
ATOM     16  C   UNL A   1      32.892  25.868  26.004  1.00  0.00     0.168 C 
BRANCH  16  17
ATOM     17  C   UNL A   1      32.009  27.115  25.956  1.00  0.00     0.103 C 
ATOM     18  C   UNL A   1      32.464  28.448  25.290  1.00  0.00     0.069 C 
ATOM     19  C   UNL A   1      30.878  27.072  24.883  1.00  0.00     0.069 C 
ATOM     20  C   UNL A   1      31.065  28.587  24.660  1.00  0.00     0.013 C 
BRANCH  17  21
ATOM     21  N   UNL A   1      31.364  27.433  27.243  1.00  0.00    -0.352 N 
ATOM     22  H   UNL A   1      32.062  27.420  27.986  1.00  0.00     0.344 HD
ATOM     23  H   UNL A   1      30.643  26.739  27.442  1.00  0.00     0.344 HD
ATOM     24  H   UNL A   1      30.939  28.358  27.191  1.00  0.00     0.344 HD
ENDBRANCH  17  21
ENDBRANCH  16  17
ENDBRANCH  13  16
ENDBRANCH  11  12
ENDBRANCH   3   6
ENDBRANCH   1   2
BRANCH   1  25
ATOM     25  C   UNL A   1      38.599  22.773  26.569  1.00  0.00     0.023 C 
BRANCH  25  26
ATOM     26  C   UNL A   1      39.341  21.512  26.104  1.00  0.00     0.023 C 
BRANCH  26  27
ATOM     27  C   UNL A   1      40.662  21.258  26.821  1.00  0.00     0.116 C 
BRANCH  27  28
ATOM     28  N   UNL A   1      41.821  21.531  25.974  1.00  0.00    -0.352 N 
ATOM     29  C   UNL A   1      42.350  22.757  25.620  1.00  0.00     0.251 C 
ATOM     30  H   UNL A   1      42.284  20.741  25.610  1.00  0.00     0.163 HD
ATOM     31  O   UNL A   1      43.055  22.887  24.636  1.00  0.00    -0.269 OA
BRANCH  29  32
ATOM     32  C   UNL A   1      42.044  23.913  26.477  1.00  0.00     0.039 A 
ATOM     33  C   UNL A   1      42.544  23.996  27.778  1.00  0.00     0.014 A 
ATOM     34  C   UNL A   1      41.290  24.946  25.923  1.00  0.00     0.014 A 
ATOM     35  C   UNL A   1      42.354  25.176  28.493  1.00  0.00     0.010 A 
ATOM     36  C   UNL A   1      41.213  26.150  26.580  1.00  0.00     0.010 A 
ATOM     37  C   UNL A   1      41.707  26.260  27.879  1.00  0.00    -0.014 A 
BRANCH  37  38
ATOM     38  C   UNL A   1      41.649  27.558  28.544  1.00  0.00     0.031 A 
ATOM     39  C   UNL A   1      42.746  28.506  28.190  1.00  0.00     0.074 A 
ATOM     40  C   UNL A   1      40.570  27.967  29.247  1.00  0.00     0.049 A 
ATOM     41  N   UNL A   1      43.626  29.029  28.978  1.00  0.00    -0.248 NA
ATOM     42  C   UNL A   1      42.951  28.839  26.770  1.00  0.00     0.031 C 
ATOM     43  C   UNL A   1      39.283  27.281  29.416  1.00  0.00     0.029 A 
ATOM     44  N   UNL A   1      40.353  29.158  29.868  1.00  0.00    -0.354 N 
ATOM     45  C   UNL A   1      44.389  29.895  28.195  1.00  0.00     0.074 A 
ATOM     46  C   UNL A   1      44.031  29.620  26.829  1.00  0.00     0.031 C 
ATOM     47  C   UNL A   1      38.360  28.156  29.867  1.00  0.00     0.029 A 
ATOM     48  C   UNL A   1      39.023  29.406  30.184  1.00  0.00     0.049 A 
ATOM     49  H   UNL A   1      41.078  29.791  30.078  1.00  0.00     0.167 HD
ATOM     50  C   UNL A   1      45.085  30.924  28.758  1.00  0.00     0.037 A 
ATOM     51  C   UNL A   1      38.499  30.570  30.637  1.00  0.00     0.037 A 
ATOM     52  C   UNL A   1      45.248  30.722  30.176  1.00  0.00     0.049 A 
ATOM     53  C   UNL A   1      39.616  31.373  31.192  1.00  0.00     0.074 A 
ATOM     54  C   UNL A   1      45.833  29.744  30.957  1.00  0.00     0.029 A 
ATOM     55  N   UNL A   1      44.438  31.432  31.027  1.00  0.00    -0.354 N 
ATOM     56  N   UNL A   1      40.280  31.050  32.265  1.00  0.00    -0.248 NA
ATOM     57  C   UNL A   1      40.290  32.300  30.296  1.00  0.00     0.031 C 
ATOM     58  C   UNL A   1      44.964  29.603  32.082  1.00  0.00     0.029 A 
ATOM     59  C   UNL A   1      43.948  30.550  31.954  1.00  0.00     0.049 A 
ATOM     60  H   UNL A   1      44.244  32.397  30.979  1.00  0.00     0.167 HD
ATOM     61  C   UNL A   1      41.599  31.355  31.965  1.00  0.00     0.074 A 
ATOM     62  C   UNL A   1      41.530  32.212  30.784  1.00  0.00     0.031 C 
ATOM     63  C   UNL A   1      42.625  30.649  32.523  1.00  0.00     0.037 A 
BRANCH  50  64
ATOM     64  C   UNL A   1      45.288  32.282  28.122  1.00  0.00     0.064 A 
ATOM     65  C   UNL A   1      44.159  33.082  27.841  1.00  0.00     0.173 A 
ATOM     66  C   UNL A   1      46.484  32.688  27.493  1.00  0.00     0.173 A 
ATOM     67  F   UNL A   1      42.964  32.791  28.378  1.00  0.00    -0.203 F 
ATOM     68  C   UNL A   1      44.204  34.133  26.920  1.00  0.00     0.198 A 
ATOM     69  C   UNL A   1      46.538  33.771  26.616  1.00  0.00     0.198 A 
ATOM     70  F   UNL A   1      47.622  31.994  27.604  1.00  0.00    -0.203 F 
ATOM     71  F   UNL A   1      43.075  34.768  26.579  1.00  0.00    -0.200 F 
ATOM     72  C   UNL A   1      45.392  34.470  26.301  1.00  0.00     0.200 A 
ATOM     73  F   UNL A   1      47.696  34.073  26.014  1.00  0.00    -0.200 F 
ATOM     74  F   UNL A   1      45.426  35.427  25.365  1.00  0.00    -0.200 F 
ENDBRANCH  50  64
BRANCH  51  75
ATOM     75  C   UNL A   1      37.169  31.156  30.346  1.00  0.00     0.064 A 
ATOM     76  C   UNL A   1      36.289  31.499  31.385  1.00  0.00     0.173 A 
ATOM     77  C   UNL A   1      36.854  31.657  29.067  1.00  0.00     0.173 A 
ATOM     78  F   UNL A   1      36.537  31.096  32.639  1.00  0.00    -0.203 F 
ATOM     79  C   UNL A   1      35.182  32.325  31.165  1.00  0.00     0.198 A 
ATOM     80  C   UNL A   1      35.745  32.475  28.848  1.00  0.00     0.198 A 
ATOM     81  F   UNL A   1      37.671  31.446  28.025  1.00  0.00    -0.203 F 
ATOM     82  F   UNL A   1      34.405  32.690  32.195  1.00  0.00    -0.200 F 
ATOM     83  C   UNL A   1      34.919  32.823  29.900  1.00  0.00     0.200 A 
ATOM     84  F   UNL A   1      35.524  32.978  27.625  1.00  0.00    -0.200 F 
ATOM     85  F   UNL A   1      33.900  33.670  29.702  1.00  0.00    -0.200 F 
ENDBRANCH  51  75
BRANCH  63  86
ATOM     86  C   UNL A   1      42.306  29.740  33.677  1.00  0.00     0.064 A 
ATOM     87  C   UNL A   1      41.875  28.407  33.544  1.00  0.00     0.173 A 
ATOM     88  C   UNL A   1      42.558  30.204  34.975  1.00  0.00     0.173 A 
ATOM     89  F   UNL A   1      41.716  27.848  32.339  1.00  0.00    -0.203 F 
ATOM     90  C   UNL A   1      41.649  27.603  34.660  1.00  0.00     0.198 A 
ATOM     91  C   UNL A   1      42.371  29.387  36.086  1.00  0.00     0.198 A 
ATOM     92  F   UNL A   1      43.027  31.447  35.164  1.00  0.00    -0.203 F 
ATOM     93  F   UNL A   1      41.213  26.344  34.505  1.00  0.00    -0.200 F 
ATOM     94  C   UNL A   1      41.901  28.092  35.930  1.00  0.00     0.200 A 
ATOM     95  F   UNL A   1      42.667  29.849  37.308  1.00  0.00    -0.200 F 
ATOM     96  F   UNL A   1      41.717  27.310  37.003  1.00  0.00    -0.200 F 
ENDBRANCH  63  86
ENDBRANCH  37  38
ENDBRANCH  29  32
ENDBRANCH  27  28
ENDBRANCH  26  27
ENDBRANCH  25  26
ENDBRANCH   1  25
TORSDOF 15
ENDMDL
