MODEL 1
REMARK VINA RESULT:     -12.1      0.000      0.000
REMARK SMILES O=C(/C=C/C(=O)c1ccc(F)c(Br)c1)NCCCCNC(=O)c1ccc(-c2c3nc(c(-c4c(F)c(F)c(F)c(F)c4F)c4ccc([nH]4)c(-c4c(F)c(F)c(F)c(F)c4F)c4nc(c(-c5c(F)c(F)c(F)c(F)c5F)c5ccc2[nH]5)C=C4)C=C3)cc1
REMARK SMILES IDX 17 1 16 2 15 3 1 4 2 5 3 7 4 8 5 9 6 10 7 11 8 12 14 13 9 14
REMARK SMILES IDX 12 15 10 16 13 17 11 18 18 19 19 20 20 21 21 22 22 24 23 25
REMARK SMILES IDX 24 26 85 27 25 28 84 29 26 30 27 31 28 32 78 33 29 34 83 35
REMARK SMILES IDX 77 36 79 37 30 38 82 39 76 40 75 41 31 43 63 44 43 45 62 46
REMARK SMILES IDX 44 47 47 48 61 49 80 50 45 51 46 52 60 54 81 55 48 56 32 57
REMARK SMILES IDX 33 58 41 59 34 60 35 61 39 62 42 63 36 64 37 65 40 66 38 67
REMARK SMILES IDX 64 68 65 69 73 70 66 71 67 72 71 73 74 74 68 75 69 76 72 77
REMARK SMILES IDX 70 78 49 79 50 80 58 81 51 82 52 83 56 84 59 85 53 86 54 87
REMARK SMILES IDX 57 88 55 89
REMARK H PARENT 15 6 20 23 79 42 47 53
REMARK Flexibility Score: inf
ROOT
ATOM      1  C   UNL A   1      31.705  30.773  25.978  1.00  0.00     0.023 C 
ENDROOT
BRANCH   1   2
ATOM      2  C   UNL A   1      33.062  30.185  26.366  1.00  0.00     0.116 C 
BRANCH   2   3
ATOM      3  N   UNL A   1      33.486  29.150  25.441  1.00  0.00    -0.353 N 
ATOM      4  O   UNL A   1      32.753  27.396  26.724  1.00  0.00    -0.270 OA
ATOM      5  C   UNL A   1      33.308  27.822  25.718  1.00  0.00     0.244 C 
ATOM      6  H   UNL A   1      33.911  29.410  24.593  1.00  0.00     0.163 HD
BRANCH   5   7
ATOM      7  C   UNL A   1      33.851  26.845  24.740  1.00  0.00     0.075 C 
ATOM      8  C   UNL A   1      33.667  25.519  24.730  1.00  0.00     0.058 C 
BRANCH   8   9
ATOM      9  C   UNL A   1      34.216  24.606  23.689  1.00  0.00     0.186 C 
ATOM     10  O   UNL A   1      34.125  24.927  22.509  1.00  0.00    -0.289 OA
BRANCH   9  11
ATOM     11  C   UNL A   1      34.885  23.336  24.056  1.00  0.00     0.023 A 
ATOM     12  C   UNL A   1      36.280  23.246  24.165  1.00  0.00     0.015 A 
ATOM     13  C   UNL A   1      34.083  22.221  24.332  1.00  0.00     0.031 A 
ATOM     14  C   UNL A   1      36.872  22.023  24.490  1.00  0.00     0.041 A 
ATOM     15  C   UNL A   1      34.682  21.005  24.661  1.00  0.00     0.054 A 
ATOM     16  C   UNL A   1      36.072  20.909  24.729  1.00  0.00     0.137 A 
ATOM     17  Br  UNL A   1      33.598  19.496  25.005  1.00  0.00    -0.048 Br
ATOM     18  F   UNL A   1      36.667  19.746  25.031  1.00  0.00    -0.206 F 
ENDBRANCH   9  11
ENDBRANCH   8   9
ENDBRANCH   5   7
ENDBRANCH   2   3
ENDBRANCH   1   2
BRANCH   1  19
ATOM     19  C   UNL A   1      31.432  32.177  26.524  1.00  0.00     0.023 C 
BRANCH  19  20
ATOM     20  C   UNL A   1      32.592  32.826  27.273  1.00  0.00     0.116 C 
BRANCH  20  21
ATOM     21  N   UNL A   1      32.329  34.207  27.642  1.00  0.00    -0.352 N 
ATOM     22  C   UNL A   1      32.940  34.987  28.595  1.00  0.00     0.251 C 
ATOM     23  H   UNL A   1      31.608  34.648  27.137  1.00  0.00     0.163 HD
ATOM     24  O   UNL A   1      32.484  36.096  28.865  1.00  0.00    -0.269 OA
BRANCH  22  25
ATOM     25  C   UNL A   1      34.126  34.486  29.324  1.00  0.00     0.039 A 
ATOM     26  C   UNL A   1      33.942  33.865  30.562  1.00  0.00     0.014 A 
ATOM     27  C   UNL A   1      35.414  34.625  28.798  1.00  0.00     0.014 A 
ATOM     28  C   UNL A   1      35.037  33.321  31.238  1.00  0.00     0.010 A 
ATOM     29  C   UNL A   1      36.493  34.015  29.435  1.00  0.00     0.010 A 
ATOM     30  C   UNL A   1      36.318  33.355  30.661  1.00  0.00    -0.014 A 
BRANCH  30  31
ATOM     31  C   UNL A   1      37.477  32.694  31.318  1.00  0.00     0.031 A 
ATOM     32  C   UNL A   1      38.180  31.546  30.646  1.00  0.00     0.074 A 
ATOM     33  C   UNL A   1      37.857  33.086  32.549  1.00  0.00     0.049 A 
ATOM     34  N   UNL A   1      39.162  30.801  31.091  1.00  0.00    -0.248 NA
ATOM     35  C   UNL A   1      37.699  31.169  29.309  1.00  0.00     0.031 C 
ATOM     36  C   UNL A   1      37.232  34.156  33.328  1.00  0.00     0.029 A 
ATOM     37  N   UNL A   1      38.856  32.622  33.370  1.00  0.00    -0.354 N 
ATOM     38  C   UNL A   1      39.407  29.864  30.095  1.00  0.00     0.074 A 
ATOM     39  C   UNL A   1      38.435  30.098  29.048  1.00  0.00     0.031 C 
ATOM     40  C   UNL A   1      37.874  34.282  34.499  1.00  0.00     0.029 A 
ATOM     41  C   UNL A   1      38.927  33.274  34.577  1.00  0.00     0.049 A 
ATOM     42  H   UNL A   1      39.465  31.890  33.117  1.00  0.00     0.167 HD
ATOM     43  C   UNL A   1      40.368  28.912  30.048  1.00  0.00     0.037 A 
ATOM     44  C   UNL A   1      39.740  33.077  35.633  1.00  0.00     0.037 A 
ATOM     45  C   UNL A   1      41.345  28.694  31.082  1.00  0.00     0.049 A 
ATOM     46  C   UNL A   1      40.786  31.996  35.563  1.00  0.00     0.074 A 
ATOM     47  C   UNL A   1      42.396  27.791  31.101  1.00  0.00     0.029 A 
ATOM     48  N   UNL A   1      41.390  29.381  32.287  1.00  0.00    -0.354 N 
ATOM     49  N   UNL A   1      41.054  31.164  34.586  1.00  0.00    -0.248 NA
ATOM     50  C   UNL A   1      41.649  31.832  36.741  1.00  0.00     0.031 C 
ATOM     51  C   UNL A   1      43.039  27.893  32.338  1.00  0.00     0.029 A 
ATOM     52  C   UNL A   1      42.432  28.903  33.066  1.00  0.00     0.049 A 
ATOM     53  H   UNL A   1      40.773  30.102  32.549  1.00  0.00     0.167 HD
ATOM     54  C   UNL A   1      42.132  30.402  35.017  1.00  0.00     0.074 A 
ATOM     55  C   UNL A   1      42.480  30.882  36.338  1.00  0.00     0.031 C 
ATOM     56  C   UNL A   1      42.775  29.395  34.377  1.00  0.00     0.037 A 
BRANCH  43  57
ATOM     57  C   UNL A   1      40.414  28.027  28.834  1.00  0.00     0.064 A 
ATOM     58  C   UNL A   1      41.175  28.364  27.704  1.00  0.00     0.173 A 
ATOM     59  C   UNL A   1      39.725  26.805  28.817  1.00  0.00     0.173 A 
ATOM     60  F   UNL A   1      41.846  29.525  27.663  1.00  0.00    -0.203 F 
ATOM     61  C   UNL A   1      41.221  27.526  26.593  1.00  0.00     0.198 A 
ATOM     62  C   UNL A   1      39.799  25.953  27.717  1.00  0.00     0.198 A 
ATOM     63  F   UNL A   1      38.987  26.429  29.873  1.00  0.00    -0.203 F 
ATOM     64  F   UNL A   1      41.914  27.893  25.506  1.00  0.00    -0.200 F 
ATOM     65  C   UNL A   1      40.540  26.318  26.604  1.00  0.00     0.200 A 
ATOM     66  F   UNL A   1      39.153  24.779  27.737  1.00  0.00    -0.200 F 
ATOM     67  F   UNL A   1      40.592  25.508  25.537  1.00  0.00    -0.200 F 
ENDBRANCH  43  57
BRANCH  44  68
ATOM     68  C   UNL A   1      39.611  33.930  36.844  1.00  0.00     0.064 A 
ATOM     69  C   UNL A   1      38.829  33.520  37.934  1.00  0.00     0.173 A 
ATOM     70  C   UNL A   1      40.249  35.175  36.934  1.00  0.00     0.173 A 
ATOM     71  F   UNL A   1      38.180  32.346  37.889  1.00  0.00    -0.203 F 
ATOM     72  C   UNL A   1      38.669  34.334  39.054  1.00  0.00     0.198 A 
ATOM     73  C   UNL A   1      40.116  35.973  38.068  1.00  0.00     0.198 A 
ATOM     74  F   UNL A   1      41.014  35.612  35.922  1.00  0.00    -0.203 F 
ATOM     75  F   UNL A   1      37.872  33.941  40.057  1.00  0.00    -0.200 F 
ATOM     76  C   UNL A   1      39.318  35.558  39.123  1.00  0.00     0.200 A 
ATOM     77  F   UNL A   1      40.758  37.148  38.137  1.00  0.00    -0.200 F 
ATOM     78  F   UNL A   1      39.167  36.339  40.200  1.00  0.00    -0.200 F 
ENDBRANCH  44  68
BRANCH  56  79
ATOM     79  C   UNL A   1      43.951  28.771  35.074  1.00  0.00     0.064 A 
ATOM     80  C   UNL A   1      45.258  29.246  34.890  1.00  0.00     0.173 A 
ATOM     81  C   UNL A   1      43.760  27.706  35.968  1.00  0.00     0.173 A 
ATOM     82  F   UNL A   1      45.496  30.252  34.036  1.00  0.00    -0.203 F 
ATOM     83  C   UNL A   1      46.333  28.659  35.554  1.00  0.00     0.198 A 
ATOM     84  C   UNL A   1      44.833  27.145  36.656  1.00  0.00     0.198 A 
ATOM     85  F   UNL A   1      42.530  27.217  36.186  1.00  0.00    -0.203 F 
ATOM     86  F   UNL A   1      47.579  29.096  35.322  1.00  0.00    -0.200 F 
ATOM     87  C   UNL A   1      46.118  27.616  36.442  1.00  0.00     0.200 A 
ATOM     88  F   UNL A   1      44.621  26.148  37.526  1.00  0.00    -0.200 F 
ATOM     89  F   UNL A   1      47.153  27.059  37.086  1.00  0.00    -0.200 F 
ENDBRANCH  56  79
ENDBRANCH  30  31
ENDBRANCH  22  25
ENDBRANCH  20  21
ENDBRANCH  19  20
ENDBRANCH   1  19
TORSDOF 13
ENDMDL
MODEL 2
REMARK VINA RESULT:     -12.0      3.839      6.552
REMARK SMILES O=C(/C=C/C(=O)c1ccc(F)c(Br)c1)NCCCCNC(=O)c1ccc(-c2c3nc(c(-c4c(F)c(F)c(F)c(F)c4F)c4ccc([nH]4)c(-c4c(F)c(F)c(F)c(F)c4F)c4nc(c(-c5c(F)c(F)c(F)c(F)c5F)c5ccc2[nH]5)C=C4)C=C3)cc1
REMARK SMILES IDX 17 1 16 2 15 3 1 4 2 5 3 7 4 8 5 9 6 10 7 11 8 12 14 13 9 14
REMARK SMILES IDX 12 15 10 16 13 17 11 18 18 19 19 20 20 21 21 22 22 24 23 25
REMARK SMILES IDX 24 26 85 27 25 28 84 29 26 30 27 31 28 32 78 33 29 34 83 35
REMARK SMILES IDX 77 36 79 37 30 38 82 39 76 40 75 41 31 43 63 44 43 45 62 46
REMARK SMILES IDX 44 47 47 48 61 49 80 50 45 51 46 52 60 54 81 55 48 56 32 57
REMARK SMILES IDX 33 58 41 59 34 60 35 61 39 62 42 63 36 64 37 65 40 66 38 67
REMARK SMILES IDX 64 68 65 69 73 70 66 71 67 72 71 73 74 74 68 75 69 76 72 77
REMARK SMILES IDX 70 78 49 79 50 80 58 81 51 82 52 83 56 84 59 85 53 86 54 87
REMARK SMILES IDX 57 88 55 89
REMARK H PARENT 15 6 20 23 79 42 47 53
REMARK Flexibility Score: inf
ROOT
ATOM      1  C   UNL A   1      33.511  36.317  32.839  1.00  0.00     0.023 C 
ENDROOT
BRANCH   1   2
ATOM      2  C   UNL A   1      33.196  34.822  32.889  1.00  0.00     0.116 C 
BRANCH   2   3
ATOM      3  N   UNL A   1      34.091  34.112  33.784  1.00  0.00    -0.353 N 
ATOM      4  O   UNL A   1      35.951  35.345  33.257  1.00  0.00    -0.270 OA
ATOM      5  C   UNL A   1      35.418  34.430  33.874  1.00  0.00     0.244 C 
ATOM      6  H   UNL A   1      33.734  33.384  34.341  1.00  0.00     0.163 HD
BRANCH   5   7
ATOM      7  C   UNL A   1      36.261  33.588  34.761  1.00  0.00     0.075 C 
ATOM      8  C   UNL A   1      36.971  32.506  34.420  1.00  0.00     0.058 C 
BRANCH   8   9
ATOM      9  C   UNL A   1      37.826  31.734  35.364  1.00  0.00     0.186 C 
ATOM     10  O   UNL A   1      37.686  31.907  36.570  1.00  0.00    -0.289 OA
BRANCH   9  11
ATOM     11  C   UNL A   1      38.821  30.753  34.873  1.00  0.00     0.023 A 
ATOM     12  C   UNL A   1      38.640  30.066  33.664  1.00  0.00     0.015 A 
ATOM     13  C   UNL A   1      39.980  30.549  35.633  1.00  0.00     0.031 A 
ATOM     14  C   UNL A   1      39.592  29.131  33.249  1.00  0.00     0.041 A 
ATOM     15  C   UNL A   1      40.928  29.617  35.208  1.00  0.00     0.054 A 
ATOM     16  C   UNL A   1      40.726  28.907  34.026  1.00  0.00     0.137 A 
ATOM     17  Br  UNL A   1      42.477  29.325  36.251  1.00  0.00    -0.048 Br
ATOM     18  F   UNL A   1      41.618  27.998  33.608  1.00  0.00    -0.206 F 
ENDBRANCH   9  11
ENDBRANCH   8   9
ENDBRANCH   5   7
ENDBRANCH   2   3
ENDBRANCH   1   2
BRANCH   1  19
ATOM     19  C   UNL A   1      32.988  37.045  31.597  1.00  0.00     0.023 C 
BRANCH  19  20
ATOM     20  C   UNL A   1      33.695  36.701  30.290  1.00  0.00     0.116 C 
BRANCH  20  21
ATOM     21  N   UNL A   1      32.897  35.857  29.417  1.00  0.00    -0.352 N 
ATOM     22  C   UNL A   1      33.217  34.654  28.834  1.00  0.00     0.251 C 
ATOM     23  H   UNL A   1      31.996  36.197  29.211  1.00  0.00     0.163 HD
ATOM     24  O   UNL A   1      32.461  34.153  28.005  1.00  0.00    -0.269 OA
BRANCH  22  25
ATOM     25  C   UNL A   1      34.486  33.973  29.173  1.00  0.00     0.039 A 
ATOM     26  C   UNL A   1      35.617  34.231  28.394  1.00  0.00     0.014 A 
ATOM     27  C   UNL A   1      34.568  33.083  30.248  1.00  0.00     0.014 A 
ATOM     28  C   UNL A   1      36.844  33.655  28.736  1.00  0.00     0.010 A 
ATOM     29  C   UNL A   1      35.805  32.571  30.633  1.00  0.00     0.010 A 
ATOM     30  C   UNL A   1      36.958  32.852  29.883  1.00  0.00    -0.014 A 
BRANCH  30  31
ATOM     31  C   UNL A   1      38.274  32.313  30.318  1.00  0.00     0.031 A 
ATOM     32  C   UNL A   1      38.783  31.010  29.766  1.00  0.00     0.074 A 
ATOM     33  C   UNL A   1      38.984  32.966  31.259  1.00  0.00     0.049 A 
ATOM     34  N   UNL A   1      39.870  30.347  30.074  1.00  0.00    -0.248 NA
ATOM     35  C   UNL A   1      37.946  30.351  28.751  1.00  0.00     0.031 C 
ATOM     36  C   UNL A   1      38.582  34.215  31.907  1.00  0.00     0.029 A 
ATOM     37  N   UNL A   1      40.189  32.663  31.845  1.00  0.00    -0.354 N 
ATOM     38  C   UNL A   1      39.841  29.192  29.302  1.00  0.00     0.074 A 
ATOM     39  C   UNL A   1      38.603  29.217  28.552  1.00  0.00     0.031 C 
ATOM     40  C   UNL A   1      39.531  34.583  32.781  1.00  0.00     0.029 A 
ATOM     41  C   UNL A   1      40.588  33.576  32.791  1.00  0.00     0.049 A 
ATOM     42  H   UNL A   1      40.717  31.866  31.610  1.00  0.00     0.167 HD
ATOM     43  C   UNL A   1      40.772  28.214  29.209  1.00  0.00     0.037 A 
ATOM     44  C   UNL A   1      41.676  33.595  33.585  1.00  0.00     0.037 A 
ATOM     45  C   UNL A   1      42.012  28.201  29.941  1.00  0.00     0.049 A 
ATOM     46  C   UNL A   1      42.684  32.483  33.477  1.00  0.00     0.074 A 
ATOM     47  C   UNL A   1      43.046  27.282  29.872  1.00  0.00     0.029 A 
ATOM     48  N   UNL A   1      42.385  29.149  30.883  1.00  0.00    -0.354 N 
ATOM     49  N   UNL A   1      42.680  31.434  32.691  1.00  0.00    -0.248 NA
ATOM     50  C   UNL A   1      43.854  32.562  34.363  1.00  0.00     0.031 C 
ATOM     51  C   UNL A   1      44.016  27.642  30.812  1.00  0.00     0.029 A 
ATOM     52  C   UNL A   1      43.619  28.821  31.422  1.00  0.00     0.049 A 
ATOM     53  H   UNL A   1      41.851  29.938  31.132  1.00  0.00     0.167 HD
ATOM     54  C   UNL A   1      43.856  30.747  32.964  1.00  0.00     0.074 A 
ATOM     55  C   UNL A   1      44.558  31.507  33.977  1.00  0.00     0.031 C 
ATOM     56  C   UNL A   1      44.313  29.591  32.424  1.00  0.00     0.037 A 
BRANCH  43  57
ATOM     57  C   UNL A   1      40.489  27.068  28.278  1.00  0.00     0.064 A 
ATOM     58  C   UNL A   1      39.559  26.068  28.603  1.00  0.00     0.173 A 
ATOM     59  C   UNL A   1      41.120  26.993  27.028  1.00  0.00     0.173 A 
ATOM     60  F   UNL A   1      38.933  26.086  29.789  1.00  0.00    -0.203 F 
ATOM     61  C   UNL A   1      39.295  25.021  27.723  1.00  0.00     0.198 A 
ATOM     62  C   UNL A   1      40.829  25.962  26.137  1.00  0.00     0.198 A 
ATOM     63  F   UNL A   1      42.013  27.925  26.663  1.00  0.00    -0.203 F 
ATOM     64  F   UNL A   1      38.441  24.049  28.077  1.00  0.00    -0.200 F 
ATOM     65  C   UNL A   1      39.924  24.973  26.489  1.00  0.00     0.200 A 
ATOM     66  F   UNL A   1      41.427  25.927  24.937  1.00  0.00    -0.200 F 
ATOM     67  F   UNL A   1      39.662  23.970  25.640  1.00  0.00    -0.200 F 
ENDBRANCH  43  57
BRANCH  44  68
ATOM     68  C   UNL A   1      41.879  34.713  34.544  1.00  0.00     0.064 A 
ATOM     69  C   UNL A   1      42.562  35.877  34.161  1.00  0.00     0.173 A 
ATOM     70  C   UNL A   1      41.412  34.639  35.865  1.00  0.00     0.173 A 
ATOM     71  F   UNL A   1      43.048  35.988  32.915  1.00  0.00    -0.203 F 
ATOM     72  C   UNL A   1      42.793  36.910  35.068  1.00  0.00     0.198 A 
ATOM     73  C   UNL A   1      41.614  35.686  36.761  1.00  0.00     0.198 A 
ATOM     74  F   UNL A   1      40.747  33.551  36.281  1.00  0.00    -0.203 F 
ATOM     75  F   UNL A   1      43.496  37.986  34.690  1.00  0.00    -0.200 F 
ATOM     76  C   UNL A   1      42.313  36.816  36.366  1.00  0.00     0.200 A 
ATOM     77  F   UNL A   1      41.134  35.598  38.009  1.00  0.00    -0.200 F 
ATOM     78  F   UNL A   1      42.533  37.810  37.237  1.00  0.00    -0.200 F 
ENDBRANCH  44  68
BRANCH  56  79
ATOM     79  C   UNL A   1      45.655  29.095  32.882  1.00  0.00     0.064 A 
ATOM     80  C   UNL A   1      45.782  28.106  33.869  1.00  0.00     0.173 A 
ATOM     81  C   UNL A   1      46.831  29.592  32.298  1.00  0.00     0.173 A 
ATOM     82  F   UNL A   1      44.690  27.609  34.469  1.00  0.00    -0.203 F 
ATOM     83  C   UNL A   1      47.036  27.654  34.273  1.00  0.00     0.198 A 
ATOM     84  C   UNL A   1      48.080  29.112  32.679  1.00  0.00     0.198 A 
ATOM     85  F   UNL A   1      46.767  30.534  31.345  1.00  0.00    -0.203 F 
ATOM     86  F   UNL A   1      47.134  26.746  35.255  1.00  0.00    -0.200 F 
ATOM     87  C   UNL A   1      48.183  28.151  33.672  1.00  0.00     0.200 A 
ATOM     88  F   UNL A   1      49.187  29.582  32.086  1.00  0.00    -0.200 F 
ATOM     89  F   UNL A   1      49.388  27.707  34.056  1.00  0.00    -0.200 F 
ENDBRANCH  56  79
ENDBRANCH  30  31
ENDBRANCH  22  25
ENDBRANCH  20  21
ENDBRANCH  19  20
ENDBRANCH   1  19
TORSDOF 13
ENDMDL
MODEL 3
REMARK VINA RESULT:     -12.0      5.991     11.447
REMARK SMILES O=C(/C=C/C(=O)c1ccc(F)c(Br)c1)NCCCCNC(=O)c1ccc(-c2c3nc(c(-c4c(F)c(F)c(F)c(F)c4F)c4ccc([nH]4)c(-c4c(F)c(F)c(F)c(F)c4F)c4nc(c(-c5c(F)c(F)c(F)c(F)c5F)c5ccc2[nH]5)C=C4)C=C3)cc1
REMARK SMILES IDX 17 1 16 2 15 3 1 4 2 5 3 7 4 8 5 9 6 10 7 11 8 12 14 13 9 14
REMARK SMILES IDX 12 15 10 16 13 17 11 18 18 19 19 20 20 21 21 22 22 24 23 25
REMARK SMILES IDX 24 26 85 27 25 28 84 29 26 30 27 31 28 32 78 33 29 34 83 35
REMARK SMILES IDX 77 36 79 37 30 38 82 39 76 40 75 41 31 43 63 44 43 45 62 46
REMARK SMILES IDX 44 47 47 48 61 49 80 50 45 51 46 52 60 54 81 55 48 56 32 57
REMARK SMILES IDX 33 58 41 59 34 60 35 61 39 62 42 63 36 64 37 65 40 66 38 67
REMARK SMILES IDX 64 68 65 69 73 70 66 71 67 72 71 73 74 74 68 75 69 76 72 77
REMARK SMILES IDX 70 78 49 79 50 80 58 81 51 82 52 83 56 84 59 85 53 86 54 87
REMARK SMILES IDX 57 88 55 89
REMARK H PARENT 15 6 20 23 79 42 47 53
REMARK Flexibility Score: inf
ROOT
ATOM      1  C   UNL A   1      36.960  20.550  25.026  1.00  0.00     0.023 C 
ENDROOT
BRANCH   1   2
ATOM      2  C   UNL A   1      37.216  21.849  25.791  1.00  0.00     0.116 C 
BRANCH   2   3
ATOM      3  N   UNL A   1      35.982  22.557  26.079  1.00  0.00    -0.353 N 
ATOM      4  O   UNL A   1      36.135  23.995  24.299  1.00  0.00    -0.270 OA
ATOM      5  C   UNL A   1      35.555  23.600  25.304  1.00  0.00     0.244 C 
ATOM      6  H   UNL A   1      35.438  22.280  26.851  1.00  0.00     0.163 HD
BRANCH   5   7
ATOM      7  C   UNL A   1      34.322  24.307  25.734  1.00  0.00     0.075 C 
ATOM      8  C   UNL A   1      33.125  23.767  25.996  1.00  0.00     0.058 C 
BRANCH   8   9
ATOM      9  C   UNL A   1      31.941  24.542  26.460  1.00  0.00     0.186 C 
ATOM     10  O   UNL A   1      31.227  24.068  27.338  1.00  0.00    -0.289 OA
BRANCH   9  11
ATOM     11  C   UNL A   1      31.626  25.875  25.896  1.00  0.00     0.023 A 
ATOM     12  C   UNL A   1      30.919  26.016  24.694  1.00  0.00     0.015 A 
ATOM     13  C   UNL A   1      32.023  27.009  26.617  1.00  0.00     0.031 A 
ATOM     14  C   UNL A   1      30.664  27.292  24.185  1.00  0.00     0.041 A 
ATOM     15  C   UNL A   1      31.759  28.280  26.105  1.00  0.00     0.054 A 
ATOM     16  C   UNL A   1      31.090  28.415  24.889  1.00  0.00     0.137 A 
ATOM     17  Br  UNL A   1      32.320  29.807  27.067  1.00  0.00    -0.048 Br
ATOM     18  F   UNL A   1      30.840  29.627  24.373  1.00  0.00    -0.206 F 
ENDBRANCH   9  11
ENDBRANCH   8   9
ENDBRANCH   5   7
ENDBRANCH   2   3
ENDBRANCH   1   2
BRANCH   1  19
ATOM     19  C   UNL A   1      38.135  19.569  25.010  1.00  0.00     0.023 C 
BRANCH  19  20
ATOM     20  C   UNL A   1      39.364  20.006  25.802  1.00  0.00     0.116 C 
BRANCH  20  21
ATOM     21  N   UNL A   1      40.388  18.978  25.876  1.00  0.00    -0.352 N 
ATOM     22  C   UNL A   1      41.740  19.107  26.089  1.00  0.00     0.251 C 
ATOM     23  H   UNL A   1      40.068  18.055  25.755  1.00  0.00     0.163 HD
ATOM     24  O   UNL A   1      42.475  18.128  25.976  1.00  0.00    -0.269 OA
BRANCH  22  25
ATOM     25  C   UNL A   1      42.323  20.426  26.422  1.00  0.00     0.039 A 
ATOM     26  C   UNL A   1      42.861  21.202  25.392  1.00  0.00     0.014 A 
ATOM     27  C   UNL A   1      42.345  20.900  27.737  1.00  0.00     0.014 A 
ATOM     28  C   UNL A   1      43.353  22.480  25.668  1.00  0.00     0.010 A 
ATOM     29  C   UNL A   1      42.765  22.202  27.998  1.00  0.00     0.010 A 
ATOM     30  C   UNL A   1      43.272  23.009  26.967  1.00  0.00    -0.014 A 
BRANCH  30  31
ATOM     31  C   UNL A   1      43.699  24.402  27.260  1.00  0.00     0.031 A 
ATOM     32  C   UNL A   1      42.703  25.416  27.752  1.00  0.00     0.074 A 
ATOM     33  C   UNL A   1      44.972  24.774  27.023  1.00  0.00     0.049 A 
ATOM     34  N   UNL A   1      42.870  26.693  27.996  1.00  0.00    -0.248 NA
ATOM     35  C   UNL A   1      41.330  24.939  27.976  1.00  0.00     0.031 C 
ATOM     36  C   UNL A   1      46.025  23.900  26.505  1.00  0.00     0.029 A 
ATOM     37  N   UNL A   1      45.597  25.988  27.175  1.00  0.00    -0.354 N 
ATOM     38  C   UNL A   1      41.626  27.170  28.389  1.00  0.00     0.074 A 
ATOM     39  C   UNL A   1      40.702  26.060  28.298  1.00  0.00     0.031 C 
ATOM     40  C   UNL A   1      47.168  24.597  26.404  1.00  0.00     0.029 A 
ATOM     41  C   UNL A   1      46.920  25.978  26.808  1.00  0.00     0.049 A 
ATOM     42  H   UNL A   1      45.139  26.790  27.517  1.00  0.00     0.167 HD
ATOM     43  C   UNL A   1      41.292  28.413  28.809  1.00  0.00     0.037 A 
ATOM     44  C   UNL A   1      47.830  26.971  26.785  1.00  0.00     0.037 A 
ATOM     45  C   UNL A   1      42.217  29.510  28.917  1.00  0.00     0.049 A 
ATOM     46  C   UNL A   1      47.425  28.349  27.237  1.00  0.00     0.074 A 
ATOM     47  C   UNL A   1      41.986  30.792  29.386  1.00  0.00     0.029 A 
ATOM     48  N   UNL A   1      43.552  29.459  28.543  1.00  0.00    -0.354 N 
ATOM     49  N   UNL A   1      46.263  28.770  27.674  1.00  0.00    -0.248 NA
ATOM     50  C   UNL A   1      48.462  29.390  27.198  1.00  0.00     0.031 C 
ATOM     51  C   UNL A   1      43.164  31.531  29.244  1.00  0.00     0.029 A 
ATOM     52  C   UNL A   1      44.148  30.693  28.745  1.00  0.00     0.049 A 
ATOM     53  H   UNL A   1      44.009  28.662  28.186  1.00  0.00     0.167 HD
ATOM     54  C   UNL A   1      46.437  30.110  27.992  1.00  0.00     0.074 A 
ATOM     55  C   UNL A   1      47.821  30.430  27.712  1.00  0.00     0.031 C 
ATOM     56  C   UNL A   1      45.531  30.997  28.472  1.00  0.00     0.037 A 
BRANCH  43  57
ATOM     57  C   UNL A   1      39.857  28.658  29.187  1.00  0.00     0.064 A 
ATOM     58  C   UNL A   1      39.386  28.417  30.487  1.00  0.00     0.173 A 
ATOM     59  C   UNL A   1      38.954  29.184  28.251  1.00  0.00     0.173 A 
ATOM     60  F   UNL A   1      40.205  27.906  31.419  1.00  0.00    -0.203 F 
ATOM     61  C   UNL A   1      38.059  28.665  30.827  1.00  0.00     0.198 A 
ATOM     62  C   UNL A   1      37.635  29.461  28.603  1.00  0.00     0.198 A 
ATOM     63  F   UNL A   1      39.353  29.439  26.996  1.00  0.00    -0.203 F 
ATOM     64  F   UNL A   1      37.619  28.379  32.060  1.00  0.00    -0.200 F 
ATOM     65  C   UNL A   1      37.187  29.194  29.887  1.00  0.00     0.200 A 
ATOM     66  F   UNL A   1      36.799  29.988  27.697  1.00  0.00    -0.200 F 
ATOM     67  F   UNL A   1      35.912  29.440  30.218  1.00  0.00    -0.200 F 
ENDBRANCH  43  57
BRANCH  44  68
ATOM     68  C   UNL A   1      49.221  26.699  26.333  1.00  0.00     0.064 A 
ATOM     69  C   UNL A   1      49.593  26.886  24.994  1.00  0.00     0.173 A 
ATOM     70  C   UNL A   1      50.201  26.233  27.222  1.00  0.00     0.173 A 
ATOM     71  F   UNL A   1      48.686  27.309  24.100  1.00  0.00    -0.203 F 
ATOM     72  C   UNL A   1      50.883  26.592  24.556  1.00  0.00     0.198 A 
ATOM     73  C   UNL A   1      51.499  25.971  26.790  1.00  0.00     0.198 A 
ATOM     74  F   UNL A   1      49.899  26.043  28.515  1.00  0.00    -0.203 F 
ATOM     75  F   UNL A   1      51.196  26.727  23.261  1.00  0.00    -0.200 F 
ATOM     76  C   UNL A   1      51.837  26.141  25.456  1.00  0.00     0.200 A 
ATOM     77  F   UNL A   1      52.422  25.551  27.666  1.00  0.00    -0.200 F 
ATOM     78  F   UNL A   1      53.078  25.860  25.036  1.00  0.00    -0.200 F 
ENDBRANCH  44  68
BRANCH  56  79
ATOM     79  C   UNL A   1      46.014  32.388  28.769  1.00  0.00     0.064 A 
ATOM     80  C   UNL A   1      45.954  33.413  27.813  1.00  0.00     0.173 A 
ATOM     81  C   UNL A   1      46.510  32.709  30.043  1.00  0.00     0.173 A 
ATOM     82  F   UNL A   1      45.502  33.156  26.576  1.00  0.00    -0.203 F 
ATOM     83  C   UNL A   1      46.399  34.699  28.112  1.00  0.00     0.198 A 
ATOM     84  C   UNL A   1      46.920  34.003  30.348  1.00  0.00     0.198 A 
ATOM     85  F   UNL A   1      46.584  31.769  30.996  1.00  0.00    -0.203 F 
ATOM     86  F   UNL A   1      46.380  35.649  27.166  1.00  0.00    -0.200 F 
ATOM     87  C   UNL A   1      46.873  34.995  29.381  1.00  0.00     0.200 A 
ATOM     88  F   UNL A   1      47.363  34.291  31.580  1.00  0.00    -0.200 F 
ATOM     89  F   UNL A   1      47.291  36.235  29.669  1.00  0.00    -0.200 F 
ENDBRANCH  56  79
ENDBRANCH  30  31
ENDBRANCH  22  25
ENDBRANCH  20  21
ENDBRANCH  19  20
ENDBRANCH   1  19
TORSDOF 13
ENDMDL
