MODEL 1
REMARK VINA RESULT:     -11.8      0.000      0.000
REMARK SMILES CCCC[C@H](C(=O)NCCCCNC(=O)c1ccc(-c2c3nc(c(-c4c(F)c(F)c(F)c(F)c4F)c4ccc([nH]4)c(-c4c(F)c(F)c(F)c(F)c4F)c4nc(c(-c5c(F)c(F)c(F)c(F)c5F)c5ccc2[nH]5)C=C4)C=C3)cc1)[C@H](O)c1cccc(C2CC2)c1
REMARK SMILES IDX 10 1 9 2 8 3 6 4 7 5 5 7 4 8 3 9 2 10 1 11 79 12 81 13 82 14
REMARK SMILES IDX 89 15 83 16 85 17 84 18 86 19 87 20 88 21 80 22 11 24 12 25
REMARK SMILES IDX 13 26 14 27 15 29 16 30 17 31 78 32 18 33 77 34 19 35 20 36
REMARK SMILES IDX 21 37 71 38 22 39 76 40 70 41 72 42 23 43 75 44 69 45 68 46
REMARK SMILES IDX 24 48 56 49 36 50 55 51 37 52 40 53 54 54 73 55 38 56 39 57
REMARK SMILES IDX 53 59 74 60 41 61 25 62 26 63 34 64 27 65 28 66 32 67 35 68
REMARK SMILES IDX 29 69 30 70 33 71 31 72 57 73 58 74 66 75 59 76 60 77 64 78
REMARK SMILES IDX 67 79 61 80 62 81 65 82 63 83 42 84 43 85 51 86 44 87 45 88
REMARK SMILES IDX 49 89 52 90 46 91 47 92 50 93 48 94
REMARK H PARENT 8 6 80 23 13 28 72 47 40 58
REMARK Flexibility Score: inf
ROOT
ATOM      1  C   UNL A   1      31.762  30.550  26.762  1.00  0.00     0.023 C 
ENDROOT
BRANCH   1   2
ATOM      2  C   UNL A   1      31.525  29.939  25.387  1.00  0.00     0.116 C 
BRANCH   2   3
ATOM      3  N   UNL A   1      32.719  29.705  24.599  1.00  0.00    -0.356 N 
ATOM      4  C   UNL A   1      33.087  28.650  23.818  1.00  0.00     0.226 C 
ATOM      5  O   UNL A   1      33.975  28.886  22.991  1.00  0.00    -0.275 OA
ATOM      6  H   UNL A   1      33.379  30.434  24.635  1.00  0.00     0.163 HD
BRANCH   4   7
ATOM      7  C   UNL A   1      32.523  27.237  23.959  1.00  0.00     0.111 C 
BRANCH   7   8
ATOM      8  C   UNL A   1      32.313  26.777  25.423  1.00  0.00     0.016 C 
BRANCH   8   9
ATOM      9  C   UNL A   1      32.965  25.419  25.786  1.00  0.00     0.001 C 
BRANCH   9  10
ATOM     10  C   UNL A   1      32.108  24.374  26.507  1.00  0.00    -0.003 C 
ATOM     11  C   UNL A   1      30.652  24.378  26.074  1.00  0.00     0.004 C 
ENDBRANCH   9  10
ENDBRANCH   8   9
ENDBRANCH   7   8
BRANCH   7  12
ATOM     12  C   UNL A   1      31.378  26.836  22.965  1.00  0.00     0.157 C 
BRANCH  12  13
ATOM     13  C   UNL A   1      29.961  27.371  23.083  1.00  0.00    -0.019 A 
ATOM     14  C   UNL A   1      29.007  26.692  23.843  1.00  0.00     0.006 A 
ATOM     15  C   UNL A   1      29.604  28.647  22.586  1.00  0.00     0.010 A 
ATOM     16  C   UNL A   1      27.683  27.118  23.877  1.00  0.00     0.001 A 
ATOM     17  C   UNL A   1      28.304  29.182  22.748  1.00  0.00    -0.045 A 
ATOM     18  C   UNL A   1      27.335  28.332  23.302  1.00  0.00     0.004 A 
BRANCH  17  19
ATOM     19  C   UNL A   1      27.900  30.624  22.489  1.00  0.00     0.019 C 
ATOM     20  C   UNL A   1      27.687  31.547  23.668  1.00  0.00     0.009 C 
ATOM     21  C   UNL A   1      28.774  31.828  22.670  1.00  0.00     0.009 C 
ENDBRANCH  17  19
ENDBRANCH  12  13
BRANCH  12  22
ATOM     22  O   UNL A   1      31.826  27.110  21.627  1.00  0.00    -0.388 OA
ATOM     23  H   UNL A   1      31.174  26.773  20.992  1.00  0.00     0.211 HD
ENDBRANCH  12  22
ENDBRANCH   7  12
ENDBRANCH   4   7
ENDBRANCH   2   3
ENDBRANCH   1   2
BRANCH   1  24
ATOM     24  C   UNL A   1      31.583  32.064  26.821  1.00  0.00     0.023 C 
BRANCH  24  25
ATOM     25  C   UNL A   1      32.825  32.831  27.250  1.00  0.00     0.116 C 
BRANCH  25  26
ATOM     26  N   UNL A   1      32.530  34.204  27.645  1.00  0.00    -0.352 N 
ATOM     27  C   UNL A   1      33.033  34.918  28.710  1.00  0.00     0.251 C 
ATOM     28  H   UNL A   1      31.884  34.683  27.076  1.00  0.00     0.163 HD
ATOM     29  O   UNL A   1      32.574  36.002  29.026  1.00  0.00    -0.269 OA
BRANCH  27  30
ATOM     30  C   UNL A   1      34.142  34.318  29.476  1.00  0.00     0.039 A 
ATOM     31  C   UNL A   1      33.861  33.499  30.570  1.00  0.00     0.014 A 
ATOM     32  C   UNL A   1      35.451  34.492  29.023  1.00  0.00     0.014 A 
ATOM     33  C   UNL A   1      34.900  32.783  31.168  1.00  0.00     0.010 A 
ATOM     34  C   UNL A   1      36.459  33.701  29.549  1.00  0.00     0.010 A 
ATOM     35  C   UNL A   1      36.197  32.847  30.633  1.00  0.00    -0.014 A 
BRANCH  35  36
ATOM     36  C   UNL A   1      37.328  32.079  31.207  1.00  0.00     0.031 A 
ATOM     37  C   UNL A   1      37.822  32.439  32.582  1.00  0.00     0.074 A 
ATOM     38  C   UNL A   1      37.966  31.145  30.475  1.00  0.00     0.049 A 
ATOM     39  N   UNL A   1      38.901  32.048  33.209  1.00  0.00    -0.248 NA
ATOM     40  C   UNL A   1      37.013  33.416  33.332  1.00  0.00     0.031 C 
ATOM     41  C   UNL A   1      37.606  30.737  29.115  1.00  0.00     0.029 A 
ATOM     42  N   UNL A   1      39.068  30.382  30.768  1.00  0.00    -0.354 N 
ATOM     43  C   UNL A   1      38.915  32.756  34.403  1.00  0.00     0.074 A 
ATOM     44  C   UNL A   1      37.777  33.648  34.387  1.00  0.00     0.031 C 
ATOM     45  C   UNL A   1      38.457  29.782  28.703  1.00  0.00     0.029 A 
ATOM     46  C   UNL A   1      39.448  29.544  29.748  1.00  0.00     0.049 A 
ATOM     47  H   UNL A   1      39.544  30.432  31.629  1.00  0.00     0.167 HD
ATOM     48  C   UNL A   1      39.782  32.649  35.437  1.00  0.00     0.037 A 
ATOM     49  C   UNL A   1      40.485  28.688  29.669  1.00  0.00     0.037 A 
ATOM     50  C   UNL A   1      40.879  31.721  35.467  1.00  0.00     0.049 A 
ATOM     51  C   UNL A   1      41.426  28.576  30.841  1.00  0.00     0.074 A 
ATOM     52  C   UNL A   1      41.793  31.497  36.478  1.00  0.00     0.029 A 
ATOM     53  N   UNL A   1      41.195  30.849  34.436  1.00  0.00    -0.354 N 
ATOM     54  N   UNL A   1      41.410  29.221  31.982  1.00  0.00    -0.248 NA
ATOM     55  C   UNL A   1      42.527  27.611  30.716  1.00  0.00     0.031 C 
ATOM     56  C   UNL A   1      42.680  30.504  36.050  1.00  0.00     0.029 A 
ATOM     57  C   UNL A   1      42.290  30.080  34.790  1.00  0.00     0.049 A 
ATOM     58  H   UNL A   1      40.711  30.785  33.580  1.00  0.00     0.167 HD
ATOM     59  C   UNL A   1      42.466  28.712  32.725  1.00  0.00     0.074 A 
ATOM     60  C   UNL A   1      43.101  27.701  31.908  1.00  0.00     0.031 C 
ATOM     61  C   UNL A   1      42.875  29.050  33.972  1.00  0.00     0.037 A 
BRANCH  48  62
ATOM     62  C   UNL A   1      39.559  33.542  36.622  1.00  0.00     0.064 A 
ATOM     63  C   UNL A   1      40.130  34.822  36.692  1.00  0.00     0.173 A 
ATOM     64  C   UNL A   1      38.750  33.126  37.689  1.00  0.00     0.173 A 
ATOM     65  F   UNL A   1      40.925  35.262  35.705  1.00  0.00    -0.203 F 
ATOM     66  C   UNL A   1      39.928  35.638  37.802  1.00  0.00     0.198 A 
ATOM     67  C   UNL A   1      38.523  33.958  38.782  1.00  0.00     0.198 A 
ATOM     68  F   UNL A   1      38.178  31.912  37.672  1.00  0.00    -0.203 F 
ATOM     69  F   UNL A   1      40.532  36.832  37.872  1.00  0.00    -0.200 F 
ATOM     70  C   UNL A   1      39.119  35.209  38.842  1.00  0.00     0.200 A 
ATOM     71  F   UNL A   1      37.731  33.546  39.782  1.00  0.00    -0.200 F 
ATOM     72  F   UNL A   1      38.921  35.997  39.907  1.00  0.00    -0.200 F 
ENDBRANCH  48  62
BRANCH  49  73
ATOM     73  C   UNL A   1      40.677  27.844  28.460  1.00  0.00     0.064 A 
ATOM     74  C   UNL A   1      41.447  28.305  27.382  1.00  0.00     0.173 A 
ATOM     75  C   UNL A   1      40.079  26.581  28.341  1.00  0.00     0.173 A 
ATOM     76  F   UNL A   1      42.022  29.514  27.440  1.00  0.00    -0.203 F 
ATOM     77  C   UNL A   1      41.586  27.548  26.219  1.00  0.00     0.198 A 
ATOM     78  C   UNL A   1      40.244  25.813  27.188  1.00  0.00     0.198 A 
ATOM     79  F   UNL A   1      39.338  26.090  29.344  1.00  0.00    -0.203 F 
ATOM     80  F   UNL A   1      42.282  28.039  25.184  1.00  0.00    -0.200 F 
ATOM     81  C   UNL A   1      40.988  26.302  26.125  1.00  0.00     0.200 A 
ATOM     82  F   UNL A   1      39.675  24.603  27.105  1.00  0.00    -0.200 F 
ATOM     83  F   UNL A   1      41.119  25.577  25.006  1.00  0.00    -0.200 F 
ENDBRANCH  49  73
BRANCH  61  84
ATOM     84  C   UNL A   1      44.014  28.273  34.560  1.00  0.00     0.064 A 
ATOM     85  C   UNL A   1      45.340  28.716  34.461  1.00  0.00     0.173 A 
ATOM     86  C   UNL A   1      43.761  27.102  35.291  1.00  0.00     0.173 A 
ATOM     87  F   UNL A   1      45.631  29.823  33.762  1.00  0.00    -0.203 F 
ATOM     88  C   UNL A   1      46.376  28.004  35.057  1.00  0.00     0.198 A 
ATOM     89  C   UNL A   1      44.796  26.408  35.909  1.00  0.00     0.198 A 
ATOM     90  F   UNL A   1      42.507  26.643  35.420  1.00  0.00    -0.203 F 
ATOM     91  F   UNL A   1      47.640  28.423  34.919  1.00  0.00    -0.200 F 
ATOM     92  C   UNL A   1      46.103  26.856  35.788  1.00  0.00     0.200 A 
ATOM     93  F   UNL A   1      44.528  25.308  36.626  1.00  0.00    -0.200 F 
ATOM     94  F   UNL A   1      47.100  26.180  36.373  1.00  0.00    -0.200 F 
ENDBRANCH  61  84
ENDBRANCH  35  36
ENDBRANCH  27  30
ENDBRANCH  25  26
ENDBRANCH  24  25
ENDBRANCH   1  24
TORSDOF 18
ENDMDL
MODEL 2
REMARK VINA RESULT:     -11.8      1.642      8.077
REMARK SMILES CCCC[C@H](C(=O)NCCCCNC(=O)c1ccc(-c2c3nc(c(-c4c(F)c(F)c(F)c(F)c4F)c4ccc([nH]4)c(-c4c(F)c(F)c(F)c(F)c4F)c4nc(c(-c5c(F)c(F)c(F)c(F)c5F)c5ccc2[nH]5)C=C4)C=C3)cc1)[C@H](O)c1cccc(C2CC2)c1
REMARK SMILES IDX 10 1 9 2 8 3 6 4 7 5 5 7 4 8 3 9 2 10 1 11 79 12 81 13 82 14
REMARK SMILES IDX 89 15 83 16 85 17 84 18 86 19 87 20 88 21 80 22 11 24 12 25
REMARK SMILES IDX 13 26 14 27 15 29 16 30 17 31 78 32 18 33 77 34 19 35 20 36
REMARK SMILES IDX 21 37 71 38 22 39 76 40 70 41 72 42 23 43 75 44 69 45 68 46
REMARK SMILES IDX 24 48 56 49 36 50 55 51 37 52 40 53 54 54 73 55 38 56 39 57
REMARK SMILES IDX 53 59 74 60 41 61 25 62 26 63 34 64 27 65 28 66 32 67 35 68
REMARK SMILES IDX 29 69 30 70 33 71 31 72 57 73 58 74 66 75 59 76 60 77 64 78
REMARK SMILES IDX 67 79 61 80 62 81 65 82 63 83 42 84 43 85 51 86 44 87 45 88
REMARK SMILES IDX 49 89 52 90 46 91 47 92 50 93 48 94
REMARK H PARENT 8 6 80 23 13 28 72 47 40 58
REMARK Flexibility Score: inf
ROOT
ATOM      1  C   UNL A   1      32.112  30.369  26.723  1.00  0.00     0.023 C 
ENDROOT
BRANCH   1   2
ATOM      2  C   UNL A   1      31.793  29.796  25.349  1.00  0.00     0.116 C 
BRANCH   2   3
ATOM      3  N   UNL A   1      32.923  29.686  24.447  1.00  0.00    -0.356 N 
ATOM      4  C   UNL A   1      33.386  28.636  23.711  1.00  0.00     0.226 C 
ATOM      5  O   UNL A   1      34.129  28.934  22.770  1.00  0.00    -0.275 OA
ATOM      6  H   UNL A   1      33.446  30.514  24.349  1.00  0.00     0.163 HD
BRANCH   4   7
ATOM      7  C   UNL A   1      33.093  27.169  24.026  1.00  0.00     0.111 C 
BRANCH   7   8
ATOM      8  C   UNL A   1      33.689  26.167  23.007  1.00  0.00     0.016 C 
BRANCH   8   9
ATOM      9  C   UNL A   1      32.726  25.041  22.553  1.00  0.00     0.001 C 
BRANCH   9  10
ATOM     10  C   UNL A   1      33.307  23.642  22.322  1.00  0.00    -0.003 C 
ATOM     11  C   UNL A   1      32.645  22.562  23.160  1.00  0.00     0.004 C 
ENDBRANCH   9  10
ENDBRANCH   8   9
ENDBRANCH   7   8
BRANCH   7  12
ATOM     12  C   UNL A   1      33.211  26.738  25.529  1.00  0.00     0.157 C 
BRANCH  12  13
ATOM     13  C   UNL A   1      33.452  25.300  25.956  1.00  0.00    -0.019 A 
ATOM     14  C   UNL A   1      32.388  24.495  26.367  1.00  0.00     0.006 A 
ATOM     15  C   UNL A   1      34.710  24.675  25.788  1.00  0.00     0.010 A 
ATOM     16  C   UNL A   1      32.610  23.210  26.855  1.00  0.00     0.001 A 
ATOM     17  C   UNL A   1      34.928  23.317  26.123  1.00  0.00    -0.045 A 
ATOM     18  C   UNL A   1      33.874  22.647  26.764  1.00  0.00     0.004 A 
BRANCH  17  19
ATOM     19  C   UNL A   1      36.146  22.494  25.741  1.00  0.00     0.019 C 
ATOM     20  C   UNL A   1      36.167  21.797  24.399  1.00  0.00     0.009 C 
ATOM     21  C   UNL A   1      37.173  22.867  24.714  1.00  0.00     0.009 C 
ENDBRANCH  17  19
ENDBRANCH  12  13
BRANCH  12  22
ATOM     22  O   UNL A   1      34.227  27.542  26.151  1.00  0.00    -0.388 OA
ATOM     23  H   UNL A   1      34.300  28.390  25.686  1.00  0.00     0.211 HD
ENDBRANCH  12  22
ENDBRANCH   7  12
ENDBRANCH   4   7
ENDBRANCH   2   3
ENDBRANCH   1   2
BRANCH   1  24
ATOM     24  C   UNL A   1      31.789  31.852  26.881  1.00  0.00     0.023 C 
BRANCH  24  25
ATOM     25  C   UNL A   1      32.893  32.674  27.529  1.00  0.00     0.116 C 
BRANCH  25  26
ATOM     26  N   UNL A   1      32.529  34.077  27.690  1.00  0.00    -0.352 N 
ATOM     27  C   UNL A   1      33.014  34.992  28.598  1.00  0.00     0.251 C 
ATOM     28  H   UNL A   1      31.844  34.415  27.067  1.00  0.00     0.163 HD
ATOM     29  O   UNL A   1      32.501  36.089  28.735  1.00  0.00    -0.269 OA
BRANCH  27  30
ATOM     30  C   UNL A   1      34.172  34.594  29.420  1.00  0.00     0.039 A 
ATOM     31  C   UNL A   1      33.965  34.089  30.704  1.00  0.00     0.014 A 
ATOM     32  C   UNL A   1      35.448  34.628  28.855  1.00  0.00     0.014 A 
ATOM     33  C   UNL A   1      35.044  33.537  31.399  1.00  0.00     0.010 A 
ATOM     34  C   UNL A   1      36.490  33.984  29.502  1.00  0.00     0.010 A 
ATOM     35  C   UNL A   1      36.303  33.443  30.784  1.00  0.00    -0.014 A 
BRANCH  35  36
ATOM     36  C   UNL A   1      37.471  32.832  31.464  1.00  0.00     0.031 A 
ATOM     37  C   UNL A   1      38.178  31.685  30.794  1.00  0.00     0.074 A 
ATOM     38  C   UNL A   1      37.830  33.228  32.700  1.00  0.00     0.049 A 
ATOM     39  N   UNL A   1      39.088  30.876  31.270  1.00  0.00    -0.248 NA
ATOM     40  C   UNL A   1      37.763  31.377  29.414  1.00  0.00     0.031 C 
ATOM     41  C   UNL A   1      37.196  34.302  33.468  1.00  0.00     0.029 A 
ATOM     42  N   UNL A   1      38.809  32.757  33.538  1.00  0.00    -0.354 N 
ATOM     43  C   UNL A   1      39.323  29.948  30.264  1.00  0.00     0.074 A 
ATOM     44  C   UNL A   1      38.417  30.252  29.179  1.00  0.00     0.031 C 
ATOM     45  C   UNL A   1      37.818  34.421  34.654  1.00  0.00     0.029 A 
ATOM     46  C   UNL A   1      38.862  33.406  34.748  1.00  0.00     0.049 A 
ATOM     47  H   UNL A   1      39.417  32.021  33.295  1.00  0.00     0.167 HD
ATOM     48  C   UNL A   1      40.238  28.950  30.234  1.00  0.00     0.037 A 
ATOM     49  C   UNL A   1      39.661  33.194  35.811  1.00  0.00     0.037 A 
ATOM     50  C   UNL A   1      41.172  28.690  31.295  1.00  0.00     0.049 A 
ATOM     51  C   UNL A   1      40.682  32.087  35.745  1.00  0.00     0.074 A 
ATOM     52  C   UNL A   1      42.168  27.735  31.353  1.00  0.00     0.029 A 
ATOM     53  N   UNL A   1      41.230  29.408  32.480  1.00  0.00    -0.354 N 
ATOM     54  N   UNL A   1      40.924  31.240  34.775  1.00  0.00    -0.248 NA
ATOM     55  C   UNL A   1      41.545  31.912  36.921  1.00  0.00     0.031 C 
ATOM     56  C   UNL A   1      42.817  27.858  32.586  1.00  0.00     0.029 A 
ATOM     57  C   UNL A   1      42.250  28.918  33.276  1.00  0.00     0.049 A 
ATOM     58  H   UNL A   1      40.635  30.155  32.719  1.00  0.00     0.167 HD
ATOM     59  C   UNL A   1      41.991  30.463  35.203  1.00  0.00     0.074 A 
ATOM     60  C   UNL A   1      42.354  30.941  36.520  1.00  0.00     0.031 C 
ATOM     61  C   UNL A   1      42.616  29.443  34.566  1.00  0.00     0.037 A 
BRANCH  48  62
ATOM     62  C   UNL A   1      40.282  28.089  29.006  1.00  0.00     0.064 A 
ATOM     63  C   UNL A   1      39.562  26.886  28.929  1.00  0.00     0.173 A 
ATOM     64  C   UNL A   1      41.031  28.477  27.887  1.00  0.00     0.173 A 
ATOM     65  F   UNL A   1      38.842  26.462  29.979  1.00  0.00    -0.203 F 
ATOM     66  C   UNL A   1      39.620  26.088  27.790  1.00  0.00     0.198 A 
ATOM     67  C   UNL A   1      41.060  27.692  26.737  1.00  0.00     0.198 A 
ATOM     68  F   UNL A   1      41.736  29.618  27.906  1.00  0.00    -0.203 F 
ATOM     69  F   UNL A   1      38.970  24.915  27.764  1.00  0.00    -0.200 F 
ATOM     70  C   UNL A   1      40.361  26.495  26.693  1.00  0.00     0.200 A 
ATOM     71  F   UNL A   1      41.768  28.092  25.672  1.00  0.00    -0.200 F 
ATOM     72  F   UNL A   1      40.411  25.727  25.595  1.00  0.00    -0.200 F 
ENDBRANCH  48  62
BRANCH  49  73
ATOM     73  C   UNL A   1      39.559  34.061  37.016  1.00  0.00     0.064 A 
ATOM     74  C   UNL A   1      38.804  33.654  38.126  1.00  0.00     0.173 A 
ATOM     75  C   UNL A   1      40.184  35.314  37.077  1.00  0.00     0.173 A 
ATOM     76  F   UNL A   1      38.172  32.473  38.108  1.00  0.00    -0.203 F 
ATOM     77  C   UNL A   1      38.653  34.482  39.238  1.00  0.00     0.198 A 
ATOM     78  C   UNL A   1      40.056  36.129  38.201  1.00  0.00     0.198 A 
ATOM     79  F   UNL A   1      40.923  35.748  36.045  1.00  0.00    -0.203 F 
ATOM     80  F   UNL A   1      37.880  34.091  40.260  1.00  0.00    -0.200 F 
ATOM     81  C   UNL A   1      39.282  35.717  39.276  1.00  0.00     0.200 A 
ATOM     82  F   UNL A   1      40.675  37.316  38.240  1.00  0.00    -0.200 F 
ATOM     83  F   UNL A   1      39.133  36.513  40.342  1.00  0.00    -0.200 F 
ENDBRANCH  49  73
BRANCH  61  84
ATOM     84  C   UNL A   1      43.801  28.826  35.246  1.00  0.00     0.064 A 
ATOM     85  C   UNL A   1      45.106  29.283  35.017  1.00  0.00     0.173 A 
ATOM     86  C   UNL A   1      43.614  27.806  36.191  1.00  0.00     0.173 A 
ATOM     87  F   UNL A   1      45.334  30.247  34.113  1.00  0.00    -0.203 F 
ATOM     88  C   UNL A   1      46.185  28.727  35.696  1.00  0.00     0.198 A 
ATOM     89  C   UNL A   1      44.693  27.272  36.890  1.00  0.00     0.198 A 
ATOM     90  F   UNL A   1      42.383  27.340  36.450  1.00  0.00    -0.203 F 
ATOM     91  F   UNL A   1      47.429  29.152  35.436  1.00  0.00    -0.200 F 
ATOM     92  C   UNL A   1      45.977  27.729  36.639  1.00  0.00     0.200 A 
ATOM     93  F   UNL A   1      44.488  26.319  37.809  1.00  0.00    -0.200 F 
ATOM     94  F   UNL A   1      47.017  27.206  37.302  1.00  0.00    -0.200 F 
ENDBRANCH  61  84
ENDBRANCH  35  36
ENDBRANCH  27  30
ENDBRANCH  25  26
ENDBRANCH  24  25
ENDBRANCH   1  24
TORSDOF 18
ENDMDL
MODEL 3
REMARK VINA RESULT:     -11.7      5.527      9.627
REMARK SMILES CCCC[C@H](C(=O)NCCCCNC(=O)c1ccc(-c2c3nc(c(-c4c(F)c(F)c(F)c(F)c4F)c4ccc([nH]4)c(-c4c(F)c(F)c(F)c(F)c4F)c4nc(c(-c5c(F)c(F)c(F)c(F)c5F)c5ccc2[nH]5)C=C4)C=C3)cc1)[C@H](O)c1cccc(C2CC2)c1
REMARK SMILES IDX 10 1 9 2 8 3 6 4 7 5 5 7 4 8 3 9 2 10 1 11 79 12 81 13 82 14
REMARK SMILES IDX 89 15 83 16 85 17 84 18 86 19 87 20 88 21 80 22 11 24 12 25
REMARK SMILES IDX 13 26 14 27 15 29 16 30 17 31 78 32 18 33 77 34 19 35 20 36
REMARK SMILES IDX 21 37 71 38 22 39 76 40 70 41 72 42 23 43 75 44 69 45 68 46
REMARK SMILES IDX 24 48 56 49 36 50 55 51 37 52 40 53 54 54 73 55 38 56 39 57
REMARK SMILES IDX 53 59 74 60 41 61 25 62 26 63 34 64 27 65 28 66 32 67 35 68
REMARK SMILES IDX 29 69 30 70 33 71 31 72 57 73 58 74 66 75 59 76 60 77 64 78
REMARK SMILES IDX 67 79 61 80 62 81 65 82 63 83 42 84 43 85 51 86 44 87 45 88
REMARK SMILES IDX 49 89 52 90 46 91 47 92 50 93 48 94
REMARK H PARENT 8 6 80 23 13 28 72 47 40 58
REMARK Flexibility Score: inf
ROOT
ATOM      1  C   UNL A   1      37.315  21.691  24.483  1.00  0.00     0.023 C 
ENDROOT
BRANCH   1   2
ATOM      2  C   UNL A   1      36.943  22.751  25.511  1.00  0.00     0.116 C 
BRANCH   2   3
ATOM      3  N   UNL A   1      36.081  22.297  26.585  1.00  0.00    -0.356 N 
ATOM      4  C   UNL A   1      34.722  22.264  26.693  1.00  0.00     0.226 C 
ATOM      5  O   UNL A   1      34.276  21.497  27.553  1.00  0.00    -0.275 OA
ATOM      6  H   UNL A   1      36.560  21.953  27.372  1.00  0.00     0.163 HD
BRANCH   4   7
ATOM      7  C   UNL A   1      33.773  23.144  25.880  1.00  0.00     0.111 C 
BRANCH   7   8
ATOM      8  C   UNL A   1      33.176  22.454  24.629  1.00  0.00     0.016 C 
BRANCH   8   9
ATOM      9  C   UNL A   1      33.747  22.941  23.273  1.00  0.00     0.001 C 
BRANCH   9  10
ATOM     10  C   UNL A   1      34.125  24.420  23.137  1.00  0.00    -0.003 C 
ATOM     11  C   UNL A   1      33.058  25.260  22.457  1.00  0.00     0.004 C 
ENDBRANCH   9  10
ENDBRANCH   8   9
ENDBRANCH   7   8
BRANCH   7  12
ATOM     12  C   UNL A   1      32.767  24.029  26.695  1.00  0.00     0.157 C 
BRANCH  12  13
ATOM     13  C   UNL A   1      32.068  25.240  26.100  1.00  0.00    -0.019 A 
ATOM     14  C   UNL A   1      30.725  25.172  25.725  1.00  0.00     0.006 A 
ATOM     15  C   UNL A   1      32.685  26.513  26.068  1.00  0.00     0.010 A 
ATOM     16  C   UNL A   1      30.104  26.243  25.088  1.00  0.00     0.001 A 
ATOM     17  C   UNL A   1      32.020  27.662  25.575  1.00  0.00    -0.045 A 
ATOM     18  C   UNL A   1      30.763  27.459  24.985  1.00  0.00     0.004 A 
BRANCH  17  19
ATOM     19  C   UNL A   1      32.489  29.097  25.740  1.00  0.00     0.019 C 
ATOM     20  C   UNL A   1      32.038  29.881  26.951  1.00  0.00     0.009 C 
ATOM     21  C   UNL A   1      33.495  29.585  26.738  1.00  0.00     0.009 C 
ENDBRANCH  17  19
ENDBRANCH  12  13
BRANCH  12  22
ATOM     22  O   UNL A   1      31.746  23.172  27.234  1.00  0.00    -0.388 OA
ATOM     23  H   UNL A   1      31.141  23.695  27.784  1.00  0.00     0.211 HD
ENDBRANCH  12  22
ENDBRANCH   7  12
ENDBRANCH   4   7
ENDBRANCH   2   3
ENDBRANCH   1   2
BRANCH   1  24
ATOM     24  C   UNL A   1      37.971  20.444  25.068  1.00  0.00     0.023 C 
BRANCH  24  25
ATOM     25  C   UNL A   1      39.276  20.704  25.806  1.00  0.00     0.116 C 
BRANCH  25  26
ATOM     26  N   UNL A   1      40.110  19.512  25.910  1.00  0.00    -0.352 N 
ATOM     27  C   UNL A   1      41.463  19.429  26.153  1.00  0.00     0.251 C 
ATOM     28  H   UNL A   1      39.644  18.652  25.789  1.00  0.00     0.163 HD
ATOM     29  O   UNL A   1      42.068  18.376  26.046  1.00  0.00    -0.269 OA
BRANCH  27  30
ATOM     30  C   UNL A   1      42.169  20.667  26.531  1.00  0.00     0.039 A 
ATOM     31  C   UNL A   1      42.633  21.528  25.536  1.00  0.00     0.014 A 
ATOM     32  C   UNL A   1      42.264  21.009  27.881  1.00  0.00     0.014 A 
ATOM     33  C   UNL A   1      43.124  22.784  25.899  1.00  0.00     0.010 A 
ATOM     34  C   UNL A   1      42.651  22.292  28.228  1.00  0.00     0.010 A 
ATOM     35  C   UNL A   1      43.096  23.189  27.243  1.00  0.00    -0.014 A 
BRANCH  35  36
ATOM     36  C   UNL A   1      43.572  24.525  27.677  1.00  0.00     0.031 A 
ATOM     37  C   UNL A   1      42.554  25.571  28.039  1.00  0.00     0.074 A 
ATOM     38  C   UNL A   1      44.884  24.828  27.649  1.00  0.00     0.049 A 
ATOM     39  N   UNL A   1      42.716  26.850  28.258  1.00  0.00    -0.248 NA
ATOM     40  C   UNL A   1      41.153  25.122  28.114  1.00  0.00     0.031 C 
ATOM     41  C   UNL A   1      45.963  23.911  27.276  1.00  0.00     0.029 A 
ATOM     42  N   UNL A   1      45.533  26.006  27.924  1.00  0.00    -0.354 N 
ATOM     43  C   UNL A   1      41.439  27.358  28.460  1.00  0.00     0.074 A 
ATOM     44  C   UNL A   1      40.509  26.267  28.272  1.00  0.00     0.031 C 
ATOM     45  C   UNL A   1      47.140  24.555  27.369  1.00  0.00     0.029 A 
ATOM     46  C   UNL A   1      46.895  25.938  27.762  1.00  0.00     0.049 A 
ATOM     47  H   UNL A   1      45.065  26.824  28.210  1.00  0.00     0.167 HD
ATOM     48  C   UNL A   1      41.076  28.616  28.803  1.00  0.00     0.037 A 
ATOM     49  C   UNL A   1      47.835  26.893  27.908  1.00  0.00     0.037 A 
ATOM     50  C   UNL A   1      42.011  29.681  29.041  1.00  0.00     0.049 A 
ATOM     51  C   UNL A   1      47.405  28.281  28.308  1.00  0.00     0.074 A 
ATOM     52  C   UNL A   1      41.758  30.981  29.434  1.00  0.00     0.029 A 
ATOM     53  N   UNL A   1      43.387  29.555  28.922  1.00  0.00    -0.354 N 
ATOM     54  N   UNL A   1      46.199  28.743  28.534  1.00  0.00    -0.248 NA
ATOM     55  C   UNL A   1      48.469  29.280  28.478  1.00  0.00     0.031 C 
ATOM     56  C   UNL A   1      42.981  31.651  29.531  1.00  0.00     0.029 A 
ATOM     57  C   UNL A   1      43.998  30.756  29.239  1.00  0.00     0.049 A 
ATOM     58  H   UNL A   1      43.860  28.734  28.653  1.00  0.00     0.167 HD
ATOM     59  C   UNL A   1      46.361  30.068  28.914  1.00  0.00     0.074 A 
ATOM     60  C   UNL A   1      47.783  30.337  28.892  1.00  0.00     0.031 C 
ATOM     61  C   UNL A   1      45.420  30.982  29.250  1.00  0.00     0.037 A 
BRANCH  48  62
ATOM     62  C   UNL A   1      39.610  28.894  28.962  1.00  0.00     0.064 A 
ATOM     63  C   UNL A   1      38.971  28.762  30.205  1.00  0.00     0.173 A 
ATOM     64  C   UNL A   1      38.839  29.316  27.870  1.00  0.00     0.173 A 
ATOM     65  F   UNL A   1      39.660  28.346  31.279  1.00  0.00    -0.203 F 
ATOM     66  C   UNL A   1      37.607  29.009  30.340  1.00  0.00     0.198 A 
ATOM     67  C   UNL A   1      37.483  29.594  28.016  1.00  0.00     0.198 A 
ATOM     68  F   UNL A   1      39.401  29.460  26.660  1.00  0.00    -0.203 F 
ATOM     69  F   UNL A   1      37.008  28.820  31.524  1.00  0.00    -0.200 F 
ATOM     70  C   UNL A   1      36.866  29.433  29.248  1.00  0.00     0.200 A 
ATOM     71  F   UNL A   1      36.769  30.015  26.963  1.00  0.00    -0.200 F 
ATOM     72  F   UNL A   1      35.555  29.675  29.381  1.00  0.00    -0.200 F 
ENDBRANCH  48  62
BRANCH  49  73
ATOM     73  C   UNL A   1      49.274  26.572  27.713  1.00  0.00     0.064 A 
ATOM     74  C   UNL A   1      49.806  26.435  26.423  1.00  0.00     0.173 A 
ATOM     75  C   UNL A   1      50.137  26.369  28.799  1.00  0.00     0.173 A 
ATOM     76  F   UNL A   1      49.016  26.600  25.352  1.00  0.00    -0.203 F 
ATOM     77  C   UNL A   1      51.139  26.076  26.227  1.00  0.00     0.198 A 
ATOM     78  C   UNL A   1      51.478  26.039  28.601  1.00  0.00     0.198 A 
ATOM     79  F   UNL A   1      49.681  26.494  30.054  1.00  0.00    -0.203 F 
ATOM     80  F   UNL A   1      51.605  25.898  24.983  1.00  0.00    -0.200 F 
ATOM     81  C   UNL A   1      51.974  25.882  27.315  1.00  0.00     0.200 A 
ATOM     82  F   UNL A   1      52.286  25.865  29.655  1.00  0.00    -0.200 F 
ATOM     83  F   UNL A   1      53.254  25.534  27.126  1.00  0.00    -0.200 F 
ENDBRANCH  49  73
BRANCH  61  84
ATOM     84  C   UNL A   1      45.895  32.333  29.695  1.00  0.00     0.064 A 
ATOM     85  C   UNL A   1      46.039  33.398  28.795  1.00  0.00     0.173 A 
ATOM     86  C   UNL A   1      46.143  32.577  31.054  1.00  0.00     0.173 A 
ATOM     87  F   UNL A   1      45.825  33.208  27.485  1.00  0.00    -0.203 F 
ATOM     88  C   UNL A   1      46.435  34.656  29.239  1.00  0.00     0.198 A 
ATOM     89  C   UNL A   1      46.511  33.843  31.498  1.00  0.00     0.198 A 
ATOM     90  F   UNL A   1      46.010  31.590  31.954  1.00  0.00    -0.203 F 
ATOM     91  F   UNL A   1      46.604  35.652  28.359  1.00  0.00    -0.200 F 
ATOM     92  C   UNL A   1      46.661  34.880  30.590  1.00  0.00     0.200 A 
ATOM     93  F   UNL A   1      46.715  34.060  32.804  1.00  0.00    -0.200 F 
ATOM     94  F   UNL A   1      47.028  36.096  31.017  1.00  0.00    -0.200 F 
ENDBRANCH  61  84
ENDBRANCH  35  36
ENDBRANCH  27  30
ENDBRANCH  25  26
ENDBRANCH  24  25
ENDBRANCH   1  24
TORSDOF 18
ENDMDL
