MODEL 1
REMARK VINA RESULT:     -12.9      0.000      0.000
REMARK SMILES CCc1cccc2c3c([nH]c12)[C@](CC)(CC(=O)NCCCCNC(=O)c1ccc(-c2c4nc(c(-c5c(F)c(F)c(F)c(F)c5F)c5ccc([nH]5)c(-c5c(F)c(F)c(F)c(F)c5F)c5nc(c(-c6c(F)c(F)c(F)c(F)c6F)c6ccc2[nH]6)C=C5)C=C4)cc1)OCC3
REMARK SMILES IDX 20 1 19 2 18 3 16 4 17 5 15 7 12 8 3 9 4 10 11 11 5 12 7 13
REMARK SMILES IDX 10 14 6 15 8 16 9 17 91 19 90 20 89 21 2 22 1 23 13 24 14 25
REMARK SMILES IDX 21 26 22 27 23 28 24 29 25 31 26 32 27 33 88 34 28 35 87 36
REMARK SMILES IDX 29 37 30 38 31 39 81 40 32 41 86 42 80 43 82 44 33 45 85 46
REMARK SMILES IDX 79 47 78 48 34 50 66 51 46 52 65 53 47 54 50 55 64 56 83 57
REMARK SMILES IDX 48 58 49 59 63 61 84 62 51 63 35 64 36 65 44 66 37 67 38 68
REMARK SMILES IDX 42 69 45 70 39 71 40 72 43 73 41 74 67 75 68 76 76 77 69 78
REMARK SMILES IDX 70 79 74 80 77 81 71 82 72 83 75 84 73 85 52 86 53 87 61 88
REMARK SMILES IDX 54 89 55 90 59 91 62 92 56 93 57 94 60 95 58 96
REMARK H PARENT 18 6 10 18 23 30 82 49 50 60
REMARK Flexibility Score: inf
ROOT
ATOM      1  C   UNL A   1      35.112  30.192  27.481  1.00  0.00     0.023 C 
ENDROOT
BRANCH   1   2
ATOM      2  C   UNL A   1      34.443  28.939  26.892  1.00  0.00     0.116 C 
BRANCH   2   3
ATOM      3  N   UNL A   1      33.222  28.511  27.566  1.00  0.00    -0.356 N 
ATOM      4  C   UNL A   1      31.963  28.244  27.099  1.00  0.00     0.223 C 
ATOM      5  O   UNL A   1      31.107  27.921  27.928  1.00  0.00    -0.275 OA
ATOM      6  H   UNL A   1      33.323  28.391  28.539  1.00  0.00     0.163 HD
BRANCH   4   7
ATOM      7  C   UNL A   1      31.647  28.285  25.621  1.00  0.00     0.142 C 
BRANCH   7   8
ATOM      8  C   UNL A   1      31.703  26.978  24.790  1.00  0.00     0.117 C 
ATOM      9  C   UNL A   1      35.294  23.561  25.923  1.00  0.00    -0.024 A 
ATOM     10  C   UNL A   1      35.230  22.327  26.612  1.00  0.00     0.006 A 
ATOM     11  C   UNL A   1      34.113  24.328  25.897  1.00  0.00     0.049 A 
ATOM     12  C   UNL A   1      34.070  21.881  27.235  1.00  0.00     0.001 A 
ATOM     13  C   UNL A   1      32.933  23.866  26.473  1.00  0.00     0.003 A 
ATOM     14  N   UNL A   1      33.828  25.568  25.338  1.00  0.00    -0.356 N 
ATOM     15  C   UNL A   1      32.909  22.642  27.163  1.00  0.00     0.010 A 
ATOM     16  C   UNL A   1      31.923  24.776  26.107  1.00  0.00    -0.014 A 
ATOM     17  C   UNL A   1      32.482  25.843  25.437  1.00  0.00     0.052 A 
ATOM     18  H   UNL A   1      34.495  26.166  24.929  1.00  0.00     0.166 HD
ATOM     19  C   UNL A   1      30.475  24.584  26.236  1.00  0.00     0.066 C 
ATOM     20  C   UNL A   1      29.729  25.708  25.547  1.00  0.00     0.166 C 
ATOM     21  O   UNL A   1      30.397  26.425  24.493  1.00  0.00    -0.368 OA
BRANCH   9  22
ATOM     22  C   UNL A   1      36.593  23.973  25.284  1.00  0.00     0.034 C 
ATOM     23  C   UNL A   1      37.740  23.851  26.273  1.00  0.00     0.009 C 
ENDBRANCH   9  22
BRANCH   8  24
ATOM     24  C   UNL A   1      32.325  27.308  23.392  1.00  0.00     0.039 C 
ATOM     25  C   UNL A   1      33.205  28.562  23.335  1.00  0.00     0.007 C 
ENDBRANCH   8  24
ENDBRANCH   7   8
ENDBRANCH   4   7
ENDBRANCH   2   3
ENDBRANCH   1   2
BRANCH   1  26
ATOM     26  C   UNL A   1      34.213  31.425  27.700  1.00  0.00     0.023 C 
BRANCH  26  27
ATOM     27  C   UNL A   1      34.958  32.634  28.246  1.00  0.00     0.116 C 
BRANCH  27  28
ATOM     28  N   UNL A   1      34.868  32.701  29.688  1.00  0.00    -0.352 N 
ATOM     29  C   UNL A   1      35.471  32.054  30.720  1.00  0.00     0.251 C 
ATOM     30  H   UNL A   1      34.218  33.373  29.993  1.00  0.00     0.163 HD
ATOM     31  O   UNL A   1      34.993  32.295  31.843  1.00  0.00    -0.269 OA
BRANCH  29  32
ATOM     32  C   UNL A   1      36.607  31.098  30.630  1.00  0.00     0.039 A 
ATOM     33  C   UNL A   1      36.543  29.711  30.782  1.00  0.00     0.014 A 
ATOM     34  C   UNL A   1      37.861  31.681  30.358  1.00  0.00     0.014 A 
ATOM     35  C   UNL A   1      37.707  28.941  30.728  1.00  0.00     0.010 A 
ATOM     36  C   UNL A   1      39.019  30.921  30.284  1.00  0.00     0.010 A 
ATOM     37  C   UNL A   1      38.947  29.552  30.511  1.00  0.00    -0.014 A 
BRANCH  37  38
ATOM     38  C   UNL A   1      40.144  28.718  30.467  1.00  0.00     0.031 A 
ATOM     39  C   UNL A   1      40.863  28.539  31.763  1.00  0.00     0.074 A 
ATOM     40  C   UNL A   1      40.534  28.053  29.362  1.00  0.00     0.049 A 
ATOM     41  N   UNL A   1      42.081  28.866  32.050  1.00  0.00    -0.248 NA
ATOM     42  C   UNL A   1      40.105  28.003  32.903  1.00  0.00     0.031 C 
ATOM     43  C   UNL A   1      39.833  27.904  28.084  1.00  0.00     0.029 A 
ATOM     44  N   UNL A   1      41.648  27.288  29.189  1.00  0.00    -0.354 N 
ATOM     45  C   UNL A   1      42.299  28.464  33.367  1.00  0.00     0.074 A 
ATOM     46  C   UNL A   1      41.021  28.033  33.874  1.00  0.00     0.031 C 
ATOM     47  C   UNL A   1      40.434  26.938  27.353  1.00  0.00     0.029 A 
ATOM     48  C   UNL A   1      41.634  26.501  28.046  1.00  0.00     0.049 A 
ATOM     49  H   UNL A   1      42.402  27.294  29.822  1.00  0.00     0.167 HD
ATOM     50  C   UNL A   1      43.553  28.368  33.895  1.00  0.00     0.037 A 
ATOM     51  C   UNL A   1      42.525  25.533  27.722  1.00  0.00     0.037 A 
ATOM     52  C   UNL A   1      44.507  29.120  33.124  1.00  0.00     0.049 A 
ATOM     53  C   UNL A   1      43.767  25.795  28.493  1.00  0.00     0.074 A 
ATOM     54  C   UNL A   1      44.658  30.460  32.821  1.00  0.00     0.029 A 
ATOM     55  N   UNL A   1      45.313  28.451  32.238  1.00  0.00    -0.354 N 
ATOM     56  N   UNL A   1      44.555  26.809  28.265  1.00  0.00    -0.248 NA
ATOM     57  C   UNL A   1      43.890  25.189  29.811  1.00  0.00     0.031 C 
ATOM     58  C   UNL A   1      45.118  30.481  31.473  1.00  0.00     0.029 A 
ATOM     59  C   UNL A   1      45.270  29.157  31.061  1.00  0.00     0.049 A 
ATOM     60  H   UNL A   1      45.822  27.626  32.411  1.00  0.00     0.167 HD
ATOM     61  C   UNL A   1      44.952  27.234  29.525  1.00  0.00     0.074 A 
ATOM     62  C   UNL A   1      44.584  26.148  30.430  1.00  0.00     0.031 C 
ATOM     63  C   UNL A   1      45.281  28.538  29.759  1.00  0.00     0.037 A 
BRANCH  50  64
ATOM     64  C   UNL A   1      43.977  27.368  34.942  1.00  0.00     0.064 A 
ATOM     65  C   UNL A   1      43.816  25.988  34.696  1.00  0.00     0.173 A 
ATOM     66  C   UNL A   1      44.256  27.717  36.280  1.00  0.00     0.173 A 
ATOM     67  F   UNL A   1      43.535  25.541  33.463  1.00  0.00    -0.203 F 
ATOM     68  C   UNL A   1      43.851  25.044  35.725  1.00  0.00     0.198 A 
ATOM     69  C   UNL A   1      44.341  26.765  37.297  1.00  0.00     0.198 A 
ATOM     70  F   UNL A   1      44.347  28.992  36.676  1.00  0.00    -0.203 F 
ATOM     71  F   UNL A   1      43.570  23.760  35.462  1.00  0.00    -0.200 F 
ATOM     72  C   UNL A   1      44.106  25.435  37.027  1.00  0.00     0.200 A 
ATOM     73  F   UNL A   1      44.574  27.166  38.555  1.00  0.00    -0.200 F 
ATOM     74  F   UNL A   1      44.077  24.541  38.025  1.00  0.00    -0.200 F 
ENDBRANCH  50  64
BRANCH  51  75
ATOM     75  C   UNL A   1      42.281  24.264  26.997  1.00  0.00     0.064 A 
ATOM     76  C   UNL A   1      43.146  23.821  25.984  1.00  0.00     0.173 A 
ATOM     77  C   UNL A   1      41.341  23.328  27.471  1.00  0.00     0.173 A 
ATOM     78  F   UNL A   1      44.102  24.631  25.508  1.00  0.00    -0.203 F 
ATOM     79  C   UNL A   1      43.087  22.512  25.489  1.00  0.00     0.198 A 
ATOM     80  C   UNL A   1      41.277  22.026  26.972  1.00  0.00     0.198 A 
ATOM     81  F   UNL A   1      40.526  23.627  28.492  1.00  0.00    -0.203 F 
ATOM     82  F   UNL A   1      43.968  22.105  24.564  1.00  0.00    -0.200 F 
ATOM     83  C   UNL A   1      42.158  21.614  25.991  1.00  0.00     0.200 A 
ATOM     84  F   UNL A   1      40.399  21.158  27.492  1.00  0.00    -0.200 F 
ATOM     85  F   UNL A   1      42.140  20.344  25.561  1.00  0.00    -0.200 F 
ENDBRANCH  51  75
BRANCH  63  86
ATOM     86  C   UNL A   1      45.392  29.456  28.573  1.00  0.00     0.064 A 
ATOM     87  C   UNL A   1      44.292  30.121  28.003  1.00  0.00     0.173 A 
ATOM     88  C   UNL A   1      46.664  29.799  28.101  1.00  0.00     0.173 A 
ATOM     89  F   UNL A   1      43.054  29.934  28.475  1.00  0.00    -0.203 F 
ATOM     90  C   UNL A   1      44.455  31.048  26.977  1.00  0.00     0.198 A 
ATOM     91  C   UNL A   1      46.829  30.754  27.099  1.00  0.00     0.198 A 
ATOM     92  F   UNL A   1      47.757  29.246  28.650  1.00  0.00    -0.203 F 
ATOM     93  F   UNL A   1      43.386  31.662  26.449  1.00  0.00    -0.200 F 
ATOM     94  C   UNL A   1      45.725  31.370  26.531  1.00  0.00     0.200 A 
ATOM     95  F   UNL A   1      48.062  31.103  26.709  1.00  0.00    -0.200 F 
ATOM     96  F   UNL A   1      45.888  32.296  25.576  1.00  0.00    -0.200 F 
ENDBRANCH  63  86
ENDBRANCH  37  38
ENDBRANCH  29  32
ENDBRANCH  27  28
ENDBRANCH  26  27
ENDBRANCH   1  26
TORSDOF 14
ENDMDL
MODEL 2
REMARK VINA RESULT:     -12.8      3.588      8.903
REMARK SMILES CCc1cccc2c3c([nH]c12)[C@](CC)(CC(=O)NCCCCNC(=O)c1ccc(-c2c4nc(c(-c5c(F)c(F)c(F)c(F)c5F)c5ccc([nH]5)c(-c5c(F)c(F)c(F)c(F)c5F)c5nc(c(-c6c(F)c(F)c(F)c(F)c6F)c6ccc2[nH]6)C=C5)C=C4)cc1)OCC3
REMARK SMILES IDX 20 1 19 2 18 3 16 4 17 5 15 7 12 8 3 9 4 10 11 11 5 12 7 13
REMARK SMILES IDX 10 14 6 15 8 16 9 17 91 19 90 20 89 21 2 22 1 23 13 24 14 25
REMARK SMILES IDX 21 26 22 27 23 28 24 29 25 31 26 32 27 33 88 34 28 35 87 36
REMARK SMILES IDX 29 37 30 38 31 39 81 40 32 41 86 42 80 43 82 44 33 45 85 46
REMARK SMILES IDX 79 47 78 48 34 50 66 51 46 52 65 53 47 54 50 55 64 56 83 57
REMARK SMILES IDX 48 58 49 59 63 61 84 62 51 63 35 64 36 65 44 66 37 67 38 68
REMARK SMILES IDX 42 69 45 70 39 71 40 72 43 73 41 74 67 75 68 76 76 77 69 78
REMARK SMILES IDX 70 79 74 80 77 81 71 82 72 83 75 84 73 85 52 86 53 87 61 88
REMARK SMILES IDX 54 89 55 90 59 91 62 92 56 93 57 94 60 95 58 96
REMARK H PARENT 18 6 10 18 23 30 82 49 50 60
REMARK Flexibility Score: inf
ROOT
ATOM      1  C   UNL A   1      38.741  23.625  26.685  1.00  0.00     0.023 C 
ENDROOT
BRANCH   1   2
ATOM      2  C   UNL A   1      37.366  23.932  26.066  1.00  0.00     0.116 C 
BRANCH   2   3
ATOM      3  N   UNL A   1      37.270  23.717  24.627  1.00  0.00    -0.356 N 
ATOM      4  C   UNL A   1      36.416  22.963  23.868  1.00  0.00     0.223 C 
ATOM      5  O   UNL A   1      36.598  22.954  22.647  1.00  0.00    -0.275 OA
ATOM      6  H   UNL A   1      37.946  24.206  24.103  1.00  0.00     0.163 HD
BRANCH   4   7
ATOM      7  C   UNL A   1      35.258  22.218  24.493  1.00  0.00     0.142 C 
BRANCH   7   8
ATOM      8  C   UNL A   1      33.869  22.899  24.583  1.00  0.00     0.117 C 
ATOM      9  C   UNL A   1      33.700  27.918  25.383  1.00  0.00    -0.024 A 
ATOM     10  C   UNL A   1      33.427  28.998  24.511  1.00  0.00     0.006 A 
ATOM     11  C   UNL A   1      33.790  26.642  24.794  1.00  0.00     0.049 A 
ATOM     12  C   UNL A   1      33.252  28.823  23.142  1.00  0.00     0.001 A 
ATOM     13  C   UNL A   1      33.565  26.450  23.433  1.00  0.00     0.003 A 
ATOM     14  N   UNL A   1      34.055  25.390  25.336  1.00  0.00    -0.356 N 
ATOM     15  C   UNL A   1      33.311  27.548  22.593  1.00  0.00     0.010 A 
ATOM     16  C   UNL A   1      33.547  25.059  23.219  1.00  0.00    -0.014 A 
ATOM     17  C   UNL A   1      33.884  24.407  24.385  1.00  0.00     0.052 A 
ATOM     18  H   UNL A   1      34.327  25.228  26.269  1.00  0.00     0.166 HD
ATOM     19  C   UNL A   1      33.080  24.359  22.019  1.00  0.00     0.066 C 
ATOM     20  C   UNL A   1      33.038  22.864  22.262  1.00  0.00     0.166 C 
ATOM     21  O   UNL A   1      32.914  22.396  23.616  1.00  0.00    -0.368 OA
BRANCH   9  22
ATOM     22  C   UNL A   1      33.884  28.195  26.851  1.00  0.00     0.034 C 
ATOM     23  C   UNL A   1      34.899  29.305  27.064  1.00  0.00     0.009 C 
ENDBRANCH   9  22
BRANCH   8  24
ATOM     24  C   UNL A   1      33.242  22.561  25.978  1.00  0.00     0.039 C 
ATOM     25  C   UNL A   1      34.117  21.719  26.913  1.00  0.00     0.007 C 
ENDBRANCH   8  24
ENDBRANCH   7   8
ENDBRANCH   4   7
ENDBRANCH   2   3
ENDBRANCH   1   2
BRANCH   1  26
ATOM     26  C   UNL A   1      39.297  22.203  26.476  1.00  0.00     0.023 C 
BRANCH  26  27
ATOM     27  C   UNL A   1      40.665  21.984  27.103  1.00  0.00     0.116 C 
BRANCH  27  28
ATOM     28  N   UNL A   1      41.727  22.335  26.186  1.00  0.00    -0.352 N 
ATOM     29  C   UNL A   1      42.396  23.478  25.880  1.00  0.00     0.251 C 
ATOM     30  H   UNL A   1      42.039  21.564  25.660  1.00  0.00     0.163 HD
ATOM     31  O   UNL A   1      43.154  23.397  24.897  1.00  0.00    -0.269 OA
BRANCH  29  32
ATOM     32  C   UNL A   1      42.294  24.784  26.585  1.00  0.00     0.039 A 
ATOM     33  C   UNL A   1      42.849  25.106  27.826  1.00  0.00     0.014 A 
ATOM     34  C   UNL A   1      41.561  25.776  25.904  1.00  0.00     0.014 A 
ATOM     35  C   UNL A   1      42.622  26.362  28.394  1.00  0.00     0.010 A 
ATOM     36  C   UNL A   1      41.347  27.031  26.455  1.00  0.00     0.010 A 
ATOM     37  C   UNL A   1      41.844  27.310  27.722  1.00  0.00    -0.014 A 
BRANCH  37  38
ATOM     38  C   UNL A   1      41.621  28.609  28.349  1.00  0.00     0.031 A 
ATOM     39  C   UNL A   1      42.673  29.640  28.104  1.00  0.00     0.074 A 
ATOM     40  C   UNL A   1      40.494  28.918  29.019  1.00  0.00     0.049 A 
ATOM     41  N   UNL A   1      43.411  30.248  28.977  1.00  0.00    -0.248 NA
ATOM     42  C   UNL A   1      43.000  29.975  26.711  1.00  0.00     0.031 C 
ATOM     43  C   UNL A   1      39.261  28.138  29.149  1.00  0.00     0.029 A 
ATOM     44  N   UNL A   1      40.195  30.071  29.679  1.00  0.00    -0.354 N 
ATOM     45  C   UNL A   1      44.209  31.142  28.265  1.00  0.00     0.074 A 
ATOM     46  C   UNL A   1      43.989  30.858  26.869  1.00  0.00     0.031 C 
ATOM     47  C   UNL A   1      38.286  28.922  29.662  1.00  0.00     0.029 A 
ATOM     48  C   UNL A   1      38.858  30.208  30.022  1.00  0.00     0.049 A 
ATOM     49  H   UNL A   1      40.873  30.752  29.895  1.00  0.00     0.167 HD
ATOM     50  C   UNL A   1      44.880  32.159  28.879  1.00  0.00     0.037 A 
ATOM     51  C   UNL A   1      38.263  31.317  30.527  1.00  0.00     0.037 A 
ATOM     52  C   UNL A   1      45.013  31.923  30.292  1.00  0.00     0.049 A 
ATOM     53  C   UNL A   1      39.330  32.160  31.124  1.00  0.00     0.074 A 
ATOM     54  C   UNL A   1      45.641  30.954  31.051  1.00  0.00     0.029 A 
ATOM     55  N   UNL A   1      44.157  32.564  31.151  1.00  0.00    -0.354 N 
ATOM     56  N   UNL A   1      39.984  31.835  32.204  1.00  0.00    -0.248 NA
ATOM     57  C   UNL A   1      39.981  33.141  30.268  1.00  0.00     0.031 C 
ATOM     58  C   UNL A   1      44.766  30.729  32.154  1.00  0.00     0.029 A 
ATOM     59  C   UNL A   1      43.693  31.612  32.025  1.00  0.00     0.049 A 
ATOM     60  H   UNL A   1      43.921  33.520  31.144  1.00  0.00     0.167 HD
ATOM     61  C   UNL A   1      41.291  32.229  31.954  1.00  0.00     0.074 A 
ATOM     62  C   UNL A   1      41.211  33.104  30.787  1.00  0.00     0.031 C 
ATOM     63  C   UNL A   1      42.346  31.586  32.536  1.00  0.00     0.037 A 
BRANCH  50  64
ATOM     64  C   UNL A   1      45.169  33.504  28.259  1.00  0.00     0.064 A 
ATOM     65  C   UNL A   1      46.506  33.918  28.083  1.00  0.00     0.173 A 
ATOM     66  C   UNL A   1      44.196  34.514  28.110  1.00  0.00     0.173 A 
ATOM     67  F   UNL A   1      47.517  33.045  28.215  1.00  0.00    -0.203 F 
ATOM     68  C   UNL A   1      46.843  35.255  27.854  1.00  0.00     0.198 A 
ATOM     69  C   UNL A   1      44.534  35.839  27.830  1.00  0.00     0.198 A 
ATOM     70  F   UNL A   1      42.897  34.286  28.334  1.00  0.00    -0.203 F 
ATOM     71  F   UNL A   1      48.132  35.620  27.816  1.00  0.00    -0.200 F 
ATOM     72  C   UNL A   1      45.856  36.216  27.736  1.00  0.00     0.200 A 
ATOM     73  F   UNL A   1      43.563  36.759  27.735  1.00  0.00    -0.200 F 
ATOM     74  F   UNL A   1      46.177  37.507  27.581  1.00  0.00    -0.200 F 
ENDBRANCH  50  64
BRANCH  51  75
ATOM     75  C   UNL A   1      36.885  31.807  30.294  1.00  0.00     0.064 A 
ATOM     76  C   UNL A   1      36.023  32.105  31.362  1.00  0.00     0.173 A 
ATOM     77  C   UNL A   1      36.479  32.251  29.020  1.00  0.00     0.173 A 
ATOM     78  F   UNL A   1      36.354  31.761  32.615  1.00  0.00    -0.203 F 
ATOM     79  C   UNL A   1      34.835  32.821  31.168  1.00  0.00     0.198 A 
ATOM     80  C   UNL A   1      35.291  32.958  28.826  1.00  0.00     0.198 A 
ATOM     81  F   UNL A   1      37.270  32.090  27.951  1.00  0.00    -0.203 F 
ATOM     82  F   UNL A   1      34.066  33.139  32.219  1.00  0.00    -0.200 F 
ATOM     83  C   UNL A   1      34.476  33.255  29.901  1.00  0.00     0.200 A 
ATOM     84  F   UNL A   1      34.975  33.403  27.603  1.00  0.00    -0.200 F 
ATOM     85  F   UNL A   1      33.371  33.992  29.724  1.00  0.00    -0.200 F 
ENDBRANCH  51  75
BRANCH  63  86
ATOM     86  C   UNL A   1      42.045  30.573  33.605  1.00  0.00     0.064 A 
ATOM     87  C   UNL A   1      41.730  29.230  33.333  1.00  0.00     0.173 A 
ATOM     88  C   UNL A   1      42.238  30.928  34.945  1.00  0.00     0.173 A 
ATOM     89  F   UNL A   1      41.640  28.786  32.075  1.00  0.00    -0.203 F 
ATOM     90  C   UNL A   1      41.568  28.299  34.356  1.00  0.00     0.198 A 
ATOM     91  C   UNL A   1      42.113  29.987  35.966  1.00  0.00     0.198 A 
ATOM     92  F   UNL A   1      42.605  32.179  35.264  1.00  0.00    -0.203 F 
ATOM     93  F   UNL A   1      41.261  27.027  34.066  1.00  0.00    -0.200 F 
ATOM     94  C   UNL A   1      41.768  28.678  35.673  1.00  0.00     0.200 A 
ATOM     95  F   UNL A   1      42.361  30.344  37.234  1.00  0.00    -0.200 F 
ATOM     96  F   UNL A   1      41.659  27.773  36.655  1.00  0.00    -0.200 F 
ENDBRANCH  63  86
ENDBRANCH  37  38
ENDBRANCH  29  32
ENDBRANCH  27  28
ENDBRANCH  26  27
ENDBRANCH   1  26
TORSDOF 14
ENDMDL
MODEL 3
REMARK VINA RESULT:     -12.8      1.668      2.404
REMARK SMILES CCc1cccc2c3c([nH]c12)[C@](CC)(CC(=O)NCCCCNC(=O)c1ccc(-c2c4nc(c(-c5c(F)c(F)c(F)c(F)c5F)c5ccc([nH]5)c(-c5c(F)c(F)c(F)c(F)c5F)c5nc(c(-c6c(F)c(F)c(F)c(F)c6F)c6ccc2[nH]6)C=C5)C=C4)cc1)OCC3
REMARK SMILES IDX 20 1 19 2 18 3 16 4 17 5 15 7 12 8 3 9 4 10 11 11 5 12 7 13
REMARK SMILES IDX 10 14 6 15 8 16 9 17 91 19 90 20 89 21 2 22 1 23 13 24 14 25
REMARK SMILES IDX 21 26 22 27 23 28 24 29 25 31 26 32 27 33 88 34 28 35 87 36
REMARK SMILES IDX 29 37 30 38 31 39 81 40 32 41 86 42 80 43 82 44 33 45 85 46
REMARK SMILES IDX 79 47 78 48 34 50 66 51 46 52 65 53 47 54 50 55 64 56 83 57
REMARK SMILES IDX 48 58 49 59 63 61 84 62 51 63 35 64 36 65 44 66 37 67 38 68
REMARK SMILES IDX 42 69 45 70 39 71 40 72 43 73 41 74 67 75 68 76 76 77 69 78
REMARK SMILES IDX 70 79 74 80 77 81 71 82 72 83 75 84 73 85 52 86 53 87 61 88
REMARK SMILES IDX 54 89 55 90 59 91 62 92 56 93 57 94 60 95 58 96
REMARK H PARENT 18 6 10 18 23 30 82 49 50 60
REMARK Flexibility Score: inf
ROOT
ATOM      1  C   UNL A   1      31.513  29.030  26.326  1.00  0.00     0.023 C 
ENDROOT
BRANCH   1   2
ATOM      2  C   UNL A   1      31.699  27.648  26.975  1.00  0.00     0.116 C 
BRANCH   2   3
ATOM      3  N   UNL A   1      30.883  26.580  26.409  1.00  0.00    -0.356 N 
ATOM      4  C   UNL A   1      31.182  25.296  26.040  1.00  0.00     0.223 C 
ATOM      5  O   UNL A   1      30.272  24.619  25.554  1.00  0.00    -0.275 OA
ATOM      6  H   UNL A   1      29.941  26.830  26.264  1.00  0.00     0.163 HD
BRANCH   4   7
ATOM      7  C   UNL A   1      32.556  24.710  26.276  1.00  0.00     0.142 C 
BRANCH   7   8
ATOM      8  C   UNL A   1      33.571  24.647  25.107  1.00  0.00     0.117 C 
ATOM      9  C   UNL A   1      38.407  23.499  26.182  1.00  0.00    -0.024 A 
ATOM     10  C   UNL A   1      39.150  22.308  26.004  1.00  0.00     0.006 A 
ATOM     11  C   UNL A   1      37.032  23.432  25.886  1.00  0.00     0.049 A 
ATOM     12  C   UNL A   1      38.567  21.126  25.560  1.00  0.00     0.001 A 
ATOM     13  C   UNL A   1      36.449  22.268  25.392  1.00  0.00     0.003 A 
ATOM     14  N   UNL A   1      36.022  24.384  25.961  1.00  0.00    -0.356 N 
ATOM     15  C   UNL A   1      37.214  21.098  25.243  1.00  0.00     0.010 A 
ATOM     16  C   UNL A   1      35.129  22.598  25.033  1.00  0.00    -0.014 A 
ATOM     17  C   UNL A   1      34.855  23.893  25.417  1.00  0.00     0.052 A 
ATOM     18  H   UNL A   1      36.127  25.283  26.349  1.00  0.00     0.166 HD
ATOM     19  C   UNL A   1      34.209  21.794  24.223  1.00  0.00     0.066 C 
ATOM     20  C   UNL A   1      32.960  22.587  23.898  1.00  0.00     0.166 C 
ATOM     21  O   UNL A   1      33.040  24.023  23.912  1.00  0.00    -0.368 OA
BRANCH   9  22
ATOM     22  C   UNL A   1      39.114  24.733  26.675  1.00  0.00     0.034 C 
ATOM     23  C   UNL A   1      39.260  24.700  28.187  1.00  0.00     0.009 C 
ENDBRANCH   9  22
BRANCH   8  24
ATOM     24  C   UNL A   1      33.917  26.112  24.674  1.00  0.00     0.039 C 
ATOM     25  C   UNL A   1      33.378  26.544  23.305  1.00  0.00     0.007 C 
ENDBRANCH   8  24
ENDBRANCH   7   8
ENDBRANCH   4   7
ENDBRANCH   2   3
ENDBRANCH   1   2
BRANCH   1  26
ATOM     26  C   UNL A   1      32.758  29.935  26.245  1.00  0.00     0.023 C 
BRANCH  26  27
ATOM     27  C   UNL A   1      33.425  30.178  27.590  1.00  0.00     0.116 C 
BRANCH  27  28
ATOM     28  N   UNL A   1      34.107  31.453  27.618  1.00  0.00    -0.352 N 
ATOM     29  C   UNL A   1      35.379  31.859  27.875  1.00  0.00     0.251 C 
ATOM     30  H   UNL A   1      33.509  32.203  27.398  1.00  0.00     0.163 HD
ATOM     31  O   UNL A   1      35.533  33.091  27.952  1.00  0.00    -0.269 OA
BRANCH  29  32
ATOM     32  C   UNL A   1      36.566  30.987  28.084  1.00  0.00     0.039 A 
ATOM     33  C   UNL A   1      36.677  29.636  27.746  1.00  0.00     0.014 A 
ATOM     34  C   UNL A   1      37.675  31.617  28.682  1.00  0.00     0.014 A 
ATOM     35  C   UNL A   1      37.838  28.925  28.056  1.00  0.00     0.010 A 
ATOM     36  C   UNL A   1      38.839  30.922  28.975  1.00  0.00     0.010 A 
ATOM     37  C   UNL A   1      38.905  29.562  28.700  1.00  0.00    -0.014 A 
BRANCH  37  38
ATOM     38  C   UNL A   1      40.101  28.788  29.014  1.00  0.00     0.031 A 
ATOM     39  C   UNL A   1      40.381  28.581  30.466  1.00  0.00     0.074 A 
ATOM     40  C   UNL A   1      40.860  28.194  28.072  1.00  0.00     0.049 A 
ATOM     41  N   UNL A   1      41.424  28.950  31.137  1.00  0.00    -0.248 NA
ATOM     42  C   UNL A   1      39.334  27.958  31.288  1.00  0.00     0.031 C 
ATOM     43  C   UNL A   1      40.610  28.073  26.634  1.00  0.00     0.029 A 
ATOM     44  N   UNL A   1      42.014  27.491  28.241  1.00  0.00    -0.354 N 
ATOM     45  C   UNL A   1      41.237  28.496  32.441  1.00  0.00     0.074 A 
ATOM     46  C   UNL A   1      39.891  27.984  32.501  1.00  0.00     0.031 C 
ATOM     47  C   UNL A   1      41.467  27.172  26.104  1.00  0.00     0.029 A 
ATOM     48  C   UNL A   1      42.409  26.759  27.131  1.00  0.00     0.049 A 
ATOM     49  H   UNL A   1      42.527  27.501  29.082  1.00  0.00     0.167 HD
ATOM     50  C   UNL A   1      42.262  28.434  33.339  1.00  0.00     0.037 A 
ATOM     51  C   UNL A   1      43.413  25.850  27.078  1.00  0.00     0.037 A 
ATOM     52  C   UNL A   1      43.365  29.265  32.936  1.00  0.00     0.049 A 
ATOM     53  C   UNL A   1      44.328  26.132  28.213  1.00  0.00     0.074 A 
ATOM     54  C   UNL A   1      43.525  30.623  32.737  1.00  0.00     0.029 A 
ATOM     55  N   UNL A   1      44.448  28.677  32.333  1.00  0.00    -0.354 N 
ATOM     56  N   UNL A   1      45.087  27.190  28.279  1.00  0.00    -0.248 NA
ATOM     57  C   UNL A   1      44.062  25.471  29.482  1.00  0.00     0.031 C 
ATOM     58  C   UNL A   1      44.387  30.730  31.607  1.00  0.00     0.029 A 
ATOM     59  C   UNL A   1      44.739  29.435  31.226  1.00  0.00     0.049 A 
ATOM     60  H   UNL A   1      44.924  27.869  32.635  1.00  0.00     0.167 HD
ATOM     61  C   UNL A   1      45.038  27.573  29.612  1.00  0.00     0.074 A 
ATOM     62  C   UNL A   1      44.467  26.430  30.319  1.00  0.00     0.031 C 
ATOM     63  C   UNL A   1      45.198  28.879  29.977  1.00  0.00     0.037 A 
BRANCH  50  64
ATOM     64  C   UNL A   1      42.391  27.407  34.436  1.00  0.00     0.064 A 
ATOM     65  C   UNL A   1      42.966  26.150  34.152  1.00  0.00     0.173 A 
ATOM     66  C   UNL A   1      41.708  27.497  35.667  1.00  0.00     0.173 A 
ATOM     67  F   UNL A   1      43.628  25.944  33.003  1.00  0.00    -0.203 F 
ATOM     68  C   UNL A   1      42.800  25.052  34.999  1.00  0.00     0.198 A 
ATOM     69  C   UNL A   1      41.588  26.410  36.535  1.00  0.00     0.198 A 
ATOM     70  F   UNL A   1      41.041  28.598  36.029  1.00  0.00    -0.203 F 
ATOM     71  F   UNL A   1      43.259  23.848  34.628  1.00  0.00    -0.200 F 
ATOM     72  C   UNL A   1      42.104  25.181  36.186  1.00  0.00     0.200 A 
ATOM     73  F   UNL A   1      40.896  26.552  37.674  1.00  0.00    -0.200 F 
ATOM     74  F   UNL A   1      41.887  24.115  36.969  1.00  0.00    -0.200 F 
ENDBRANCH  50  64
BRANCH  51  75
ATOM     75  C   UNL A   1      43.486  24.606  26.276  1.00  0.00     0.064 A 
ATOM     76  C   UNL A   1      44.373  24.483  25.194  1.00  0.00     0.173 A 
ATOM     77  C   UNL A   1      42.877  23.417  26.723  1.00  0.00     0.173 A 
ATOM     78  F   UNL A   1      45.032  25.556  24.735  1.00  0.00    -0.203 F 
ATOM     79  C   UNL A   1      44.649  23.241  24.609  1.00  0.00     0.198 A 
ATOM     80  C   UNL A   1      43.147  22.180  26.135  1.00  0.00     0.198 A 
ATOM     81  F   UNL A   1      42.079  23.416  27.800  1.00  0.00    -0.203 F 
ATOM     82  F   UNL A   1      45.547  23.153  23.618  1.00  0.00    -0.200 F 
ATOM     83  C   UNL A   1      44.043  22.090  25.088  1.00  0.00     0.200 A 
ATOM     84  F   UNL A   1      42.582  21.072  26.631  1.00  0.00    -0.200 F 
ATOM     85  F   UNL A   1      44.352  20.894  24.568  1.00  0.00    -0.200 F 
ENDBRANCH  51  75
BRANCH  63  86
ATOM     86  C   UNL A   1      45.625  29.856  28.917  1.00  0.00     0.064 A 
ATOM     87  C   UNL A   1      44.721  30.536  28.082  1.00  0.00     0.173 A 
ATOM     88  C   UNL A   1      46.970  30.236  28.851  1.00  0.00     0.173 A 
ATOM     89  F   UNL A   1      43.406  30.312  28.164  1.00  0.00    -0.203 F 
ATOM     90  C   UNL A   1      45.151  31.515  27.189  1.00  0.00     0.198 A 
ATOM     91  C   UNL A   1      47.394  31.242  27.984  1.00  0.00     0.198 A 
ATOM     92  F   UNL A   1      47.871  29.670  29.669  1.00  0.00    -0.203 F 
ATOM     93  F   UNL A   1      44.267  32.142  26.401  1.00  0.00    -0.200 F 
ATOM     94  C   UNL A   1      46.488  31.873  27.148  1.00  0.00     0.200 A 
ATOM     95  F   UNL A   1      48.679  31.624  27.985  1.00  0.00    -0.200 F 
ATOM     96  F   UNL A   1      46.897  32.847  26.323  1.00  0.00    -0.200 F 
ENDBRANCH  63  86
ENDBRANCH  37  38
ENDBRANCH  29  32
ENDBRANCH  27  28
ENDBRANCH  26  27
ENDBRANCH   1  26
TORSDOF 14
ENDMDL
