MODEL 1
REMARK VINA RESULT:     -11.8      0.000      0.000
REMARK SMILES C[C@@H](CC(=O)NCCCCNC(=O)c1ccc(-c2c3nc(c(-c4c(F)c(F)c(F)c(F)c4F)c4ccc([nH]4)c(-c4c(F)c(F)c(F)c(F)c4F)c4nc(c(-c5c(F)c(F)c(F)c(F)c5F)c5ccc2[nH]5)C=C4)C=C3)cc1)c1cn(C)c(=O)n(C)c1=O
REMARK SMILES IDX 8 1 7 2 6 3 4 4 5 5 3 7 2 8 1 9 77 10 78 11 85 12 79 13
REMARK SMILES IDX 83 14 86 15 80 16 81 17 84 18 82 19 9 20 10 21 11 22 12 23
REMARK SMILES IDX 13 25 14 26 15 27 76 28 16 29 75 30 17 31 18 32 19 33 69 34
REMARK SMILES IDX 20 35 74 36 68 37 70 38 21 39 73 40 67 41 66 42 22 44 54 45
REMARK SMILES IDX 34 46 53 47 35 48 38 49 52 50 71 51 36 52 37 53 51 55 72 56
REMARK SMILES IDX 39 57 23 58 24 59 32 60 25 61 26 62 30 63 33 64 27 65 28 66
REMARK SMILES IDX 31 67 29 68 55 69 56 70 64 71 57 72 58 73 62 74 65 75 59 76
REMARK SMILES IDX 60 77 63 78 61 79 40 80 41 81 49 82 42 83 43 84 47 85 50 86
REMARK SMILES IDX 44 87 45 88 48 89 46 90
REMARK H PARENT 6 6 11 24 70 43 38 54
REMARK Flexibility Score: inf
ROOT
ATOM      1  C   UNL A   1      31.409  30.773  26.370  1.00  0.00     0.023 C 
ENDROOT
BRANCH   1   2
ATOM      2  C   UNL A   1      32.799  30.145  26.282  1.00  0.00     0.116 C 
BRANCH   2   3
ATOM      3  N   UNL A   1      33.087  29.762  24.921  1.00  0.00    -0.356 N 
ATOM      4  C   UNL A   1      33.656  28.634  24.429  1.00  0.00     0.220 C 
ATOM      5  O   UNL A   1      33.851  28.604  23.213  1.00  0.00    -0.275 OA
ATOM      6  H   UNL A   1      32.828  30.425  24.242  1.00  0.00     0.163 HD
BRANCH   4   7
ATOM      7  C   UNL A   1      33.963  27.447  25.327  1.00  0.00     0.108 C 
BRANCH   7   8
ATOM      8  C   UNL A   1      33.116  26.150  25.213  1.00  0.00     0.032 C 
ATOM      9  C   UNL A   1      31.867  26.231  26.113  1.00  0.00     0.013 C 
BRANCH   8  10
ATOM     10  C   UNL A   1      33.835  24.811  25.314  1.00  0.00     0.037 A 
ATOM     11  C   UNL A   1      33.741  23.956  26.344  1.00  0.00     0.100 A 
ATOM     12  C   UNL A   1      34.591  24.296  24.137  1.00  0.00     0.259 A 
ATOM     13  N   UNL A   1      34.405  22.753  26.379  1.00  0.00    -0.303 N 
ATOM     14  N   UNL A   1      35.538  23.331  24.410  1.00  0.00    -0.263 N 
ATOM     15  O   UNL A   1      34.317  24.696  23.009  1.00  0.00    -0.269 OA
ATOM     16  C   UNL A   1      34.105  21.785  27.422  1.00  0.00     0.154 C 
ATOM     17  C   UNL A   1      35.378  22.417  25.441  1.00  0.00     0.330 A 
ATOM     18  C   UNL A   1      36.547  23.054  23.413  1.00  0.00     0.158 C 
ATOM     19  O   UNL A   1      36.020  21.368  25.511  1.00  0.00    -0.248 OA
ENDBRANCH   8  10
ENDBRANCH   7   8
ENDBRANCH   4   7
ENDBRANCH   2   3
ENDBRANCH   1   2
BRANCH   1  20
ATOM     20  C   UNL A   1      31.405  32.297  26.484  1.00  0.00     0.023 C 
BRANCH  20  21
ATOM     21  C   UNL A   1      32.627  32.895  27.164  1.00  0.00     0.116 C 
BRANCH  21  22
ATOM     22  N   UNL A   1      32.393  34.229  27.695  1.00  0.00    -0.352 N 
ATOM     23  C   UNL A   1      33.055  34.883  28.706  1.00  0.00     0.251 C 
ATOM     24  H   UNL A   1      31.661  34.731  27.271  1.00  0.00     0.163 HD
ATOM     25  O   UNL A   1      32.652  35.966  29.106  1.00  0.00    -0.269 OA
BRANCH  23  26
ATOM     26  C   UNL A   1      34.236  34.251  29.329  1.00  0.00     0.039 A 
ATOM     27  C   UNL A   1      34.041  33.349  30.377  1.00  0.00     0.014 A 
ATOM     28  C   UNL A   1      35.527  34.536  28.875  1.00  0.00     0.014 A 
ATOM     29  C   UNL A   1      35.141  32.700  30.941  1.00  0.00     0.010 A 
ATOM     30  C   UNL A   1      36.609  33.820  29.372  1.00  0.00     0.010 A 
ATOM     31  C   UNL A   1      36.430  32.914  30.426  1.00  0.00    -0.014 A 
BRANCH  31  32
ATOM     32  C   UNL A   1      37.610  32.238  31.020  1.00  0.00     0.031 A 
ATOM     33  C   UNL A   1      38.069  32.613  32.403  1.00  0.00     0.074 A 
ATOM     34  C   UNL A   1      38.287  31.322  30.302  1.00  0.00     0.049 A 
ATOM     35  N   UNL A   1      39.080  32.151  33.094  1.00  0.00    -0.248 NA
ATOM     36  C   UNL A   1      37.313  33.673  33.088  1.00  0.00     0.031 C 
ATOM     37  C   UNL A   1      37.980  30.928  28.927  1.00  0.00     0.029 A 
ATOM     38  N   UNL A   1      39.375  30.555  30.633  1.00  0.00    -0.354 N 
ATOM     39  C   UNL A   1      39.088  32.874  34.279  1.00  0.00     0.074 A 
ATOM     40  C   UNL A   1      38.029  33.854  34.186  1.00  0.00     0.031 C 
ATOM     41  C   UNL A   1      38.837  29.966  28.544  1.00  0.00     0.029 A 
ATOM     42  C   UNL A   1      39.765  29.695  29.637  1.00  0.00     0.049 A 
ATOM     43  H   UNL A   1      39.833  30.616  31.503  1.00  0.00     0.167 HD
ATOM     44  C   UNL A   1      39.882  32.714  35.364  1.00  0.00     0.037 A 
ATOM     45  C   UNL A   1      40.754  28.782  29.618  1.00  0.00     0.037 A 
ATOM     46  C   UNL A   1      40.908  31.712  35.467  1.00  0.00     0.049 A 
ATOM     47  C   UNL A   1      41.599  28.596  30.849  1.00  0.00     0.074 A 
ATOM     48  C   UNL A   1      41.727  31.419  36.541  1.00  0.00     0.029 A 
ATOM     49  N   UNL A   1      41.252  30.833  34.449  1.00  0.00    -0.354 N 
ATOM     50  N   UNL A   1      41.545  29.230  31.996  1.00  0.00    -0.248 NA
ATOM     51  C   UNL A   1      42.634  27.555  30.788  1.00  0.00     0.031 C 
ATOM     52  C   UNL A   1      42.593  30.386  36.162  1.00  0.00     0.029 A 
ATOM     53  C   UNL A   1      42.280  30.005  34.867  1.00  0.00     0.049 A 
ATOM     54  H   UNL A   1      40.827  30.802  33.561  1.00  0.00     0.167 HD
ATOM     55  C   UNL A   1      42.515  28.650  32.800  1.00  0.00     0.074 A 
ATOM     56  C   UNL A   1      43.128  27.596  32.017  1.00  0.00     0.031 C 
ATOM     57  C   UNL A   1      42.872  28.960  34.071  1.00  0.00     0.037 A 
BRANCH  44  58
ATOM     58  C   UNL A   1      39.657  33.636  36.528  1.00  0.00     0.064 A 
ATOM     59  C   UNL A   1      38.826  33.278  37.600  1.00  0.00     0.173 A 
ATOM     60  C   UNL A   1      40.290  34.887  36.580  1.00  0.00     0.173 A 
ATOM     61  F   UNL A   1      38.184  32.099  37.592  1.00  0.00    -0.203 F 
ATOM     62  C   UNL A   1      38.607  34.150  38.663  1.00  0.00     0.198 A 
ATOM     63  C   UNL A   1      40.095  35.744  37.661  1.00  0.00     0.198 A 
ATOM     64  F   UNL A   1      41.098  35.280  35.585  1.00  0.00    -0.203 F 
ATOM     65  F   UNL A   1      37.761  33.809  39.644  1.00  0.00    -0.200 F 
ATOM     66  C   UNL A   1      39.247  35.379  38.696  1.00  0.00     0.200 A 
ATOM     67  F   UNL A   1      40.723  36.928  37.698  1.00  0.00    -0.200 F 
ATOM     68  F   UNL A   1      39.038  36.218  39.720  1.00  0.00    -0.200 F 
ENDBRANCH  44  58
BRANCH  45  69
ATOM     69  C   UNL A   1      40.965  27.937  28.413  1.00  0.00     0.064 A 
ATOM     70  C   UNL A   1      41.794  28.369  27.368  1.00  0.00     0.173 A 
ATOM     71  C   UNL A   1      40.339  26.689  28.276  1.00  0.00     0.173 A 
ATOM     72  F   UNL A   1      42.400  29.563  27.445  1.00  0.00    -0.203 F 
ATOM     73  C   UNL A   1      41.970  27.597  26.221  1.00  0.00     0.198 A 
ATOM     74  C   UNL A   1      40.538  25.906  27.140  1.00  0.00     0.198 A 
ATOM     75  F   UNL A   1      39.541  26.227  29.250  1.00  0.00    -0.203 F 
ATOM     76  F   UNL A   1      42.730  28.056  25.218  1.00  0.00    -0.200 F 
ATOM     77  C   UNL A   1      41.346  26.364  26.110  1.00  0.00     0.200 A 
ATOM     78  F   UNL A   1      39.944  24.709  27.043  1.00  0.00    -0.200 F 
ATOM     79  F   UNL A   1      41.516  25.621  25.008  1.00  0.00    -0.200 F 
ENDBRANCH  45  69
BRANCH  57  80
ATOM     80  C   UNL A   1      43.953  28.130  34.698  1.00  0.00     0.064 A 
ATOM     81  C   UNL A   1      45.297  28.530  34.670  1.00  0.00     0.173 A 
ATOM     82  C   UNL A   1      43.638  26.930  35.352  1.00  0.00     0.173 A 
ATOM     83  F   UNL A   1      45.651  29.663  34.045  1.00  0.00    -0.203 F 
ATOM     84  C   UNL A   1      46.290  27.741  35.245  1.00  0.00     0.198 A 
ATOM     85  C   UNL A   1      44.629  26.160  35.954  1.00  0.00     0.198 A 
ATOM     86  F   UNL A   1      42.366  26.507  35.414  1.00  0.00    -0.203 F 
ATOM     87  F   UNL A   1      47.575  28.115  35.156  1.00  0.00    -0.200 F 
ATOM     88  C   UNL A   1      45.955  26.560  35.890  1.00  0.00     0.200 A 
ATOM     89  F   UNL A   1      44.301  25.026  36.588  1.00  0.00    -0.200 F 
ATOM     90  F   UNL A   1      46.911  25.803  36.443  1.00  0.00    -0.200 F 
ENDBRANCH  57  80
ENDBRANCH  31  32
ENDBRANCH  23  26
ENDBRANCH  21  22
ENDBRANCH  20  21
ENDBRANCH   1  20
TORSDOF 13
ENDMDL
MODEL 2
REMARK VINA RESULT:     -11.7      2.007      8.093
REMARK SMILES C[C@@H](CC(=O)NCCCCNC(=O)c1ccc(-c2c3nc(c(-c4c(F)c(F)c(F)c(F)c4F)c4ccc([nH]4)c(-c4c(F)c(F)c(F)c(F)c4F)c4nc(c(-c5c(F)c(F)c(F)c(F)c5F)c5ccc2[nH]5)C=C4)C=C3)cc1)c1cn(C)c(=O)n(C)c1=O
REMARK SMILES IDX 8 1 7 2 6 3 4 4 5 5 3 7 2 8 1 9 77 10 78 11 85 12 79 13
REMARK SMILES IDX 83 14 86 15 80 16 81 17 84 18 82 19 9 20 10 21 11 22 12 23
REMARK SMILES IDX 13 25 14 26 15 27 76 28 16 29 75 30 17 31 18 32 19 33 69 34
REMARK SMILES IDX 20 35 74 36 68 37 70 38 21 39 73 40 67 41 66 42 22 44 54 45
REMARK SMILES IDX 34 46 53 47 35 48 38 49 52 50 71 51 36 52 37 53 51 55 72 56
REMARK SMILES IDX 39 57 23 58 24 59 32 60 25 61 26 62 30 63 33 64 27 65 28 66
REMARK SMILES IDX 31 67 29 68 55 69 56 70 64 71 57 72 58 73 62 74 65 75 59 76
REMARK SMILES IDX 60 77 63 78 61 79 40 80 41 81 49 82 42 83 43 84 47 85 50 86
REMARK SMILES IDX 44 87 45 88 48 89 46 90
REMARK H PARENT 6 6 11 24 70 43 38 54
REMARK Flexibility Score: inf
ROOT
ATOM      1  C   UNL A   1      31.512  30.818  26.055  1.00  0.00     0.023 C 
ENDROOT
BRANCH   1   2
ATOM      2  C   UNL A   1      32.684  30.089  26.711  1.00  0.00     0.116 C 
BRANCH   2   3
ATOM      3  N   UNL A   1      32.392  28.681  26.826  1.00  0.00    -0.356 N 
ATOM      4  C   UNL A   1      32.725  27.647  26.013  1.00  0.00     0.220 C 
ATOM      5  O   UNL A   1      32.274  26.543  26.318  1.00  0.00    -0.275 OA
ATOM      6  H   UNL A   1      31.868  28.431  27.620  1.00  0.00     0.163 HD
BRANCH   4   7
ATOM      7  C   UNL A   1      33.667  27.839  24.836  1.00  0.00     0.108 C 
BRANCH   7   8
ATOM      8  C   UNL A   1      33.116  27.787  23.385  1.00  0.00     0.032 C 
ATOM      9  C   UNL A   1      34.027  28.577  22.424  1.00  0.00     0.013 C 
BRANCH   8  10
ATOM     10  C   UNL A   1      31.635  28.071  23.168  1.00  0.00     0.037 A 
ATOM     11  C   UNL A   1      31.123  29.239  22.748  1.00  0.00     0.100 A 
ATOM     12  C   UNL A   1      30.653  26.954  23.269  1.00  0.00     0.259 A 
ATOM     13  N   UNL A   1      29.777  29.438  22.558  1.00  0.00    -0.303 N 
ATOM     14  N   UNL A   1      29.342  27.328  23.482  1.00  0.00    -0.263 N 
ATOM     15  O   UNL A   1      31.025  25.795  23.112  1.00  0.00    -0.269 OA
ATOM     16  C   UNL A   1      29.303  30.651  21.911  1.00  0.00     0.154 C 
ATOM     17  C   UNL A   1      28.824  28.510  22.975  1.00  0.00     0.330 A 
ATOM     18  C   UNL A   1      28.409  26.329  23.951  1.00  0.00     0.158 C 
ATOM     19  O   UNL A   1      27.616  28.719  22.865  1.00  0.00    -0.248 OA
ENDBRANCH   8  10
ENDBRANCH   7   8
ENDBRANCH   4   7
ENDBRANCH   2   3
ENDBRANCH   1   2
BRANCH   1  20
ATOM     20  C   UNL A   1      31.336  32.269  26.500  1.00  0.00     0.023 C 
BRANCH  20  21
ATOM     21  C   UNL A   1      32.531  32.871  27.224  1.00  0.00     0.116 C 
BRANCH  21  22
ATOM     22  N   UNL A   1      32.320  34.251  27.629  1.00  0.00    -0.352 N 
ATOM     23  C   UNL A   1      32.957  34.968  28.615  1.00  0.00     0.251 C 
ATOM     24  H   UNL A   1      31.627  34.740  27.130  1.00  0.00     0.163 HD
ATOM     25  O   UNL A   1      32.575  36.093  28.903  1.00  0.00    -0.269 OA
BRANCH  23  26
ATOM     26  C   UNL A   1      34.085  34.354  29.346  1.00  0.00     0.039 A 
ATOM     27  C   UNL A   1      33.811  33.574  30.471  1.00  0.00     0.014 A 
ATOM     28  C   UNL A   1      35.402  34.535  28.917  1.00  0.00     0.014 A 
ATOM     29  C   UNL A   1      34.858  32.941  31.142  1.00  0.00     0.010 A 
ATOM     30  C   UNL A   1      36.432  33.829  29.527  1.00  0.00     0.010 A 
ATOM     31  C   UNL A   1      36.173  33.045  30.661  1.00  0.00    -0.014 A 
BRANCH  31  32
ATOM     32  C   UNL A   1      37.299  32.384  31.367  1.00  0.00     0.031 A 
ATOM     33  C   UNL A   1      38.034  31.251  30.705  1.00  0.00     0.074 A 
ATOM     34  C   UNL A   1      37.629  32.776  32.612  1.00  0.00     0.049 A 
ATOM     35  N   UNL A   1      39.034  30.536  31.155  1.00  0.00    -0.248 NA
ATOM     36  C   UNL A   1      37.561  30.843  29.372  1.00  0.00     0.031 C 
ATOM     37  C   UNL A   1      36.944  33.814  33.384  1.00  0.00     0.029 A 
ATOM     38  N   UNL A   1      38.628  32.345  33.448  1.00  0.00    -0.354 N 
ATOM     39  C   UNL A   1      39.293  29.590  30.173  1.00  0.00     0.074 A 
ATOM     40  C   UNL A   1      38.303  29.773  29.135  1.00  0.00     0.031 C 
ATOM     41  C   UNL A   1      37.566  33.965  34.565  1.00  0.00     0.029 A 
ATOM     42  C   UNL A   1      38.675  33.020  34.642  1.00  0.00     0.049 A 
ATOM     43  H   UNL A   1      39.252  31.620  33.213  1.00  0.00     0.167 HD
ATOM     44  C   UNL A   1      40.288  28.674  30.121  1.00  0.00     0.037 A 
ATOM     45  C   UNL A   1      39.528  32.894  35.676  1.00  0.00     0.037 A 
ATOM     46  C   UNL A   1      41.294  28.523  31.138  1.00  0.00     0.049 A 
ATOM     47  C   UNL A   1      40.649  31.895  35.579  1.00  0.00     0.074 A 
ATOM     48  C   UNL A   1      42.384  27.672  31.157  1.00  0.00     0.029 A 
ATOM     49  N   UNL A   1      41.330  29.249  32.320  1.00  0.00    -0.354 N 
ATOM     50  N   UNL A   1      40.935  31.060  34.608  1.00  0.00    -0.248 NA
ATOM     51  C   UNL A   1      41.577  31.832  36.716  1.00  0.00     0.031 C 
ATOM     52  C   UNL A   1      43.061  27.858  32.368  1.00  0.00     0.029 A 
ATOM     53  C   UNL A   1      42.419  28.857  33.082  1.00  0.00     0.049 A 
ATOM     54  H   UNL A   1      40.680  29.941  32.579  1.00  0.00     0.167 HD
ATOM     55  C   UNL A   1      42.086  30.393  35.003  1.00  0.00     0.074 A 
ATOM     56  C   UNL A   1      42.459  30.938  36.293  1.00  0.00     0.031 C 
ATOM     57  C   UNL A   1      42.773  29.417  34.361  1.00  0.00     0.037 A 
BRANCH  44  58
ATOM     58  C   UNL A   1      40.341  27.777  28.917  1.00  0.00     0.064 A 
ATOM     59  C   UNL A   1      41.099  28.112  27.784  1.00  0.00     0.173 A 
ATOM     60  C   UNL A   1      39.639  26.564  28.899  1.00  0.00     0.173 A 
ATOM     61  F   UNL A   1      41.776  29.270  27.743  1.00  0.00    -0.203 F 
ATOM     62  C   UNL A   1      41.122  27.284  26.664  1.00  0.00     0.198 A 
ATOM     63  C   UNL A   1      39.691  25.722  27.791  1.00  0.00     0.198 A 
ATOM     64  F   UNL A   1      38.902  26.192  29.956  1.00  0.00    -0.203 F 
ATOM     65  F   UNL A   1      41.804  27.656  25.573  1.00  0.00    -0.200 F 
ATOM     66  C   UNL A   1      40.424  26.087  26.672  1.00  0.00     0.200 A 
ATOM     67  F   UNL A   1      39.025  24.558  27.802  1.00  0.00    -0.200 F 
ATOM     68  F   UNL A   1      40.449  25.290  25.595  1.00  0.00    -0.200 F 
ENDBRANCH  44  58
BRANCH  45  69
ATOM     69  C   UNL A   1      39.389  33.772  36.867  1.00  0.00     0.064 A 
ATOM     70  C   UNL A   1      40.006  35.030  36.909  1.00  0.00     0.173 A 
ATOM     71  C   UNL A   1      38.647  33.372  37.988  1.00  0.00     0.173 A 
ATOM     72  F   UNL A   1      40.741  35.449  35.867  1.00  0.00    -0.203 F 
ATOM     73  C   UNL A   1      39.908  35.845  38.034  1.00  0.00     0.198 A 
ATOM     74  C   UNL A   1      38.527  34.200  39.103  1.00  0.00     0.198 A 
ATOM     75  F   UNL A   1      38.031  32.181  37.997  1.00  0.00    -0.203 F 
ATOM     76  F   UNL A   1      40.548  37.022  38.065  1.00  0.00    -0.200 F 
ATOM     77  C   UNL A   1      39.165  35.432  39.129  1.00  0.00     0.200 A 
ATOM     78  F   UNL A   1      37.796  33.803  40.153  1.00  0.00    -0.200 F 
ATOM     79  F   UNL A   1      39.069  36.215  40.211  1.00  0.00    -0.200 F 
ENDBRANCH  45  69
BRANCH  57  80
ATOM     80  C   UNL A   1      44.011  28.899  35.033  1.00  0.00     0.064 A 
ATOM     81  C   UNL A   1      43.971  27.797  35.900  1.00  0.00     0.173 A 
ATOM     82  C   UNL A   1      45.255  29.499  34.788  1.00  0.00     0.173 A 
ATOM     83  F   UNL A   1      42.803  27.197  36.177  1.00  0.00    -0.203 F 
ATOM     84  C   UNL A   1      45.127  27.339  36.526  1.00  0.00     0.198 A 
ATOM     85  C   UNL A   1      46.413  29.018  35.390  1.00  0.00     0.198 A 
ATOM     86  F   UNL A   1      45.348  30.550  33.959  1.00  0.00    -0.203 F 
ATOM     87  F   UNL A   1      45.056  26.321  37.396  1.00  0.00    -0.200 F 
ATOM     88  C   UNL A   1      46.347  27.945  36.267  1.00  0.00     0.200 A 
ATOM     89  F   UNL A   1      47.593  29.596  35.128  1.00  0.00    -0.200 F 
ATOM     90  F   UNL A   1      47.458  27.502  36.869  1.00  0.00    -0.200 F 
ENDBRANCH  57  80
ENDBRANCH  31  32
ENDBRANCH  23  26
ENDBRANCH  21  22
ENDBRANCH  20  21
ENDBRANCH   1  20
TORSDOF 13
ENDMDL
MODEL 3
REMARK VINA RESULT:     -11.6      1.124      7.660
REMARK SMILES C[C@@H](CC(=O)NCCCCNC(=O)c1ccc(-c2c3nc(c(-c4c(F)c(F)c(F)c(F)c4F)c4ccc([nH]4)c(-c4c(F)c(F)c(F)c(F)c4F)c4nc(c(-c5c(F)c(F)c(F)c(F)c5F)c5ccc2[nH]5)C=C4)C=C3)cc1)c1cn(C)c(=O)n(C)c1=O
REMARK SMILES IDX 8 1 7 2 6 3 4 4 5 5 3 7 2 8 1 9 77 10 78 11 85 12 79 13
REMARK SMILES IDX 83 14 86 15 80 16 81 17 84 18 82 19 9 20 10 21 11 22 12 23
REMARK SMILES IDX 13 25 14 26 15 27 76 28 16 29 75 30 17 31 18 32 19 33 69 34
REMARK SMILES IDX 20 35 74 36 68 37 70 38 21 39 73 40 67 41 66 42 22 44 54 45
REMARK SMILES IDX 34 46 53 47 35 48 38 49 52 50 71 51 36 52 37 53 51 55 72 56
REMARK SMILES IDX 39 57 23 58 24 59 32 60 25 61 26 62 30 63 33 64 27 65 28 66
REMARK SMILES IDX 31 67 29 68 55 69 56 70 64 71 57 72 58 73 62 74 65 75 59 76
REMARK SMILES IDX 60 77 63 78 61 79 40 80 41 81 49 82 42 83 43 84 47 85 50 86
REMARK SMILES IDX 44 87 45 88 48 89 46 90
REMARK H PARENT 6 6 11 24 70 43 38 54
REMARK Flexibility Score: inf
ROOT
ATOM      1  C   UNL A   1      31.692  30.862  26.179  1.00  0.00     0.023 C 
ENDROOT
BRANCH   1   2
ATOM      2  C   UNL A   1      30.821  30.460  24.989  1.00  0.00     0.116 C 
BRANCH   2   3
ATOM      3  N   UNL A   1      31.581  29.650  24.068  1.00  0.00    -0.356 N 
ATOM      4  C   UNL A   1      31.955  28.349  24.148  1.00  0.00     0.220 C 
ATOM      5  O   UNL A   1      32.673  27.929  23.239  1.00  0.00    -0.275 OA
ATOM      6  H   UNL A   1      31.873  30.116  23.252  1.00  0.00     0.163 HD
BRANCH   4   7
ATOM      7  C   UNL A   1      31.449  27.447  25.261  1.00  0.00     0.108 C 
BRANCH   7   8
ATOM      8  C   UNL A   1      32.449  26.836  26.279  1.00  0.00     0.032 C 
ATOM      9  C   UNL A   1      33.534  27.861  26.665  1.00  0.00     0.013 C 
BRANCH   8  10
ATOM     10  C   UNL A   1      33.015  25.452  25.989  1.00  0.00     0.037 A 
ATOM     11  C   UNL A   1      34.270  25.197  25.584  1.00  0.00     0.100 A 
ATOM     12  C   UNL A   1      32.201  24.246  26.310  1.00  0.00     0.259 A 
ATOM     13  N   UNL A   1      34.732  23.925  25.346  1.00  0.00    -0.303 N 
ATOM     14  N   UNL A   1      32.566  23.086  25.657  1.00  0.00    -0.263 N 
ATOM     15  O   UNL A   1      31.306  24.315  27.148  1.00  0.00    -0.269 OA
ATOM     16  C   UNL A   1      36.149  23.698  25.109  1.00  0.00     0.154 C 
ATOM     17  C   UNL A   1      33.883  22.821  25.314  1.00  0.00     0.330 A 
ATOM     18  C   UNL A   1      31.626  21.989  25.625  1.00  0.00     0.158 C 
ATOM     19  O   UNL A   1      34.288  21.692  25.034  1.00  0.00    -0.248 OA
ENDBRANCH   8  10
ENDBRANCH   7   8
ENDBRANCH   4   7
ENDBRANCH   2   3
ENDBRANCH   1   2
BRANCH   1  20
ATOM     20  C   UNL A   1      31.453  32.282  26.692  1.00  0.00     0.023 C 
BRANCH  20  21
ATOM     21  C   UNL A   1      32.693  33.001  27.201  1.00  0.00     0.116 C 
BRANCH  21  22
ATOM     22  N   UNL A   1      32.422  34.347  27.675  1.00  0.00    -0.352 N 
ATOM     23  C   UNL A   1      33.012  35.033  28.711  1.00  0.00     0.251 C 
ATOM     24  H   UNL A   1      31.719  34.835  27.189  1.00  0.00     0.163 HD
ATOM     25  O   UNL A   1      32.581  36.125  29.051  1.00  0.00    -0.269 OA
BRANCH  23  26
ATOM     26  C   UNL A   1      34.149  34.423  29.430  1.00  0.00     0.039 A 
ATOM     27  C   UNL A   1      33.892  33.667  30.576  1.00  0.00     0.014 A 
ATOM     28  C   UNL A   1      35.459  34.586  28.972  1.00  0.00     0.014 A 
ATOM     29  C   UNL A   1      34.948  33.038  31.237  1.00  0.00     0.010 A 
ATOM     30  C   UNL A   1      36.496  33.882  29.575  1.00  0.00     0.010 A 
ATOM     31  C   UNL A   1      36.254  33.122  30.728  1.00  0.00    -0.014 A 
BRANCH  31  32
ATOM     32  C   UNL A   1      37.388  32.465  31.424  1.00  0.00     0.031 A 
ATOM     33  C   UNL A   1      38.121  31.335  30.755  1.00  0.00     0.074 A 
ATOM     34  C   UNL A   1      37.728  32.858  32.666  1.00  0.00     0.049 A 
ATOM     35  N   UNL A   1      39.127  30.624  31.196  1.00  0.00    -0.248 NA
ATOM     36  C   UNL A   1      37.638  30.925  29.426  1.00  0.00     0.031 C 
ATOM     37  C   UNL A   1      37.046  33.893  33.444  1.00  0.00     0.029 A 
ATOM     38  N   UNL A   1      38.735  32.430  33.493  1.00  0.00    -0.354 N 
ATOM     39  C   UNL A   1      39.381  29.679  30.211  1.00  0.00     0.074 A 
ATOM     40  C   UNL A   1      38.382  29.858  29.182  1.00  0.00     0.031 C 
ATOM     41  C   UNL A   1      37.678  34.046  34.620  1.00  0.00     0.029 A 
ATOM     42  C   UNL A   1      38.791  33.105  34.687  1.00  0.00     0.049 A 
ATOM     43  H   UNL A   1      39.360  31.708  33.252  1.00  0.00     0.167 HD
ATOM     44  C   UNL A   1      40.380  28.766  30.150  1.00  0.00     0.037 A 
ATOM     45  C   UNL A   1      39.653  32.982  35.713  1.00  0.00     0.037 A 
ATOM     46  C   UNL A   1      41.395  28.619  31.158  1.00  0.00     0.049 A 
ATOM     47  C   UNL A   1      40.777  31.987  35.605  1.00  0.00     0.074 A 
ATOM     48  C   UNL A   1      42.489  27.772  31.167  1.00  0.00     0.029 A 
ATOM     49  N   UNL A   1      41.439  29.345  32.340  1.00  0.00    -0.354 N 
ATOM     50  N   UNL A   1      41.058  31.154  34.632  1.00  0.00    -0.248 NA
ATOM     51  C   UNL A   1      41.716  31.927  36.734  1.00  0.00     0.031 C 
ATOM     52  C   UNL A   1      43.176  27.960  32.372  1.00  0.00     0.029 A 
ATOM     53  C   UNL A   1      42.536  28.956  33.091  1.00  0.00     0.049 A 
ATOM     54  H   UNL A   1      40.789  30.035  32.604  1.00  0.00     0.167 HD
ATOM     55  C   UNL A   1      42.214  30.491  35.016  1.00  0.00     0.074 A 
ATOM     56  C   UNL A   1      42.598  31.037  36.303  1.00  0.00     0.031 C 
ATOM     57  C   UNL A   1      42.899  29.517  34.368  1.00  0.00     0.037 A 
BRANCH  44  58
ATOM     58  C   UNL A   1      40.425  27.870  28.945  1.00  0.00     0.064 A 
ATOM     59  C   UNL A   1      41.190  28.198  27.814  1.00  0.00     0.173 A 
ATOM     60  C   UNL A   1      39.709  26.665  28.925  1.00  0.00     0.173 A 
ATOM     61  F   UNL A   1      41.881  29.347  27.776  1.00  0.00    -0.203 F 
ATOM     62  C   UNL A   1      41.206  27.370  26.694  1.00  0.00     0.198 A 
ATOM     63  C   UNL A   1      39.754  25.824  27.815  1.00  0.00     0.198 A 
ATOM     64  F   UNL A   1      38.965  26.301  29.979  1.00  0.00    -0.203 F 
ATOM     65  F   UNL A   1      41.894  27.735  25.605  1.00  0.00    -0.200 F 
ATOM     66  C   UNL A   1      40.494  26.182  26.699  1.00  0.00     0.200 A 
ATOM     67  F   UNL A   1      39.075  24.668  27.824  1.00  0.00    -0.200 F 
ATOM     68  F   UNL A   1      40.512  25.384  25.621  1.00  0.00    -0.200 F 
ENDBRANCH  44  58
BRANCH  45  69
ATOM     69  C   UNL A   1      39.522  33.859  36.906  1.00  0.00     0.064 A 
ATOM     70  C   UNL A   1      38.819  33.429  38.040  1.00  0.00     0.173 A 
ATOM     71  C   UNL A   1      40.086  35.142  36.935  1.00  0.00     0.173 A 
ATOM     72  F   UNL A   1      38.246  32.216  38.052  1.00  0.00    -0.203 F 
ATOM     73  C   UNL A   1      38.664  34.258  39.149  1.00  0.00     0.198 A 
ATOM     74  C   UNL A   1      39.954  35.960  38.057  1.00  0.00     0.198 A 
ATOM     75  F   UNL A   1      40.775  35.599  35.879  1.00  0.00    -0.203 F 
ATOM     76  F   UNL A   1      37.945  33.840  40.200  1.00  0.00    -0.200 F 
ATOM     77  C   UNL A   1      39.235  35.521  39.159  1.00  0.00     0.200 A 
ATOM     78  F   UNL A   1      40.520  37.174  38.067  1.00  0.00    -0.200 F 
ATOM     79  F   UNL A   1      39.087  36.318  40.225  1.00  0.00    -0.200 F 
ENDBRANCH  45  69
BRANCH  57  80
ATOM     80  C   UNL A   1      44.145  29.004  35.028  1.00  0.00     0.064 A 
ATOM     81  C   UNL A   1      45.400  29.583  34.783  1.00  0.00     0.173 A 
ATOM     82  C   UNL A   1      44.080  27.934  35.933  1.00  0.00     0.173 A 
ATOM     83  F   UNL A   1      45.516  30.599  33.915  1.00  0.00    -0.203 F 
ATOM     84  C   UNL A   1      46.548  29.085  35.393  1.00  0.00     0.198 A 
ATOM     85  C   UNL A   1      45.225  27.461  36.567  1.00  0.00     0.198 A 
ATOM     86  F   UNL A   1      42.903  27.352  36.209  1.00  0.00    -0.203 F 
ATOM     87  F   UNL A   1      47.743  29.615  35.100  1.00  0.00    -0.200 F 
ATOM     88  C   UNL A   1      46.459  28.028  36.288  1.00  0.00     0.200 A 
ATOM     89  F   UNL A   1      45.136  26.449  37.441  1.00  0.00    -0.200 F 
ATOM     90  F   UNL A   1      47.565  27.552  36.875  1.00  0.00    -0.200 F 
ENDBRANCH  57  80
ENDBRANCH  31  32
ENDBRANCH  23  26
ENDBRANCH  21  22
ENDBRANCH  20  21
ENDBRANCH   1  20
TORSDOF 13
ENDMDL
