MODEL 1
REMARK VINA RESULT:     -11.4      0.000      0.000
REMARK SMILES COc1ccc(OCCNc2c(Cl)cccc2C(=O)NCCCCNC(=O)c2ccc(-c3c4nc(c(-c5c(F)c(F)c(F)c(F)c5F)c5ccc([nH]5)c(-c5c(F)c(F)c(F)c(F)c5F)c5nc(c(-c6c(F)c(F)c(F)c(F)c6F)c6ccc3[nH]6)C=C5)C=C4)cc2)cc1
REMARK SMILES IDX 18 1 19 2 20 3 17 5 11 6 12 7 13 8 14 9 16 10 15 11 10 12
REMARK SMILES IDX 9 14 8 15 7 16 6 17 3 18 4 19 92 20 5 21 91 22 2 23 1 24
REMARK SMILES IDX 21 25 22 26 23 27 24 28 25 29 26 30 27 32 28 33 29 34 90 35
REMARK SMILES IDX 30 36 89 37 31 38 32 39 33 40 83 41 34 42 88 43 82 44 84 45
REMARK SMILES IDX 35 46 87 47 81 48 80 49 36 51 68 52 48 53 67 54 49 55 52 56
REMARK SMILES IDX 66 57 85 58 50 59 51 60 65 62 86 63 53 64 37 65 38 66 46 67
REMARK SMILES IDX 39 68 40 69 44 70 47 71 41 72 42 73 45 74 43 75 69 76 70 77
REMARK SMILES IDX 78 78 71 79 72 80 76 81 79 82 73 83 74 84 77 85 75 86 54 87
REMARK SMILES IDX 55 88 63 89 56 90 57 91 61 92 64 93 58 94 59 95 62 96 60 97
REMARK H PARENT 20 4 10 13 25 31 84 50 52 61
REMARK Flexibility Score: inf
ROOT
ATOM      1  C   UNL A   1      30.625  23.688  26.736  1.00  0.00     0.253 C 
ATOM      2  O   UNL A   1      30.057  23.019  27.602  1.00  0.00    -0.269 OA
ATOM      3  N   UNL A   1      30.599  25.057  26.869  1.00  0.00    -0.352 N 
ATOM      4  H   UNL A   1      30.072  25.389  27.631  1.00  0.00     0.163 HD
ENDROOT
BRANCH   1   5
ATOM      5  C   UNL A   1      31.201  22.975  25.564  1.00  0.00     0.064 A 
ATOM      6  C   UNL A   1      31.992  21.810  25.597  1.00  0.00     0.066 A 
ATOM      7  C   UNL A   1      32.439  21.302  24.344  1.00  0.00     0.065 A 
ATOM      8  Cl  UNL A   1      33.454  19.894  24.251  1.00  0.00    -0.082 Cl
ATOM      9  C   UNL A   1      32.090  21.887  23.124  1.00  0.00     0.023 A 
ATOM     10  C   UNL A   1      30.828  23.536  24.319  1.00  0.00     0.016 A 
ATOM     11  C   UNL A   1      31.276  23.004  23.110  1.00  0.00     0.003 A 
BRANCH   6  12
ATOM     12  N   UNL A   1      32.543  21.263  26.741  1.00  0.00    -0.380 N 
ATOM     13  H   UNL A   1      32.220  20.368  26.994  1.00  0.00     0.160 HD
BRANCH  12  14
ATOM     14  C   UNL A   1      33.544  21.852  27.613  1.00  0.00     0.154 C 
BRANCH  14  15
ATOM     15  C   UNL A   1      34.939  21.865  26.925  1.00  0.00     0.250 C 
BRANCH  15  16
ATOM     16  O   UNL A   1      35.470  23.177  26.642  1.00  0.00    -0.492 OA
BRANCH  16  17
ATOM     17  C   UNL A   1      35.256  23.745  25.412  1.00  0.00     0.119 A 
ATOM     18  C   UNL A   1      34.253  24.810  23.012  1.00  0.00     0.119 A 
ATOM     19  C   UNL A   1      34.072  25.496  24.210  1.00  0.00     0.050 A 
ATOM     20  C   UNL A   1      35.050  23.672  22.995  1.00  0.00     0.050 A 
ATOM     21  C   UNL A   1      34.559  24.958  25.409  1.00  0.00     0.050 A 
ATOM     22  C   UNL A   1      35.582  23.170  24.186  1.00  0.00     0.050 A 
BRANCH  18  23
ATOM     23  O   UNL A   1      33.700  25.348  21.884  1.00  0.00    -0.497 OA
ATOM     24  C   UNL A   1      33.346  26.725  22.028  1.00  0.00     0.278 C 
ENDBRANCH  18  23
ENDBRANCH  16  17
ENDBRANCH  15  16
ENDBRANCH  14  15
ENDBRANCH  12  14
ENDBRANCH   6  12
ENDBRANCH   1   5
BRANCH   3  25
ATOM     25  C   UNL A   1      31.224  26.085  26.065  1.00  0.00     0.116 C 
BRANCH  25  26
ATOM     26  C   UNL A   1      31.421  27.424  26.768  1.00  0.00     0.023 C 
BRANCH  26  27
ATOM     27  C   UNL A   1      32.523  28.333  26.208  1.00  0.00     0.023 C 
BRANCH  27  28
ATOM     28  C   UNL A   1      33.704  28.661  27.124  1.00  0.00     0.116 C 
BRANCH  28  29
ATOM     29  N   UNL A   1      33.715  30.028  27.618  1.00  0.00    -0.352 N 
ATOM     30  C   UNL A   1      34.671  30.736  28.311  1.00  0.00     0.251 C 
ATOM     31  H   UNL A   1      32.896  30.536  27.423  1.00  0.00     0.163 HD
ATOM     32  O   UNL A   1      34.404  31.846  28.759  1.00  0.00    -0.269 OA
BRANCH  30  33
ATOM     33  C   UNL A   1      36.020  30.168  28.549  1.00  0.00     0.039 A 
ATOM     34  C   UNL A   1      36.974  30.238  27.529  1.00  0.00     0.014 A 
ATOM     35  C   UNL A   1      36.344  29.535  29.750  1.00  0.00     0.014 A 
ATOM     36  C   UNL A   1      38.272  29.767  27.752  1.00  0.00     0.010 A 
ATOM     37  C   UNL A   1      37.660  29.148  30.004  1.00  0.00     0.010 A 
ATOM     38  C   UNL A   1      38.644  29.268  29.011  1.00  0.00    -0.014 A 
BRANCH  38  39
ATOM     39  C   UNL A   1      40.054  28.894  29.310  1.00  0.00     0.031 A 
ATOM     40  C   UNL A   1      40.956  29.831  30.069  1.00  0.00     0.074 A 
ATOM     41  C   UNL A   1      40.548  27.733  28.834  1.00  0.00     0.049 A 
ATOM     42  N   UNL A   1      42.224  29.696  30.372  1.00  0.00    -0.248 NA
ATOM     43  C   UNL A   1      40.363  31.097  30.523  1.00  0.00     0.031 C 
ATOM     44  C   UNL A   1      39.801  26.762  28.034  1.00  0.00     0.029 A 
ATOM     45  N   UNL A   1      41.800  27.176  28.943  1.00  0.00    -0.354 N 
ATOM     46  C   UNL A   1      42.581  30.862  31.038  1.00  0.00     0.074 A 
ATOM     47  C   UNL A   1      41.413  31.717  31.043  1.00  0.00     0.031 C 
ATOM     48  C   UNL A   1      40.597  25.721  27.747  1.00  0.00     0.029 A 
ATOM     49  C   UNL A   1      41.923  25.966  28.303  1.00  0.00     0.049 A 
ATOM     50  H   UNL A   1      42.539  27.605  29.433  1.00  0.00     0.167 HD
ATOM     51  C   UNL A   1      43.766  31.182  31.613  1.00  0.00     0.037 A 
ATOM     52  C   UNL A   1      42.986  25.149  28.171  1.00  0.00     0.037 A 
ATOM     53  C   UNL A   1      44.922  30.323  31.622  1.00  0.00     0.049 A 
ATOM     54  C   UNL A   1      44.293  25.531  28.813  1.00  0.00     0.074 A 
ATOM     55  C   UNL A   1      46.146  30.530  32.235  1.00  0.00     0.029 A 
ATOM     56  N   UNL A   1      45.003  29.097  30.978  1.00  0.00    -0.354 N 
ATOM     57  N   UNL A   1      44.592  26.598  29.512  1.00  0.00    -0.248 NA
ATOM     58  C   UNL A   1      45.408  24.587  28.655  1.00  0.00     0.031 C 
ATOM     59  C   UNL A   1      46.986  29.459  31.913  1.00  0.00     0.029 A 
ATOM     60  C   UNL A   1      46.265  28.550  31.155  1.00  0.00     0.049 A 
ATOM     61  H   UNL A   1      44.272  28.676  30.470  1.00  0.00     0.167 HD
ATOM     62  C   UNL A   1      45.916  26.441  29.903  1.00  0.00     0.074 A 
ATOM     63  C   UNL A   1      46.357  25.165  29.377  1.00  0.00     0.031 C 
ATOM     64  C   UNL A   1      46.695  27.278  30.631  1.00  0.00     0.037 A 
BRANCH  51  65
ATOM     65  C   UNL A   1      43.876  32.525  32.281  1.00  0.00     0.064 A 
ATOM     66  C   UNL A   1      43.564  32.703  33.637  1.00  0.00     0.173 A 
ATOM     67  C   UNL A   1      44.339  33.640  31.565  1.00  0.00     0.173 A 
ATOM     68  F   UNL A   1      43.110  31.673  34.368  1.00  0.00    -0.203 F 
ATOM     69  C   UNL A   1      43.675  33.953  34.241  1.00  0.00     0.198 A 
ATOM     70  C   UNL A   1      44.483  34.880  32.182  1.00  0.00     0.198 A 
ATOM     71  F   UNL A   1      44.662  33.526  30.268  1.00  0.00    -0.203 F 
ATOM     72  F   UNL A   1      43.317  34.110  35.524  1.00  0.00    -0.200 F 
ATOM     73  C   UNL A   1      44.142  35.038  33.516  1.00  0.00     0.200 A 
ATOM     74  F   UNL A   1      44.952  35.924  31.483  1.00  0.00    -0.200 F 
ATOM     75  F   UNL A   1      44.257  36.238  34.101  1.00  0.00    -0.200 F 
ENDBRANCH  51  65
BRANCH  52  76
ATOM     76  C   UNL A   1      42.856  23.877  27.411  1.00  0.00     0.064 A 
ATOM     77  C   UNL A   1      42.389  22.710  28.032  1.00  0.00     0.173 A 
ATOM     78  C   UNL A   1      43.200  23.798  26.054  1.00  0.00     0.173 A 
ATOM     79  F   UNL A   1      42.066  22.727  29.334  1.00  0.00    -0.203 F 
ATOM     80  C   UNL A   1      42.297  21.508  27.332  1.00  0.00     0.198 A 
ATOM     81  C   UNL A   1      43.076  22.604  25.347  1.00  0.00     0.198 A 
ATOM     82  F   UNL A   1      43.647  24.887  25.410  1.00  0.00    -0.203 F 
ATOM     83  F   UNL A   1      41.898  20.396  27.965  1.00  0.00    -0.200 F 
ATOM     84  C   UNL A   1      42.633  21.458  25.989  1.00  0.00     0.200 A 
ATOM     85  F   UNL A   1      43.387  22.564  24.043  1.00  0.00    -0.200 F 
ATOM     86  F   UNL A   1      42.540  20.303  25.315  1.00  0.00    -0.200 F 
ENDBRANCH  52  76
BRANCH  64  87
ATOM     87  C   UNL A   1      48.095  26.826  30.941  1.00  0.00     0.064 A 
ATOM     88  C   UNL A   1      48.384  26.017  32.051  1.00  0.00     0.173 A 
ATOM     89  C   UNL A   1      49.158  27.181  30.095  1.00  0.00     0.173 A 
ATOM     90  F   UNL A   1      47.407  25.661  32.900  1.00  0.00    -0.203 F 
ATOM     91  C   UNL A   1      49.688  25.610  32.321  1.00  0.00     0.198 A 
ATOM     92  C   UNL A   1      50.454  26.741  30.348  1.00  0.00     0.198 A 
ATOM     93  F   UNL A   1      48.936  27.945  29.015  1.00  0.00    -0.203 F 
ATOM     94  F   UNL A   1      49.949  24.886  33.418  1.00  0.00    -0.200 F 
ATOM     95  C   UNL A   1      50.720  25.965  31.465  1.00  0.00     0.200 A 
ATOM     96  F   UNL A   1      51.447  27.071  29.510  1.00  0.00    -0.200 F 
ATOM     97  F   UNL A   1      51.973  25.565  31.722  1.00  0.00    -0.200 F 
ENDBRANCH  64  87
ENDBRANCH  38  39
ENDBRANCH  30  33
ENDBRANCH  28  29
ENDBRANCH  27  28
ENDBRANCH  26  27
ENDBRANCH  25  26
ENDBRANCH   3  25
TORSDOF 17
ENDMDL
MODEL 2
REMARK VINA RESULT:     -11.4      3.379      8.589
REMARK SMILES COc1ccc(OCCNc2c(Cl)cccc2C(=O)NCCCCNC(=O)c2ccc(-c3c4nc(c(-c5c(F)c(F)c(F)c(F)c5F)c5ccc([nH]5)c(-c5c(F)c(F)c(F)c(F)c5F)c5nc(c(-c6c(F)c(F)c(F)c(F)c6F)c6ccc3[nH]6)C=C5)C=C4)cc2)cc1
REMARK SMILES IDX 18 1 19 2 20 3 17 5 11 6 12 7 13 8 14 9 16 10 15 11 10 12
REMARK SMILES IDX 9 14 8 15 7 16 6 17 3 18 4 19 92 20 5 21 91 22 2 23 1 24
REMARK SMILES IDX 21 25 22 26 23 27 24 28 25 29 26 30 27 32 28 33 29 34 90 35
REMARK SMILES IDX 30 36 89 37 31 38 32 39 33 40 83 41 34 42 88 43 82 44 84 45
REMARK SMILES IDX 35 46 87 47 81 48 80 49 36 51 68 52 48 53 67 54 49 55 52 56
REMARK SMILES IDX 66 57 85 58 50 59 51 60 65 62 86 63 53 64 37 65 38 66 46 67
REMARK SMILES IDX 39 68 40 69 44 70 47 71 41 72 42 73 45 74 43 75 69 76 70 77
REMARK SMILES IDX 78 78 71 79 72 80 76 81 79 82 73 83 74 84 77 85 75 86 54 87
REMARK SMILES IDX 55 88 63 89 56 90 57 91 61 92 64 93 58 94 59 95 62 96 60 97
REMARK H PARENT 20 4 10 13 25 31 84 50 52 61
REMARK Flexibility Score: inf
ROOT
ATOM      1  C   UNL A   1      32.172  23.897  26.474  1.00  0.00     0.253 C 
ATOM      2  O   UNL A   1      31.129  24.053  27.113  1.00  0.00    -0.269 OA
ATOM      3  N   UNL A   1      32.915  22.770  26.732  1.00  0.00    -0.352 N 
ATOM      4  H   UNL A   1      32.569  22.202  27.458  1.00  0.00     0.163 HD
ENDROOT
BRANCH   1   5
ATOM      5  C   UNL A   1      32.599  24.986  25.554  1.00  0.00     0.064 A 
ATOM      6  C   UNL A   1      32.417  25.025  24.159  1.00  0.00     0.066 A 
ATOM      7  C   UNL A   1      32.915  26.173  23.478  1.00  0.00     0.065 A 
ATOM      8  Cl  UNL A   1      32.789  26.323  21.751  1.00  0.00    -0.082 Cl
ATOM      9  C   UNL A   1      33.520  27.242  24.143  1.00  0.00     0.023 A 
ATOM     10  C   UNL A   1      33.183  26.092  26.218  1.00  0.00     0.016 A 
ATOM     11  C   UNL A   1      33.649  27.206  25.520  1.00  0.00     0.003 A 
BRANCH   6  12
ATOM     12  N   UNL A   1      32.005  23.955  23.387  1.00  0.00    -0.380 N 
ATOM     13  H   UNL A   1      31.034  23.867  23.251  1.00  0.00     0.160 HD
BRANCH  12  14
ATOM     14  C   UNL A   1      32.834  22.945  22.754  1.00  0.00     0.154 C 
BRANCH  14  15
ATOM     15  C   UNL A   1      32.164  21.543  22.843  1.00  0.00     0.250 C 
BRANCH  15  16
ATOM     16  O   UNL A   1      32.323  20.868  24.108  1.00  0.00    -0.492 OA
BRANCH  16  17
ATOM     17  C   UNL A   1      32.433  19.501  24.140  1.00  0.00     0.119 A 
ATOM     18  C   UNL A   1      33.195  16.810  24.417  1.00  0.00     0.119 A 
ATOM     19  C   UNL A   1      32.919  17.578  25.546  1.00  0.00     0.050 A 
ATOM     20  C   UNL A   1      32.955  17.344  23.157  1.00  0.00     0.050 A 
ATOM     21  C   UNL A   1      32.554  18.924  25.408  1.00  0.00     0.050 A 
ATOM     22  C   UNL A   1      32.536  18.671  23.026  1.00  0.00     0.050 A 
BRANCH  18  23
ATOM     23  O   UNL A   1      33.610  15.522  24.613  1.00  0.00    -0.497 OA
ATOM     24  C   UNL A   1      32.692  14.742  25.381  1.00  0.00     0.278 C 
ENDBRANCH  18  23
ENDBRANCH  16  17
ENDBRANCH  15  16
ENDBRANCH  14  15
ENDBRANCH  12  14
ENDBRANCH   6  12
ENDBRANCH   1   5
BRANCH   3  25
ATOM     25  C   UNL A   1      34.127  22.286  26.105  1.00  0.00     0.116 C 
BRANCH  25  26
ATOM     26  C   UNL A   1      35.401  23.021  26.507  1.00  0.00     0.023 C 
BRANCH  26  27
ATOM     27  C   UNL A   1      36.043  23.911  25.435  1.00  0.00     0.023 C 
BRANCH  27  28
ATOM     28  C   UNL A   1      37.201  23.324  24.627  1.00  0.00     0.116 C 
BRANCH  28  29
ATOM     29  N   UNL A   1      38.047  22.407  25.373  1.00  0.00    -0.352 N 
ATOM     30  C   UNL A   1      39.057  22.636  26.280  1.00  0.00     0.251 C 
ATOM     31  H   UNL A   1      37.865  21.456  25.198  1.00  0.00     0.163 HD
ATOM     32  O   UNL A   1      39.741  21.701  26.681  1.00  0.00    -0.269 OA
BRANCH  30  33
ATOM     33  C   UNL A   1      39.349  24.005  26.769  1.00  0.00     0.039 A 
ATOM     34  C   UNL A   1      38.924  24.373  28.049  1.00  0.00     0.014 A 
ATOM     35  C   UNL A   1      40.004  24.941  25.967  1.00  0.00     0.014 A 
ATOM     36  C   UNL A   1      39.244  25.637  28.556  1.00  0.00     0.010 A 
ATOM     37  C   UNL A   1      40.402  26.166  26.504  1.00  0.00     0.010 A 
ATOM     38  C   UNL A   1      40.035  26.526  27.809  1.00  0.00    -0.014 A 
BRANCH  38  39
ATOM     39  C   UNL A   1      40.504  27.816  28.386  1.00  0.00     0.031 A 
ATOM     40  C   UNL A   1      41.947  28.012  28.766  1.00  0.00     0.074 A 
ATOM     41  C   UNL A   1      39.611  28.795  28.637  1.00  0.00     0.049 A 
ATOM     42  N   UNL A   1      42.523  29.045  29.330  1.00  0.00    -0.248 NA
ATOM     43  C   UNL A   1      42.859  26.888  28.503  1.00  0.00     0.031 C 
ATOM     44  C   UNL A   1      38.173  28.715  28.374  1.00  0.00     0.029 A 
ATOM     45  N   UNL A   1      39.776  30.047  29.180  1.00  0.00    -0.354 N 
ATOM     46  C   UNL A   1      43.856  28.691  29.500  1.00  0.00     0.074 A 
ATOM     47  C   UNL A   1      43.991  27.328  29.034  1.00  0.00     0.031 C 
ATOM     48  C   UNL A   1      37.594  29.871  28.730  1.00  0.00     0.029 A 
ATOM     49  C   UNL A   1      38.607  30.761  29.287  1.00  0.00     0.049 A 
ATOM     50  H   UNL A   1      40.651  30.398  29.466  1.00  0.00     0.167 HD
ATOM     51  C   UNL A   1      44.879  29.441  29.979  1.00  0.00     0.037 A 
ATOM     52  C   UNL A   1      38.374  31.991  29.786  1.00  0.00     0.037 A 
ATOM     53  C   UNL A   1      44.746  30.804  30.426  1.00  0.00     0.049 A 
ATOM     54  C   UNL A   1      39.526  32.801  30.317  1.00  0.00     0.074 A 
ATOM     55  C   UNL A   1      45.735  31.668  30.865  1.00  0.00     0.029 A 
ATOM     56  N   UNL A   1      43.548  31.499  30.503  1.00  0.00    -0.354 N 
ATOM     57  N   UNL A   1      40.796  32.485  30.394  1.00  0.00    -0.248 NA
ATOM     58  C   UNL A   1      39.212  34.144  30.824  1.00  0.00     0.031 C 
ATOM     59  C   UNL A   1      45.129  32.863  31.264  1.00  0.00     0.029 A 
ATOM     60  C   UNL A   1      43.770  32.771  31.010  1.00  0.00     0.049 A 
ATOM     61  H   UNL A   1      42.670  31.143  30.236  1.00  0.00     0.167 HD
ATOM     62  C   UNL A   1      41.435  33.597  30.926  1.00  0.00     0.074 A 
ATOM     63  C   UNL A   1      40.415  34.603  31.137  1.00  0.00     0.031 C 
ATOM     64  C   UNL A   1      42.749  33.768  31.213  1.00  0.00     0.037 A 
BRANCH  51  65
ATOM     65  C   UNL A   1      46.238  28.802  30.048  1.00  0.00     0.064 A 
ATOM     66  C   UNL A   1      47.149  28.885  28.984  1.00  0.00     0.173 A 
ATOM     67  C   UNL A   1      46.651  28.132  31.211  1.00  0.00     0.173 A 
ATOM     68  F   UNL A   1      46.804  29.508  27.846  1.00  0.00    -0.203 F 
ATOM     69  C   UNL A   1      48.406  28.291  29.066  1.00  0.00     0.198 A 
ATOM     70  C   UNL A   1      47.921  27.570  31.302  1.00  0.00     0.198 A 
ATOM     71  F   UNL A   1      45.826  28.030  32.263  1.00  0.00    -0.203 F 
ATOM     72  F   UNL A   1      49.236  28.335  28.015  1.00  0.00    -0.200 F 
ATOM     73  C   UNL A   1      48.794  27.640  30.227  1.00  0.00     0.200 A 
ATOM     74  F   UNL A   1      48.302  26.958  32.433  1.00  0.00    -0.200 F 
ATOM     75  F   UNL A   1      50.007  27.077  30.308  1.00  0.00    -0.200 F 
ENDBRANCH  51  65
BRANCH  52  76
ATOM     76  C   UNL A   1      36.992  32.541  29.790  1.00  0.00     0.064 A 
ATOM     77  C   UNL A   1      36.500  33.264  28.694  1.00  0.00     0.173 A 
ATOM     78  C   UNL A   1      36.138  32.364  30.888  1.00  0.00     0.173 A 
ATOM     79  F   UNL A   1      37.283  33.480  27.628  1.00  0.00    -0.203 F 
ATOM     80  C   UNL A   1      35.217  33.810  28.708  1.00  0.00     0.198 A 
ATOM     81  C   UNL A   1      34.845  32.881  30.887  1.00  0.00     0.198 A 
ATOM     82  F   UNL A   1      36.558  31.675  31.960  1.00  0.00    -0.203 F 
ATOM     83  F   UNL A   1      34.792  34.542  27.669  1.00  0.00    -0.200 F 
ATOM     84  C   UNL A   1      34.389  33.612  29.801  1.00  0.00     0.200 A 
ATOM     85  F   UNL A   1      34.041  32.672  31.940  1.00  0.00    -0.200 F 
ATOM     86  F   UNL A   1      33.154  34.133  29.812  1.00  0.00    -0.200 F 
ENDBRANCH  52  76
BRANCH  64  87
ATOM     87  C   UNL A   1      43.171  35.107  31.750  1.00  0.00     0.064 A 
ATOM     88  C   UNL A   1      43.098  35.414  33.117  1.00  0.00     0.173 A 
ATOM     89  C   UNL A   1      43.687  36.087  30.886  1.00  0.00     0.173 A 
ATOM     90  F   UNL A   1      42.599  34.519  33.985  1.00  0.00    -0.203 F 
ATOM     91  C   UNL A   1      43.493  36.662  33.594  1.00  0.00     0.198 A 
ATOM     92  C   UNL A   1      44.115  37.319  31.372  1.00  0.00     0.198 A 
ATOM     93  F   UNL A   1      43.786  35.844  29.571  1.00  0.00    -0.203 F 
ATOM     94  F   UNL A   1      43.361  36.952  34.896  1.00  0.00    -0.200 F 
ATOM     95  C   UNL A   1      44.009  37.609  32.723  1.00  0.00     0.200 A 
ATOM     96  F   UNL A   1      44.629  38.227  30.530  1.00  0.00    -0.200 F 
ATOM     97  F   UNL A   1      44.397  38.806  33.185  1.00  0.00    -0.200 F 
ENDBRANCH  64  87
ENDBRANCH  38  39
ENDBRANCH  30  33
ENDBRANCH  28  29
ENDBRANCH  27  28
ENDBRANCH  26  27
ENDBRANCH  25  26
ENDBRANCH   3  25
TORSDOF 17
ENDMDL
MODEL 3
REMARK VINA RESULT:     -11.4      2.776      4.000
REMARK SMILES COc1ccc(OCCNc2c(Cl)cccc2C(=O)NCCCCNC(=O)c2ccc(-c3c4nc(c(-c5c(F)c(F)c(F)c(F)c5F)c5ccc([nH]5)c(-c5c(F)c(F)c(F)c(F)c5F)c5nc(c(-c6c(F)c(F)c(F)c(F)c6F)c6ccc3[nH]6)C=C5)C=C4)cc2)cc1
REMARK SMILES IDX 18 1 19 2 20 3 17 5 11 6 12 7 13 8 14 9 16 10 15 11 10 12
REMARK SMILES IDX 9 14 8 15 7 16 6 17 3 18 4 19 92 20 5 21 91 22 2 23 1 24
REMARK SMILES IDX 21 25 22 26 23 27 24 28 25 29 26 30 27 32 28 33 29 34 90 35
REMARK SMILES IDX 30 36 89 37 31 38 32 39 33 40 83 41 34 42 88 43 82 44 84 45
REMARK SMILES IDX 35 46 87 47 81 48 80 49 36 51 68 52 48 53 67 54 49 55 52 56
REMARK SMILES IDX 66 57 85 58 50 59 51 60 65 62 86 63 53 64 37 65 38 66 46 67
REMARK SMILES IDX 39 68 40 69 44 70 47 71 41 72 42 73 45 74 43 75 69 76 70 77
REMARK SMILES IDX 78 78 71 79 72 80 76 81 79 82 73 83 74 84 77 85 75 86 54 87
REMARK SMILES IDX 55 88 63 89 56 90 57 91 61 92 64 93 58 94 59 95 62 96 60 97
REMARK H PARENT 20 4 10 13 25 31 84 50 52 61
REMARK Flexibility Score: inf
ROOT
ATOM      1  C   UNL A   1      30.406  24.494  26.457  1.00  0.00     0.253 C 
ATOM      2  O   UNL A   1      29.594  24.009  27.249  1.00  0.00    -0.269 OA
ATOM      3  N   UNL A   1      30.679  25.837  26.567  1.00  0.00    -0.352 N 
ATOM      4  H   UNL A   1      30.152  26.313  27.248  1.00  0.00     0.163 HD
ENDROOT
BRANCH   1   5
ATOM      5  C   UNL A   1      30.944  23.618  25.381  1.00  0.00     0.064 A 
ATOM      6  C   UNL A   1      31.620  22.395  25.555  1.00  0.00     0.066 A 
ATOM      7  C   UNL A   1      32.052  21.726  24.374  1.00  0.00     0.065 A 
ATOM      8  Cl  UNL A   1      32.933  20.230  24.455  1.00  0.00    -0.082 Cl
ATOM      9  C   UNL A   1      31.794  22.217  23.091  1.00  0.00     0.023 A 
ATOM     10  C   UNL A   1      30.660  24.084  24.075  1.00  0.00     0.016 A 
ATOM     11  C   UNL A   1      31.089  23.397  22.940  1.00  0.00     0.003 A 
BRANCH   6  12
ATOM     12  N   UNL A   1      32.086  21.917  26.766  1.00  0.00    -0.380 N 
ATOM     13  H   UNL A   1      31.661  21.095  27.101  1.00  0.00     0.160 HD
BRANCH  12  14
ATOM     14  C   UNL A   1      33.130  22.483  27.602  1.00  0.00     0.154 C 
BRANCH  14  15
ATOM     15  C   UNL A   1      34.512  21.856  27.263  1.00  0.00     0.250 C 
BRANCH  15  16
ATOM     16  O   UNL A   1      35.506  22.787  26.785  1.00  0.00    -0.492 OA
BRANCH  16  17
ATOM     17  C   UNL A   1      35.350  23.376  25.556  1.00  0.00     0.119 A 
ATOM     18  C   UNL A   1      34.458  24.506  23.143  1.00  0.00     0.119 A 
ATOM     19  C   UNL A   1      34.271  25.186  24.343  1.00  0.00     0.050 A 
ATOM     20  C   UNL A   1      35.209  23.338  23.133  1.00  0.00     0.050 A 
ATOM     21  C   UNL A   1      34.702  24.616  25.548  1.00  0.00     0.050 A 
ATOM     22  C   UNL A   1      35.688  22.802  24.333  1.00  0.00     0.050 A 
BRANCH  18  23
ATOM     23  O   UNL A   1      33.958  25.078  22.006  1.00  0.00    -0.497 OA
ATOM     24  C   UNL A   1      33.330  26.341  22.237  1.00  0.00     0.278 C 
ENDBRANCH  18  23
ENDBRANCH  16  17
ENDBRANCH  15  16
ENDBRANCH  14  15
ENDBRANCH  12  14
ENDBRANCH   6  12
ENDBRANCH   1   5
BRANCH   3  25
ATOM     25  C   UNL A   1      31.621  26.661  25.839  1.00  0.00     0.116 C 
BRANCH  25  26
ATOM     26  C   UNL A   1      30.994  27.756  24.982  1.00  0.00     0.023 C 
BRANCH  26  27
ATOM     27  C   UNL A   1      31.832  29.025  24.776  1.00  0.00     0.023 C 
BRANCH  27  28
ATOM     28  C   UNL A   1      32.778  29.440  25.903  1.00  0.00     0.116 C 
BRANCH  28  29
ATOM     29  N   UNL A   1      32.603  30.810  26.356  1.00  0.00    -0.352 N 
ATOM     30  C   UNL A   1      33.323  31.572  27.249  1.00  0.00     0.251 C 
ATOM     31  H   UNL A   1      31.834  31.275  25.955  1.00  0.00     0.163 HD
ATOM     32  O   UNL A   1      32.902  32.670  27.593  1.00  0.00    -0.269 OA
BRANCH  30  33
ATOM     33  C   UNL A   1      34.597  31.075  27.823  1.00  0.00     0.039 A 
ATOM     34  C   UNL A   1      35.659  31.969  27.993  1.00  0.00     0.014 A 
ATOM     35  C   UNL A   1      34.769  29.732  28.162  1.00  0.00     0.014 A 
ATOM     36  C   UNL A   1      36.847  31.538  28.591  1.00  0.00     0.010 A 
ATOM     37  C   UNL A   1      35.918  29.324  28.841  1.00  0.00     0.010 A 
ATOM     38  C   UNL A   1      36.968  30.224  29.072  1.00  0.00    -0.014 A 
BRANCH  38  39
ATOM     39  C   UNL A   1      38.169  29.788  29.837  1.00  0.00     0.031 A 
ATOM     40  C   UNL A   1      38.438  30.320  31.220  1.00  0.00     0.074 A 
ATOM     41  C   UNL A   1      39.062  28.961  29.257  1.00  0.00     0.049 A 
ATOM     42  N   UNL A   1      39.459  30.094  32.011  1.00  0.00    -0.248 NA
ATOM     43  C   UNL A   1      37.445  31.250  31.776  1.00  0.00     0.031 C 
ATOM     44  C   UNL A   1      38.954  28.418  27.902  1.00  0.00     0.029 A 
ATOM     45  N   UNL A   1      40.243  28.438  29.727  1.00  0.00    -0.354 N 
ATOM     46  C   UNL A   1      39.236  30.862  33.147  1.00  0.00     0.074 A 
ATOM     47  C   UNL A   1      38.015  31.604  32.919  1.00  0.00     0.031 C 
ATOM     48  C   UNL A   1      40.007  27.623  27.659  1.00  0.00     0.029 A 
ATOM     49  C   UNL A   1      40.888  27.630  28.822  1.00  0.00     0.049 A 
ATOM     50  H   UNL A   1      40.594  28.627  30.628  1.00  0.00     0.167 HD
ATOM     51  C   UNL A   1      39.969  30.926  34.286  1.00  0.00     0.037 A 
ATOM     52  C   UNL A   1      42.062  26.975  28.913  1.00  0.00     0.037 A 
ATOM     53  C   UNL A   1      41.175  30.173  34.518  1.00  0.00     0.049 A 
ATOM     54  C   UNL A   1      42.860  27.067  30.186  1.00  0.00     0.074 A 
ATOM     55  C   UNL A   1      41.951  30.118  35.663  1.00  0.00     0.029 A 
ATOM     56  N   UNL A   1      41.788  29.351  33.583  1.00  0.00    -0.354 N 
ATOM     57  N   UNL A   1      42.594  27.730  31.285  1.00  0.00    -0.248 NA
ATOM     58  C   UNL A   1      44.119  26.309  30.234  1.00  0.00     0.031 C 
ATOM     59  C   UNL A   1      43.064  29.313  35.402  1.00  0.00     0.029 A 
ATOM     60  C   UNL A   1      42.948  28.809  34.117  1.00  0.00     0.049 A 
ATOM     61  H   UNL A   1      41.449  29.177  32.675  1.00  0.00     0.167 HD
ATOM     62  C   UNL A   1      43.632  27.447  32.163  1.00  0.00     0.074 A 
ATOM     63  C   UNL A   1      44.524  26.537  31.475  1.00  0.00     0.031 C 
ATOM     64  C   UNL A   1      43.828  27.900  33.426  1.00  0.00     0.037 A 
BRANCH  51  65
ATOM     65  C   UNL A   1      39.488  31.846  35.373  1.00  0.00     0.064 A 
ATOM     66  C   UNL A   1      39.893  33.188  35.439  1.00  0.00     0.173 A 
ATOM     67  C   UNL A   1      38.576  31.390  36.339  1.00  0.00     0.173 A 
ATOM     68  F   UNL A   1      40.768  33.674  34.545  1.00  0.00    -0.203 F 
ATOM     69  C   UNL A   1      39.433  34.028  36.450  1.00  0.00     0.198 A 
ATOM     70  C   UNL A   1      38.092  32.243  37.327  1.00  0.00     0.198 A 
ATOM     71  F   UNL A   1      38.147  30.120  36.319  1.00  0.00    -0.203 F 
ATOM     72  F   UNL A   1      39.879  35.290  36.525  1.00  0.00    -0.200 F 
ATOM     73  C   UNL A   1      38.528  33.557  37.389  1.00  0.00     0.200 A 
ATOM     74  F   UNL A   1      37.203  31.791  38.223  1.00  0.00    -0.200 F 
ATOM     75  F   UNL A   1      38.081  34.369  38.356  1.00  0.00    -0.200 F 
ENDBRANCH  51  65
BRANCH  52  76
ATOM     76  C   UNL A   1      42.547  26.157  27.769  1.00  0.00     0.064 A 
ATOM     77  C   UNL A   1      43.497  26.665  26.871  1.00  0.00     0.173 A 
ATOM     78  C   UNL A   1      42.070  24.858  27.545  1.00  0.00     0.173 A 
ATOM     79  F   UNL A   1      43.970  27.910  27.029  1.00  0.00    -0.203 F 
ATOM     80  C   UNL A   1      43.931  25.914  25.779  1.00  0.00     0.198 A 
ATOM     81  C   UNL A   1      42.529  24.096  26.473  1.00  0.00     0.198 A 
ATOM     82  F   UNL A   1      41.165  24.322  28.378  1.00  0.00    -0.203 F 
ATOM     83  F   UNL A   1      44.798  26.445  24.907  1.00  0.00    -0.200 F 
ATOM     84  C   UNL A   1      43.451  24.629  25.585  1.00  0.00     0.200 A 
ATOM     85  F   UNL A   1      42.075  22.847  26.298  1.00  0.00    -0.200 F 
ATOM     86  F   UNL A   1      43.872  23.905  24.538  1.00  0.00    -0.200 F 
ENDBRANCH  52  76
BRANCH  64  87
ATOM     87  C   UNL A   1      45.032  27.389  34.165  1.00  0.00     0.064 A 
ATOM     88  C   UNL A   1      46.261  28.065  34.138  1.00  0.00     0.173 A 
ATOM     89  C   UNL A   1      44.946  26.221  34.940  1.00  0.00     0.173 A 
ATOM     90  F   UNL A   1      46.404  29.179  33.402  1.00  0.00    -0.203 F 
ATOM     91  C   UNL A   1      47.366  27.574  34.830  1.00  0.00     0.198 A 
ATOM     92  C   UNL A   1      46.041  25.754  35.659  1.00  0.00     0.198 A 
ATOM     93  F   UNL A   1      43.792  25.539  35.008  1.00  0.00    -0.203 F 
ATOM     94  F   UNL A   1      48.545  28.206  34.743  1.00  0.00    -0.200 F 
ATOM     95  C   UNL A   1      47.253  26.424  35.596  1.00  0.00     0.200 A 
ATOM     96  F   UNL A   1      45.925  24.651  36.414  1.00  0.00    -0.200 F 
ATOM     97  F   UNL A   1      48.315  25.957  36.268  1.00  0.00    -0.200 F 
ENDBRANCH  64  87
ENDBRANCH  38  39
ENDBRANCH  30  33
ENDBRANCH  28  29
ENDBRANCH  27  28
ENDBRANCH  26  27
ENDBRANCH  25  26
ENDBRANCH   3  25
TORSDOF 17
ENDMDL
