MODEL 1
REMARK VINA RESULT:     -13.3      0.000      0.000
REMARK SMILES Cc1n[nH]c(C)c1C(=O)N1CC(n2cc(C(=O)NCCCCNC(=O)c3ccc(-c4c5nc(c(-c6c(F)c(F)c(F)c(F)c6F)c6ccc([nH]6)c(-c6c(F)c(F)c(F)c(F)c6F)c6nc(c(-c7c(F)c(F)c(F)c(F)c7F)c7ccc4[nH]7)C=C6)C=C5)cc3)nn2)C1
REMARK SMILES IDX 20 1 19 2 18 3 16 4 17 5 15 7 13 8 14 9 90 10 89 11 12 12
REMARK SMILES IDX 8 13 9 14 10 15 11 16 91 17 7 18 1 19 2 20 3 21 4 22 5 23
REMARK SMILES IDX 6 25 21 26 22 27 23 28 24 29 25 31 26 32 27 33 88 34 28 35
REMARK SMILES IDX 87 36 29 37 30 38 31 39 81 40 32 41 86 42 80 43 82 44 33 45
REMARK SMILES IDX 85 46 79 47 78 48 34 50 66 51 46 52 65 53 47 54 50 55 64 56
REMARK SMILES IDX 83 57 48 58 49 59 63 61 84 62 51 63 35 64 36 65 44 66 37 67
REMARK SMILES IDX 38 68 42 69 45 70 39 71 40 72 43 73 41 74 67 75 68 76 76 77
REMARK SMILES IDX 69 78 70 79 74 80 77 81 71 82 72 83 75 84 73 85 52 86 53 87
REMARK SMILES IDX 61 88 54 89 55 90 59 91 62 92 56 93 57 94 60 95 58 96
REMARK H PARENT 18 6 4 24 23 30 82 49 50 60
REMARK Flexibility Score: inf
ROOT
ATOM      1  C   UNL A   1      37.963  20.668  25.237  1.00  0.00     0.023 C 
ENDROOT
BRANCH   1   2
ATOM      2  C   UNL A   1      36.461  20.944  25.284  1.00  0.00     0.116 C 
BRANCH   2   3
ATOM      3  N   UNL A   1      35.675  19.762  24.999  1.00  0.00    -0.351 N 
ATOM      4  C   UNL A   1      34.312  19.576  24.940  1.00  0.00     0.273 C 
ATOM      5  O   UNL A   1      33.919  18.504  24.482  1.00  0.00    -0.267 OA
ATOM      6  H   UNL A   1      36.206  18.953  24.816  1.00  0.00     0.163 HD
BRANCH   4   7
ATOM      7  C   UNL A   1      33.388  20.619  25.367  1.00  0.00     0.170 A 
ATOM      8  N   UNL A   1      32.369  22.367  26.162  1.00  0.00    -0.245 N 
ATOM      9  C   UNL A   1      33.588  21.747  26.144  1.00  0.00     0.145 A 
ATOM     10  N   UNL A   1      31.455  21.657  25.486  1.00  0.00    -0.066 NA
ATOM     11  N   UNL A   1      32.054  20.568  25.026  1.00  0.00    -0.125 NA
BRANCH   8  12
ATOM     12  C   UNL A   1      32.142  23.671  26.710  1.00  0.00     0.148 C 
ATOM     13  C   UNL A   1      31.592  26.817  26.281  1.00  0.00     0.257 C 
ATOM     14  O   UNL A   1      30.875  27.069  27.247  1.00  0.00    -0.269 OA
ATOM     15  N   UNL A   1      31.752  25.520  25.837  1.00  0.00    -0.334 N 
ATOM     16  C   UNL A   1      30.891  24.389  26.191  1.00  0.00     0.149 C 
ATOM     17  C   UNL A   1      32.969  24.721  25.942  1.00  0.00     0.149 C 
BRANCH  13  18
ATOM     18  C   UNL A   1      32.265  27.872  25.520  1.00  0.00     0.083 A 
ATOM     19  C   UNL A   1      30.732  27.887  23.386  1.00  0.00     0.069 C 
ATOM     20  C   UNL A   1      31.879  28.333  24.220  1.00  0.00     0.072 A 
ATOM     21  N   UNL A   1      32.706  29.273  23.749  1.00  0.00    -0.180 NA
ATOM     22  N   UNL A   1      33.630  29.398  24.703  1.00  0.00    -0.282 N 
ATOM     23  C   UNL A   1      33.422  28.596  25.793  1.00  0.00     0.045 A 
ATOM     24  H   UNL A   1      34.394  30.014  24.629  1.00  0.00     0.190 HD
ATOM     25  C   UNL A   1      34.385  28.623  26.918  1.00  0.00     0.067 C 
ENDBRANCH  13  18
ENDBRANCH   8  12
ENDBRANCH   4   7
ENDBRANCH   2   3
ENDBRANCH   1   2
BRANCH   1  26
ATOM     26  C   UNL A   1      38.850  21.774  25.831  1.00  0.00     0.023 C 
BRANCH  26  27
ATOM     27  C   UNL A   1      40.040  21.286  26.657  1.00  0.00     0.116 C 
BRANCH  27  28
ATOM     28  N   UNL A   1      41.314  21.430  25.959  1.00  0.00    -0.352 N 
ATOM     29  C   UNL A   1      42.066  22.568  25.751  1.00  0.00     0.251 C 
ATOM     30  H   UNL A   1      41.690  20.600  25.585  1.00  0.00     0.163 HD
ATOM     31  O   UNL A   1      42.941  22.595  24.894  1.00  0.00    -0.269 OA
BRANCH  29  32
ATOM     32  C   UNL A   1      41.793  23.766  26.566  1.00  0.00     0.039 A 
ATOM     33  C   UNL A   1      42.404  23.934  27.810  1.00  0.00     0.014 A 
ATOM     34  C   UNL A   1      40.950  24.749  26.059  1.00  0.00     0.014 A 
ATOM     35  C   UNL A   1      42.248  25.145  28.489  1.00  0.00     0.010 A 
ATOM     36  C   UNL A   1      40.878  25.982  26.683  1.00  0.00     0.010 A 
ATOM     37  C   UNL A   1      41.510  26.193  27.912  1.00  0.00    -0.014 A 
BRANCH  37  38
ATOM     38  C   UNL A   1      41.487  27.517  28.558  1.00  0.00     0.031 A 
ATOM     39  C   UNL A   1      42.583  28.486  28.216  1.00  0.00     0.074 A 
ATOM     40  C   UNL A   1      40.433  28.012  29.245  1.00  0.00     0.049 A 
ATOM     41  N   UNL A   1      43.348  29.153  29.024  1.00  0.00    -0.248 NA
ATOM     42  C   UNL A   1      42.837  28.767  26.795  1.00  0.00     0.031 C 
ATOM     43  C   UNL A   1      39.112  27.414  29.453  1.00  0.00     0.029 A 
ATOM     44  N   UNL A   1      40.299  29.251  29.807  1.00  0.00    -0.354 N 
ATOM     45  C   UNL A   1      44.091  30.034  28.236  1.00  0.00     0.074 A 
ATOM     46  C   UNL A   1      43.778  29.711  26.865  1.00  0.00     0.031 C 
ATOM     47  C   UNL A   1      38.250  28.366  29.871  1.00  0.00     0.029 A 
ATOM     48  C   UNL A   1      38.995  29.586  30.126  1.00  0.00     0.049 A 
ATOM     49  H   UNL A   1      41.062  29.852  29.970  1.00  0.00     0.167 HD
ATOM     50  C   UNL A   1      44.810  31.067  28.761  1.00  0.00     0.037 A 
ATOM     51  C   UNL A   1      38.536  30.785  30.550  1.00  0.00     0.037 A 
ATOM     52  C   UNL A   1      45.067  30.896  30.165  1.00  0.00     0.049 A 
ATOM     53  C   UNL A   1      39.678  31.545  31.104  1.00  0.00     0.074 A 
ATOM     54  C   UNL A   1      45.686  29.931  30.936  1.00  0.00     0.029 A 
ATOM     55  N   UNL A   1      44.423  31.704  31.067  1.00  0.00    -0.354 N 
ATOM     56  N   UNL A   1      40.290  31.250  32.217  1.00  0.00    -0.248 NA
ATOM     57  C   UNL A   1      40.372  32.485  30.239  1.00  0.00     0.031 C 
ATOM     58  C   UNL A   1      44.956  29.908  32.162  1.00  0.00     0.029 A 
ATOM     59  C   UNL A   1      43.954  30.871  32.049  1.00  0.00     0.049 A 
ATOM     60  H   UNL A   1      44.320  32.682  31.019  1.00  0.00     0.167 HD
ATOM     61  C   UNL A   1      41.603  31.629  32.005  1.00  0.00     0.074 A 
ATOM     62  C   UNL A   1      41.563  32.505  30.840  1.00  0.00     0.031 C 
ATOM     63  C   UNL A   1      42.633  30.974  32.616  1.00  0.00     0.037 A 
BRANCH  50  64
ATOM     64  C   UNL A   1      45.085  32.376  28.061  1.00  0.00     0.064 A 
ATOM     65  C   UNL A   1      44.025  33.266  27.782  1.00  0.00     0.173 A 
ATOM     66  C   UNL A   1      46.303  32.656  27.407  1.00  0.00     0.173 A 
ATOM     67  F   UNL A   1      42.812  33.072  28.321  1.00  0.00    -0.203 F 
ATOM     68  C   UNL A   1      44.162  34.322  26.877  1.00  0.00     0.198 A 
ATOM     69  C   UNL A   1      46.450  33.743  26.542  1.00  0.00     0.198 A 
ATOM     70  F   UNL A   1      47.353  31.831  27.498  1.00  0.00    -0.203 F 
ATOM     71  F   UNL A   1      43.096  35.070  26.560  1.00  0.00    -0.200 F 
ATOM     72  C   UNL A   1      45.374  34.560  26.257  1.00  0.00     0.200 A 
ATOM     73  F   UNL A   1      47.627  33.947  25.933  1.00  0.00    -0.200 F 
ATOM     74  F   UNL A   1      45.495  35.541  25.352  1.00  0.00    -0.200 F 
ENDBRANCH  50  64
BRANCH  51  75
ATOM     75  C   UNL A   1      37.198  31.380  30.362  1.00  0.00     0.064 A 
ATOM     76  C   UNL A   1      36.360  31.647  31.454  1.00  0.00     0.173 A 
ATOM     77  C   UNL A   1      36.816  31.927  29.123  1.00  0.00     0.173 A 
ATOM     78  F   UNL A   1      36.680  31.200  32.677  1.00  0.00    -0.203 F 
ATOM     79  C   UNL A   1      35.212  32.431  31.317  1.00  0.00     0.198 A 
ATOM     80  C   UNL A   1      35.663  32.699  28.984  1.00  0.00     0.198 A 
ATOM     81  F   UNL A   1      37.598  31.796  28.041  1.00  0.00    -0.203 F 
ATOM     82  F   UNL A   1      34.465  32.713  32.394  1.00  0.00    -0.200 F 
ATOM     83  C   UNL A   1      34.868  32.962  30.085  1.00  0.00     0.200 A 
ATOM     84  F   UNL A   1      35.358  33.233  27.793  1.00  0.00    -0.200 F 
ATOM     85  F   UNL A   1      33.795  33.755  29.965  1.00  0.00    -0.200 F 
ENDBRANCH  51  75
BRANCH  63  86
ATOM     86  C   UNL A   1      42.301  30.058  33.757  1.00  0.00     0.064 A 
ATOM     87  C   UNL A   1      41.864  28.732  33.587  1.00  0.00     0.173 A 
ATOM     88  C   UNL A   1      42.545  30.495  35.065  1.00  0.00     0.173 A 
ATOM     89  F   UNL A   1      41.721  28.204  32.366  1.00  0.00    -0.203 F 
ATOM     90  C   UNL A   1      41.617  27.908  34.683  1.00  0.00     0.198 A 
ATOM     91  C   UNL A   1      42.334  29.656  36.156  1.00  0.00     0.198 A 
ATOM     92  F   UNL A   1      43.028  31.728  35.284  1.00  0.00    -0.203 F 
ATOM     93  F   UNL A   1      41.176  26.655  34.494  1.00  0.00    -0.200 F 
ATOM     94  C   UNL A   1      41.855  28.369  35.967  1.00  0.00     0.200 A 
ATOM     95  F   UNL A   1      42.615  30.087  37.394  1.00  0.00    -0.200 F 
ATOM     96  F   UNL A   1      41.648  27.566  37.019  1.00  0.00    -0.200 F 
ENDBRANCH  63  86
ENDBRANCH  37  38
ENDBRANCH  29  32
ENDBRANCH  27  28
ENDBRANCH  26  27
ENDBRANCH   1  26
TORSDOF 13
ENDMDL
MODEL 2
REMARK VINA RESULT:     -13.2      8.243     14.287
REMARK SMILES Cc1n[nH]c(C)c1C(=O)N1CC(n2cc(C(=O)NCCCCNC(=O)c3ccc(-c4c5nc(c(-c6c(F)c(F)c(F)c(F)c6F)c6ccc([nH]6)c(-c6c(F)c(F)c(F)c(F)c6F)c6nc(c(-c7c(F)c(F)c(F)c(F)c7F)c7ccc4[nH]7)C=C6)C=C5)cc3)nn2)C1
REMARK SMILES IDX 20 1 19 2 18 3 16 4 17 5 15 7 13 8 14 9 90 10 89 11 12 12
REMARK SMILES IDX 8 13 9 14 10 15 11 16 91 17 7 18 1 19 2 20 3 21 4 22 5 23
REMARK SMILES IDX 6 25 21 26 22 27 23 28 24 29 25 31 26 32 27 33 88 34 28 35
REMARK SMILES IDX 87 36 29 37 30 38 31 39 81 40 32 41 86 42 80 43 82 44 33 45
REMARK SMILES IDX 85 46 79 47 78 48 34 50 66 51 46 52 65 53 47 54 50 55 64 56
REMARK SMILES IDX 83 57 48 58 49 59 63 61 84 62 51 63 35 64 36 65 44 66 37 67
REMARK SMILES IDX 38 68 42 69 45 70 39 71 40 72 43 73 41 74 67 75 68 76 76 77
REMARK SMILES IDX 69 78 70 79 74 80 77 81 71 82 72 83 75 84 73 85 52 86 53 87
REMARK SMILES IDX 61 88 54 89 55 90 59 91 62 92 56 93 57 94 60 95 58 96
REMARK H PARENT 18 6 4 24 23 30 82 49 50 60
REMARK Flexibility Score: inf
ROOT
ATOM      1  C   UNL A   1      41.515  40.721  26.097  1.00  0.00     0.023 C 
ENDROOT
BRANCH   1   2
ATOM      2  C   UNL A   1      42.309  41.439  25.007  1.00  0.00     0.116 C 
BRANCH   2   3
ATOM      3  N   UNL A   1      43.234  42.412  25.552  1.00  0.00    -0.351 N 
ATOM      4  C   UNL A   1      44.191  43.190  24.940  1.00  0.00     0.273 C 
ATOM      5  O   UNL A   1      44.704  44.076  25.622  1.00  0.00    -0.267 OA
ATOM      6  H   UNL A   1      43.167  42.538  26.526  1.00  0.00     0.163 HD
BRANCH   4   7
ATOM      7  C   UNL A   1      44.545  42.989  23.540  1.00  0.00     0.170 A 
ATOM      8  N   UNL A   1      44.852  43.059  21.390  1.00  0.00    -0.245 N 
ATOM      9  C   UNL A   1      44.158  43.669  22.400  1.00  0.00     0.145 A 
ATOM     10  N   UNL A   1      45.585  42.039  21.854  1.00  0.00    -0.066 NA
ATOM     11  N   UNL A   1      45.380  41.959  23.161  1.00  0.00    -0.125 NA
BRANCH   8  12
ATOM     12  C   UNL A   1      44.894  43.543  20.042  1.00  0.00     0.148 C 
ATOM     13  C   UNL A   1      44.551  45.958  17.936  1.00  0.00     0.257 C 
ATOM     14  O   UNL A   1      45.409  45.673  17.104  1.00  0.00    -0.269 OA
ATOM     15  N   UNL A   1      44.597  45.427  19.210  1.00  0.00    -0.334 N 
ATOM     16  C   UNL A   1      45.763  44.786  19.821  1.00  0.00     0.149 C 
ATOM     17  C   UNL A   1      43.672  44.441  19.762  1.00  0.00     0.149 C 
BRANCH  13  18
ATOM     18  C   UNL A   1      43.475  46.908  17.646  1.00  0.00     0.083 A 
ATOM     19  C   UNL A   1      41.902  45.340  16.242  1.00  0.00     0.069 C 
ATOM     20  C   UNL A   1      42.302  46.624  16.876  1.00  0.00     0.072 A 
ATOM     21  N   UNL A   1      41.516  47.697  16.734  1.00  0.00    -0.180 NA
ATOM     22  N   UNL A   1      42.177  48.668  17.367  1.00  0.00    -0.282 N 
ATOM     23  C   UNL A   1      43.352  48.262  17.941  1.00  0.00     0.045 A 
ATOM     24  H   UNL A   1      41.848  49.594  17.417  1.00  0.00     0.190 HD
ATOM     25  C   UNL A   1      44.194  49.246  18.661  1.00  0.00     0.067 C 
ENDBRANCH  13  18
ENDBRANCH   8  12
ENDBRANCH   4   7
ENDBRANCH   2   3
ENDBRANCH   1   2
BRANCH   1  26
ATOM     26  C   UNL A   1      42.362  39.962  27.131  1.00  0.00     0.023 C 
BRANCH  26  27
ATOM     27  C   UNL A   1      42.743  38.532  26.744  1.00  0.00     0.116 C 
BRANCH  27  28
ATOM     28  N   UNL A   1      44.181  38.291  26.803  1.00  0.00    -0.352 N 
ATOM     29  C   UNL A   1      44.907  37.603  27.754  1.00  0.00     0.251 C 
ATOM     30  H   UNL A   1      44.707  38.673  26.063  1.00  0.00     0.163 HD
ATOM     31  O   UNL A   1      46.121  37.743  27.842  1.00  0.00    -0.269 OA
BRANCH  29  32
ATOM     32  C   UNL A   1      44.199  36.698  28.678  1.00  0.00     0.039 A 
ATOM     33  C   UNL A   1      43.799  37.142  29.940  1.00  0.00     0.014 A 
ATOM     34  C   UNL A   1      43.898  35.407  28.258  1.00  0.00     0.014 A 
ATOM     35  C   UNL A   1      42.998  36.315  30.732  1.00  0.00     0.010 A 
ATOM     36  C   UNL A   1      43.023  34.630  28.999  1.00  0.00     0.010 A 
ATOM     37  C   UNL A   1      42.575  35.064  30.250  1.00  0.00    -0.014 A 
BRANCH  37  38
ATOM     38  C   UNL A   1      41.600  34.271  31.021  1.00  0.00     0.031 A 
ATOM     39  C   UNL A   1      41.970  33.868  32.419  1.00  0.00     0.074 A 
ATOM     40  C   UNL A   1      40.312  34.085  30.656  1.00  0.00     0.049 A 
ATOM     41  N   UNL A   1      41.929  32.685  32.952  1.00  0.00    -0.248 NA
ATOM     42  C   UNL A   1      42.413  34.919  33.347  1.00  0.00     0.031 C 
ATOM     43  C   UNL A   1      39.594  34.641  29.506  1.00  0.00     0.029 A 
ATOM     44  N   UNL A   1      39.327  33.432  31.344  1.00  0.00    -0.354 N 
ATOM     45  C   UNL A   1      42.211  32.849  34.310  1.00  0.00     0.074 A 
ATOM     46  C   UNL A   1      42.559  34.238  34.485  1.00  0.00     0.031 C 
ATOM     47  C   UNL A   1      38.264  34.510  29.702  1.00  0.00     0.029 A 
ATOM     48  C   UNL A   1      38.048  33.710  30.895  1.00  0.00     0.049 A 
ATOM     49  H   UNL A   1      39.510  32.819  32.093  1.00  0.00     0.167 HD
ATOM     50  C   UNL A   1      42.005  31.864  35.230  1.00  0.00     0.037 A 
ATOM     51  C   UNL A   1      36.879  33.338  31.463  1.00  0.00     0.037 A 
ATOM     52  C   UNL A   1      41.891  30.565  34.625  1.00  0.00     0.049 A 
ATOM     53  C   UNL A   1      37.145  32.179  32.343  1.00  0.00     0.074 A 
ATOM     54  C   UNL A   1      42.699  29.789  33.815  1.00  0.00     0.029 A 
ATOM     55  N   UNL A   1      40.671  29.941  34.602  1.00  0.00    -0.354 N 
ATOM     56  N   UNL A   1      37.457  30.987  31.919  1.00  0.00    -0.248 NA
ATOM     57  C   UNL A   1      37.378  32.422  33.758  1.00  0.00     0.031 C 
ATOM     58  C   UNL A   1      41.800  29.082  32.961  1.00  0.00     0.029 A 
ATOM     59  C   UNL A   1      40.512  29.473  33.324  1.00  0.00     0.049 A 
ATOM     60  H   UNL A   1      40.038  29.848  35.351  1.00  0.00     0.167 HD
ATOM     61  C   UNL A   1      38.297  30.479  32.894  1.00  0.00     0.074 A 
ATOM     62  C   UNL A   1      38.096  31.337  34.055  1.00  0.00     0.031 C 
ATOM     63  C   UNL A   1      39.283  29.588  32.580  1.00  0.00     0.037 A 
BRANCH  50  64
ATOM     64  C   UNL A   1      41.657  32.092  36.682  1.00  0.00     0.064 A 
ATOM     65  C   UNL A   1      40.515  32.847  37.025  1.00  0.00     0.173 A 
ATOM     66  C   UNL A   1      42.557  31.836  37.737  1.00  0.00     0.173 A 
ATOM     67  F   UNL A   1      39.612  33.181  36.091  1.00  0.00    -0.203 F 
ATOM     68  C   UNL A   1      40.319  33.351  38.314  1.00  0.00     0.198 A 
ATOM     69  C   UNL A   1      42.332  32.298  39.036  1.00  0.00     0.198 A 
ATOM     70  F   UNL A   1      43.730  31.226  37.525  1.00  0.00    -0.203 F 
ATOM     71  F   UNL A   1      39.278  34.157  38.564  1.00  0.00    -0.200 F 
ATOM     72  C   UNL A   1      41.228  33.077  39.319  1.00  0.00     0.200 A 
ATOM     73  F   UNL A   1      43.235  32.041  39.993  1.00  0.00    -0.200 F 
ATOM     74  F   UNL A   1      41.068  33.599  40.542  1.00  0.00    -0.200 F 
ENDBRANCH  50  64
BRANCH  51  75
ATOM     75  C   UNL A   1      35.571  34.020  31.416  1.00  0.00     0.064 A 
ATOM     76  C   UNL A   1      35.213  34.975  32.379  1.00  0.00     0.173 A 
ATOM     77  C   UNL A   1      34.744  33.928  30.280  1.00  0.00     0.173 A 
ATOM     78  F   UNL A   1      35.975  35.155  33.468  1.00  0.00    -0.203 F 
ATOM     79  C   UNL A   1      34.099  35.801  32.208  1.00  0.00     0.198 A 
ATOM     80  C   UNL A   1      33.626  34.745  30.116  1.00  0.00     0.198 A 
ATOM     81  F   UNL A   1      35.055  33.104  29.268  1.00  0.00    -0.203 F 
ATOM     82  F   UNL A   1      33.820  36.740  33.123  1.00  0.00    -0.200 F 
ATOM     83  C   UNL A   1      33.312  35.690  31.074  1.00  0.00     0.200 A 
ATOM     84  F   UNL A   1      32.891  34.650  29.000  1.00  0.00    -0.200 F 
ATOM     85  F   UNL A   1      32.275  36.518  30.888  1.00  0.00    -0.200 F 
ENDBRANCH  51  75
BRANCH  63  86
ATOM     86  C   UNL A   1      39.232  28.933  31.231  1.00  0.00     0.064 A 
ATOM     87  C   UNL A   1      39.679  29.550  30.050  1.00  0.00     0.173 A 
ATOM     88  C   UNL A   1      38.825  27.596  31.147  1.00  0.00     0.173 A 
ATOM     89  F   UNL A   1      40.193  30.787  30.070  1.00  0.00    -0.203 F 
ATOM     90  C   UNL A   1      39.655  28.878  28.830  1.00  0.00     0.198 A 
ATOM     91  C   UNL A   1      38.838  26.914  29.933  1.00  0.00     0.198 A 
ATOM     92  F   UNL A   1      38.451  26.934  32.253  1.00  0.00    -0.203 F 
ATOM     93  F   UNL A   1      40.064  29.499  27.714  1.00  0.00    -0.200 F 
ATOM     94  C   UNL A   1      39.237  27.560  28.772  1.00  0.00     0.200 A 
ATOM     95  F   UNL A   1      38.483  25.622  29.888  1.00  0.00    -0.200 F 
ATOM     96  F   UNL A   1      39.244  26.903  27.605  1.00  0.00    -0.200 F 
ENDBRANCH  63  86
ENDBRANCH  37  38
ENDBRANCH  29  32
ENDBRANCH  27  28
ENDBRANCH  26  27
ENDBRANCH   1  26
TORSDOF 13
ENDMDL
MODEL 3
REMARK VINA RESULT:     -13.1      3.153      9.078
REMARK SMILES Cc1n[nH]c(C)c1C(=O)N1CC(n2cc(C(=O)NCCCCNC(=O)c3ccc(-c4c5nc(c(-c6c(F)c(F)c(F)c(F)c6F)c6ccc([nH]6)c(-c6c(F)c(F)c(F)c(F)c6F)c6nc(c(-c7c(F)c(F)c(F)c(F)c7F)c7ccc4[nH]7)C=C6)C=C5)cc3)nn2)C1
REMARK SMILES IDX 20 1 19 2 18 3 16 4 17 5 15 7 13 8 14 9 90 10 89 11 12 12
REMARK SMILES IDX 8 13 9 14 10 15 11 16 91 17 7 18 1 19 2 20 3 21 4 22 5 23
REMARK SMILES IDX 6 25 21 26 22 27 23 28 24 29 25 31 26 32 27 33 88 34 28 35
REMARK SMILES IDX 87 36 29 37 30 38 31 39 81 40 32 41 86 42 80 43 82 44 33 45
REMARK SMILES IDX 85 46 79 47 78 48 34 50 66 51 46 52 65 53 47 54 50 55 64 56
REMARK SMILES IDX 83 57 48 58 49 59 63 61 84 62 51 63 35 64 36 65 44 66 37 67
REMARK SMILES IDX 38 68 42 69 45 70 39 71 40 72 43 73 41 74 67 75 68 76 76 77
REMARK SMILES IDX 69 78 70 79 74 80 77 81 71 82 72 83 75 84 73 85 52 86 53 87
REMARK SMILES IDX 61 88 54 89 55 90 59 91 62 92 56 93 57 94 60 95 58 96
REMARK H PARENT 18 6 4 24 23 30 82 49 50 60
REMARK Flexibility Score: inf
ROOT
ATOM      1  C   UNL A   1      33.250  29.822  26.164  1.00  0.00     0.023 C 
ENDROOT
BRANCH   1   2
ATOM      2  C   UNL A   1      31.767  29.660  25.833  1.00  0.00     0.116 C 
BRANCH   2   3
ATOM      3  N   UNL A   1      31.506  29.774  24.413  1.00  0.00    -0.351 N 
ATOM      4  C   UNL A   1      31.181  28.821  23.474  1.00  0.00     0.273 C 
ATOM      5  O   UNL A   1      30.822  29.230  22.371  1.00  0.00    -0.267 OA
ATOM      6  H   UNL A   1      31.571  30.691  24.058  1.00  0.00     0.163 HD
BRANCH   4   7
ATOM      7  C   UNL A   1      31.229  27.400  23.794  1.00  0.00     0.170 A 
ATOM      8  N   UNL A   1      31.659  25.387  24.492  1.00  0.00    -0.245 N 
ATOM      9  C   UNL A   1      32.188  26.648  24.449  1.00  0.00     0.145 A 
ATOM     10  N   UNL A   1      30.475  25.337  23.867  1.00  0.00    -0.066 NA
ATOM     11  N   UNL A   1      30.216  26.551  23.402  1.00  0.00    -0.125 NA
BRANCH   8  12
ATOM     12  C   UNL A   1      32.234  24.303  25.232  1.00  0.00     0.148 C 
ATOM     13  C   UNL A   1      34.832  22.772  26.366  1.00  0.00     0.257 C 
ATOM     14  O   UNL A   1      34.405  22.330  27.430  1.00  0.00    -0.269 OA
ATOM     15  N   UNL A   1      34.196  23.817  25.727  1.00  0.00    -0.334 N 
ATOM     16  C   UNL A   1      33.213  24.714  26.338  1.00  0.00     0.149 C 
ATOM     17  C   UNL A   1      33.449  23.729  24.475  1.00  0.00     0.149 C 
BRANCH  13  18
ATOM     18  C   UNL A   1      36.059  22.259  25.752  1.00  0.00     0.083 A 
ATOM     19  C   UNL A   1      35.183  19.908  24.973  1.00  0.00     0.069 C 
ATOM     20  C   UNL A   1      36.207  20.971  25.144  1.00  0.00     0.072 A 
ATOM     21  N   UNL A   1      37.454  20.756  24.709  1.00  0.00    -0.180 NA
ATOM     22  N   UNL A   1      38.113  21.863  25.056  1.00  0.00    -0.282 N 
ATOM     23  C   UNL A   1      37.337  22.805  25.676  1.00  0.00     0.045 A 
ATOM     24  H   UNL A   1      39.073  21.990  24.880  1.00  0.00     0.190 HD
ATOM     25  C   UNL A   1      37.949  24.076  26.129  1.00  0.00     0.067 C 
ENDBRANCH  13  18
ENDBRANCH   8  12
ENDBRANCH   4   7
ENDBRANCH   2   3
ENDBRANCH   1   2
BRANCH   1  26
ATOM     26  C   UNL A   1      33.549  30.328  27.585  1.00  0.00     0.023 C 
BRANCH  26  27
ATOM     27  C   UNL A   1      34.422  31.581  27.664  1.00  0.00     0.116 C 
BRANCH  27  28
ATOM     28  N   UNL A   1      34.409  32.201  28.985  1.00  0.00    -0.352 N 
ATOM     29  C   UNL A   1      35.174  31.901  30.093  1.00  0.00     0.251 C 
ATOM     30  H   UNL A   1      33.763  32.936  29.102  1.00  0.00     0.163 HD
ATOM     31  O   UNL A   1      34.846  32.286  31.208  1.00  0.00    -0.269 OA
BRANCH  29  32
ATOM     32  C   UNL A   1      36.396  31.094  29.920  1.00  0.00     0.039 A 
ATOM     33  C   UNL A   1      37.627  31.708  29.683  1.00  0.00     0.014 A 
ATOM     34  C   UNL A   1      36.312  29.711  30.042  1.00  0.00     0.014 A 
ATOM     35  C   UNL A   1      38.788  30.931  29.678  1.00  0.00     0.010 A 
ATOM     36  C   UNL A   1      37.470  28.958  30.136  1.00  0.00     0.010 A 
ATOM     37  C   UNL A   1      38.721  29.552  29.940  1.00  0.00    -0.014 A 
BRANCH  37  38
ATOM     38  C   UNL A   1      39.961  28.772  30.094  1.00  0.00     0.031 A 
ATOM     39  C   UNL A   1      40.479  28.541  31.484  1.00  0.00     0.074 A 
ATOM     40  C   UNL A   1      40.535  28.049  29.106  1.00  0.00     0.049 A 
ATOM     41  N   UNL A   1      41.674  28.753  31.943  1.00  0.00    -0.248 NA
ATOM     42  C   UNL A   1      39.556  27.975  32.480  1.00  0.00     0.031 C 
ATOM     43  C   UNL A   1      40.061  27.828  27.737  1.00  0.00     0.029 A 
ATOM     44  N   UNL A   1      41.636  27.242  29.181  1.00  0.00    -0.354 N 
ATOM     45  C   UNL A   1      41.703  28.234  33.239  1.00  0.00     0.074 A 
ATOM     46  C   UNL A   1      40.354  27.820  33.538  1.00  0.00     0.031 C 
ATOM     47  C   UNL A   1      40.717  26.777  27.200  1.00  0.00     0.029 A 
ATOM     48  C   UNL A   1      41.769  26.370  28.115  1.00  0.00     0.049 A 
ATOM     49  H   UNL A   1      42.277  27.277  29.928  1.00  0.00     0.167 HD
ATOM     50  C   UNL A   1      42.862  28.047  33.934  1.00  0.00     0.037 A 
ATOM     51  C   UNL A   1      42.660  25.362  27.984  1.00  0.00     0.037 A 
ATOM     52  C   UNL A   1      43.953  28.810  33.392  1.00  0.00     0.049 A 
ATOM     53  C   UNL A   1      43.791  25.627  28.899  1.00  0.00     0.074 A 
ATOM     54  C   UNL A   1      44.185  30.152  33.154  1.00  0.00     0.029 A 
ATOM     55  N   UNL A   1      44.968  28.159  32.740  1.00  0.00    -0.354 N 
ATOM     56  N   UNL A   1      44.664  26.581  28.735  1.00  0.00    -0.248 NA
ATOM     57  C   UNL A   1      43.779  25.009  30.215  1.00  0.00     0.031 C 
ATOM     58  C   UNL A   1      44.982  30.188  31.971  1.00  0.00     0.029 A 
ATOM     59  C   UNL A   1      45.185  28.864  31.584  1.00  0.00     0.049 A 
ATOM     60  H   UNL A   1      45.444  27.351  33.040  1.00  0.00     0.167 HD
ATOM     61  C   UNL A   1      45.013  26.960  30.020  1.00  0.00     0.074 A 
ATOM     62  C   UNL A   1      44.553  25.873  30.875  1.00  0.00     0.031 C 
ATOM     63  C   UNL A   1      45.384  28.244  30.299  1.00  0.00     0.037 A 
BRANCH  50  64
ATOM     64  C   UNL A   1      43.087  26.975  34.972  1.00  0.00     0.064 A 
ATOM     65  C   UNL A   1      43.428  27.331  36.295  1.00  0.00     0.173 A 
ATOM     66  C   UNL A   1      43.257  25.613  34.646  1.00  0.00     0.173 A 
ATOM     67  F   UNL A   1      43.341  28.606  36.702  1.00  0.00    -0.203 F 
ATOM     68  C   UNL A   1      43.948  26.403  37.202  1.00  0.00     0.198 A 
ATOM     69  C   UNL A   1      43.729  24.679  35.571  1.00  0.00     0.198 A 
ATOM     70  F   UNL A   1      43.075  25.164  33.398  1.00  0.00    -0.203 F 
ATOM     71  F   UNL A   1      44.362  26.812  38.410  1.00  0.00    -0.200 F 
ATOM     72  C   UNL A   1      44.099  25.078  36.840  1.00  0.00     0.200 A 
ATOM     73  F   UNL A   1      43.889  23.402  35.196  1.00  0.00    -0.200 F 
ATOM     74  F   UNL A   1      44.643  24.197  37.691  1.00  0.00    -0.200 F 
ENDBRANCH  50  64
BRANCH  51  75
ATOM     75  C   UNL A   1      42.521  24.099  27.233  1.00  0.00     0.064 A 
ATOM     76  C   UNL A   1      43.069  23.950  25.951  1.00  0.00     0.173 A 
ATOM     77  C   UNL A   1      42.059  22.927  27.863  1.00  0.00     0.173 A 
ATOM     78  F   UNL A   1      43.573  25.011  25.304  1.00  0.00    -0.203 F 
ATOM     79  C   UNL A   1      43.164  22.697  25.339  1.00  0.00     0.198 A 
ATOM     80  C   UNL A   1      42.142  21.679  27.246  1.00  0.00     0.198 A 
ATOM     81  F   UNL A   1      41.596  22.959  29.122  1.00  0.00    -0.203 F 
ATOM     82  F   UNL A   1      43.745  22.586  24.137  1.00  0.00    -0.200 F 
ATOM     83  C   UNL A   1      42.707  21.563  25.990  1.00  0.00     0.200 A 
ATOM     84  F   UNL A   1      41.726  20.586  27.899  1.00  0.00    -0.200 F 
ATOM     85  F   UNL A   1      42.845  20.357  25.423  1.00  0.00    -0.200 F 
ENDBRANCH  51  75
BRANCH  63  86
ATOM     86  C   UNL A   1      45.715  29.144  29.145  1.00  0.00     0.064 A 
ATOM     87  C   UNL A   1      44.751  29.867  28.422  1.00  0.00     0.173 A 
ATOM     88  C   UNL A   1      47.061  29.374  28.835  1.00  0.00     0.173 A 
ATOM     89  F   UNL A   1      43.452  29.791  28.738  1.00  0.00    -0.203 F 
ATOM     90  C   UNL A   1      45.117  30.729  27.390  1.00  0.00     0.198 A 
ATOM     91  C   UNL A   1      47.427  30.265  27.828  1.00  0.00     0.198 A 
ATOM     92  F   UNL A   1      48.029  28.763  29.536  1.00  0.00    -0.203 F 
ATOM     93  F   UNL A   1      44.175  31.387  26.699  1.00  0.00    -0.200 F 
ATOM     94  C   UNL A   1      46.455  30.929  27.095  1.00  0.00     0.200 A 
ATOM     95  F   UNL A   1      48.724  30.497  27.580  1.00  0.00    -0.200 F 
ATOM     96  F   UNL A   1      46.809  31.781  26.125  1.00  0.00    -0.200 F 
ENDBRANCH  63  86
ENDBRANCH  37  38
ENDBRANCH  29  32
ENDBRANCH  27  28
ENDBRANCH  26  27
ENDBRANCH   1  26
TORSDOF 13
ENDMDL
