MODEL 1
REMARK VINA RESULT:     -11.8      0.000      0.000
REMARK SMILES C=CC[C@@H](NC(=O)OCc1ccccc1)C(=O)NCCCCNC(=O)c1ccc(-c2c3nc(c(-c4c(F)c(F)c(F)c(F)c4F)c4ccc([nH]4)c(-c4c(F)c(F)c(F)c(F)c4F)c4nc(c(-c5c(F)c(F)c(F)c(F)c5F)c5ccc2[nH]5)C=C4)C=C3)cc1
REMARK SMILES IDX 19 1 18 2 16 3 17 4 4 6 3 7 2 8 1 9 5 10 6 11 7 13 8 14 9 15
REMARK SMILES IDX 10 16 11 17 15 18 12 19 14 20 13 21 20 22 21 23 22 24 23 25
REMARK SMILES IDX 24 26 25 28 26 29 27 30 88 31 28 32 87 33 29 34 30 35 31 36
REMARK SMILES IDX 81 37 32 38 86 39 80 40 82 41 33 42 85 43 79 44 78 45 34 47
REMARK SMILES IDX 66 48 46 49 65 50 47 51 50 52 64 53 83 54 48 55 49 56 63 58
REMARK SMILES IDX 84 59 51 60 35 61 36 62 44 63 37 64 38 65 42 66 45 67 39 68
REMARK SMILES IDX 40 69 43 70 41 71 67 72 68 73 76 74 69 75 70 76 74 77 77 78
REMARK SMILES IDX 71 79 72 80 75 81 73 82 52 83 53 84 61 85 54 86 55 87 59 88
REMARK SMILES IDX 62 89 56 90 57 91 60 92 58 93
REMARK H PARENT 18 5 5 12 23 27 82 46 50 57
REMARK Flexibility Score: inf
ROOT
ATOM      1  C   UNL A   1      32.309  29.762  25.491  1.00  0.00     0.116 C 
ENDROOT
BRANCH   1   2
ATOM      2  N   UNL A   1      31.392  29.898  24.375  1.00  0.00    -0.354 N 
ATOM      3  C   UNL A   1      31.054  28.984  23.415  1.00  0.00     0.243 C 
ATOM      4  O   UNL A   1      30.308  29.358  22.506  1.00  0.00    -0.273 OA
ATOM      5  H   UNL A   1      30.949  30.775  24.297  1.00  0.00     0.163 HD
BRANCH   3   6
ATOM      6  C   UNL A   1      31.725  27.589  23.374  1.00  0.00     0.178 C 
BRANCH   6   7
ATOM      7  C   UNL A   1      30.714  26.648  24.088  1.00  0.00     0.062 C 
BRANCH   7   8
ATOM      8  C   UNL A   1      30.947  26.357  25.545  1.00  0.00    -0.032 C 
ATOM      9  C   UNL A   1      31.567  25.247  25.970  1.00  0.00     0.004 C 
ENDBRANCH   7   8
ENDBRANCH   6   7
BRANCH   6  10
ATOM     10  N   UNL A   1      32.072  27.111  22.028  1.00  0.00    -0.309 N 
ATOM     11  C   UNL A   1      32.978  26.148  21.689  1.00  0.00     0.408 C 
ATOM     12  H   UNL A   1      31.593  27.537  21.281  1.00  0.00     0.167 HD
ATOM     13  O   UNL A   1      33.139  25.827  20.518  1.00  0.00    -0.225 OA
BRANCH  11  14
ATOM     14  O   UNL A   1      33.739  25.740  22.726  1.00  0.00    -0.445 OA
BRANCH  14  15
ATOM     15  C   UNL A   1      33.726  24.331  22.984  1.00  0.00     0.270 C 
BRANCH  15  16
ATOM     16  C   UNL A   1      34.912  23.905  23.798  1.00  0.00    -0.011 A 
ATOM     17  C   UNL A   1      35.121  24.438  25.077  1.00  0.00     0.007 A 
ATOM     18  C   UNL A   1      35.824  22.976  23.283  1.00  0.00     0.007 A 
ATOM     19  C   UNL A   1      36.212  24.025  25.838  1.00  0.00     0.000 A 
ATOM     20  C   UNL A   1      36.917  22.567  24.045  1.00  0.00     0.000 A 
ATOM     21  C   UNL A   1      37.107  23.087  25.324  1.00  0.00     0.000 A 
ENDBRANCH  15  16
ENDBRANCH  14  15
ENDBRANCH  11  14
ENDBRANCH   6  10
ENDBRANCH   3   6
ENDBRANCH   1   2
BRANCH   1  22
ATOM     22  C   UNL A   1      31.749  30.411  26.748  1.00  0.00     0.023 C 
BRANCH  22  23
ATOM     23  C   UNL A   1      31.637  31.930  26.654  1.00  0.00     0.023 C 
BRANCH  23  24
ATOM     24  C   UNL A   1      32.798  32.689  27.285  1.00  0.00     0.116 C 
BRANCH  24  25
ATOM     25  N   UNL A   1      32.466  34.074  27.584  1.00  0.00    -0.352 N 
ATOM     26  C   UNL A   1      32.985  34.889  28.561  1.00  0.00     0.251 C 
ATOM     27  H   UNL A   1      31.777  34.482  27.011  1.00  0.00     0.163 HD
ATOM     28  O   UNL A   1      32.475  35.975  28.808  1.00  0.00    -0.269 OA
BRANCH  26  29
ATOM     29  C   UNL A   1      34.155  34.423  29.332  1.00  0.00     0.039 A 
ATOM     30  C   UNL A   1      33.955  33.860  30.593  1.00  0.00     0.014 A 
ATOM     31  C   UNL A   1      35.437  34.503  28.782  1.00  0.00     0.014 A 
ATOM     32  C   UNL A   1      35.040  33.313  31.277  1.00  0.00     0.010 A 
ATOM     33  C   UNL A   1      36.499  33.880  29.426  1.00  0.00     0.010 A 
ATOM     34  C   UNL A   1      36.312  33.282  30.681  1.00  0.00    -0.014 A 
BRANCH  34  35
ATOM     35  C   UNL A   1      37.461  32.627  31.358  1.00  0.00     0.031 A 
ATOM     36  C   UNL A   1      38.164  31.473  30.700  1.00  0.00     0.074 A 
ATOM     37  C   UNL A   1      37.830  33.033  32.588  1.00  0.00     0.049 A 
ATOM     38  N   UNL A   1      39.144  30.734  31.154  1.00  0.00    -0.248 NA
ATOM     39  C   UNL A   1      37.684  31.079  29.366  1.00  0.00     0.031 C 
ATOM     40  C   UNL A   1      37.193  34.107  33.351  1.00  0.00     0.029 A 
ATOM     41  N   UNL A   1      38.826  32.582  33.419  1.00  0.00    -0.354 N 
ATOM     42  C   UNL A   1      39.391  29.788  30.167  1.00  0.00     0.074 A 
ATOM     43  C   UNL A   1      38.415  30.003  29.121  1.00  0.00     0.031 C 
ATOM     44  C   UNL A   1      37.827  34.250  34.525  1.00  0.00     0.029 A 
ATOM     45  C   UNL A   1      38.887  33.249  34.618  1.00  0.00     0.049 A 
ATOM     46  H   UNL A   1      39.438  31.850  33.177  1.00  0.00     0.167 HD
ATOM     47  C   UNL A   1      40.360  28.844  30.125  1.00  0.00     0.037 A 
ATOM     48  C   UNL A   1      39.697  33.066  35.677  1.00  0.00     0.037 A 
ATOM     49  C   UNL A   1      41.336  28.642  31.163  1.00  0.00     0.049 A 
ATOM     50  C   UNL A   1      40.752  31.994  35.615  1.00  0.00     0.074 A 
ATOM     51  C   UNL A   1      42.390  27.746  31.195  1.00  0.00     0.029 A 
ATOM     52  N   UNL A   1      41.373  29.345  32.359  1.00  0.00    -0.354 N 
ATOM     53  N   UNL A   1      41.022  31.153  34.646  1.00  0.00    -0.248 NA
ATOM     54  C   UNL A   1      41.622  31.851  36.792  1.00  0.00     0.031 C 
ATOM     55  C   UNL A   1      43.029  27.865  32.433  1.00  0.00     0.029 A 
ATOM     56  C   UNL A   1      42.416  28.882  33.147  1.00  0.00     0.049 A 
ATOM     57  H   UNL A   1      40.751  30.065  32.611  1.00  0.00     0.167 HD
ATOM     58  C   UNL A   1      42.108  30.404  35.082  1.00  0.00     0.074 A 
ATOM     59  C   UNL A   1      42.457  30.903  36.396  1.00  0.00     0.031 C 
ATOM     60  C   UNL A   1      42.757  29.394  34.451  1.00  0.00     0.037 A 
BRANCH  47  61
ATOM     61  C   UNL A   1      40.414  27.957  28.913  1.00  0.00     0.064 A 
ATOM     62  C   UNL A   1      39.692  26.754  28.848  1.00  0.00     0.173 A 
ATOM     63  C   UNL A   1      41.168  28.327  27.790  1.00  0.00     0.173 A 
ATOM     64  F   UNL A   1      38.964  26.345  29.898  1.00  0.00    -0.203 F 
ATOM     65  C   UNL A   1      39.749  25.942  27.719  1.00  0.00     0.198 A 
ATOM     66  C   UNL A   1      41.195  27.531  26.649  1.00  0.00     0.198 A 
ATOM     67  F   UNL A   1      41.873  29.469  27.795  1.00  0.00    -0.203 F 
ATOM     68  F   UNL A   1      39.096  24.772  27.702  1.00  0.00    -0.200 F 
ATOM     69  C   UNL A   1      40.494  26.335  26.617  1.00  0.00     0.200 A 
ATOM     70  F   UNL A   1      41.902  27.919  25.579  1.00  0.00    -0.200 F 
ATOM     71  F   UNL A   1      40.542  25.557  25.527  1.00  0.00    -0.200 F 
ENDBRANCH  47  61
BRANCH  48  72
ATOM     72  C   UNL A   1      39.555  33.927  36.882  1.00  0.00     0.064 A 
ATOM     73  C   UNL A   1      38.807  33.504  37.990  1.00  0.00     0.173 A 
ATOM     74  C   UNL A   1      40.153  35.195  36.946  1.00  0.00     0.173 A 
ATOM     75  F   UNL A   1      38.199  32.308  37.969  1.00  0.00    -0.203 F 
ATOM     76  C   UNL A   1      38.640  34.325  39.103  1.00  0.00     0.198 A 
ATOM     77  C   UNL A   1      40.013  36.001  38.075  1.00  0.00     0.198 A 
ATOM     78  F   UNL A   1      40.884  35.646  35.917  1.00  0.00    -0.203 F 
ATOM     79  F   UNL A   1      37.876  33.916  40.125  1.00  0.00    -0.200 F 
ATOM     80  C   UNL A   1      39.249  35.569  39.148  1.00  0.00     0.200 A 
ATOM     81  F   UNL A   1      40.618  37.196  38.120  1.00  0.00    -0.200 F 
ATOM     82  F   UNL A   1      39.091  36.358  40.220  1.00  0.00    -0.200 F 
ENDBRANCH  48  72
BRANCH  60  83
ATOM     83  C   UNL A   1      43.938  28.786  35.153  1.00  0.00     0.064 A 
ATOM     84  C   UNL A   1      43.804  27.683  36.009  1.00  0.00     0.173 A 
ATOM     85  C   UNL A   1      45.229  29.292  34.932  1.00  0.00     0.173 A 
ATOM     86  F   UNL A   1      42.590  27.170  36.265  1.00  0.00    -0.203 F 
ATOM     87  C   UNL A   1      44.914  27.129  36.642  1.00  0.00     0.198 A 
ATOM     88  C   UNL A   1      46.340  28.713  35.538  1.00  0.00     0.198 A 
ATOM     89  F   UNL A   1      45.415  30.341  34.117  1.00  0.00    -0.203 F 
ATOM     90  F   UNL A   1      44.754  26.111  37.498  1.00  0.00    -0.200 F 
ATOM     91  C   UNL A   1      46.181  27.638  36.399  1.00  0.00     0.200 A 
ATOM     92  F   UNL A   1      47.565  29.195  35.289  1.00  0.00    -0.200 F 
ATOM     93  F   UNL A   1      47.248  27.097  37.001  1.00  0.00    -0.200 F 
ENDBRANCH  60  83
ENDBRANCH  34  35
ENDBRANCH  26  29
ENDBRANCH  24  25
ENDBRANCH  23  24
ENDBRANCH  22  23
ENDBRANCH   1  22
TORSDOF 17
ENDMDL
MODEL 2
REMARK VINA RESULT:     -11.6      5.620     10.716
REMARK SMILES C=CC[C@@H](NC(=O)OCc1ccccc1)C(=O)NCCCCNC(=O)c1ccc(-c2c3nc(c(-c4c(F)c(F)c(F)c(F)c4F)c4ccc([nH]4)c(-c4c(F)c(F)c(F)c(F)c4F)c4nc(c(-c5c(F)c(F)c(F)c(F)c5F)c5ccc2[nH]5)C=C4)C=C3)cc1
REMARK SMILES IDX 19 1 18 2 16 3 17 4 4 6 3 7 2 8 1 9 5 10 6 11 7 13 8 14 9 15
REMARK SMILES IDX 10 16 11 17 15 18 12 19 14 20 13 21 20 22 21 23 22 24 23 25
REMARK SMILES IDX 24 26 25 28 26 29 27 30 88 31 28 32 87 33 29 34 30 35 31 36
REMARK SMILES IDX 81 37 32 38 86 39 80 40 82 41 33 42 85 43 79 44 78 45 34 47
REMARK SMILES IDX 66 48 46 49 65 50 47 51 50 52 64 53 83 54 48 55 49 56 63 58
REMARK SMILES IDX 84 59 51 60 35 61 36 62 44 63 37 64 38 65 42 66 45 67 39 68
REMARK SMILES IDX 40 69 43 70 41 71 67 72 68 73 76 74 69 75 70 76 74 77 77 78
REMARK SMILES IDX 71 79 72 80 75 81 73 82 52 83 53 84 61 85 54 86 55 87 59 88
REMARK SMILES IDX 62 89 56 90 57 91 60 92 58 93
REMARK H PARENT 18 5 5 12 23 27 82 46 50 57
REMARK Flexibility Score: inf
ROOT
ATOM      1  C   UNL A   1      35.534  20.518  25.042  1.00  0.00     0.116 C 
ENDROOT
BRANCH   1   2
ATOM      2  N   UNL A   1      34.340  19.694  25.016  1.00  0.00    -0.354 N 
ATOM      3  C   UNL A   1      33.026  20.074  25.061  1.00  0.00     0.243 C 
ATOM      4  O   UNL A   1      32.175  19.182  25.111  1.00  0.00    -0.273 OA
ATOM      5  H   UNL A   1      34.497  18.724  24.957  1.00  0.00     0.163 HD
BRANCH   3   6
ATOM      6  C   UNL A   1      32.633  21.562  25.223  1.00  0.00     0.178 C 
BRANCH   6   7
ATOM      7  C   UNL A   1      32.242  22.022  23.790  1.00  0.00     0.062 C 
BRANCH   7   8
ATOM      8  C   UNL A   1      33.283  22.753  22.988  1.00  0.00    -0.032 C 
ATOM      9  C   UNL A   1      33.516  24.065  23.130  1.00  0.00     0.004 C 
ENDBRANCH   7   8
ENDBRANCH   6   7
BRANCH   6  10
ATOM     10  N   UNL A   1      31.562  21.814  26.198  1.00  0.00    -0.309 N 
ATOM     11  C   UNL A   1      31.130  23.018  26.675  1.00  0.00     0.408 C 
ATOM     12  H   UNL A   1      31.099  21.019  26.548  1.00  0.00     0.167 HD
ATOM     13  O   UNL A   1      30.196  23.078  27.465  1.00  0.00    -0.225 OA
BRANCH  11  14
ATOM     14  O   UNL A   1      31.919  24.052  26.315  1.00  0.00    -0.445 OA
BRANCH  14  15
ATOM     15  C   UNL A   1      31.232  25.249  25.934  1.00  0.00     0.270 C 
BRANCH  15  16
ATOM     16  C   UNL A   1      32.007  26.477  26.311  1.00  0.00    -0.011 A 
ATOM     17  C   UNL A   1      33.347  26.615  25.928  1.00  0.00     0.007 A 
ATOM     18  C   UNL A   1      31.398  27.494  27.057  1.00  0.00     0.007 A 
ATOM     19  C   UNL A   1      34.058  27.765  26.262  1.00  0.00     0.000 A 
ATOM     20  C   UNL A   1      32.112  28.643  27.393  1.00  0.00     0.000 A 
ATOM     21  C   UNL A   1      33.439  28.780  26.990  1.00  0.00     0.000 A 
ENDBRANCH  15  16
ENDBRANCH  14  15
ENDBRANCH  11  14
ENDBRANCH   6  10
ENDBRANCH   3   6
ENDBRANCH   1   2
BRANCH   1  22
ATOM     22  C   UNL A   1      36.793  19.666  24.978  1.00  0.00     0.023 C 
BRANCH  22  23
ATOM     23  C   UNL A   1      38.075  20.478  24.816  1.00  0.00     0.023 C 
BRANCH  23  24
ATOM     24  C   UNL A   1      39.006  20.436  26.021  1.00  0.00     0.116 C 
BRANCH  24  25
ATOM     25  N   UNL A   1      39.965  19.343  25.951  1.00  0.00    -0.352 N 
ATOM     26  C   UNL A   1      41.333  19.395  26.053  1.00  0.00     0.251 C 
ATOM     27  H   UNL A   1      39.582  18.447  25.810  1.00  0.00     0.163 HD
ATOM     28  O   UNL A   1      42.020  18.415  25.790  1.00  0.00    -0.269 OA
BRANCH  26  29
ATOM     29  C   UNL A   1      41.971  20.663  26.458  1.00  0.00     0.039 A 
ATOM     30  C   UNL A   1      42.357  21.573  25.473  1.00  0.00     0.014 A 
ATOM     31  C   UNL A   1      42.140  20.965  27.812  1.00  0.00     0.014 A 
ATOM     32  C   UNL A   1      42.853  22.821  25.851  1.00  0.00     0.010 A 
ATOM     33  C   UNL A   1      42.551  22.238  28.185  1.00  0.00     0.010 A 
ATOM     34  C   UNL A   1      42.915  23.178  27.208  1.00  0.00    -0.014 A 
BRANCH  34  35
ATOM     35  C   UNL A   1      43.359  24.532  27.626  1.00  0.00     0.031 A 
ATOM     36  C   UNL A   1      42.344  25.587  27.965  1.00  0.00     0.074 A 
ATOM     37  C   UNL A   1      44.673  24.828  27.642  1.00  0.00     0.049 A 
ATOM     38  N   UNL A   1      42.529  26.841  28.291  1.00  0.00    -0.248 NA
ATOM     39  C   UNL A   1      40.929  25.187  27.901  1.00  0.00     0.031 C 
ATOM     40  C   UNL A   1      45.752  23.905  27.285  1.00  0.00     0.029 A 
ATOM     41  N   UNL A   1      45.325  25.993  27.962  1.00  0.00    -0.354 N 
ATOM     42  C   UNL A   1      41.260  27.377  28.464  1.00  0.00     0.074 A 
ATOM     43  C   UNL A   1      40.312  26.334  28.142  1.00  0.00     0.031 C 
ATOM     44  C   UNL A   1      46.932  24.530  27.429  1.00  0.00     0.029 A 
ATOM     45  C   UNL A   1      46.692  25.909  27.845  1.00  0.00     0.049 A 
ATOM     46  H   UNL A   1      44.858  26.811  28.248  1.00  0.00     0.167 HD
ATOM     47  C   UNL A   1      40.917  28.619  28.881  1.00  0.00     0.037 A 
ATOM     48  C   UNL A   1      47.642  26.842  28.040  1.00  0.00     0.037 A 
ATOM     49  C   UNL A   1      41.865  29.650  29.212  1.00  0.00     0.049 A 
ATOM     50  C   UNL A   1      47.233  28.223  28.481  1.00  0.00     0.074 A 
ATOM     51  C   UNL A   1      41.621  30.925  29.691  1.00  0.00     0.029 A 
ATOM     52  N   UNL A   1      43.242  29.524  29.091  1.00  0.00    -0.354 N 
ATOM     53  N   UNL A   1      46.033  28.698  28.710  1.00  0.00    -0.248 NA
ATOM     54  C   UNL A   1      48.313  29.196  28.697  1.00  0.00     0.031 C 
ATOM     55  C   UNL A   1      42.845  31.591  29.804  1.00  0.00     0.029 A 
ATOM     56  C   UNL A   1      43.858  30.710  29.462  1.00  0.00     0.049 A 
ATOM     57  H   UNL A   1      43.711  28.715  28.789  1.00  0.00     0.167 HD
ATOM     58  C   UNL A   1      46.214  30.010  29.127  1.00  0.00     0.074 A 
ATOM     59  C   UNL A   1      47.642  30.251  29.134  1.00  0.00     0.031 C 
ATOM     60  C   UNL A   1      45.282  30.933  29.471  1.00  0.00     0.037 A 
BRANCH  47  61
ATOM     61  C   UNL A   1      39.452  28.931  29.003  1.00  0.00     0.064 A 
ATOM     62  C   UNL A   1      38.776  28.827  30.230  1.00  0.00     0.173 A 
ATOM     63  C   UNL A   1      38.720  29.370  27.889  1.00  0.00     0.173 A 
ATOM     64  F   UNL A   1      39.424  28.401  31.324  1.00  0.00    -0.203 F 
ATOM     65  C   UNL A   1      37.419  29.120  30.329  1.00  0.00     0.198 A 
ATOM     66  C   UNL A   1      37.371  29.696  28.000  1.00  0.00     0.198 A 
ATOM     67  F   UNL A   1      39.316  29.492  26.694  1.00  0.00    -0.203 F 
ATOM     68  F   UNL A   1      36.784  28.960  31.499  1.00  0.00    -0.200 F 
ATOM     69  C   UNL A   1      36.720  29.563  29.216  1.00  0.00     0.200 A 
ATOM     70  F   UNL A   1      36.701  30.139  26.928  1.00  0.00    -0.200 F 
ATOM     71  F   UNL A   1      35.415  29.852  29.315  1.00  0.00    -0.200 F 
ENDBRANCH  47  61
BRANCH  48  72
ATOM     72  C   UNL A   1      49.075  26.500  27.836  1.00  0.00     0.064 A 
ATOM     73  C   UNL A   1      49.917  26.227  28.924  1.00  0.00     0.173 A 
ATOM     74  C   UNL A   1      49.637  26.450  26.551  1.00  0.00     0.173 A 
ATOM     75  F   UNL A   1      49.432  26.281  30.174  1.00  0.00    -0.203 F 
ATOM     76  C   UNL A   1      51.268  25.944  28.737  1.00  0.00     0.198 A 
ATOM     77  C   UNL A   1      50.982  26.135  26.364  1.00  0.00     0.198 A 
ATOM     78  F   UNL A   1      48.876  26.697  25.475  1.00  0.00    -0.203 F 
ATOM     79  F   UNL A   1      52.060  25.741  29.798  1.00  0.00    -0.200 F 
ATOM     80  C   UNL A   1      51.798  25.892  27.457  1.00  0.00     0.200 A 
ATOM     81  F   UNL A   1      51.485  26.067  25.123  1.00  0.00    -0.200 F 
ATOM     82  F   UNL A   1      53.097  25.617  27.278  1.00  0.00    -0.200 F 
ENDBRANCH  48  72
BRANCH  60  83
ATOM     83  C   UNL A   1      45.776  32.277  29.926  1.00  0.00     0.064 A 
ATOM     84  C   UNL A   1      46.135  32.522  31.259  1.00  0.00     0.173 A 
ATOM     85  C   UNL A   1      45.930  33.324  29.002  1.00  0.00     0.173 A 
ATOM     86  F   UNL A   1      45.994  31.560  32.184  1.00  0.00    -0.203 F 
ATOM     87  C   UNL A   1      46.601  33.773  31.657  1.00  0.00     0.198 A 
ATOM     88  C   UNL A   1      46.430  34.561  29.397  1.00  0.00     0.198 A 
ATOM     89  F   UNL A   1      45.609  33.141  27.712  1.00  0.00    -0.203 F 
ATOM     90  F   UNL A   1      46.885  34.000  32.946  1.00  0.00    -0.200 F 
ATOM     91  C   UNL A   1      46.756  34.788  30.724  1.00  0.00     0.200 A 
ATOM     92  F   UNL A   1      46.595  35.535  28.490  1.00  0.00    -0.200 F 
ATOM     93  F   UNL A   1      47.214  35.987  31.108  1.00  0.00    -0.200 F 
ENDBRANCH  60  83
ENDBRANCH  34  35
ENDBRANCH  26  29
ENDBRANCH  24  25
ENDBRANCH  23  24
ENDBRANCH  22  23
ENDBRANCH   1  22
TORSDOF 17
ENDMDL
MODEL 3
REMARK VINA RESULT:     -11.5      5.781     11.264
REMARK SMILES C=CC[C@@H](NC(=O)OCc1ccccc1)C(=O)NCCCCNC(=O)c1ccc(-c2c3nc(c(-c4c(F)c(F)c(F)c(F)c4F)c4ccc([nH]4)c(-c4c(F)c(F)c(F)c(F)c4F)c4nc(c(-c5c(F)c(F)c(F)c(F)c5F)c5ccc2[nH]5)C=C4)C=C3)cc1
REMARK SMILES IDX 19 1 18 2 16 3 17 4 4 6 3 7 2 8 1 9 5 10 6 11 7 13 8 14 9 15
REMARK SMILES IDX 10 16 11 17 15 18 12 19 14 20 13 21 20 22 21 23 22 24 23 25
REMARK SMILES IDX 24 26 25 28 26 29 27 30 88 31 28 32 87 33 29 34 30 35 31 36
REMARK SMILES IDX 81 37 32 38 86 39 80 40 82 41 33 42 85 43 79 44 78 45 34 47
REMARK SMILES IDX 66 48 46 49 65 50 47 51 50 52 64 53 83 54 48 55 49 56 63 58
REMARK SMILES IDX 84 59 51 60 35 61 36 62 44 63 37 64 38 65 42 66 45 67 39 68
REMARK SMILES IDX 40 69 43 70 41 71 67 72 68 73 76 74 69 75 70 76 74 77 77 78
REMARK SMILES IDX 71 79 72 80 75 81 73 82 52 83 53 84 61 85 54 86 55 87 59 88
REMARK SMILES IDX 62 89 56 90 57 91 60 92 58 93
REMARK H PARENT 18 5 5 12 23 27 82 46 50 57
REMARK Flexibility Score: inf
ROOT
ATOM      1  C   UNL A   1      35.888  21.405  24.616  1.00  0.00     0.116 C 
ENDROOT
BRANCH   1   2
ATOM      2  N   UNL A   1      35.423  21.208  25.977  1.00  0.00    -0.354 N 
ATOM      3  C   UNL A   1      34.154  21.298  26.479  1.00  0.00     0.243 C 
ATOM      4  O   UNL A   1      34.011  21.171  27.698  1.00  0.00    -0.273 OA
ATOM      5  H   UNL A   1      36.121  20.978  26.632  1.00  0.00     0.163 HD
BRANCH   3   6
ATOM      6  C   UNL A   1      32.969  21.720  25.576  1.00  0.00     0.178 C 
BRANCH   6   7
ATOM      7  C   UNL A   1      32.699  20.479  24.681  1.00  0.00     0.062 C 
BRANCH   7   8
ATOM      8  C   UNL A   1      32.592  19.142  25.362  1.00  0.00    -0.032 C 
ATOM      9  C   UNL A   1      33.288  18.069  24.963  1.00  0.00     0.004 C 
ENDBRANCH   7   8
ENDBRANCH   6   7
BRANCH   6  10
ATOM     10  N   UNL A   1      31.766  22.154  26.301  1.00  0.00    -0.309 N 
ATOM     11  C   UNL A   1      31.396  23.429  26.622  1.00  0.00     0.408 C 
ATOM     12  H   UNL A   1      31.152  21.440  26.588  1.00  0.00     0.167 HD
ATOM     13  O   UNL A   1      30.340  23.644  27.204  1.00  0.00    -0.225 OA
BRANCH  11  14
ATOM     14  O   UNL A   1      32.359  24.343  26.381  1.00  0.00    -0.445 OA
BRANCH  14  15
ATOM     15  C   UNL A   1      31.967  25.448  25.558  1.00  0.00     0.270 C 
BRANCH  15  16
ATOM     16  C   UNL A   1      32.388  26.759  26.152  1.00  0.00    -0.011 A 
ATOM     17  C   UNL A   1      33.703  27.216  26.000  1.00  0.00     0.007 A 
ATOM     18  C   UNL A   1      31.470  27.534  26.871  1.00  0.00     0.007 A 
ATOM     19  C   UNL A   1      34.085  28.444  26.536  1.00  0.00     0.000 A 
ATOM     20  C   UNL A   1      31.855  28.761  27.410  1.00  0.00     0.000 A 
ATOM     21  C   UNL A   1      33.161  29.218  27.236  1.00  0.00     0.000 A 
ENDBRANCH  15  16
ENDBRANCH  14  15
ENDBRANCH  11  14
ENDBRANCH   6  10
ENDBRANCH   3   6
ENDBRANCH   1   2
BRANCH   1  22
ATOM     22  C   UNL A   1      37.407  21.480  24.558  1.00  0.00     0.023 C 
BRANCH  22  23
ATOM     23  C   UNL A   1      38.100  20.181  24.960  1.00  0.00     0.023 C 
BRANCH  23  24
ATOM     24  C   UNL A   1      39.206  20.351  25.995  1.00  0.00     0.116 C 
BRANCH  24  25
ATOM     25  N   UNL A   1      40.161  19.253  25.979  1.00  0.00    -0.352 N 
ATOM     26  C   UNL A   1      41.532  19.308  26.051  1.00  0.00     0.251 C 
ATOM     27  H   UNL A   1      39.775  18.351  25.905  1.00  0.00     0.163 HD
ATOM     28  O   UNL A   1      42.212  18.311  25.842  1.00  0.00    -0.269 OA
BRANCH  26  29
ATOM     29  C   UNL A   1      42.179  20.598  26.360  1.00  0.00     0.039 A 
ATOM     30  C   UNL A   1      42.581  21.424  25.310  1.00  0.00     0.014 A 
ATOM     31  C   UNL A   1      42.342  21.004  27.688  1.00  0.00     0.014 A 
ATOM     32  C   UNL A   1      43.086  22.693  25.592  1.00  0.00     0.010 A 
ATOM     33  C   UNL A   1      42.763  22.300  27.962  1.00  0.00     0.010 A 
ATOM     34  C   UNL A   1      43.142  23.156  26.917  1.00  0.00    -0.014 A 
BRANCH  34  35
ATOM     35  C   UNL A   1      43.596  24.535  27.230  1.00  0.00     0.031 A 
ATOM     36  C   UNL A   1      42.619  25.550  27.751  1.00  0.00     0.074 A 
ATOM     37  C   UNL A   1      44.873  24.888  26.987  1.00  0.00     0.049 A 
ATOM     38  N   UNL A   1      42.806  26.816  28.026  1.00  0.00    -0.248 NA
ATOM     39  C   UNL A   1      41.238  25.088  27.967  1.00  0.00     0.031 C 
ATOM     40  C   UNL A   1      45.904  24.007  26.434  1.00  0.00     0.029 A 
ATOM     41  N   UNL A   1      45.521  26.085  27.165  1.00  0.00    -0.354 N 
ATOM     42  C   UNL A   1      41.572  27.299  28.438  1.00  0.00     0.074 A 
ATOM     43  C   UNL A   1      40.628  26.211  28.314  1.00  0.00     0.031 C 
ATOM     44  C   UNL A   1      47.059  24.685  26.341  1.00  0.00     0.029 A 
ATOM     45  C   UNL A   1      46.841  26.058  26.786  1.00  0.00     0.049 A 
ATOM     46  H   UNL A   1      45.081  26.886  27.530  1.00  0.00     0.167 HD
ATOM     47  C   UNL A   1      41.259  28.532  28.904  1.00  0.00     0.037 A 
ATOM     48  C   UNL A   1      47.768  27.035  26.785  1.00  0.00     0.037 A 
ATOM     49  C   UNL A   1      42.205  29.608  29.036  1.00  0.00     0.049 A 
ATOM     50  C   UNL A   1      47.389  28.404  27.286  1.00  0.00     0.074 A 
ATOM     51  C   UNL A   1      42.001  30.879  29.543  1.00  0.00     0.029 A 
ATOM     52  N   UNL A   1      43.537  29.541  28.651  1.00  0.00    -0.354 N 
ATOM     53  N   UNL A   1      46.236  28.830  27.741  1.00  0.00    -0.248 NA
ATOM     54  C   UNL A   1      48.445  29.426  27.280  1.00  0.00     0.031 C 
ATOM     55  C   UNL A   1      43.192  31.600  29.412  1.00  0.00     0.029 A 
ATOM     56  C   UNL A   1      44.158  30.758  28.885  1.00  0.00     0.049 A 
ATOM     57  H   UNL A   1      43.975  28.747  28.269  1.00  0.00     0.167 HD
ATOM     58  C   UNL A   1      46.435  30.156  28.104  1.00  0.00     0.074 A 
ATOM     59  C   UNL A   1      47.824  30.458  27.831  1.00  0.00     0.031 C 
ATOM     60  C   UNL A   1      45.545  31.042  28.616  1.00  0.00     0.037 A 
BRANCH  47  61
ATOM     61  C   UNL A   1      39.833  28.782  29.306  1.00  0.00     0.064 A 
ATOM     62  C   UNL A   1      38.884  29.272  28.394  1.00  0.00     0.173 A 
ATOM     63  C   UNL A   1      39.399  28.497  30.610  1.00  0.00     0.173 A 
ATOM     64  F   UNL A   1      39.247  29.572  27.138  1.00  0.00    -0.203 F 
ATOM     65  C   UNL A   1      37.566  29.497  28.780  1.00  0.00     0.198 A 
ATOM     66  C   UNL A   1      38.072  28.691  30.983  1.00  0.00     0.198 A 
ATOM     67  F   UNL A   1      40.261  28.022  31.521  1.00  0.00    -0.203 F 
ATOM     68  F   UNL A   1      36.693  30.018  27.907  1.00  0.00    -0.200 F 
ATOM     69  C   UNL A   1      37.159  29.199  30.072  1.00  0.00     0.200 A 
ATOM     70  F   UNL A   1      37.676  28.387  32.227  1.00  0.00    -0.200 F 
ATOM     71  F   UNL A   1      35.888  29.408  30.440  1.00  0.00    -0.200 F 
ENDBRANCH  47  61
BRANCH  48  72
ATOM     72  C   UNL A   1      49.148  26.752  26.308  1.00  0.00     0.064 A 
ATOM     73  C   UNL A   1      49.521  27.002  24.979  1.00  0.00     0.173 A 
ATOM     74  C   UNL A   1      50.120  26.216  27.166  1.00  0.00     0.173 A 
ATOM     75  F   UNL A   1      48.623  27.496  24.115  1.00  0.00    -0.203 F 
ATOM     76  C   UNL A   1      50.802  26.701  24.521  1.00  0.00     0.198 A 
ATOM     77  C   UNL A   1      51.411  25.947  26.715  1.00  0.00     0.198 A 
ATOM     78  F   UNL A   1      49.819  25.964  28.448  1.00  0.00    -0.203 F 
ATOM     79  F   UNL A   1      51.113  26.900  23.234  1.00  0.00    -0.200 F 
ATOM     80  C   UNL A   1      51.748  26.180  25.391  1.00  0.00     0.200 A 
ATOM     81  F   UNL A   1      52.327  25.460  27.564  1.00  0.00    -0.200 F 
ATOM     82  F   UNL A   1      52.981  25.894  24.951  1.00  0.00    -0.200 F 
ENDBRANCH  48  72
BRANCH  60  83
ATOM     83  C   UNL A   1      46.056  32.414  28.955  1.00  0.00     0.064 A 
ATOM     84  C   UNL A   1      46.006  33.472  28.035  1.00  0.00     0.173 A 
ATOM     85  C   UNL A   1      46.565  32.682  30.236  1.00  0.00     0.173 A 
ATOM     86  F   UNL A   1      45.541  33.265  26.793  1.00  0.00    -0.203 F 
ATOM     87  C   UNL A   1      46.475  34.739  28.375  1.00  0.00     0.198 A 
ATOM     88  C   UNL A   1      47.000  33.958  30.583  1.00  0.00     0.198 A 
ATOM     89  F   UNL A   1      46.628  31.709  31.157  1.00  0.00    -0.203 F 
ATOM     90  F   UNL A   1      46.469  35.719  27.462  1.00  0.00    -0.200 F 
ATOM     91  C   UNL A   1      46.963  34.982  29.650  1.00  0.00     0.200 A 
ATOM     92  F   UNL A   1      47.454  34.196  31.821  1.00  0.00    -0.200 F 
ATOM     93  F   UNL A   1      47.405  36.204  29.977  1.00  0.00    -0.200 F 
ENDBRANCH  60  83
ENDBRANCH  34  35
ENDBRANCH  26  29
ENDBRANCH  24  25
ENDBRANCH  23  24
ENDBRANCH  22  23
ENDBRANCH   1  22
TORSDOF 17
ENDMDL
