MODEL 1
REMARK VINA RESULT:     -13.0      0.000      0.000
REMARK SMILES Cc1c(Cl)cc2c(c1C)O[C@@H](C(F)(F)F)C(C(=O)NCCCCNC(=O)c1ccc(-c3c4nc(c(-c5c(F)c(F)c(F)c(F)c5F)c5ccc([nH]5)c(-c5c(F)c(F)c(F)c(F)c5F)c5nc(c(-c6c(F)c(F)c(F)c(F)c6F)c6ccc3[nH]6)C=C5)C=C4)cc1)=C2
REMARK SMILES IDX 22 1 21 2 20 3 19 4 17 5 18 6 16 8 1 9 2 10 3 11 8 12 4 13
REMARK SMILES IDX 5 14 7 15 9 16 6 17 10 18 90 19 11 20 12 21 13 22 14 23
REMARK SMILES IDX 15 24 23 25 24 26 25 27 26 29 27 30 28 31 89 32 29 33 88 34
REMARK SMILES IDX 30 35 31 36 32 37 82 38 33 39 87 40 81 41 83 42 34 43 86 44
REMARK SMILES IDX 80 45 79 46 35 48 67 49 47 50 66 51 48 52 51 53 65 54 84 55
REMARK SMILES IDX 49 56 50 57 64 59 85 60 52 61 36 62 37 63 45 64 38 65 39 66
REMARK SMILES IDX 43 67 46 68 40 69 41 70 44 71 42 72 68 73 69 74 77 75 70 76
REMARK SMILES IDX 71 77 75 78 78 79 72 80 73 81 76 82 74 83 53 84 54 85 62 86
REMARK SMILES IDX 55 87 56 88 60 89 63 90 57 91 58 92 61 93 59 94
REMARK H PARENT 19 7 24 28 83 47 51 58
REMARK Flexibility Score: inf
ROOT
ATOM      1  C   UNL A   1      31.588  31.990  26.770  1.00  0.00     0.023 C 
ENDROOT
BRANCH   1   2
ATOM      2  C   UNL A   1      31.838  30.486  26.704  1.00  0.00     0.023 C 
BRANCH   2   3
ATOM      3  C   UNL A   1      32.473  30.009  25.399  1.00  0.00     0.116 C 
BRANCH   3   4
ATOM      4  N   UNL A   1      31.487  29.419  24.514  1.00  0.00    -0.352 N 
ATOM      5  C   UNL A   1      31.266  28.213  23.945  1.00  0.00     0.251 C 
ATOM      6  O   UNL A   1      30.228  28.141  23.277  1.00  0.00    -0.270 OA
ATOM      7  H   UNL A   1      30.796  30.071  24.259  1.00  0.00     0.163 HD
BRANCH   5   8
ATOM      8  C   UNL A   1      32.149  27.016  24.057  1.00  0.00     0.067 C 
ATOM      9  C   UNL A   1      35.213  21.540  25.899  1.00  0.00     0.046 C 
ATOM     10  C   UNL A   1      34.418  22.811  25.737  1.00  0.00    -0.026 A 
ATOM     11  C   UNL A   1      33.459  23.196  26.698  1.00  0.00     0.045 A 
ATOM     12  C   UNL A   1      34.577  23.614  24.582  1.00  0.00    -0.004 A 
ATOM     13  Cl  UNL A   1      33.120  22.233  28.096  1.00  0.00    -0.084 Cl
ATOM     14  C   UNL A   1      32.719  24.376  26.556  1.00  0.00     0.032 A 
ATOM     15  C   UNL A   1      33.825  24.797  24.466  1.00  0.00     0.131 A 
ATOM     16  C   UNL A   1      35.531  23.266  23.465  1.00  0.00     0.049 C 
ATOM     17  C   UNL A   1      32.906  25.185  25.442  1.00  0.00     0.019 A 
ATOM     18  O   UNL A   1      34.052  25.583  23.366  1.00  0.00    -0.475 OA
ATOM     19  C   UNL A   1      32.158  26.426  25.269  1.00  0.00     0.025 C 
ATOM     20  C   UNL A   1      32.919  26.383  22.931  1.00  0.00     0.314 C 
BRANCH  20  21
ATOM     21  C   UNL A   1      32.044  25.565  21.971  1.00  0.00     0.429 C 
ATOM     22  F   UNL A   1      31.072  24.873  22.603  1.00  0.00    -0.167 F 
ATOM     23  F   UNL A   1      31.439  26.345  21.050  1.00  0.00    -0.167 F 
ATOM     24  F   UNL A   1      32.800  24.671  21.284  1.00  0.00    -0.167 F 
ENDBRANCH  20  21
ENDBRANCH   5   8
ENDBRANCH   3   4
ENDBRANCH   2   3
ENDBRANCH   1   2
BRANCH   1  25
ATOM     25  C   UNL A   1      32.735  32.812  27.342  1.00  0.00     0.116 C 
BRANCH  25  26
ATOM     26  N   UNL A   1      32.366  34.178  27.685  1.00  0.00    -0.352 N 
ATOM     27  C   UNL A   1      32.944  35.013  28.615  1.00  0.00     0.251 C 
ATOM     28  H   UNL A   1      31.604  34.553  27.187  1.00  0.00     0.163 HD
ATOM     29  O   UNL A   1      32.485  36.114  28.851  1.00  0.00    -0.269 OA
BRANCH  27  30
ATOM     30  C   UNL A   1      34.118  34.512  29.359  1.00  0.00     0.039 A 
ATOM     31  C   UNL A   1      33.910  33.817  30.551  1.00  0.00     0.014 A 
ATOM     32  C   UNL A   1      35.399  34.642  28.816  1.00  0.00     0.014 A 
ATOM     33  C   UNL A   1      34.986  33.174  31.160  1.00  0.00     0.010 A 
ATOM     34  C   UNL A   1      36.452  33.937  29.380  1.00  0.00     0.010 A 
ATOM     35  C   UNL A   1      36.254  33.193  30.555  1.00  0.00    -0.014 A 
BRANCH  35  36
ATOM     36  C   UNL A   1      37.393  32.451  31.141  1.00  0.00     0.031 A 
ATOM     37  C   UNL A   1      37.881  32.804  32.515  1.00  0.00     0.074 A 
ATOM     38  C   UNL A   1      38.025  31.509  30.413  1.00  0.00     0.049 A 
ATOM     39  N   UNL A   1      38.903  32.329  33.178  1.00  0.00    -0.248 NA
ATOM     40  C   UNL A   1      37.137  33.855  33.229  1.00  0.00     0.031 C 
ATOM     41  C   UNL A   1      37.674  31.117  29.048  1.00  0.00     0.029 A 
ATOM     42  N   UNL A   1      39.095  30.709  30.724  1.00  0.00    -0.354 N 
ATOM     43  C   UNL A   1      38.935  33.034  34.372  1.00  0.00     0.074 A 
ATOM     44  C   UNL A   1      37.867  34.008  34.323  1.00  0.00     0.031 C 
ATOM     45  C   UNL A   1      38.489  30.124  28.652  1.00  0.00     0.029 A 
ATOM     46  C   UNL A   1      39.436  29.832  29.724  1.00  0.00     0.049 A 
ATOM     47  H   UNL A   1      39.573  30.760  31.583  1.00  0.00     0.167 HD
ATOM     48  C   UNL A   1      39.762  32.863  35.429  1.00  0.00     0.037 A 
ATOM     49  C   UNL A   1      40.401  28.893  29.685  1.00  0.00     0.037 A 
ATOM     50  C   UNL A   1      40.793  31.864  35.493  1.00  0.00     0.049 A 
ATOM     51  C   UNL A   1      41.294  28.709  30.880  1.00  0.00     0.074 A 
ATOM     52  C   UNL A   1      41.647  31.572  36.540  1.00  0.00     0.029 A 
ATOM     53  N   UNL A   1      41.097  30.983  34.466  1.00  0.00    -0.354 N 
ATOM     54  N   UNL A   1      41.287  29.351  32.022  1.00  0.00    -0.248 NA
ATOM     55  C   UNL A   1      42.329  27.670  30.781  1.00  0.00     0.031 C 
ATOM     56  C   UNL A   1      42.485  30.528  36.138  1.00  0.00     0.029 A 
ATOM     57  C   UNL A   1      42.132  30.150  34.853  1.00  0.00     0.049 A 
ATOM     58  H   UNL A   1      40.644  30.955  33.592  1.00  0.00     0.167 HD
ATOM     59  C   UNL A   1      42.298  28.786  32.784  1.00  0.00     0.074 A 
ATOM     60  C   UNL A   1      42.892  27.738  31.979  1.00  0.00     0.031 C 
ATOM     61  C   UNL A   1      42.700  29.107  34.037  1.00  0.00     0.037 A 
BRANCH  48  62
ATOM     62  C   UNL A   1      39.563  33.763  36.610  1.00  0.00     0.064 A 
ATOM     63  C   UNL A   1      38.780  33.366  37.705  1.00  0.00     0.173 A 
ATOM     64  C   UNL A   1      40.179  35.021  36.662  1.00  0.00     0.173 A 
ATOM     65  F   UNL A   1      38.157  32.178  37.693  1.00  0.00    -0.203 F 
ATOM     66  C   UNL A   1      38.600  34.208  38.798  1.00  0.00     0.198 A 
ATOM     67  C   UNL A   1      40.017  35.850  37.769  1.00  0.00     0.198 A 
ATOM     68  F   UNL A   1      40.939  35.447  35.641  1.00  0.00    -0.203 F 
ATOM     69  F   UNL A   1      37.811  33.826  39.811  1.00  0.00    -0.200 F 
ATOM     70  C   UNL A   1      39.224  35.446  38.833  1.00  0.00     0.200 A 
ATOM     71  F   UNL A   1      40.626  37.044  37.806  1.00  0.00    -0.200 F 
ATOM     72  F   UNL A   1      39.053  36.253  39.889  1.00  0.00    -0.200 F 
ENDBRANCH  48  62
BRANCH  49  73
ATOM     73  C   UNL A   1      40.531  28.020  28.491  1.00  0.00     0.064 A 
ATOM     74  C   UNL A   1      41.312  28.424  27.398  1.00  0.00     0.173 A 
ATOM     75  C   UNL A   1      39.904  26.769  28.422  1.00  0.00     0.173 A 
ATOM     76  F   UNL A   1      41.915  29.621  27.414  1.00  0.00    -0.203 F 
ATOM     77  C   UNL A   1      41.451  27.611  26.275  1.00  0.00     0.198 A 
ATOM     78  C   UNL A   1      40.060  25.949  27.306  1.00  0.00     0.198 A 
ATOM     79  F   UNL A   1      39.152  26.337  29.444  1.00  0.00    -0.203 F 
ATOM     80  F   UNL A   1      42.179  28.033  25.232  1.00  0.00    -0.200 F 
ATOM     81  C   UNL A   1      40.830  26.372  26.232  1.00  0.00     0.200 A 
ATOM     82  F   UNL A   1      39.468  24.747  27.272  1.00  0.00    -0.200 F 
ATOM     83  F   UNL A   1      40.969  25.588  25.154  1.00  0.00    -0.200 F 
ENDBRANCH  49  73
BRANCH  61  84
ATOM     84  C   UNL A   1      43.823  28.312  34.628  1.00  0.00     0.064 A 
ATOM     85  C   UNL A   1      43.584  27.105  35.300  1.00  0.00     0.173 A 
ATOM     86  C   UNL A   1      45.152  28.720  34.449  1.00  0.00     0.173 A 
ATOM     87  F   UNL A   1      42.328  26.684  35.505  1.00  0.00    -0.203 F 
ATOM     88  C   UNL A   1      44.640  26.335  35.776  1.00  0.00     0.198 A 
ATOM     89  C   UNL A   1      46.207  27.937  34.909  1.00  0.00     0.198 A 
ATOM     90  F   UNL A   1      45.427  29.865  33.807  1.00  0.00    -0.203 F 
ATOM     91  F   UNL A   1      44.392  25.194  36.435  1.00  0.00    -0.200 F 
ATOM     92  C   UNL A   1      45.950  26.746  35.573  1.00  0.00     0.200 A 
ATOM     93  F   UNL A   1      47.471  28.329  34.701  1.00  0.00    -0.200 F 
ATOM     94  F   UNL A   1      46.965  25.994  36.018  1.00  0.00    -0.200 F 
ENDBRANCH  61  84
ENDBRANCH  35  36
ENDBRANCH  27  30
ENDBRANCH  25  26
ENDBRANCH   1  25
TORSDOF 12
ENDMDL
MODEL 2
REMARK VINA RESULT:     -13.0      1.131      2.092
REMARK SMILES Cc1c(Cl)cc2c(c1C)O[C@@H](C(F)(F)F)C(C(=O)NCCCCNC(=O)c1ccc(-c3c4nc(c(-c5c(F)c(F)c(F)c(F)c5F)c5ccc([nH]5)c(-c5c(F)c(F)c(F)c(F)c5F)c5nc(c(-c6c(F)c(F)c(F)c(F)c6F)c6ccc3[nH]6)C=C5)C=C4)cc1)=C2
REMARK SMILES IDX 22 1 21 2 20 3 19 4 17 5 18 6 16 8 1 9 2 10 3 11 8 12 4 13
REMARK SMILES IDX 5 14 7 15 9 16 6 17 10 18 90 19 11 20 12 21 13 22 14 23
REMARK SMILES IDX 15 24 23 25 24 26 25 27 26 29 27 30 28 31 89 32 29 33 88 34
REMARK SMILES IDX 30 35 31 36 32 37 82 38 33 39 87 40 81 41 83 42 34 43 86 44
REMARK SMILES IDX 80 45 79 46 35 48 67 49 47 50 66 51 48 52 51 53 65 54 84 55
REMARK SMILES IDX 49 56 50 57 64 59 85 60 52 61 36 62 37 63 45 64 38 65 39 66
REMARK SMILES IDX 43 67 46 68 40 69 41 70 44 71 42 72 68 73 69 74 77 75 70 76
REMARK SMILES IDX 71 77 75 78 78 79 72 80 73 81 76 82 74 83 53 84 54 85 62 86
REMARK SMILES IDX 55 87 56 88 60 89 63 90 57 91 58 92 61 93 59 94
REMARK H PARENT 19 7 24 28 83 47 51 58
REMARK Flexibility Score: inf
ROOT
ATOM      1  C   UNL A   1      31.703  31.733  26.603  1.00  0.00     0.023 C 
ENDROOT
BRANCH   1   2
ATOM      2  C   UNL A   1      31.812  30.220  26.770  1.00  0.00     0.023 C 
BRANCH   2   3
ATOM      3  C   UNL A   1      33.223  29.665  26.584  1.00  0.00     0.116 C 
BRANCH   3   4
ATOM      4  N   UNL A   1      33.632  29.710  25.193  1.00  0.00    -0.352 N 
ATOM      5  C   UNL A   1      33.606  28.878  24.129  1.00  0.00     0.251 C 
ATOM      6  O   UNL A   1      34.029  29.373  23.078  1.00  0.00    -0.270 OA
ATOM      7  H   UNL A   1      34.037  30.577  24.965  1.00  0.00     0.163 HD
BRANCH   5   8
ATOM      8  C   UNL A   1      33.126  27.466  24.131  1.00  0.00     0.067 C 
ATOM      9  C   UNL A   1      32.109  21.111  25.290  1.00  0.00     0.046 C 
ATOM     10  C   UNL A   1      32.579  22.538  25.163  1.00  0.00    -0.026 A 
ATOM     11  C   UNL A   1      33.616  23.036  25.981  1.00  0.00     0.045 A 
ATOM     12  C   UNL A   1      31.945  23.424  24.261  1.00  0.00    -0.004 A 
ATOM     13  Cl  UNL A   1      34.389  22.061  27.184  1.00  0.00    -0.084 Cl
ATOM     14  C   UNL A   1      34.060  24.359  25.868  1.00  0.00     0.032 A 
ATOM     15  C   UNL A   1      32.413  24.747  24.163  1.00  0.00     0.131 A 
ATOM     16  C   UNL A   1      30.789  23.013  23.382  1.00  0.00     0.049 C 
ATOM     17  C   UNL A   1      33.464  25.218  24.951  1.00  0.00     0.019 A 
ATOM     18  O   UNL A   1      31.819  25.560  23.232  1.00  0.00    -0.475 OA
ATOM     19  C   UNL A   1      33.910  26.599  24.802  1.00  0.00     0.025 C 
ATOM     20  C   UNL A   1      31.827  26.978  23.551  1.00  0.00     0.314 C 
BRANCH  20  21
ATOM     21  C   UNL A   1      30.602  27.326  24.406  1.00  0.00     0.429 C 
ATOM     22  F   UNL A   1      29.528  26.555  24.127  1.00  0.00    -0.167 F 
ATOM     23  F   UNL A   1      30.852  27.192  25.726  1.00  0.00    -0.167 F 
ATOM     24  F   UNL A   1      30.237  28.618  24.210  1.00  0.00    -0.167 F 
ENDBRANCH  20  21
ENDBRANCH   5   8
ENDBRANCH   3   4
ENDBRANCH   2   3
ENDBRANCH   1   2
BRANCH   1  25
ATOM     25  C   UNL A   1      32.810  32.539  27.268  1.00  0.00     0.116 C 
BRANCH  25  26
ATOM     26  N   UNL A   1      32.432  33.909  27.584  1.00  0.00    -0.352 N 
ATOM     27  C   UNL A   1      33.000  34.762  28.506  1.00  0.00     0.251 C 
ATOM     28  H   UNL A   1      31.672  34.272  27.075  1.00  0.00     0.163 HD
ATOM     29  O   UNL A   1      32.533  35.864  28.719  1.00  0.00    -0.269 OA
BRANCH  27  30
ATOM     30  C   UNL A   1      34.170  34.279  29.266  1.00  0.00     0.039 A 
ATOM     31  C   UNL A   1      33.955  33.494  30.399  1.00  0.00     0.014 A 
ATOM     32  C   UNL A   1      35.462  34.518  28.791  1.00  0.00     0.014 A 
ATOM     33  C   UNL A   1      35.042  32.873  31.013  1.00  0.00     0.010 A 
ATOM     34  C   UNL A   1      36.531  33.837  29.354  1.00  0.00     0.010 A 
ATOM     35  C   UNL A   1      36.330  33.006  30.467  1.00  0.00    -0.014 A 
BRANCH  35  36
ATOM     36  C   UNL A   1      37.487  32.291  31.054  1.00  0.00     0.031 A 
ATOM     37  C   UNL A   1      37.964  32.655  32.429  1.00  0.00     0.074 A 
ATOM     38  C   UNL A   1      38.142  31.366  30.326  1.00  0.00     0.049 A 
ATOM     39  N   UNL A   1      38.998  32.205  33.092  1.00  0.00    -0.248 NA
ATOM     40  C   UNL A   1      37.195  33.687  33.143  1.00  0.00     0.031 C 
ATOM     41  C   UNL A   1      37.803  30.967  28.959  1.00  0.00     0.029 A 
ATOM     42  N   UNL A   1      39.233  30.593  30.637  1.00  0.00    -0.354 N 
ATOM     43  C   UNL A   1      39.011  32.909  34.287  1.00  0.00     0.074 A 
ATOM     44  C   UNL A   1      37.919  33.856  34.238  1.00  0.00     0.031 C 
ATOM     45  C   UNL A   1      38.642  29.995  28.564  1.00  0.00     0.029 A 
ATOM     46  C   UNL A   1      39.596  29.726  29.636  1.00  0.00     0.049 A 
ATOM     47  H   UNL A   1      39.708  30.654  31.496  1.00  0.00     0.167 HD
ATOM     48  C   UNL A   1      39.841  32.758  35.344  1.00  0.00     0.037 A 
ATOM     49  C   UNL A   1      40.583  28.811  29.596  1.00  0.00     0.037 A 
ATOM     50  C   UNL A   1      40.896  31.784  35.409  1.00  0.00     0.049 A 
ATOM     51  C   UNL A   1      41.480  28.648  30.792  1.00  0.00     0.074 A 
ATOM     52  C   UNL A   1      41.757  31.512  36.456  1.00  0.00     0.029 A 
ATOM     53  N   UNL A   1      41.223  30.912  34.380  1.00  0.00    -0.354 N 
ATOM     54  N   UNL A   1      41.456  29.288  31.935  1.00  0.00    -0.248 NA
ATOM     55  C   UNL A   1      42.540  27.635  30.693  1.00  0.00     0.031 C 
ATOM     56  C   UNL A   1      42.621  30.490  36.054  1.00  0.00     0.029 A 
ATOM     57  C   UNL A   1      42.278  30.104  34.768  1.00  0.00     0.049 A 
ATOM     58  H   UNL A   1      40.772  30.873  33.506  1.00  0.00     0.167 HD
ATOM     59  C   UNL A   1      42.480  28.747  32.698  1.00  0.00     0.074 A 
ATOM     60  C   UNL A   1      43.101  27.715  31.892  1.00  0.00     0.031 C 
ATOM     61  C   UNL A   1      42.873  29.077  33.952  1.00  0.00     0.037 A 
BRANCH  48  62
ATOM     62  C   UNL A   1      39.619  33.651  36.527  1.00  0.00     0.064 A 
ATOM     63  C   UNL A   1      38.804  33.253  37.597  1.00  0.00     0.173 A 
ATOM     64  C   UNL A   1      40.244  34.903  36.604  1.00  0.00     0.173 A 
ATOM     65  F   UNL A   1      38.171  32.071  37.560  1.00  0.00    -0.203 F 
ATOM     66  C   UNL A   1      38.602  34.089  38.691  1.00  0.00     0.198 A 
ATOM     67  C   UNL A   1      40.061  35.726  37.712  1.00  0.00     0.198 A 
ATOM     68  F   UNL A   1      41.034  35.329  35.606  1.00  0.00    -0.203 F 
ATOM     69  F   UNL A   1      37.783  33.708  39.680  1.00  0.00    -0.200 F 
ATOM     70  C   UNL A   1      39.236  35.321  38.751  1.00  0.00     0.200 A 
ATOM     71  F   UNL A   1      40.679  36.913  37.774  1.00  0.00    -0.200 F 
ATOM     72  F   UNL A   1      39.044  36.122  39.808  1.00  0.00    -0.200 F 
ENDBRANCH  48  62
BRANCH  49  73
ATOM     73  C   UNL A   1      40.737  27.943  28.402  1.00  0.00     0.064 A 
ATOM     74  C   UNL A   1      40.095  26.697  28.342  1.00  0.00     0.173 A 
ATOM     75  C   UNL A   1      41.503  28.338  27.298  1.00  0.00     0.173 A 
ATOM     76  F   UNL A   1      39.366  26.270  29.384  1.00  0.00    -0.203 F 
ATOM     77  C   UNL A   1      40.222  25.875  27.224  1.00  0.00     0.198 A 
ATOM     78  C   UNL A   1      41.614  27.524  26.172  1.00  0.00     0.198 A 
ATOM     79  F   UNL A   1      42.132  29.523  27.306  1.00  0.00    -0.203 F 
ATOM     80  F   UNL A   1      39.622  24.678  27.204  1.00  0.00    -0.200 F 
ATOM     81  C   UNL A   1      40.977  26.292  26.139  1.00  0.00     0.200 A 
ATOM     82  F   UNL A   1      42.335  27.933  25.120  1.00  0.00    -0.200 F 
ATOM     83  F   UNL A   1      41.095  25.504  25.061  1.00  0.00    -0.200 F 
ENDBRANCH  49  73
BRANCH  61  84
ATOM     84  C   UNL A   1      44.015  28.310  34.543  1.00  0.00     0.064 A 
ATOM     85  C   UNL A   1      45.330  28.790  34.467  1.00  0.00     0.173 A 
ATOM     86  C   UNL A   1      43.780  27.128  35.260  1.00  0.00     0.173 A 
ATOM     87  F   UNL A   1      45.600  29.910  33.781  1.00  0.00    -0.203 F 
ATOM     88  C   UNL A   1      46.372  28.110  35.088  1.00  0.00     0.198 A 
ATOM     89  C   UNL A   1      44.824  26.462  35.896  1.00  0.00     0.198 A 
ATOM     90  F   UNL A   1      42.537  26.636  35.363  1.00  0.00    -0.203 F 
ATOM     91  F   UNL A   1      47.627  28.574  34.987  1.00  0.00    -0.200 F 
ATOM     92  C   UNL A   1      46.118  26.953  35.809  1.00  0.00     0.200 A 
ATOM     93  F   UNL A   1      44.575  25.351  36.602  1.00  0.00    -0.200 F 
ATOM     94  F   UNL A   1      47.122  26.308  36.419  1.00  0.00    -0.200 F 
ENDBRANCH  61  84
ENDBRANCH  35  36
ENDBRANCH  27  30
ENDBRANCH  25  26
ENDBRANCH   1  25
TORSDOF 12
ENDMDL
MODEL 3
REMARK VINA RESULT:     -13.0      1.138      2.095
REMARK SMILES Cc1c(Cl)cc2c(c1C)O[C@@H](C(F)(F)F)C(C(=O)NCCCCNC(=O)c1ccc(-c3c4nc(c(-c5c(F)c(F)c(F)c(F)c5F)c5ccc([nH]5)c(-c5c(F)c(F)c(F)c(F)c5F)c5nc(c(-c6c(F)c(F)c(F)c(F)c6F)c6ccc3[nH]6)C=C5)C=C4)cc1)=C2
REMARK SMILES IDX 22 1 21 2 20 3 19 4 17 5 18 6 16 8 1 9 2 10 3 11 8 12 4 13
REMARK SMILES IDX 5 14 7 15 9 16 6 17 10 18 90 19 11 20 12 21 13 22 14 23
REMARK SMILES IDX 15 24 23 25 24 26 25 27 26 29 27 30 28 31 89 32 29 33 88 34
REMARK SMILES IDX 30 35 31 36 32 37 82 38 33 39 87 40 81 41 83 42 34 43 86 44
REMARK SMILES IDX 80 45 79 46 35 48 67 49 47 50 66 51 48 52 51 53 65 54 84 55
REMARK SMILES IDX 49 56 50 57 64 59 85 60 52 61 36 62 37 63 45 64 38 65 39 66
REMARK SMILES IDX 43 67 46 68 40 69 41 70 44 71 42 72 68 73 69 74 77 75 70 76
REMARK SMILES IDX 71 77 75 78 78 79 72 80 73 81 76 82 74 83 53 84 54 85 62 86
REMARK SMILES IDX 55 87 56 88 60 89 63 90 57 91 58 92 61 93 59 94
REMARK H PARENT 19 7 24 28 83 47 51 58
REMARK Flexibility Score: inf
ROOT
ATOM      1  C   UNL A   1      31.721  31.746  26.588  1.00  0.00     0.023 C 
ENDROOT
BRANCH   1   2
ATOM      2  C   UNL A   1      31.809  30.230  26.752  1.00  0.00     0.023 C 
BRANCH   2   3
ATOM      3  C   UNL A   1      33.218  29.661  26.595  1.00  0.00     0.116 C 
BRANCH   3   4
ATOM      4  N   UNL A   1      33.651  29.691  25.211  1.00  0.00    -0.352 N 
ATOM      5  C   UNL A   1      33.642  28.848  24.155  1.00  0.00     0.251 C 
ATOM      6  O   UNL A   1      34.085  29.331  23.106  1.00  0.00    -0.270 OA
ATOM      7  H   UNL A   1      34.062  30.554  24.981  1.00  0.00     0.163 HD
BRANCH   5   8
ATOM      8  C   UNL A   1      33.160  27.436  24.164  1.00  0.00     0.067 C 
ATOM      9  C   UNL A   1      32.126  21.090  25.354  1.00  0.00     0.046 C 
ATOM     10  C   UNL A   1      32.600  22.515  25.221  1.00  0.00    -0.026 A 
ATOM     11  C   UNL A   1      33.636  23.016  26.039  1.00  0.00     0.045 A 
ATOM     12  C   UNL A   1      31.970  23.398  24.312  1.00  0.00    -0.004 A 
ATOM     13  Cl  UNL A   1      34.404  22.045  27.248  1.00  0.00    -0.084 Cl
ATOM     14  C   UNL A   1      34.082  24.337  25.919  1.00  0.00     0.032 A 
ATOM     15  C   UNL A   1      32.441  24.720  24.209  1.00  0.00     0.131 A 
ATOM     16  C   UNL A   1      30.815  22.985  23.432  1.00  0.00     0.049 C 
ATOM     17  C   UNL A   1      33.491  25.192  24.997  1.00  0.00     0.019 A 
ATOM     18  O   UNL A   1      31.851  25.528  23.272  1.00  0.00    -0.475 OA
ATOM     19  C   UNL A   1      33.940  26.572  24.841  1.00  0.00     0.025 C 
ATOM     20  C   UNL A   1      31.861  26.948  23.583  1.00  0.00     0.314 C 
BRANCH  20  21
ATOM     21  C   UNL A   1      30.634  27.303  24.433  1.00  0.00     0.429 C 
ATOM     22  F   UNL A   1      29.561  26.529  24.160  1.00  0.00    -0.167 F 
ATOM     23  F   UNL A   1      30.883  27.183  25.754  1.00  0.00    -0.167 F 
ATOM     24  F   UNL A   1      30.269  28.593  24.224  1.00  0.00    -0.167 F 
ENDBRANCH  20  21
ENDBRANCH   5   8
ENDBRANCH   3   4
ENDBRANCH   2   3
ENDBRANCH   1   2
BRANCH   1  25
ATOM     25  C   UNL A   1      32.837  32.535  27.256  1.00  0.00     0.116 C 
BRANCH  25  26
ATOM     26  N   UNL A   1      32.472  33.905  27.589  1.00  0.00    -0.352 N 
ATOM     27  C   UNL A   1      33.040  34.738  28.527  1.00  0.00     0.251 C 
ATOM     28  H   UNL A   1      31.721  34.283  27.078  1.00  0.00     0.163 HD
ATOM     29  O   UNL A   1      32.584  35.843  28.752  1.00  0.00    -0.269 OA
BRANCH  27  30
ATOM     30  C   UNL A   1      34.198  34.231  29.291  1.00  0.00     0.039 A 
ATOM     31  C   UNL A   1      33.966  33.393  30.382  1.00  0.00     0.014 A 
ATOM     32  C   UNL A   1      35.498  34.503  28.857  1.00  0.00     0.014 A 
ATOM     33  C   UNL A   1      35.045  32.755  30.991  1.00  0.00     0.010 A 
ATOM     34  C   UNL A   1      36.561  33.807  29.412  1.00  0.00     0.010 A 
ATOM     35  C   UNL A   1      36.344  32.924  30.481  1.00  0.00    -0.014 A 
BRANCH  35  36
ATOM     36  C   UNL A   1      37.494  32.193  31.061  1.00  0.00     0.031 A 
ATOM     37  C   UNL A   1      37.979  32.544  32.437  1.00  0.00     0.074 A 
ATOM     38  C   UNL A   1      38.137  31.264  30.326  1.00  0.00     0.049 A 
ATOM     39  N   UNL A   1      39.010  32.079  33.094  1.00  0.00    -0.248 NA
ATOM     40  C   UNL A   1      37.223  33.580  33.159  1.00  0.00     0.031 C 
ATOM     41  C   UNL A   1      37.790  30.876  28.959  1.00  0.00     0.029 A 
ATOM     42  N   UNL A   1      39.220  30.478  30.630  1.00  0.00    -0.354 N 
ATOM     43  C   UNL A   1      39.034  32.777  34.293  1.00  0.00     0.074 A 
ATOM     44  C   UNL A   1      37.952  33.736  34.252  1.00  0.00     0.031 C 
ATOM     45  C   UNL A   1      38.617  29.898  28.555  1.00  0.00     0.029 A 
ATOM     46  C   UNL A   1      39.570  29.612  29.623  1.00  0.00     0.049 A 
ATOM     47  H   UNL A   1      39.698  30.530  31.488  1.00  0.00     0.167 HD
ATOM     48  C   UNL A   1      39.865  32.611  35.347  1.00  0.00     0.037 A 
ATOM     49  C   UNL A   1      40.548  28.687  29.576  1.00  0.00     0.037 A 
ATOM     50  C   UNL A   1      40.910  31.625  35.403  1.00  0.00     0.049 A 
ATOM     51  C   UNL A   1      41.446  28.507  30.768  1.00  0.00     0.074 A 
ATOM     52  C   UNL A   1      41.770  31.338  36.447  1.00  0.00     0.029 A 
ATOM     53  N   UNL A   1      41.224  30.755  34.370  1.00  0.00    -0.354 N 
ATOM     54  N   UNL A   1      41.432  29.142  31.915  1.00  0.00    -0.248 NA
ATOM     55  C   UNL A   1      42.495  27.483  30.661  1.00  0.00     0.031 C 
ATOM     56  C   UNL A   1      42.622  30.308  36.037  1.00  0.00     0.029 A 
ATOM     57  C   UNL A   1      42.271  29.934  34.750  1.00  0.00     0.049 A 
ATOM     58  H   UNL A   1      40.770  30.726  33.497  1.00  0.00     0.167 HD
ATOM     59  C   UNL A   1      42.452  28.586  32.672  1.00  0.00     0.074 A 
ATOM     60  C   UNL A   1      43.059  27.551  31.859  1.00  0.00     0.031 C 
ATOM     61  C   UNL A   1      42.852  28.904  33.926  1.00  0.00     0.037 A 
BRANCH  48  62
ATOM     62  C   UNL A   1      39.656  33.500  36.535  1.00  0.00     0.064 A 
ATOM     63  C   UNL A   1      40.307  34.738  36.642  1.00  0.00     0.173 A 
ATOM     64  C   UNL A   1      38.780  33.125  37.563  1.00  0.00     0.173 A 
ATOM     65  F   UNL A   1      41.168  35.131  35.690  1.00  0.00    -0.203 F 
ATOM     66  C   UNL A   1      40.108  35.558  37.748  1.00  0.00     0.198 A 
ATOM     67  C   UNL A   1      38.564  33.960  38.656  1.00  0.00     0.198 A 
ATOM     68  F   UNL A   1      38.133  31.951  37.507  1.00  0.00    -0.203 F 
ATOM     69  F   UNL A   1      40.776  36.715  37.850  1.00  0.00    -0.200 F 
ATOM     70  C   UNL A   1      39.232  35.171  38.751  1.00  0.00     0.200 A 
ATOM     71  F   UNL A   1      37.711  33.590  39.622  1.00  0.00    -0.200 F 
ATOM     72  F   UNL A   1      39.038  35.965  39.813  1.00  0.00    -0.200 F 
ENDBRANCH  48  62
BRANCH  49  73
ATOM     73  C   UNL A   1      40.688  27.823  28.377  1.00  0.00     0.064 A 
ATOM     74  C   UNL A   1      41.488  28.230  27.299  1.00  0.00     0.173 A 
ATOM     75  C   UNL A   1      40.052  26.579  28.287  1.00  0.00     0.173 A 
ATOM     76  F   UNL A   1      42.102  29.422  27.334  1.00  0.00    -0.203 F 
ATOM     77  C   UNL A   1      41.637  27.426  26.171  1.00  0.00     0.198 A 
ATOM     78  C   UNL A   1      40.217  25.767  27.166  1.00  0.00     0.198 A 
ATOM     79  F   UNL A   1      39.280  26.144  29.294  1.00  0.00    -0.203 F 
ATOM     80  F   UNL A   1      42.384  27.851  25.142  1.00  0.00    -0.200 F 
ATOM     81  C   UNL A   1      41.006  26.194  26.108  1.00  0.00     0.200 A 
ATOM     82  F   UNL A   1      39.615  24.571  27.112  1.00  0.00    -0.200 F 
ATOM     83  F   UNL A   1      41.154  25.418  25.025  1.00  0.00    -0.200 F 
ENDBRANCH  49  73
BRANCH  61  84
ATOM     84  C   UNL A   1      43.987  28.121  34.510  1.00  0.00     0.064 A 
ATOM     85  C   UNL A   1      45.308  28.584  34.427  1.00  0.00     0.173 A 
ATOM     86  C   UNL A   1      43.741  26.943  35.228  1.00  0.00     0.173 A 
ATOM     87  F   UNL A   1      45.589  29.701  33.739  1.00  0.00    -0.203 F 
ATOM     88  C   UNL A   1      46.345  27.890  35.041  1.00  0.00     0.198 A 
ATOM     89  C   UNL A   1      44.779  26.262  35.858  1.00  0.00     0.198 A 
ATOM     90  F   UNL A   1      42.492  26.467  35.339  1.00  0.00    -0.203 F 
ATOM     91  F   UNL A   1      47.605  28.336  34.933  1.00  0.00    -0.200 F 
ATOM     92  C   UNL A   1      46.079  26.735  35.763  1.00  0.00     0.200 A 
ATOM     93  F   UNL A   1      44.519  25.154  36.565  1.00  0.00    -0.200 F 
ATOM     94  F   UNL A   1      47.078  26.077  36.366  1.00  0.00    -0.200 F 
ENDBRANCH  61  84
ENDBRANCH  35  36
ENDBRANCH  27  30
ENDBRANCH  25  26
ENDBRANCH   1  25
TORSDOF 12
ENDMDL
