MODEL 1
REMARK VINA RESULT:     -12.4      0.000      0.000
REMARK SMILES C[C@@H]1CCC[C@H](C)N1C(=O)Cn1cccc1C(=O)NCCCCNC(=O)c1ccc(-c2c3nc(c(-c4c(F)c(F)c(F)c(F)c4F)c4ccc([nH]4)c(-c4c(F)c(F)c(F)c(F)c4F)c4nc(c(-c5c(F)c(F)c(F)c(F)c5F)c5ccc2[nH]5)C=C4)C=C3)cc1
REMARK SMILES IDX 21 1 20 2 19 3 17 4 18 5 16 7 12 8 13 9 14 10 15 11 11 12
REMARK SMILES IDX 9 13 10 14 8 15 1 16 2 17 3 18 4 19 6 20 5 21 7 22 22 23
REMARK SMILES IDX 23 24 24 25 25 26 26 28 27 29 28 30 89 31 29 32 88 33 30 34
REMARK SMILES IDX 31 35 32 36 82 37 33 38 87 39 81 40 83 41 34 42 86 43 80 44
REMARK SMILES IDX 79 45 35 47 67 48 47 49 66 50 48 51 51 52 65 53 84 54 49 55
REMARK SMILES IDX 50 56 64 58 85 59 52 60 36 61 37 62 45 63 38 64 39 65 43 66
REMARK SMILES IDX 46 67 40 68 41 69 44 70 42 71 68 72 69 73 77 74 70 75 71 76
REMARK SMILES IDX 75 77 78 78 72 79 73 80 76 81 74 82 53 83 54 84 62 85 55 86
REMARK SMILES IDX 56 87 60 88 63 89 57 90 58 91 61 92 59 93
REMARK H PARENT 19 6 24 27 83 46 51 57
REMARK Flexibility Score: inf
ROOT
ATOM      1  C   UNL A   1      31.978  29.349  27.115  1.00  0.00     0.023 C 
ENDROOT
BRANCH   1   2
ATOM      2  C   UNL A   1      31.500  30.361  26.036  1.00  0.00     0.116 C 
BRANCH   2   3
ATOM      3  N   UNL A   1      31.577  29.994  24.631  1.00  0.00    -0.351 N 
ATOM      4  C   UNL A   1      31.020  29.005  23.855  1.00  0.00     0.267 C 
ATOM      5  O   UNL A   1      30.577  29.455  22.788  1.00  0.00    -0.268 OA
ATOM      6  H   UNL A   1      32.164  30.593  24.116  1.00  0.00     0.163 HD
BRANCH   4   7
ATOM      7  C   UNL A   1      30.939  27.565  24.110  1.00  0.00     0.107 A 
ATOM      8  N   UNL A   1      31.866  26.547  24.310  1.00  0.00    -0.334 N 
ATOM      9  C   UNL A   1      31.197  25.337  24.490  1.00  0.00     0.087 A 
ATOM     10  C   UNL A   1      29.889  25.501  24.123  1.00  0.00     0.020 A 
ATOM     11  C   UNL A   1      29.731  26.877  23.889  1.00  0.00     0.033 A 
BRANCH   8  12
ATOM     12  C   UNL A   1      33.321  26.482  24.153  1.00  0.00     0.222 C 
BRANCH  12  13
ATOM     13  C   UNL A   1      33.881  25.395  23.271  1.00  0.00     0.242 C 
ATOM     14  O   UNL A   1      33.683  25.420  22.071  1.00  0.00    -0.273 OA
BRANCH  13  15
ATOM     15  N   UNL A   1      34.651  24.397  23.853  1.00  0.00    -0.336 N 
ATOM     16  C   UNL A   1      33.688  22.165  23.506  1.00  0.00     0.031 C 
ATOM     17  C   UNL A   1      34.855  23.109  23.194  1.00  0.00     0.082 C 
ATOM     18  C   UNL A   1      36.240  22.533  23.508  1.00  0.00     0.025 C 
ATOM     19  C   UNL A   1      36.668  22.665  24.970  1.00  0.00     0.004 C 
ATOM     20  C   UNL A   1      34.981  24.502  25.279  1.00  0.00     0.082 C 
ATOM     21  C   UNL A   1      36.432  24.075  25.492  1.00  0.00     0.025 C 
ATOM     22  C   UNL A   1      34.014  23.840  26.256  1.00  0.00     0.031 C 
ENDBRANCH  13  15
ENDBRANCH  12  13
ENDBRANCH   8  12
ENDBRANCH   4   7
ENDBRANCH   2   3
ENDBRANCH   1   2
BRANCH   1  23
ATOM     23  C   UNL A   1      33.231  28.473  26.889  1.00  0.00     0.023 C 
BRANCH  23  24
ATOM     24  C   UNL A   1      34.523  29.230  26.544  1.00  0.00     0.116 C 
BRANCH  24  25
ATOM     25  N   UNL A   1      34.692  30.466  27.296  1.00  0.00    -0.352 N 
ATOM     26  C   UNL A   1      35.691  30.809  28.175  1.00  0.00     0.251 C 
ATOM     27  H   UNL A   1      33.996  31.149  27.155  1.00  0.00     0.163 HD
ATOM     28  O   UNL A   1      35.594  31.797  28.896  1.00  0.00    -0.269 OA
BRANCH  26  29
ATOM     29  C   UNL A   1      36.877  29.943  28.282  1.00  0.00     0.039 A 
ATOM     30  C   UNL A   1      37.833  29.998  27.267  1.00  0.00     0.014 A 
ATOM     31  C   UNL A   1      37.063  29.126  29.404  1.00  0.00     0.014 A 
ATOM     32  C   UNL A   1      39.027  29.308  27.429  1.00  0.00     0.010 A 
ATOM     33  C   UNL A   1      38.265  28.460  29.583  1.00  0.00     0.010 A 
ATOM     34  C   UNL A   1      39.256  28.579  28.605  1.00  0.00    -0.014 A 
BRANCH  34  35
ATOM     35  C   UNL A   1      40.606  28.022  28.821  1.00  0.00     0.031 A 
ATOM     36  C   UNL A   1      40.751  26.588  28.300  1.00  0.00     0.074 A 
ATOM     37  C   UNL A   1      41.469  28.819  29.506  1.00  0.00     0.049 A 
ATOM     38  N   UNL A   1      41.452  25.587  28.749  1.00  0.00    -0.248 NA
ATOM     39  C   UNL A   1      39.908  26.192  27.141  1.00  0.00     0.031 C 
ATOM     40  C   UNL A   1      41.183  30.211  29.902  1.00  0.00     0.029 A 
ATOM     41  N   UNL A   1      42.724  28.628  30.033  1.00  0.00    -0.354 N 
ATOM     42  C   UNL A   1      41.250  24.506  27.864  1.00  0.00     0.074 A 
ATOM     43  C   UNL A   1      40.206  24.904  26.965  1.00  0.00     0.031 C 
ATOM     44  C   UNL A   1      42.173  30.699  30.674  1.00  0.00     0.029 A 
ATOM     45  C   UNL A   1      43.186  29.681  30.861  1.00  0.00     0.049 A 
ATOM     46  H   UNL A   1      43.260  27.824  29.848  1.00  0.00     0.167 HD
ATOM     47  C   UNL A   1      42.047  23.397  27.819  1.00  0.00     0.037 A 
ATOM     48  C   UNL A   1      44.257  29.695  31.709  1.00  0.00     0.037 A 
ATOM     49  C   UNL A   1      43.089  23.449  28.791  1.00  0.00     0.049 A 
ATOM     50  C   UNL A   1      44.865  28.360  31.576  1.00  0.00     0.074 A 
ATOM     51  C   UNL A   1      43.331  22.955  30.048  1.00  0.00     0.029 A 
ATOM     52  N   UNL A   1      44.175  24.196  28.425  1.00  0.00    -0.354 N 
ATOM     53  N   UNL A   1      45.580  27.962  30.570  1.00  0.00    -0.248 NA
ATOM     54  C   UNL A   1      44.483  27.334  32.548  1.00  0.00     0.031 C 
ATOM     55  C   UNL A   1      44.528  23.582  30.491  1.00  0.00     0.029 A 
ATOM     56  C   UNL A   1      44.857  24.557  29.556  1.00  0.00     0.049 A 
ATOM     57  H   UNL A   1      44.426  24.433  27.503  1.00  0.00     0.167 HD
ATOM     58  C   UNL A   1      45.510  26.586  30.643  1.00  0.00     0.074 A 
ATOM     59  C   UNL A   1      44.988  26.258  31.954  1.00  0.00     0.031 C 
ATOM     60  C   UNL A   1      45.529  25.827  29.520  1.00  0.00     0.037 A 
BRANCH  47  61
ATOM     61  C   UNL A   1      42.214  22.344  26.737  1.00  0.00     0.064 A 
ATOM     62  C   UNL A   1      41.737  21.035  27.002  1.00  0.00     0.173 A 
ATOM     63  C   UNL A   1      43.141  22.451  25.688  1.00  0.00     0.173 A 
ATOM     64  F   UNL A   1      40.791  20.824  27.929  1.00  0.00    -0.203 F 
ATOM     65  C   UNL A   1      42.275  19.906  26.384  1.00  0.00     0.198 A 
ATOM     66  C   UNL A   1      43.630  21.318  25.024  1.00  0.00     0.198 A 
ATOM     67  F   UNL A   1      43.674  23.630  25.344  1.00  0.00    -0.203 F 
ATOM     68  F   UNL A   1      41.904  18.682  26.788  1.00  0.00    -0.200 F 
ATOM     69  C   UNL A   1      43.238  20.048  25.407  1.00  0.00     0.200 A 
ATOM     70  F   UNL A   1      44.550  21.462  24.059  1.00  0.00    -0.200 F 
ATOM     71  F   UNL A   1      43.808  18.966  24.858  1.00  0.00    -0.200 F 
ENDBRANCH  47  61
BRANCH  48  72
ATOM     72  C   UNL A   1      44.776  30.608  32.792  1.00  0.00     0.064 A 
ATOM     73  C   UNL A   1      44.095  30.961  33.965  1.00  0.00     0.173 A 
ATOM     74  C   UNL A   1      46.084  31.155  32.693  1.00  0.00     0.173 A 
ATOM     75  F   UNL A   1      42.799  30.676  34.129  1.00  0.00    -0.203 F 
ATOM     76  C   UNL A   1      44.718  31.664  35.011  1.00  0.00     0.198 A 
ATOM     77  C   UNL A   1      46.710  31.842  33.735  1.00  0.00     0.198 A 
ATOM     78  F   UNL A   1      46.811  31.036  31.574  1.00  0.00    -0.203 F 
ATOM     79  F   UNL A   1      44.030  31.937  36.129  1.00  0.00    -0.200 F 
ATOM     80  C   UNL A   1      46.035  32.074  34.910  1.00  0.00     0.200 A 
ATOM     81  F   UNL A   1      47.978  32.256  33.592  1.00  0.00    -0.200 F 
ATOM     82  F   UNL A   1      46.639  32.702  35.926  1.00  0.00    -0.200 F 
ENDBRANCH  48  72
BRANCH  60  83
ATOM     83  C   UNL A   1      45.809  26.628  28.267  1.00  0.00     0.064 A 
ATOM     84  C   UNL A   1      44.765  27.100  27.468  1.00  0.00     0.173 A 
ATOM     85  C   UNL A   1      47.114  26.807  27.768  1.00  0.00     0.173 A 
ATOM     86  F   UNL A   1      43.495  26.954  27.871  1.00  0.00    -0.203 F 
ATOM     87  C   UNL A   1      45.020  27.721  26.241  1.00  0.00     0.198 A 
ATOM     88  C   UNL A   1      47.373  27.438  26.556  1.00  0.00     0.198 A 
ATOM     89  F   UNL A   1      48.169  26.387  28.469  1.00  0.00    -0.203 F 
ATOM     90  F   UNL A   1      43.999  28.161  25.494  1.00  0.00    -0.200 F 
ATOM     91  C   UNL A   1      46.321  27.890  25.787  1.00  0.00     0.200 A 
ATOM     92  F   UNL A   1      48.638  27.611  26.147  1.00  0.00    -0.200 F 
ATOM     93  F   UNL A   1      46.560  28.498  24.617  1.00  0.00    -0.200 F 
ENDBRANCH  60  83
ENDBRANCH  34  35
ENDBRANCH  26  29
ENDBRANCH  24  25
ENDBRANCH  23  24
ENDBRANCH   1  23
TORSDOF 14
ENDMDL
MODEL 2
REMARK VINA RESULT:     -12.2      4.162      9.048
REMARK SMILES C[C@@H]1CCC[C@H](C)N1C(=O)Cn1cccc1C(=O)NCCCCNC(=O)c1ccc(-c2c3nc(c(-c4c(F)c(F)c(F)c(F)c4F)c4ccc([nH]4)c(-c4c(F)c(F)c(F)c(F)c4F)c4nc(c(-c5c(F)c(F)c(F)c(F)c5F)c5ccc2[nH]5)C=C4)C=C3)cc1
REMARK SMILES IDX 21 1 20 2 19 3 17 4 18 5 16 7 12 8 13 9 14 10 15 11 11 12
REMARK SMILES IDX 9 13 10 14 8 15 1 16 2 17 3 18 4 19 6 20 5 21 7 22 22 23
REMARK SMILES IDX 23 24 24 25 25 26 26 28 27 29 28 30 89 31 29 32 88 33 30 34
REMARK SMILES IDX 31 35 32 36 82 37 33 38 87 39 81 40 83 41 34 42 86 43 80 44
REMARK SMILES IDX 79 45 35 47 67 48 47 49 66 50 48 51 51 52 65 53 84 54 49 55
REMARK SMILES IDX 50 56 64 58 85 59 52 60 36 61 37 62 45 63 38 64 39 65 43 66
REMARK SMILES IDX 46 67 40 68 41 69 44 70 42 71 68 72 69 73 77 74 70 75 71 76
REMARK SMILES IDX 75 77 78 78 72 79 73 80 76 81 74 82 53 83 54 84 62 85 55 86
REMARK SMILES IDX 56 87 60 88 63 89 57 90 58 91 61 92 59 93
REMARK H PARENT 19 6 24 27 83 46 51 57
REMARK Flexibility Score: inf
ROOT
ATOM      1  C   UNL A   1      36.498  22.273  24.073  1.00  0.00     0.023 C 
ENDROOT
BRANCH   1   2
ATOM      2  C   UNL A   1      36.670  20.966  24.897  1.00  0.00     0.116 C 
BRANCH   2   3
ATOM      3  N   UNL A   1      35.533  20.078  25.069  1.00  0.00    -0.351 N 
ATOM      4  C   UNL A   1      34.173  20.254  25.185  1.00  0.00     0.267 C 
ATOM      5  O   UNL A   1      33.545  19.457  24.473  1.00  0.00    -0.268 OA
ATOM      6  H   UNL A   1      35.796  19.130  25.113  1.00  0.00     0.163 HD
BRANCH   4   7
ATOM      7  C   UNL A   1      33.431  21.186  26.037  1.00  0.00     0.107 A 
ATOM      8  N   UNL A   1      32.372  22.067  25.843  1.00  0.00    -0.334 N 
ATOM      9  C   UNL A   1      32.091  22.728  27.038  1.00  0.00     0.087 A 
ATOM     10  C   UNL A   1      33.121  22.510  27.912  1.00  0.00     0.020 A 
ATOM     11  C   UNL A   1      33.947  21.556  27.293  1.00  0.00     0.033 A 
BRANCH   8  12
ATOM     12  C   UNL A   1      31.695  22.558  24.641  1.00  0.00     0.222 C 
BRANCH  12  13
ATOM     13  C   UNL A   1      32.514  23.338  23.645  1.00  0.00     0.242 C 
ATOM     14  O   UNL A   1      33.190  22.754  22.819  1.00  0.00    -0.273 OA
BRANCH  13  15
ATOM     15  N   UNL A   1      32.448  24.725  23.670  1.00  0.00    -0.336 N 
ATOM     16  C   UNL A   1      33.876  25.686  25.422  1.00  0.00     0.031 C 
ATOM     17  C   UNL A   1      33.636  25.541  23.914  1.00  0.00     0.082 C 
ATOM     18  C   UNL A   1      33.570  26.867  23.151  1.00  0.00     0.025 C 
ATOM     19  C   UNL A   1      32.207  27.559  23.190  1.00  0.00     0.004 C 
ATOM     20  C   UNL A   1      31.134  25.367  23.792  1.00  0.00     0.082 C 
ATOM     21  C   UNL A   1      31.082  26.584  22.871  1.00  0.00     0.025 C 
ATOM     22  C   UNL A   1      30.647  25.667  25.207  1.00  0.00     0.031 C 
ENDBRANCH  13  15
ENDBRANCH  12  13
ENDBRANCH   8  12
ENDBRANCH   4   7
ENDBRANCH   2   3
ENDBRANCH   1   2
BRANCH   1  23
ATOM     23  C   UNL A   1      36.963  23.637  24.632  1.00  0.00     0.023 C 
BRANCH  23  24
ATOM     24  C   UNL A   1      37.430  23.636  26.095  1.00  0.00     0.116 C 
BRANCH  24  25
ATOM     25  N   UNL A   1      38.759  23.069  26.282  1.00  0.00    -0.352 N 
ATOM     26  C   UNL A   1      39.897  23.677  26.754  1.00  0.00     0.251 C 
ATOM     27  H   UNL A   1      38.855  22.119  26.037  1.00  0.00     0.163 HD
ATOM     28  O   UNL A   1      40.994  23.138  26.660  1.00  0.00    -0.269 OA
BRANCH  26  29
ATOM     29  C   UNL A   1      39.796  25.024  27.343  1.00  0.00     0.039 A 
ATOM     30  C   UNL A   1      39.282  25.147  28.634  1.00  0.00     0.014 A 
ATOM     31  C   UNL A   1      40.254  26.143  26.638  1.00  0.00     0.014 A 
ATOM     32  C   UNL A   1      39.325  26.385  29.260  1.00  0.00     0.010 A 
ATOM     33  C   UNL A   1      40.327  27.375  27.270  1.00  0.00     0.010 A 
ATOM     34  C   UNL A   1      39.888  27.484  28.593  1.00  0.00    -0.014 A 
BRANCH  34  35
ATOM     35  C   UNL A   1      40.091  28.729  29.360  1.00  0.00     0.031 A 
ATOM     36  C   UNL A   1      38.920  29.709  29.226  1.00  0.00     0.074 A 
ATOM     37  C   UNL A   1      41.292  28.846  29.986  1.00  0.00     0.049 A 
ATOM     38  N   UNL A   1      38.898  31.010  29.206  1.00  0.00    -0.248 NA
ATOM     39  C   UNL A   1      37.568  29.134  28.993  1.00  0.00     0.031 C 
ATOM     40  C   UNL A   1      42.304  27.776  30.055  1.00  0.00     0.029 A 
ATOM     41  N   UNL A   1      41.919  29.871  30.653  1.00  0.00    -0.354 N 
ATOM     42  C   UNL A   1      37.546  31.404  29.103  1.00  0.00     0.074 A 
ATOM     43  C   UNL A   1      36.791  30.210  28.860  1.00  0.00     0.031 C 
ATOM     44  C   UNL A   1      43.435  28.228  30.630  1.00  0.00     0.029 A 
ATOM     45  C   UNL A   1      43.275  29.623  30.981  1.00  0.00     0.049 A 
ATOM     46  H   UNL A   1      41.462  30.711  30.885  1.00  0.00     0.167 HD
ATOM     47  C   UNL A   1      37.098  32.667  29.365  1.00  0.00     0.037 A 
ATOM     48  C   UNL A   1      44.225  30.504  31.415  1.00  0.00     0.037 A 
ATOM     49  C   UNL A   1      38.160  33.547  29.728  1.00  0.00     0.049 A 
ATOM     50  C   UNL A   1      43.533  31.802  31.491  1.00  0.00     0.074 A 
ATOM     51  C   UNL A   1      38.946  34.494  29.122  1.00  0.00     0.029 A 
ATOM     52  N   UNL A   1      38.554  33.459  31.035  1.00  0.00    -0.354 N 
ATOM     53  N   UNL A   1      42.692  32.148  32.417  1.00  0.00    -0.248 NA
ATOM     54  C   UNL A   1      43.642  32.704  30.343  1.00  0.00     0.031 C 
ATOM     55  C   UNL A   1      39.945  34.840  30.073  1.00  0.00     0.029 A 
ATOM     56  C   UNL A   1      39.823  33.960  31.143  1.00  0.00     0.049 A 
ATOM     57  H   UNL A   1      38.015  33.096  31.774  1.00  0.00     0.167 HD
ATOM     58  C   UNL A   1      41.972  33.172  31.839  1.00  0.00     0.074 A 
ATOM     59  C   UNL A   1      42.702  33.589  30.658  1.00  0.00     0.031 C 
ATOM     60  C   UNL A   1      40.665  33.362  32.142  1.00  0.00     0.037 A 
BRANCH  47  61
ATOM     61  C   UNL A   1      35.697  33.176  29.663  1.00  0.00     0.064 A 
ATOM     62  C   UNL A   1      35.084  34.034  28.713  1.00  0.00     0.173 A 
ATOM     63  C   UNL A   1      35.137  33.198  30.949  1.00  0.00     0.173 A 
ATOM     64  F   UNL A   1      35.485  34.039  27.433  1.00  0.00    -0.203 F 
ATOM     65  C   UNL A   1      34.107  34.963  29.069  1.00  0.00     0.198 A 
ATOM     66  C   UNL A   1      34.108  34.088  31.286  1.00  0.00     0.198 A 
ATOM     67  F   UNL A   1      35.629  32.441  31.938  1.00  0.00    -0.203 F 
ATOM     68  F   UNL A   1      33.678  35.861  28.170  1.00  0.00    -0.200 F 
ATOM     69  C   UNL A   1      33.633  35.003  30.364  1.00  0.00     0.200 A 
ATOM     70  F   UNL A   1      33.634  34.107  32.540  1.00  0.00    -0.200 F 
ATOM     71  F   UNL A   1      32.743  35.936  30.729  1.00  0.00    -0.200 F 
ENDBRANCH  47  61
BRANCH  48  72
ATOM     72  C   UNL A   1      45.720  30.482  31.612  1.00  0.00     0.064 A 
ATOM     73  C   UNL A   1      46.385  30.464  32.846  1.00  0.00     0.173 A 
ATOM     74  C   UNL A   1      46.585  30.430  30.485  1.00  0.00     0.173 A 
ATOM     75  F   UNL A   1      45.732  30.685  33.991  1.00  0.00    -0.203 F 
ATOM     76  C   UNL A   1      47.772  30.256  32.946  1.00  0.00     0.198 A 
ATOM     77  C   UNL A   1      47.960  30.209  30.582  1.00  0.00     0.198 A 
ATOM     78  F   UNL A   1      46.121  30.585  29.238  1.00  0.00    -0.203 F 
ATOM     79  F   UNL A   1      48.349  30.205  34.156  1.00  0.00    -0.200 F 
ATOM     80  C   UNL A   1      48.553  30.094  31.817  1.00  0.00     0.200 A 
ATOM     81  F   UNL A   1      48.694  30.090  29.466  1.00  0.00    -0.200 F 
ATOM     82  F   UNL A   1      49.865  29.849  31.918  1.00  0.00    -0.200 F 
ENDBRANCH  48  72
BRANCH  60  83
ATOM     83  C   UNL A   1      40.182  32.474  33.268  1.00  0.00     0.064 A 
ATOM     84  C   UNL A   1      39.543  31.262  33.004  1.00  0.00     0.173 A 
ATOM     85  C   UNL A   1      40.216  32.887  34.616  1.00  0.00     0.173 A 
ATOM     86  F   UNL A   1      39.460  30.809  31.744  1.00  0.00    -0.203 F 
ATOM     87  C   UNL A   1      38.975  30.506  34.034  1.00  0.00     0.198 A 
ATOM     88  C   UNL A   1      39.667  32.131  35.645  1.00  0.00     0.198 A 
ATOM     89  F   UNL A   1      40.809  34.033  34.956  1.00  0.00    -0.203 F 
ATOM     90  F   UNL A   1      38.364  29.348  33.750  1.00  0.00    -0.200 F 
ATOM     91  C   UNL A   1      39.038  30.939  35.352  1.00  0.00     0.200 A 
ATOM     92  F   UNL A   1      39.759  32.558  36.913  1.00  0.00    -0.200 F 
ATOM     93  F   UNL A   1      38.505  30.204  36.336  1.00  0.00    -0.200 F 
ENDBRANCH  60  83
ENDBRANCH  34  35
ENDBRANCH  26  29
ENDBRANCH  24  25
ENDBRANCH  23  24
ENDBRANCH   1  23
TORSDOF 14
ENDMDL
MODEL 3
REMARK VINA RESULT:     -12.0      1.360      2.154
REMARK SMILES C[C@@H]1CCC[C@H](C)N1C(=O)Cn1cccc1C(=O)NCCCCNC(=O)c1ccc(-c2c3nc(c(-c4c(F)c(F)c(F)c(F)c4F)c4ccc([nH]4)c(-c4c(F)c(F)c(F)c(F)c4F)c4nc(c(-c5c(F)c(F)c(F)c(F)c5F)c5ccc2[nH]5)C=C4)C=C3)cc1
REMARK SMILES IDX 21 1 20 2 19 3 17 4 18 5 16 7 12 8 13 9 14 10 15 11 11 12
REMARK SMILES IDX 9 13 10 14 8 15 1 16 2 17 3 18 4 19 6 20 5 21 7 22 22 23
REMARK SMILES IDX 23 24 24 25 25 26 26 28 27 29 28 30 89 31 29 32 88 33 30 34
REMARK SMILES IDX 31 35 32 36 82 37 33 38 87 39 81 40 83 41 34 42 86 43 80 44
REMARK SMILES IDX 79 45 35 47 67 48 47 49 66 50 48 51 51 52 65 53 84 54 49 55
REMARK SMILES IDX 50 56 64 58 85 59 52 60 36 61 37 62 45 63 38 64 39 65 43 66
REMARK SMILES IDX 46 67 40 68 41 69 44 70 42 71 68 72 69 73 77 74 70 75 71 76
REMARK SMILES IDX 75 77 78 78 72 79 73 80 76 81 74 82 53 83 54 84 62 85 55 86
REMARK SMILES IDX 56 87 60 88 63 89 57 90 58 91 61 92 59 93
REMARK H PARENT 19 6 24 27 83 46 51 57
REMARK Flexibility Score: inf
ROOT
ATOM      1  C   UNL A   1      31.924  29.130  26.713  1.00  0.00     0.023 C 
ENDROOT
BRANCH   1   2
ATOM      2  C   UNL A   1      31.640  27.843  27.537  1.00  0.00     0.116 C 
BRANCH   2   3
ATOM      3  N   UNL A   1      30.771  26.818  26.982  1.00  0.00    -0.351 N 
ATOM      4  C   UNL A   1      30.762  26.078  25.822  1.00  0.00     0.267 C 
ATOM      5  O   UNL A   1      30.537  24.879  26.045  1.00  0.00    -0.268 OA
ATOM      6  H   UNL A   1      30.014  26.604  27.572  1.00  0.00     0.163 HD
BRANCH   4   7
ATOM      7  C   UNL A   1      30.930  26.526  24.438  1.00  0.00     0.107 A 
ATOM      8  N   UNL A   1      31.976  26.517  23.521  1.00  0.00    -0.334 N 
ATOM      9  C   UNL A   1      31.557  27.112  22.331  1.00  0.00     0.087 A 
ATOM     10  C   UNL A   1      30.373  27.758  22.558  1.00  0.00     0.020 A 
ATOM     11  C   UNL A   1      29.986  27.395  23.859  1.00  0.00     0.033 A 
BRANCH   8  12
ATOM     12  C   UNL A   1      33.405  26.221  23.644  1.00  0.00     0.222 C 
BRANCH  12  13
ATOM     13  C   UNL A   1      33.849  25.394  24.824  1.00  0.00     0.242 C 
ATOM     14  O   UNL A   1      34.243  25.939  25.838  1.00  0.00    -0.273 OA
BRANCH  13  15
ATOM     15  N   UNL A   1      33.763  24.011  24.737  1.00  0.00    -0.336 N 
ATOM     16  C   UNL A   1      35.049  22.892  26.504  1.00  0.00     0.031 C 
ATOM     17  C   UNL A   1      33.655  23.177  25.933  1.00  0.00     0.082 C 
ATOM     18  C   UNL A   1      32.809  21.928  25.669  1.00  0.00     0.025 C 
ATOM     19  C   UNL A   1      33.094  21.235  24.335  1.00  0.00     0.004 C 
ATOM     20  C   UNL A   1      34.121  23.360  23.472  1.00  0.00     0.082 C 
ATOM     21  C   UNL A   1      33.129  22.234  23.188  1.00  0.00     0.025 C 
ATOM     22  C   UNL A   1      35.576  22.928  23.312  1.00  0.00     0.031 C 
ENDBRANCH  13  15
ENDBRANCH  12  13
ENDBRANCH   8  12
ENDBRANCH   4   7
ENDBRANCH   2   3
ENDBRANCH   1   2
BRANCH   1  23
ATOM     23  C   UNL A   1      33.188  29.251  25.830  1.00  0.00     0.023 C 
BRANCH  23  24
ATOM     24  C   UNL A   1      34.520  29.369  26.585  1.00  0.00     0.116 C 
BRANCH  24  25
ATOM     25  N   UNL A   1      34.668  30.621  27.314  1.00  0.00    -0.352 N 
ATOM     26  C   UNL A   1      35.633  30.979  28.225  1.00  0.00     0.251 C 
ATOM     27  H   UNL A   1      33.984  31.305  27.129  1.00  0.00     0.163 HD
ATOM     28  O   UNL A   1      35.515  31.984  28.918  1.00  0.00    -0.269 OA
BRANCH  26  29
ATOM     29  C   UNL A   1      36.808  30.108  28.401  1.00  0.00     0.039 A 
ATOM     30  C   UNL A   1      37.843  30.193  27.469  1.00  0.00     0.014 A 
ATOM     31  C   UNL A   1      36.901  29.255  29.508  1.00  0.00     0.014 A 
ATOM     32  C   UNL A   1      39.020  29.496  27.706  1.00  0.00     0.010 A 
ATOM     33  C   UNL A   1      38.085  28.581  29.763  1.00  0.00     0.010 A 
ATOM     34  C   UNL A   1      39.153  28.729  28.874  1.00  0.00    -0.014 A 
BRANCH  34  35
ATOM     35  C   UNL A   1      40.481  28.163  29.181  1.00  0.00     0.031 A 
ATOM     36  C   UNL A   1      40.755  26.847  28.445  1.00  0.00     0.074 A 
ATOM     37  C   UNL A   1      41.207  28.838  30.112  1.00  0.00     0.049 A 
ATOM     38  N   UNL A   1      41.426  25.792  28.808  1.00  0.00    -0.248 NA
ATOM     39  C   UNL A   1      40.098  26.651  27.125  1.00  0.00     0.031 C 
ATOM     40  C   UNL A   1      40.814  30.133  30.698  1.00  0.00     0.029 A 
ATOM     41  N   UNL A   1      42.384  28.575  30.772  1.00  0.00    -0.354 N 
ATOM     42  C   UNL A   1      41.393  24.884  27.728  1.00  0.00     0.074 A 
ATOM     43  C   UNL A   1      40.468  25.420  26.772  1.00  0.00     0.031 C 
ATOM     44  C   UNL A   1      41.667  30.490  31.678  1.00  0.00     0.029 A 
ATOM     45  C   UNL A   1      42.684  29.470  31.828  1.00  0.00     0.049 A 
ATOM     46  H   UNL A   1      42.973  27.824  30.529  1.00  0.00     0.167 HD
ATOM     47  C   UNL A   1      42.232  23.813  27.607  1.00  0.00     0.037 A 
ATOM     48  C   UNL A   1      43.625  29.349  32.811  1.00  0.00     0.037 A 
ATOM     49  C   UNL A   1      43.126  23.707  28.712  1.00  0.00     0.049 A 
ATOM     50  C   UNL A   1      44.299  28.068  32.536  1.00  0.00     0.074 A 
ATOM     51  C   UNL A   1      43.212  23.000  29.885  1.00  0.00     0.029 A 
ATOM     52  N   UNL A   1      44.222  24.522  28.642  1.00  0.00    -0.354 N 
ATOM     53  N   UNL A   1      45.163  27.867  31.589  1.00  0.00    -0.248 NA
ATOM     54  C   UNL A   1      43.827  26.880  33.249  1.00  0.00     0.031 C 
ATOM     55  C   UNL A   1      44.309  23.556  30.598  1.00  0.00     0.029 A 
ATOM     56  C   UNL A   1      44.725  24.687  29.904  1.00  0.00     0.049 A 
ATOM     57  H   UNL A   1      44.589  24.924  27.821  1.00  0.00     0.167 HD
ATOM     58  C   UNL A   1      45.139  26.499  31.411  1.00  0.00     0.074 A 
ATOM     59  C   UNL A   1      44.453  25.935  32.555  1.00  0.00     0.031 C 
ATOM     60  C   UNL A   1      45.344  25.953  30.188  1.00  0.00     0.037 A 
BRANCH  47  61
ATOM     61  C   UNL A   1      42.591  22.972  26.392  1.00  0.00     0.064 A 
ATOM     62  C   UNL A   1      42.510  21.561  26.512  1.00  0.00     0.173 A 
ATOM     63  C   UNL A   1      43.366  23.446  25.322  1.00  0.00     0.173 A 
ATOM     64  F   UNL A   1      41.735  20.995  27.449  1.00  0.00    -0.203 F 
ATOM     65  C   UNL A   1      43.282  20.701  25.731  1.00  0.00     0.198 A 
ATOM     66  C   UNL A   1      44.089  22.574  24.497  1.00  0.00     0.198 A 
ATOM     67  F   UNL A   1      43.529  24.757  25.105  1.00  0.00    -0.203 F 
ATOM     68  F   UNL A   1      43.292  19.386  25.994  1.00  0.00    -0.200 F 
ATOM     69  C   UNL A   1      44.088  21.211  24.735  1.00  0.00     0.200 A 
ATOM     70  F   UNL A   1      44.853  23.073  23.515  1.00  0.00    -0.200 F 
ATOM     71  F   UNL A   1      44.884  20.398  24.026  1.00  0.00    -0.200 F 
ENDBRANCH  47  61
BRANCH  48  72
ATOM     72  C   UNL A   1      43.952  30.062  34.100  1.00  0.00     0.064 A 
ATOM     73  C   UNL A   1      45.117  30.796  34.359  1.00  0.00     0.173 A 
ATOM     74  C   UNL A   1      43.014  30.064  35.168  1.00  0.00     0.173 A 
ATOM     75  F   UNL A   1      46.167  30.749  33.533  1.00  0.00    -0.203 F 
ATOM     76  C   UNL A   1      45.264  31.585  35.514  1.00  0.00     0.198 A 
ATOM     77  C   UNL A   1      43.151  30.857  36.308  1.00  0.00     0.198 A 
ATOM     78  F   UNL A   1      41.918  29.294  35.139  1.00  0.00    -0.203 F 
ATOM     79  F   UNL A   1      46.385  32.301  35.690  1.00  0.00    -0.200 F 
ATOM     80  C   UNL A   1      44.268  31.642  36.470  1.00  0.00     0.200 A 
ATOM     81  F   UNL A   1      42.180  30.864  37.234  1.00  0.00    -0.200 F 
ATOM     82  F   UNL A   1      44.391  32.431  37.545  1.00  0.00    -0.200 F 
ENDBRANCH  48  72
BRANCH  60  83
ATOM     83  C   UNL A   1      45.762  26.969  29.147  1.00  0.00     0.064 A 
ATOM     84  C   UNL A   1      44.819  27.576  28.316  1.00  0.00     0.173 A 
ATOM     85  C   UNL A   1      47.116  27.237  28.864  1.00  0.00     0.173 A 
ATOM     86  F   UNL A   1      43.511  27.358  28.515  1.00  0.00    -0.203 F 
ATOM     87  C   UNL A   1      45.214  28.410  27.265  1.00  0.00     0.198 A 
ATOM     88  C   UNL A   1      47.513  28.078  27.829  1.00  0.00     0.198 A 
ATOM     89  F   UNL A   1      48.082  26.698  29.610  1.00  0.00    -0.203 F 
ATOM     90  F   UNL A   1      44.286  28.976  26.481  1.00  0.00    -0.200 F 
ATOM     91  C   UNL A   1      46.558  28.661  27.023  1.00  0.00     0.200 A 
ATOM     92  F   UNL A   1      48.816  28.325  27.628  1.00  0.00    -0.200 F 
ATOM     93  F   UNL A   1      46.930  29.471  26.023  1.00  0.00    -0.200 F 
ENDBRANCH  60  83
ENDBRANCH  34  35
ENDBRANCH  26  29
ENDBRANCH  24  25
ENDBRANCH  23  24
ENDBRANCH   1  23
TORSDOF 14
ENDMDL
