MODEL 1
REMARK VINA RESULT:      -8.3      0.000      0.000
REMARK SMILES CCCCCCNC(=O)Oc1cccc(-c2ccc([C@@H](C)C(=O)NCCCCNC(=O)c3ccc(-c4c5nc(c(-c6c(F)c(F)c(F)c(F)c6F)c6ccc([nH]6)c(-c6c(F)c(F)c(F)c(F)c6F)c6nc(c(-c7c(F)c(F)c(F)c(F)c7F)c7ccc4[nH]7)C=C6)C=C5)cc3)cc2C)c1
REMARK SMILES IDX 20 1 21 2 19 3 16 4 17 5 96 6 18 7 95 8 97 9 15 10 11 11
REMARK SMILES IDX 12 12 98 13 13 14 14 15 10 16 8 17 7 18 9 20 6 21 5 22 4 23
REMARK SMILES IDX 3 24 2 25 1 26 22 27 23 28 24 29 25 31 26 32 27 33 28 34
REMARK SMILES IDX 29 35 30 36 31 38 32 39 33 40 94 41 34 42 93 43 35 44 36 45
REMARK SMILES IDX 37 46 87 47 38 48 92 49 86 50 88 51 39 52 91 53 85 54 84 55
REMARK SMILES IDX 40 57 72 58 52 59 71 60 53 61 56 62 70 63 89 64 54 65 55 66
REMARK SMILES IDX 69 68 90 69 57 70 41 71 42 72 50 73 43 74 44 75 48 76 51 77
REMARK SMILES IDX 45 78 46 79 49 80 47 81 73 82 74 83 82 84 75 85 76 86 80 87
REMARK SMILES IDX 83 88 77 89 78 90 81 91 79 92 58 93 59 94 67 95 60 96 61 97
REMARK SMILES IDX 65 98 68 99 62 100 63 101 66 102 64 103
REMARK H PARENT 7 19 24 30 29 37 88 56 56 67
REMARK Flexibility Score: inf
ROOT
ATOM      1  C   UNL A   1      42.479  24.511  27.840  1.00  0.00     0.105 C 
ATOM      2  C   UNL A   1      42.577  23.517  28.995  1.00  0.00     0.023 C 
ENDROOT
BRANCH   1   3
ATOM      3  C   UNL A   1      41.981  25.900  28.210  1.00  0.00    -0.036 A 
ATOM      4  C   UNL A   1      40.799  28.439  28.821  1.00  0.00    -0.015 A 
ATOM      5  C   UNL A   1      41.254  27.560  29.823  1.00  0.00     0.009 A 
ATOM      6  C   UNL A   1      41.057  28.067  27.483  1.00  0.00    -0.043 A 
ATOM      7  C   UNL A   1      41.885  26.350  29.523  1.00  0.00     0.005 A 
ATOM      8  C   UNL A   1      41.581  26.786  27.198  1.00  0.00     0.008 A 
ATOM      9  C   UNL A   1      40.831  28.974  26.301  1.00  0.00     0.045 C 
BRANCH   4  10
ATOM     10  C   UNL A   1      40.090  29.678  29.225  1.00  0.00    -0.014 A 
ATOM     11  C   UNL A   1      38.068  31.020  29.407  1.00  0.00     0.133 A 
ATOM     12  C   UNL A   1      38.776  32.069  29.984  1.00  0.00     0.047 A 
ATOM     13  C   UNL A   1      38.702  29.827  29.052  1.00  0.00     0.056 A 
ATOM     14  C   UNL A   1      40.139  31.926  30.208  1.00  0.00     0.004 A 
ATOM     15  C   UNL A   1      40.790  30.750  29.818  1.00  0.00     0.009 A 
BRANCH  11  16
ATOM     16  O   UNL A   1      36.738  31.296  29.039  1.00  0.00    -0.410 OA
BRANCH  16  17
ATOM     17  C   UNL A   1      36.247  32.592  29.051  1.00  0.00     0.412 C 
ATOM     18  N   UNL A   1      35.505  32.865  30.169  1.00  0.00    -0.321 N 
ATOM     19  H   UNL A   1      35.092  33.758  30.218  1.00  0.00     0.167 HD
ATOM     20  O   UNL A   1      36.419  33.435  28.181  1.00  0.00    -0.224 OA
BRANCH  18  21
ATOM     21  C   UNL A   1      35.265  31.974  31.288  1.00  0.00     0.119 C 
BRANCH  21  22
ATOM     22  C   UNL A   1      36.058  32.386  32.530  1.00  0.00     0.021 C 
BRANCH  22  23
ATOM     23  C   UNL A   1      36.997  31.308  33.083  1.00  0.00     0.002 C 
BRANCH  23  24
ATOM     24  C   UNL A   1      36.889  29.932  32.415  1.00  0.00    -0.000 C 
BRANCH  24  25
ATOM     25  C   UNL A   1      38.091  29.007  32.619  1.00  0.00    -0.003 C 
ATOM     26  C   UNL A   1      39.324  29.726  33.144  1.00  0.00     0.004 C 
ENDBRANCH  24  25
ENDBRANCH  23  24
ENDBRANCH  22  23
ENDBRANCH  21  22
ENDBRANCH  18  21
ENDBRANCH  16  17
ENDBRANCH  11  16
ENDBRANCH   4  10
ENDBRANCH   1   3
BRANCH   1  27
ATOM     27  C   UNL A   1      41.840  23.934  26.565  1.00  0.00     0.227 C 
ATOM     28  O   UNL A   1      40.702  23.450  26.610  1.00  0.00    -0.274 OA
ATOM     29  N   UNL A   1      42.440  23.936  25.342  1.00  0.00    -0.356 N 
ATOM     30  H   UNL A   1      41.867  23.613  24.610  1.00  0.00     0.163 HD
BRANCH  29  31
ATOM     31  C   UNL A   1      43.768  24.328  24.926  1.00  0.00     0.116 C 
BRANCH  31  32
ATOM     32  C   UNL A   1      44.785  23.202  25.121  1.00  0.00     0.023 C 
BRANCH  32  33
ATOM     33  C   UNL A   1      46.181  23.486  24.576  1.00  0.00     0.023 C 
BRANCH  33  34
ATOM     34  C   UNL A   1      46.918  24.629  25.259  1.00  0.00     0.116 C 
BRANCH  34  35
ATOM     35  N   UNL A   1      47.334  25.696  24.360  1.00  0.00    -0.352 N 
ATOM     36  C   UNL A   1      47.196  27.054  24.536  1.00  0.00     0.251 C 
ATOM     37  H   UNL A   1      47.769  25.411  23.523  1.00  0.00     0.163 HD
ATOM     38  O   UNL A   1      47.533  27.841  23.658  1.00  0.00    -0.269 OA
BRANCH  36  39
ATOM     39  C   UNL A   1      46.586  27.550  25.786  1.00  0.00     0.039 A 
ATOM     40  C   UNL A   1      47.419  28.013  26.807  1.00  0.00     0.014 A 
ATOM     41  C   UNL A   1      45.197  27.626  25.913  1.00  0.00     0.014 A 
ATOM     42  C   UNL A   1      46.856  28.622  27.929  1.00  0.00     0.010 A 
ATOM     43  C   UNL A   1      44.644  28.309  26.988  1.00  0.00     0.010 A 
ATOM     44  C   UNL A   1      45.466  28.810  28.009  1.00  0.00    -0.014 A 
BRANCH  44  45
ATOM     45  C   UNL A   1      44.846  29.514  29.158  1.00  0.00     0.031 A 
ATOM     46  C   UNL A   1      44.530  30.980  29.051  1.00  0.00     0.074 A 
ATOM     47  C   UNL A   1      44.639  28.857  30.316  1.00  0.00     0.049 A 
ATOM     48  N   UNL A   1      44.061  31.796  29.961  1.00  0.00    -0.248 NA
ATOM     49  C   UNL A   1      44.811  31.622  27.758  1.00  0.00     0.031 C 
ATOM     50  C   UNL A   1      44.960  27.451  30.561  1.00  0.00     0.029 A 
ATOM     51  N   UNL A   1      44.116  29.291  31.508  1.00  0.00    -0.354 N 
ATOM     52  C   UNL A   1      44.011  33.044  29.356  1.00  0.00     0.074 A 
ATOM     53  C   UNL A   1      44.555  32.893  28.024  1.00  0.00     0.031 C 
ATOM     54  C   UNL A   1      44.600  27.130  31.815  1.00  0.00     0.029 A 
ATOM     55  C   UNL A   1      44.055  28.314  32.470  1.00  0.00     0.049 A 
ATOM     56  H   UNL A   1      43.813  30.216  31.658  1.00  0.00     0.167 HD
ATOM     57  C   UNL A   1      43.528  34.206  29.856  1.00  0.00     0.037 A 
ATOM     58  C   UNL A   1      43.608  28.371  33.740  1.00  0.00     0.037 A 
ATOM     59  C   UNL A   1      42.955  34.344  31.168  1.00  0.00     0.049 A 
ATOM     60  C   UNL A   1      43.060  29.670  34.265  1.00  0.00     0.074 A 
ATOM     61  C   UNL A   1      42.386  35.462  31.750  1.00  0.00     0.029 A 
ATOM     62  N   UNL A   1      42.878  33.321  32.103  1.00  0.00    -0.354 N 
ATOM     63  N   UNL A   1      42.954  30.829  33.662  1.00  0.00    -0.248 NA
ATOM     64  C   UNL A   1      42.557  29.666  35.646  1.00  0.00     0.031 C 
ATOM     65  C   UNL A   1      41.995  35.127  33.051  1.00  0.00     0.029 A 
ATOM     66  C   UNL A   1      42.280  33.786  33.262  1.00  0.00     0.049 A 
ATOM     67  H   UNL A   1      43.200  32.402  31.963  1.00  0.00     0.167 HD
ATOM     68  C   UNL A   1      42.345  31.681  34.573  1.00  0.00     0.074 A 
ATOM     69  C   UNL A   1      42.094  30.901  35.768  1.00  0.00     0.031 C 
ATOM     70  C   UNL A   1      42.023  32.990  34.434  1.00  0.00     0.037 A 
BRANCH  57  71
ATOM     71  C   UNL A   1      43.588  35.415  28.968  1.00  0.00     0.064 A 
ATOM     72  C   UNL A   1      42.460  35.866  28.263  1.00  0.00     0.173 A 
ATOM     73  C   UNL A   1      44.779  36.141  28.830  1.00  0.00     0.173 A 
ATOM     74  F   UNL A   1      41.300  35.198  28.349  1.00  0.00    -0.203 F 
ATOM     75  C   UNL A   1      42.533  36.977  27.428  1.00  0.00     0.198 A 
ATOM     76  C   UNL A   1      44.841  37.271  28.018  1.00  0.00     0.198 A 
ATOM     77  F   UNL A   1      45.886  35.757  29.484  1.00  0.00    -0.203 F 
ATOM     78  F   UNL A   1      41.459  37.353  26.721  1.00  0.00    -0.200 F 
ATOM     79  C   UNL A   1      43.721  37.682  27.311  1.00  0.00     0.200 A 
ATOM     80  F   UNL A   1      45.986  37.959  27.915  1.00  0.00    -0.200 F 
ATOM     81  F   UNL A   1      43.790  38.754  26.508  1.00  0.00    -0.200 F 
ENDBRANCH  57  71
BRANCH  58  82
ATOM     82  C   UNL A   1      43.617  27.151  34.588  1.00  0.00     0.064 A 
ATOM     83  C   UNL A   1      44.793  26.733  35.228  1.00  0.00     0.173 A 
ATOM     84  C   UNL A   1      42.463  26.377  34.772  1.00  0.00     0.173 A 
ATOM     85  F   UNL A   1      45.927  27.430  35.065  1.00  0.00    -0.203 F 
ATOM     86  C   UNL A   1      44.819  25.574  36.001  1.00  0.00     0.198 A 
ATOM     87  C   UNL A   1      42.485  25.232  35.567  1.00  0.00     0.198 A 
ATOM     88  F   UNL A   1      41.312  26.736  34.186  1.00  0.00    -0.203 F 
ATOM     89  F   UNL A   1      45.968  25.173  36.562  1.00  0.00    -0.200 F 
ATOM     90  C   UNL A   1      43.665  24.827  36.173  1.00  0.00     0.200 A 
ATOM     91  F   UNL A   1      41.364  24.518  35.742  1.00  0.00    -0.200 F 
ATOM     92  F   UNL A   1      43.691  23.713  36.917  1.00  0.00    -0.200 F 
ENDBRANCH  58  82
BRANCH  70  93
ATOM     93  C   UNL A   1      41.321  33.649  35.584  1.00  0.00     0.064 A 
ATOM     94  C   UNL A   1      39.928  33.584  35.735  1.00  0.00     0.173 A 
ATOM     95  C   UNL A   1      42.059  34.322  36.571  1.00  0.00     0.173 A 
ATOM     96  F   UNL A   1      39.178  32.965  34.810  1.00  0.00    -0.203 F 
ATOM     97  C   UNL A   1      39.297  34.192  36.816  1.00  0.00     0.198 A 
ATOM     98  C   UNL A   1      41.427  34.903  37.666  1.00  0.00     0.198 A 
ATOM     99  F   UNL A   1      43.394  34.406  36.477  1.00  0.00    -0.203 F 
ATOM    100  F   UNL A   1      37.961  34.159  36.915  1.00  0.00    -0.200 F 
ATOM    101  C   UNL A   1      40.046  34.844  37.784  1.00  0.00     0.200 A 
ATOM    102  F   UNL A   1      42.154  35.520  38.607  1.00  0.00    -0.200 F 
ATOM    103  F   UNL A   1      39.437  35.423  38.828  1.00  0.00    -0.200 F 
ENDBRANCH  70  93
ENDBRANCH  44  45
ENDBRANCH  36  39
ENDBRANCH  34  35
ENDBRANCH  33  34
ENDBRANCH  32  33
ENDBRANCH  31  32
ENDBRANCH  29  31
ENDBRANCH   1  27
TORSDOF 20
ENDMDL
MODEL 2
REMARK VINA RESULT:      -8.3      3.048     11.472
REMARK SMILES CCCCCCNC(=O)Oc1cccc(-c2ccc([C@@H](C)C(=O)NCCCCNC(=O)c3ccc(-c4c5nc(c(-c6c(F)c(F)c(F)c(F)c6F)c6ccc([nH]6)c(-c6c(F)c(F)c(F)c(F)c6F)c6nc(c(-c7c(F)c(F)c(F)c(F)c7F)c7ccc4[nH]7)C=C6)C=C5)cc3)cc2C)c1
REMARK SMILES IDX 20 1 21 2 19 3 16 4 17 5 96 6 18 7 95 8 97 9 15 10 11 11
REMARK SMILES IDX 12 12 98 13 13 14 14 15 10 16 8 17 7 18 9 20 6 21 5 22 4 23
REMARK SMILES IDX 3 24 2 25 1 26 22 27 23 28 24 29 25 31 26 32 27 33 28 34
REMARK SMILES IDX 29 35 30 36 31 38 32 39 33 40 94 41 34 42 93 43 35 44 36 45
REMARK SMILES IDX 37 46 87 47 38 48 92 49 86 50 88 51 39 52 91 53 85 54 84 55
REMARK SMILES IDX 40 57 72 58 52 59 71 60 53 61 56 62 70 63 89 64 54 65 55 66
REMARK SMILES IDX 69 68 90 69 57 70 41 71 42 72 50 73 43 74 44 75 48 76 51 77
REMARK SMILES IDX 45 78 46 79 49 80 47 81 73 82 74 83 82 84 75 85 76 86 80 87
REMARK SMILES IDX 83 88 77 89 78 90 81 91 79 92 58 93 59 94 67 95 60 96 61 97
REMARK SMILES IDX 65 98 68 99 62 100 63 101 66 102 64 103
REMARK H PARENT 7 19 24 30 29 37 88 56 56 67
REMARK Flexibility Score: inf
ROOT
ATOM      1  C   UNL A   1      37.901  32.295  30.532  1.00  0.00     0.105 C 
ATOM      2  C   UNL A   1      38.686  33.600  30.419  1.00  0.00     0.023 C 
ENDROOT
BRANCH   1   3
ATOM      3  C   UNL A   1      38.475  31.114  29.763  1.00  0.00    -0.036 A 
ATOM      4  C   UNL A   1      39.424  28.731  28.486  1.00  0.00    -0.015 A 
ATOM      5  C   UNL A   1      38.516  29.607  27.862  1.00  0.00     0.009 A 
ATOM      6  C   UNL A   1      39.946  29.136  29.734  1.00  0.00    -0.043 A 
ATOM      7  C   UNL A   1      38.100  30.800  28.460  1.00  0.00     0.005 A 
ATOM      8  C   UNL A   1      39.420  30.279  30.377  1.00  0.00     0.008 A 
ATOM      9  C   UNL A   1      41.076  28.433  30.441  1.00  0.00     0.045 C 
BRANCH   4  10
ATOM     10  C   UNL A   1      39.771  27.458  27.806  1.00  0.00    -0.014 A 
ATOM     11  C   UNL A   1      41.037  26.195  26.156  1.00  0.00     0.133 A 
ATOM     12  C   UNL A   1      40.389  25.016  26.511  1.00  0.00     0.047 A 
ATOM     13  C   UNL A   1      40.758  27.399  26.805  1.00  0.00     0.056 A 
ATOM     14  C   UNL A   1      39.445  25.042  27.531  1.00  0.00     0.004 A 
ATOM     15  C   UNL A   1      39.129  26.253  28.157  1.00  0.00     0.009 A 
BRANCH  11  16
ATOM     16  O   UNL A   1      41.839  26.137  25.001  1.00  0.00    -0.410 OA
BRANCH  16  17
ATOM     17  C   UNL A   1      43.130  26.642  25.001  1.00  0.00     0.412 C 
ATOM     18  N   UNL A   1      44.081  25.662  25.113  1.00  0.00    -0.321 N 
ATOM     19  H   UNL A   1      45.018  25.960  25.162  1.00  0.00     0.167 HD
ATOM     20  O   UNL A   1      43.440  27.823  24.924  1.00  0.00    -0.224 OA
BRANCH  18  21
ATOM     21  C   UNL A   1      43.848  24.232  25.166  1.00  0.00     0.119 C 
BRANCH  21  22
ATOM     22  C   UNL A   1      44.405  23.607  26.446  1.00  0.00     0.021 C 
BRANCH  22  23
ATOM     23  C   UNL A   1      43.346  23.179  27.469  1.00  0.00     0.002 C 
BRANCH  23  24
ATOM     24  C   UNL A   1      43.207  24.090  28.694  1.00  0.00    -0.000 C 
BRANCH  24  25
ATOM     25  C   UNL A   1      44.298  25.151  28.852  1.00  0.00    -0.003 C 
ATOM     26  C   UNL A   1      43.788  26.572  28.671  1.00  0.00     0.004 C 
ENDBRANCH  24  25
ENDBRANCH  23  24
ENDBRANCH  22  23
ENDBRANCH  21  22
ENDBRANCH  18  21
ENDBRANCH  16  17
ENDBRANCH  11  16
ENDBRANCH   4  10
ENDBRANCH   1   3
BRANCH   1  27
ATOM     27  C   UNL A   1      36.379  32.461  30.383  1.00  0.00     0.227 C 
ATOM     28  O   UNL A   1      35.896  32.754  29.283  1.00  0.00    -0.274 OA
ATOM     29  N   UNL A   1      35.488  32.279  31.397  1.00  0.00    -0.356 N 
ATOM     30  H   UNL A   1      34.545  32.334  31.122  1.00  0.00     0.163 HD
BRANCH  29  31
ATOM     31  C   UNL A   1      35.680  32.021  32.808  1.00  0.00     0.116 C 
BRANCH  31  32
ATOM     32  C   UNL A   1      35.341  33.242  33.664  1.00  0.00     0.023 C 
BRANCH  32  33
ATOM     33  C   UNL A   1      36.371  34.365  33.630  1.00  0.00     0.023 C 
BRANCH  33  34
ATOM     34  C   UNL A   1      37.559  34.179  34.563  1.00  0.00     0.116 C 
BRANCH  34  35
ATOM     35  N   UNL A   1      37.238  33.507  35.815  1.00  0.00    -0.352 N 
ATOM     36  C   UNL A   1      37.823  32.380  36.344  1.00  0.00     0.251 C 
ATOM     37  H   UNL A   1      36.515  33.910  36.348  1.00  0.00     0.163 HD
ATOM     38  O   UNL A   1      37.403  31.879  37.382  1.00  0.00    -0.269 OA
BRANCH  36  39
ATOM     39  C   UNL A   1      38.940  31.748  35.613  1.00  0.00     0.039 A 
ATOM     40  C   UNL A   1      38.651  30.866  34.570  1.00  0.00     0.014 A 
ATOM     41  C   UNL A   1      40.262  32.086  35.911  1.00  0.00     0.014 A 
ATOM     42  C   UNL A   1      39.690  30.379  33.775  1.00  0.00     0.010 A 
ATOM     43  C   UNL A   1      41.283  31.671  35.067  1.00  0.00     0.010 A 
ATOM     44  C   UNL A   1      41.009  30.810  33.993  1.00  0.00    -0.014 A 
BRANCH  44  45
ATOM     45  C   UNL A   1      42.122  30.362  33.121  1.00  0.00     0.031 A 
ATOM     46  C   UNL A   1      42.820  29.063  33.412  1.00  0.00     0.074 A 
ATOM     47  C   UNL A   1      42.551  31.153  32.119  1.00  0.00     0.049 A 
ATOM     48  N   UNL A   1      43.860  28.529  32.823  1.00  0.00    -0.248 NA
ATOM     49  C   UNL A   1      42.300  28.274  34.541  1.00  0.00     0.031 C 
ATOM     50  C   UNL A   1      41.994  32.462  31.776  1.00  0.00     0.029 A 
ATOM     51  N   UNL A   1      43.563  30.974  31.210  1.00  0.00    -0.354 N 
ATOM     52  C   UNL A   1      44.126  27.359  33.520  1.00  0.00     0.074 A 
ATOM     53  C   UNL A   1      43.182  27.289  34.613  1.00  0.00     0.031 C 
ATOM     54  C   UNL A   1      42.652  32.955  30.713  1.00  0.00     0.029 A 
ATOM     55  C   UNL A   1      43.697  32.013  30.323  1.00  0.00     0.049 A 
ATOM     56  H   UNL A   1      44.139  30.176  31.196  1.00  0.00     0.167 HD
ATOM     57  C   UNL A   1      45.057  26.411  33.254  1.00  0.00     0.037 A 
ATOM     58  C   UNL A   1      44.566  32.183  29.308  1.00  0.00     0.037 A 
ATOM     59  C   UNL A   1      45.971  26.466  32.146  1.00  0.00     0.049 A 
ATOM     60  C   UNL A   1      45.578  31.108  29.022  1.00  0.00     0.074 A 
ATOM     61  C   UNL A   1      46.914  25.533  31.755  1.00  0.00     0.029 A 
ATOM     62  N   UNL A   1      46.052  27.520  31.245  1.00  0.00    -0.354 N 
ATOM     63  N   UNL A   1      45.777  29.972  29.646  1.00  0.00    -0.248 NA
ATOM     64  C   UNL A   1      46.479  31.333  27.884  1.00  0.00     0.031 C 
ATOM     65  C   UNL A   1      47.590  26.035  30.638  1.00  0.00     0.029 A 
ATOM     66  C   UNL A   1      47.037  27.262  30.306  1.00  0.00     0.049 A 
ATOM     67  H   UNL A   1      45.492  28.328  31.270  1.00  0.00     0.167 HD
ATOM     68  C   UNL A   1      46.800  29.333  28.959  1.00  0.00     0.074 A 
ATOM     69  C   UNL A   1      47.173  30.204  27.862  1.00  0.00     0.031 C 
ATOM     70  C   UNL A   1      47.380  28.134  29.212  1.00  0.00     0.037 A 
BRANCH  57  71
ATOM     71  C   UNL A   1      45.117  25.228  34.177  1.00  0.00     0.064 A 
ATOM     72  C   UNL A   1      45.813  25.281  35.395  1.00  0.00     0.173 A 
ATOM     73  C   UNL A   1      44.461  24.033  33.849  1.00  0.00     0.173 A 
ATOM     74  F   UNL A   1      46.470  26.395  35.749  1.00  0.00    -0.203 F 
ATOM     75  C   UNL A   1      45.878  24.172  36.233  1.00  0.00     0.198 A 
ATOM     76  C   UNL A   1      44.501  22.934  34.704  1.00  0.00     0.198 A 
ATOM     77  F   UNL A   1      43.778  23.929  32.699  1.00  0.00    -0.203 F 
ATOM     78  F   UNL A   1      46.597  24.228  37.362  1.00  0.00    -0.200 F 
ATOM     79  C   UNL A   1      45.217  23.002  35.890  1.00  0.00     0.200 A 
ATOM     80  F   UNL A   1      43.852  21.809  34.378  1.00  0.00    -0.200 F 
ATOM     81  F   UNL A   1      45.278  21.934  36.699  1.00  0.00    -0.200 F 
ENDBRANCH  57  71
BRANCH  58  82
ATOM     82  C   UNL A   1      44.488  33.399  28.457  1.00  0.00     0.064 A 
ATOM     83  C   UNL A   1      44.987  34.627  28.916  1.00  0.00     0.173 A 
ATOM     84  C   UNL A   1      43.912  33.365  27.179  1.00  0.00     0.173 A 
ATOM     85  F   UNL A   1      45.528  34.714  30.140  1.00  0.00    -0.203 F 
ATOM     86  C   UNL A   1      44.891  35.779  28.138  1.00  0.00     0.198 A 
ATOM     87  C   UNL A   1      43.841  34.514  26.392  1.00  0.00     0.198 A 
ATOM     88  F   UNL A   1      43.425  32.215  26.692  1.00  0.00    -0.203 F 
ATOM     89  F   UNL A   1      45.333  36.948  28.621  1.00  0.00    -0.200 F 
ATOM     90  C   UNL A   1      44.323  35.721  26.875  1.00  0.00     0.200 A 
ATOM     91  F   UNL A   1      43.302  34.451  25.167  1.00  0.00    -0.200 F 
ATOM     92  F   UNL A   1      44.232  36.829  26.128  1.00  0.00    -0.200 F 
ENDBRANCH  58  82
BRANCH  70  93
ATOM     93  C   UNL A   1      48.444  27.672  28.261  1.00  0.00     0.064 A 
ATOM     94  C   UNL A   1      49.794  28.005  28.444  1.00  0.00     0.173 A 
ATOM     95  C   UNL A   1      48.110  26.850  27.172  1.00  0.00     0.173 A 
ATOM     96  F   UNL A   1      50.160  28.799  29.461  1.00  0.00    -0.203 F 
ATOM     97  C   UNL A   1      50.768  27.555  27.558  1.00  0.00     0.198 A 
ATOM     98  C   UNL A   1      49.091  26.379  26.305  1.00  0.00     0.198 A 
ATOM     99  F   UNL A   1      46.834  26.497  26.958  1.00  0.00    -0.203 F 
ATOM    100  F   UNL A   1      52.045  27.925  27.724  1.00  0.00    -0.200 F 
ATOM    101  C   UNL A   1      50.417  26.737  26.494  1.00  0.00     0.200 A 
ATOM    102  F   UNL A   1      48.752  25.577  25.286  1.00  0.00    -0.200 F 
ATOM    103  F   UNL A   1      51.358  26.300  25.645  1.00  0.00    -0.200 F 
ENDBRANCH  70  93
ENDBRANCH  44  45
ENDBRANCH  36  39
ENDBRANCH  34  35
ENDBRANCH  33  34
ENDBRANCH  32  33
ENDBRANCH  31  32
ENDBRANCH  29  31
ENDBRANCH   1  27
TORSDOF 20
ENDMDL
MODEL 3
REMARK VINA RESULT:      -8.1      3.172      9.285
REMARK SMILES CCCCCCNC(=O)Oc1cccc(-c2ccc([C@@H](C)C(=O)NCCCCNC(=O)c3ccc(-c4c5nc(c(-c6c(F)c(F)c(F)c(F)c6F)c6ccc([nH]6)c(-c6c(F)c(F)c(F)c(F)c6F)c6nc(c(-c7c(F)c(F)c(F)c(F)c7F)c7ccc4[nH]7)C=C6)C=C5)cc3)cc2C)c1
REMARK SMILES IDX 20 1 21 2 19 3 16 4 17 5 96 6 18 7 95 8 97 9 15 10 11 11
REMARK SMILES IDX 12 12 98 13 13 14 14 15 10 16 8 17 7 18 9 20 6 21 5 22 4 23
REMARK SMILES IDX 3 24 2 25 1 26 22 27 23 28 24 29 25 31 26 32 27 33 28 34
REMARK SMILES IDX 29 35 30 36 31 38 32 39 33 40 94 41 34 42 93 43 35 44 36 45
REMARK SMILES IDX 37 46 87 47 38 48 92 49 86 50 88 51 39 52 91 53 85 54 84 55
REMARK SMILES IDX 40 57 72 58 52 59 71 60 53 61 56 62 70 63 89 64 54 65 55 66
REMARK SMILES IDX 69 68 90 69 57 70 41 71 42 72 50 73 43 74 44 75 48 76 51 77
REMARK SMILES IDX 45 78 46 79 49 80 47 81 73 82 74 83 82 84 75 85 76 86 80 87
REMARK SMILES IDX 83 88 77 89 78 90 81 91 79 92 58 93 59 94 67 95 60 96 61 97
REMARK SMILES IDX 65 98 68 99 62 100 63 101 66 102 64 103
REMARK H PARENT 7 19 24 30 29 37 88 56 56 67
REMARK Flexibility Score: inf
ROOT
ATOM      1  C   UNL A   1      37.142  30.122  29.528  1.00  0.00     0.105 C 
ATOM      2  C   UNL A   1      36.067  29.732  28.514  1.00  0.00     0.023 C 
ENDROOT
BRANCH   1   3
ATOM      3  C   UNL A   1      38.488  29.436  29.354  1.00  0.00    -0.036 A 
ATOM      4  C   UNL A   1      41.018  28.222  28.768  1.00  0.00    -0.015 A 
ATOM      5  C   UNL A   1      40.900  29.348  29.605  1.00  0.00     0.009 A 
ATOM      6  C   UNL A   1      39.815  27.635  28.316  1.00  0.00    -0.043 A 
ATOM      7  C   UNL A   1      39.661  29.903  29.938  1.00  0.00     0.005 A 
ATOM      8  C   UNL A   1      38.583  28.283  28.561  1.00  0.00     0.008 A 
ATOM      9  C   UNL A   1      39.743  26.315  27.593  1.00  0.00     0.045 C 
BRANCH   4  10
ATOM     10  C   UNL A   1      42.373  27.729  28.418  1.00  0.00    -0.014 A 
ATOM     11  C   UNL A   1      44.178  26.112  28.632  1.00  0.00     0.133 A 
ATOM     12  C   UNL A   1      44.975  26.833  27.749  1.00  0.00     0.047 A 
ATOM     13  C   UNL A   1      42.885  26.532  28.949  1.00  0.00     0.056 A 
ATOM     14  C   UNL A   1      44.472  27.994  27.175  1.00  0.00     0.004 A 
ATOM     15  C   UNL A   1      43.192  28.443  27.520  1.00  0.00     0.009 A 
BRANCH  11  16
ATOM     16  O   UNL A   1      44.809  25.056  29.316  1.00  0.00    -0.410 OA
BRANCH  16  17
ATOM     17  C   UNL A   1      44.326  23.759  29.232  1.00  0.00     0.412 C 
ATOM     18  N   UNL A   1      44.948  23.027  28.256  1.00  0.00    -0.321 N 
ATOM     19  H   UNL A   1      44.620  22.108  28.117  1.00  0.00     0.167 HD
ATOM     20  O   UNL A   1      43.438  23.276  29.921  1.00  0.00    -0.224 OA
BRANCH  18  21
ATOM     21  C   UNL A   1      46.039  23.464  27.407  1.00  0.00     0.119 C 
BRANCH  21  22
ATOM     22  C   UNL A   1      45.800  23.112  25.937  1.00  0.00     0.021 C 
BRANCH  22  23
ATOM     23  C   UNL A   1      45.009  24.158  25.143  1.00  0.00     0.002 C 
BRANCH  23  24
ATOM     24  C   UNL A   1      43.534  23.823  24.896  1.00  0.00    -0.000 C 
BRANCH  24  25
ATOM     25  C   UNL A   1      42.546  24.433  25.894  1.00  0.00    -0.003 C 
ATOM     26  C   UNL A   1      41.640  23.403  26.550  1.00  0.00     0.004 C 
ENDBRANCH  24  25
ENDBRANCH  23  24
ENDBRANCH  22  23
ENDBRANCH  21  22
ENDBRANCH  18  21
ENDBRANCH  16  17
ENDBRANCH  11  16
ENDBRANCH   4  10
ENDBRANCH   1   3
BRANCH   1  27
ATOM     27  C   UNL A   1      36.645  30.170  30.983  1.00  0.00     0.227 C 
ATOM     28  O   UNL A   1      36.532  29.122  31.631  1.00  0.00    -0.274 OA
ATOM     29  N   UNL A   1      36.333  31.319  31.646  1.00  0.00    -0.356 N 
ATOM     30  H   UNL A   1      36.117  31.191  32.597  1.00  0.00     0.163 HD
BRANCH  29  31
ATOM     31  C   UNL A   1      36.261  32.693  31.201  1.00  0.00     0.116 C 
BRANCH  31  32
ATOM     32  C   UNL A   1      37.482  33.502  31.642  1.00  0.00     0.023 C 
BRANCH  32  33
ATOM     33  C   UNL A   1      37.228  34.499  32.768  1.00  0.00     0.023 C 
BRANCH  33  34
ATOM     34  C   UNL A   1      38.132  34.343  33.982  1.00  0.00     0.116 C 
BRANCH  34  35
ATOM     35  N   UNL A   1      37.511  33.659  35.108  1.00  0.00    -0.352 N 
ATOM     36  C   UNL A   1      37.872  32.457  35.672  1.00  0.00     0.251 C 
ATOM     37  H   UNL A   1      36.738  34.113  35.517  1.00  0.00     0.163 HD
ATOM     38  O   UNL A   1      37.212  31.962  36.579  1.00  0.00    -0.269 OA
BRANCH  36  39
ATOM     39  C   UNL A   1      39.045  31.742  35.130  1.00  0.00     0.039 A 
ATOM     40  C   UNL A   1      38.866  30.861  34.061  1.00  0.00     0.014 A 
ATOM     41  C   UNL A   1      40.324  32.001  35.630  1.00  0.00     0.014 A 
ATOM     42  C   UNL A   1      39.982  30.295  33.444  1.00  0.00     0.010 A 
ATOM     43  C   UNL A   1      41.435  31.506  34.960  1.00  0.00     0.010 A 
ATOM     44  C   UNL A   1      41.276  30.645  33.864  1.00  0.00    -0.014 A 
BRANCH  44  45
ATOM     45  C   UNL A   1      42.480  30.111  33.181  1.00  0.00     0.031 A 
ATOM     46  C   UNL A   1      43.049  30.838  31.995  1.00  0.00     0.074 A 
ATOM     47  C   UNL A   1      43.014  28.940  33.580  1.00  0.00     0.049 A 
ATOM     48  N   UNL A   1      44.043  30.501  31.214  1.00  0.00    -0.248 NA
ATOM     49  C   UNL A   1      42.388  32.096  31.615  1.00  0.00     0.031 C 
ATOM     50  C   UNL A   1      42.516  28.113  34.680  1.00  0.00     0.029 A 
ATOM     51  N   UNL A   1      44.091  28.239  33.098  1.00  0.00    -0.354 N 
ATOM     52  C   UNL A   1      44.111  31.491  30.244  1.00  0.00     0.074 A 
ATOM     53  C   UNL A   1      43.022  32.409  30.495  1.00  0.00     0.031 C 
ATOM     54  C   UNL A   1      43.303  27.031  34.807  1.00  0.00     0.029 A 
ATOM     55  C   UNL A   1      44.338  27.073  33.779  1.00  0.00     0.049 A 
ATOM     56  H   UNL A   1      44.634  28.544  32.336  1.00  0.00     0.167 HD
ATOM     57  C   UNL A   1      45.020  31.640  29.250  1.00  0.00     0.037 A 
ATOM     58  C   UNL A   1      45.295  26.143  33.592  1.00  0.00     0.037 A 
ATOM     59  C   UNL A   1      46.122  30.745  29.026  1.00  0.00     0.049 A 
ATOM     60  C   UNL A   1      46.302  26.340  32.492  1.00  0.00     0.074 A 
ATOM     61  C   UNL A   1      47.131  30.835  28.083  1.00  0.00     0.029 A 
ATOM     62  N   UNL A   1      46.361  29.591  29.760  1.00  0.00    -0.354 N 
ATOM     63  N   UNL A   1      46.398  27.317  31.623  1.00  0.00    -0.248 NA
ATOM     64  C   UNL A   1      47.341  25.311  32.355  1.00  0.00     0.031 C 
ATOM     65  C   UNL A   1      47.962  29.718  28.223  1.00  0.00     0.029 A 
ATOM     66  C   UNL A   1      47.496  28.956  29.284  1.00  0.00     0.049 A 
ATOM     67  H   UNL A   1      45.807  29.273  30.508  1.00  0.00     0.167 HD
ATOM     68  C   UNL A   1      47.524  27.039  30.859  1.00  0.00     0.074 A 
ATOM     69  C   UNL A   1      48.084  25.806  31.375  1.00  0.00     0.031 C 
ATOM     70  C   UNL A   1      48.047  27.739  29.823  1.00  0.00     0.037 A 
BRANCH  57  71
ATOM     71  C   UNL A   1      44.860  32.825  28.342  1.00  0.00     0.064 A 
ATOM     72  C   UNL A   1      45.326  34.098  28.707  1.00  0.00     0.173 A 
ATOM     73  C   UNL A   1      44.249  32.686  27.088  1.00  0.00     0.173 A 
ATOM     74  F   UNL A   1      45.904  34.288  29.903  1.00  0.00    -0.203 F 
ATOM     75  C   UNL A   1      45.155  35.192  27.865  1.00  0.00     0.198 A 
ATOM     76  C   UNL A   1      44.107  33.777  26.234  1.00  0.00     0.198 A 
ATOM     77  F   UNL A   1      43.789  31.491  26.688  1.00  0.00    -0.203 F 
ATOM     78  F   UNL A   1      45.555  36.409  28.260  1.00  0.00    -0.200 F 
ATOM     79  C   UNL A   1      44.551  35.031  26.628  1.00  0.00     0.200 A 
ATOM     80  F   UNL A   1      43.535  33.617  25.034  1.00  0.00    -0.200 F 
ATOM     81  F   UNL A   1      44.389  36.085  25.816  1.00  0.00    -0.200 F 
ENDBRANCH  57  71
BRANCH  58  82
ATOM     82  C   UNL A   1      45.374  24.965  34.494  1.00  0.00     0.064 A 
ATOM     83  C   UNL A   1      44.782  23.746  34.134  1.00  0.00     0.173 A 
ATOM     84  C   UNL A   1      46.033  25.031  35.730  1.00  0.00     0.173 A 
ATOM     85  F   UNL A   1      44.123  23.640  32.971  1.00  0.00    -0.203 F 
ATOM     86  C   UNL A   1      44.825  22.645  34.986  1.00  0.00     0.198 A 
ATOM     87  C   UNL A   1      46.098  23.920  36.570  1.00  0.00     0.198 A 
ATOM     88  F   UNL A   1      46.620  26.171  36.119  1.00  0.00    -0.203 F 
ATOM     89  F   UNL A   1      44.210  21.507  34.637  1.00  0.00    -0.200 F 
ATOM     90  C   UNL A   1      45.486  22.731  36.202  1.00  0.00     0.200 A 
ATOM     91  F   UNL A   1      46.748  24.003  37.738  1.00  0.00    -0.200 F 
ATOM     92  F   UNL A   1      45.528  21.671  37.020  1.00  0.00    -0.200 F 
ENDBRANCH  58  82
BRANCH  70  93
ATOM     93  C   UNL A   1      49.313  27.217  29.211  1.00  0.00     0.064 A 
ATOM     94  C   UNL A   1      50.572  27.505  29.758  1.00  0.00     0.173 A 
ATOM     95  C   UNL A   1      49.260  26.382  28.084  1.00  0.00     0.173 A 
ATOM     96  F   UNL A   1      50.675  28.310  30.827  1.00  0.00    -0.203 F 
ATOM     97  C   UNL A   1      51.734  26.999  29.183  1.00  0.00     0.198 A 
ATOM     98  C   UNL A   1      50.422  25.855  27.529  1.00  0.00     0.198 A 
ATOM     99  F   UNL A   1      48.080  26.070  27.528  1.00  0.00    -0.203 F 
ATOM    100  F   UNL A   1      52.929  27.326  29.693  1.00  0.00    -0.200 F 
ATOM    101  C   UNL A   1      51.658  26.169  28.074  1.00  0.00     0.200 A 
ATOM    102  F   UNL A   1      50.346  25.043  26.466  1.00  0.00    -0.200 F 
ATOM    103  F   UNL A   1      52.778  25.679  27.525  1.00  0.00    -0.200 F 
ENDBRANCH  70  93
ENDBRANCH  44  45
ENDBRANCH  36  39
ENDBRANCH  34  35
ENDBRANCH  33  34
ENDBRANCH  32  33
ENDBRANCH  31  32
ENDBRANCH  29  31
ENDBRANCH   1  27
TORSDOF 20
ENDMDL
