MODEL 1
REMARK VINA RESULT:     -14.3      0.000      0.000
REMARK SMILES Nc1ccc(-c2cc(Cl)cc3c2O[C@H](C(F)(F)F)C(C(=O)NCCCCNC(=O)c2ccc(-c4c5nc(c(-c6c(F)c(F)c(F)c(F)c6F)c6ccc([nH]6)c(-c6c(F)c(F)c(F)c(F)c6F)c6nc(c(-c7c(F)c(F)c(F)c(F)c7F)c7ccc4[nH]7)C=C6)C=C5)cc2)=C3)cc1
REMARK SMILES IDX 24 1 23 2 22 3 20 4 21 5 19 7 6 8 7 9 12 10 8 11 11 12 13 13
REMARK SMILES IDX 9 14 10 15 93 16 14 17 5 18 2 19 3 20 95 21 4 22 94 23 1 24
REMARK SMILES IDX 15 27 16 28 17 29 18 30 25 31 26 32 27 33 28 34 29 36 30 37
REMARK SMILES IDX 31 38 92 39 32 40 91 41 33 42 34 43 35 44 85 45 36 46 90 47
REMARK SMILES IDX 84 48 86 49 37 50 89 51 83 52 82 53 38 55 70 56 50 57 69 58
REMARK SMILES IDX 51 59 54 60 68 61 87 62 52 63 53 64 67 66 88 67 55 68 39 69
REMARK SMILES IDX 40 70 48 71 41 72 42 73 46 74 49 75 43 76 44 77 47 78 45 79
REMARK SMILES IDX 71 80 72 81 80 82 73 83 74 84 78 85 81 86 75 87 76 88 79 89
REMARK SMILES IDX 77 90 56 91 57 92 65 93 58 94 59 95 63 96 66 97 60 98 61 99
REMARK SMILES IDX 64 100 62 101
REMARK H PARENT 22 6 1 25 1 26 27 35 86 54 54 65
REMARK Flexibility Score: inf
ROOT
ATOM      1  C   UNL A   1      32.712  28.708  24.686  1.00  0.00     0.023 C 
ENDROOT
BRANCH   1   2
ATOM      2  C   UNL A   1      31.899  27.551  24.107  1.00  0.00     0.116 C 
BRANCH   2   3
ATOM      3  N   UNL A   1      31.037  26.933  25.100  1.00  0.00    -0.352 N 
ATOM      4  C   UNL A   1      30.974  25.747  25.753  1.00  0.00     0.251 C 
ATOM      5  O   UNL A   1      30.039  25.635  26.551  1.00  0.00    -0.270 OA
ATOM      6  H   UNL A   1      30.305  27.534  25.370  1.00  0.00     0.163 HD
BRANCH   4   7
ATOM      7  C   UNL A   1      31.927  24.612  25.572  1.00  0.00     0.067 C 
ATOM      8  C   UNL A   1      34.655  21.413  25.294  1.00  0.00     0.026 A 
ATOM      9  C   UNL A   1      36.023  21.676  25.451  1.00  0.00     0.033 A 
ATOM     10  C   UNL A   1      33.751  22.481  25.464  1.00  0.00     0.135 A 
ATOM     11  C   UNL A   1      36.461  22.965  25.764  1.00  0.00     0.042 A 
ATOM     12  C   UNL A   1      34.188  23.774  25.771  1.00  0.00     0.019 A 
ATOM     13  O   UNL A   1      32.413  22.194  25.382  1.00  0.00    -0.475 OA
ATOM     14  Cl  UNL A   1      38.146  23.265  25.957  1.00  0.00    -0.084 Cl
ATOM     15  C   UNL A   1      35.554  24.014  25.924  1.00  0.00     0.032 A 
ATOM     16  C   UNL A   1      33.200  24.836  25.952  1.00  0.00     0.025 C 
ATOM     17  C   UNL A   1      31.553  23.285  24.978  1.00  0.00     0.314 C 
BRANCH   8  18
ATOM     18  C   UNL A   1      34.177  20.065  24.946  1.00  0.00    -0.014 A 
ATOM     19  C   UNL A   1      33.253  17.432  24.458  1.00  0.00     0.031 A 
ATOM     20  C   UNL A   1      32.358  18.449  24.789  1.00  0.00     0.026 A 
ATOM     21  C   UNL A   1      34.613  17.738  24.385  1.00  0.00     0.026 A 
ATOM     22  C   UNL A   1      32.809  19.752  25.015  1.00  0.00     0.011 A 
ATOM     23  C   UNL A   1      35.071  19.041  24.613  1.00  0.00     0.011 A 
BRANCH  19  24
ATOM     24  N   UNL A   1      32.815  16.124  24.333  1.00  0.00    -0.399 N 
ATOM     25  H   UNL A   1      33.318  15.488  23.774  1.00  0.00     0.156 HD
ATOM     26  H   UNL A   1      32.001  15.831  24.803  1.00  0.00     0.156 HD
ENDBRANCH  19  24
ENDBRANCH   8  18
BRANCH  17  27
ATOM     27  C   UNL A   1      31.449  23.323  23.441  1.00  0.00     0.429 C 
ATOM     28  F   UNL A   1      31.688  22.095  22.917  1.00  0.00    -0.167 F 
ATOM     29  F   UNL A   1      30.214  23.686  23.016  1.00  0.00    -0.167 F 
ATOM     30  F   UNL A   1      32.327  24.180  22.876  1.00  0.00    -0.167 F 
ENDBRANCH  17  27
ENDBRANCH   4   7
ENDBRANCH   2   3
ENDBRANCH   1   2
BRANCH   1  31
ATOM     31  C   UNL A   1      31.875  29.777  25.392  1.00  0.00     0.023 C 
BRANCH  31  32
ATOM     32  C   UNL A   1      32.407  30.239  26.748  1.00  0.00     0.116 C 
BRANCH  32  33
ATOM     33  N   UNL A   1      32.266  31.666  27.001  1.00  0.00    -0.352 N 
ATOM     34  C   UNL A   1      33.204  32.523  27.534  1.00  0.00     0.251 C 
ATOM     35  H   UNL A   1      31.399  32.066  26.763  1.00  0.00     0.163 HD
ATOM     36  O   UNL A   1      32.930  33.695  27.766  1.00  0.00    -0.269 OA
BRANCH  34  37
ATOM     37  C   UNL A   1      34.534  31.984  27.884  1.00  0.00     0.039 A 
ATOM     38  C   UNL A   1      34.676  30.638  28.225  1.00  0.00     0.014 A 
ATOM     39  C   UNL A   1      35.620  32.858  27.971  1.00  0.00     0.014 A 
ATOM     40  C   UNL A   1      35.851  30.210  28.830  1.00  0.00     0.010 A 
ATOM     41  C   UNL A   1      36.828  32.404  28.508  1.00  0.00     0.010 A 
ATOM     42  C   UNL A   1      36.929  31.095  29.002  1.00  0.00    -0.014 A 
BRANCH  42  43
ATOM     43  C   UNL A   1      38.130  30.632  29.744  1.00  0.00     0.031 A 
ATOM     44  C   UNL A   1      38.337  31.022  31.183  1.00  0.00     0.074 A 
ATOM     45  C   UNL A   1      38.985  29.782  29.146  1.00  0.00     0.049 A 
ATOM     46  N   UNL A   1      39.293  30.666  32.005  1.00  0.00    -0.248 NA
ATOM     47  C   UNL A   1      37.345  31.930  31.782  1.00  0.00     0.031 C 
ATOM     48  C   UNL A   1      38.876  29.317  27.763  1.00  0.00     0.029 A 
ATOM     49  N   UNL A   1      40.087  29.127  29.633  1.00  0.00    -0.354 N 
ATOM     50  C   UNL A   1      39.030  31.318  33.203  1.00  0.00     0.074 A 
ATOM     51  C   UNL A   1      37.837  32.110  33.000  1.00  0.00     0.031 C 
ATOM     52  C   UNL A   1      39.830  28.403  27.531  1.00  0.00     0.029 A 
ATOM     53  C   UNL A   1      40.649  28.259  28.731  1.00  0.00     0.049 A 
ATOM     54  H   UNL A   1      40.441  29.267  30.541  1.00  0.00     0.167 HD
ATOM     55  C   UNL A   1      39.714  31.249  34.370  1.00  0.00     0.037 A 
ATOM     56  C   UNL A   1      41.709  27.437  28.855  1.00  0.00     0.037 A 
ATOM     57  C   UNL A   1      40.879  30.432  34.583  1.00  0.00     0.049 A 
ATOM     58  C   UNL A   1      42.465  27.403  30.152  1.00  0.00     0.074 A 
ATOM     59  C   UNL A   1      41.625  30.280  35.739  1.00  0.00     0.029 A 
ATOM     60  N   UNL A   1      41.461  29.622  33.621  1.00  0.00    -0.354 N 
ATOM     61  N   UNL A   1      42.209  28.032  31.272  1.00  0.00    -0.248 NA
ATOM     62  C   UNL A   1      43.667  26.559  30.195  1.00  0.00     0.031 C 
ATOM     63  C   UNL A   1      42.678  29.402  35.467  1.00  0.00     0.029 A 
ATOM     64  C   UNL A   1      42.569  28.981  34.152  1.00  0.00     0.049 A 
ATOM     65  H   UNL A   1      41.136  29.518  32.697  1.00  0.00     0.167 HD
ATOM     66  C   UNL A   1      43.215  27.664  32.153  1.00  0.00     0.074 A 
ATOM     67  C   UNL A   1      44.072  26.735  31.446  1.00  0.00     0.031 C 
ATOM     68  C   UNL A   1      43.414  28.068  33.430  1.00  0.00     0.037 A 
BRANCH  55  69
ATOM     69  C   UNL A   1      39.227  32.081  35.518  1.00  0.00     0.064 A 
ATOM     70  C   UNL A   1      38.417  31.537  36.526  1.00  0.00     0.173 A 
ATOM     71  C   UNL A   1      39.637  33.416  35.652  1.00  0.00     0.173 A 
ATOM     72  F   UNL A   1      37.990  30.269  36.436  1.00  0.00    -0.203 F 
ATOM     73  C   UNL A   1      38.030  32.303  37.622  1.00  0.00     0.198 A 
ATOM     74  C   UNL A   1      39.266  34.173  36.760  1.00  0.00     0.198 A 
ATOM     75  F   UNL A   1      40.416  33.981  34.716  1.00  0.00    -0.203 F 
ATOM     76  F   UNL A   1      37.237  31.771  38.562  1.00  0.00    -0.200 F 
ATOM     77  C   UNL A   1      38.461  33.617  37.743  1.00  0.00     0.200 A 
ATOM     78  F   UNL A   1      39.690  35.438  36.880  1.00  0.00    -0.200 F 
ATOM     79  F   UNL A   1      38.099  34.346  38.806  1.00  0.00    -0.200 F 
ENDBRANCH  55  69
BRANCH  56  80
ATOM     80  C   UNL A   1      42.102  26.574  27.713  1.00  0.00     0.064 A 
ATOM     81  C   UNL A   1      43.093  26.984  26.813  1.00  0.00     0.173 A 
ATOM     82  C   UNL A   1      41.521  25.312  27.521  1.00  0.00     0.173 A 
ATOM     83  F   UNL A   1      43.661  28.191  26.946  1.00  0.00    -0.203 F 
ATOM     84  C   UNL A   1      43.489  26.163  25.760  1.00  0.00     0.198 A 
ATOM     85  C   UNL A   1      41.935  24.482  26.484  1.00  0.00     0.198 A 
ATOM     86  F   UNL A   1      40.570  24.876  28.360  1.00  0.00    -0.203 F 
ATOM     87  F   UNL A   1      44.423  26.586  24.898  1.00  0.00    -0.200 F 
ATOM     88  C   UNL A   1      42.917  24.909  25.602  1.00  0.00     0.200 A 
ATOM     89  F   UNL A   1      41.391  23.266  26.344  1.00  0.00    -0.200 F 
ATOM     90  F   UNL A   1      43.310  24.113  24.599  1.00  0.00    -0.200 F 
ENDBRANCH  56  80
BRANCH  68  91
ATOM     91  C   UNL A   1      44.610  27.518  34.146  1.00  0.00     0.064 A 
ATOM     92  C   UNL A   1      44.546  26.295  34.828  1.00  0.00     0.173 A 
ATOM     93  C   UNL A   1      45.842  28.184  34.096  1.00  0.00     0.173 A 
ATOM     94  F   UNL A   1      43.383  25.630  34.912  1.00  0.00    -0.203 F 
ATOM     95  C   UNL A   1      45.674  25.761  35.443  1.00  0.00     0.198 A 
ATOM     96  C   UNL A   1      46.974  27.637  34.695  1.00  0.00     0.198 A 
ATOM     97  F   UNL A   1      45.954  29.354  33.450  1.00  0.00    -0.203 F 
ATOM     98  F   UNL A   1      45.585  24.603  36.112  1.00  0.00    -0.200 F 
ATOM     99  C   UNL A   1      46.888  26.428  35.370  1.00  0.00     0.200 A 
ATOM    100  F   UNL A   1      48.149  28.276  34.615  1.00  0.00    -0.200 F 
ATOM    101  F   UNL A   1      47.976  25.907  35.953  1.00  0.00    -0.200 F 
ENDBRANCH  68  91
ENDBRANCH  42  43
ENDBRANCH  34  37
ENDBRANCH  32  33
ENDBRANCH  31  32
ENDBRANCH   1  31
TORSDOF 14
ENDMDL
MODEL 2
REMARK VINA RESULT:     -14.3      0.203      1.109
REMARK SMILES Nc1ccc(-c2cc(Cl)cc3c2O[C@H](C(F)(F)F)C(C(=O)NCCCCNC(=O)c2ccc(-c4c5nc(c(-c6c(F)c(F)c(F)c(F)c6F)c6ccc([nH]6)c(-c6c(F)c(F)c(F)c(F)c6F)c6nc(c(-c7c(F)c(F)c(F)c(F)c7F)c7ccc4[nH]7)C=C6)C=C5)cc2)=C3)cc1
REMARK SMILES IDX 24 1 23 2 22 3 20 4 21 5 19 7 6 8 7 9 12 10 8 11 11 12 13 13
REMARK SMILES IDX 9 14 10 15 93 16 14 17 5 18 2 19 3 20 95 21 4 22 94 23 1 24
REMARK SMILES IDX 15 27 16 28 17 29 18 30 25 31 26 32 27 33 28 34 29 36 30 37
REMARK SMILES IDX 31 38 92 39 32 40 91 41 33 42 34 43 35 44 85 45 36 46 90 47
REMARK SMILES IDX 84 48 86 49 37 50 89 51 83 52 82 53 38 55 70 56 50 57 69 58
REMARK SMILES IDX 51 59 54 60 68 61 87 62 52 63 53 64 67 66 88 67 55 68 39 69
REMARK SMILES IDX 40 70 48 71 41 72 42 73 46 74 49 75 43 76 44 77 47 78 45 79
REMARK SMILES IDX 71 80 72 81 80 82 73 83 74 84 78 85 81 86 75 87 76 88 79 89
REMARK SMILES IDX 77 90 56 91 57 92 65 93 58 94 59 95 63 96 66 97 60 98 61 99
REMARK SMILES IDX 64 100 62 101
REMARK H PARENT 22 6 1 25 1 26 27 35 86 54 54 65
REMARK Flexibility Score: inf
ROOT
ATOM      1  C   UNL A   1      32.590  28.836  24.401  1.00  0.00     0.023 C 
ENDROOT
BRANCH   1   2
ATOM      2  C   UNL A   1      31.934  27.533  23.948  1.00  0.00     0.116 C 
BRANCH   2   3
ATOM      3  N   UNL A   1      31.094  26.952  24.982  1.00  0.00    -0.352 N 
ATOM      4  C   UNL A   1      31.048  25.792  25.680  1.00  0.00     0.251 C 
ATOM      5  O   UNL A   1      30.129  25.709  26.501  1.00  0.00    -0.270 OA
ATOM      6  H   UNL A   1      30.367  27.561  25.243  1.00  0.00     0.163 HD
BRANCH   4   7
ATOM      7  C   UNL A   1      32.000  24.653  25.524  1.00  0.00     0.067 C 
ATOM      8  C   UNL A   1      34.727  21.447  25.315  1.00  0.00     0.026 A 
ATOM      9  C   UNL A   1      36.094  21.713  25.466  1.00  0.00     0.033 A 
ATOM     10  C   UNL A   1      33.823  22.519  25.462  1.00  0.00     0.135 A 
ATOM     11  C   UNL A   1      36.534  23.008  25.751  1.00  0.00     0.042 A 
ATOM     12  C   UNL A   1      34.261  23.818  25.741  1.00  0.00     0.019 A 
ATOM     13  O   UNL A   1      32.484  22.231  25.387  1.00  0.00    -0.475 OA
ATOM     14  Cl  UNL A   1      38.219  23.311  25.937  1.00  0.00    -0.084 Cl
ATOM     15  C   UNL A   1      35.627  24.061  25.888  1.00  0.00     0.032 A 
ATOM     16  C   UNL A   1      33.273  24.885  25.898  1.00  0.00     0.025 C 
ATOM     17  C   UNL A   1      31.625  23.314  24.959  1.00  0.00     0.314 C 
BRANCH   8  18
ATOM     18  C   UNL A   1      34.247  20.092  24.997  1.00  0.00    -0.014 A 
ATOM     19  C   UNL A   1      33.331  17.446  24.566  1.00  0.00     0.031 A 
ATOM     20  C   UNL A   1      32.442  18.454  24.935  1.00  0.00     0.026 A 
ATOM     21  C   UNL A   1      34.683  17.767  24.426  1.00  0.00     0.026 A 
ATOM     22  C   UNL A   1      32.889  19.764  25.133  1.00  0.00     0.011 A 
ATOM     23  C   UNL A   1      35.137  19.077  24.626  1.00  0.00     0.011 A 
BRANCH  19  24
ATOM     24  N   UNL A   1      32.903  16.133  24.468  1.00  0.00    -0.399 N 
ATOM     25  H   UNL A   1      32.049  15.925  24.023  1.00  0.00     0.156 HD
ATOM     26  H   UNL A   1      33.452  15.407  24.843  1.00  0.00     0.156 HD
ENDBRANCH  19  24
ENDBRANCH   8  18
BRANCH  17  27
ATOM     27  C   UNL A   1      31.521  23.318  23.422  1.00  0.00     0.429 C 
ATOM     28  F   UNL A   1      31.794  22.086  22.922  1.00  0.00    -0.167 F 
ATOM     29  F   UNL A   1      30.277  23.638  22.990  1.00  0.00    -0.167 F 
ATOM     30  F   UNL A   1      32.375  24.187  22.839  1.00  0.00    -0.167 F 
ENDBRANCH  17  27
ENDBRANCH   4   7
ENDBRANCH   2   3
ENDBRANCH   1   2
BRANCH   1  31
ATOM     31  C   UNL A   1      31.742  29.668  25.367  1.00  0.00     0.023 C 
BRANCH  31  32
ATOM     32  C   UNL A   1      32.469  30.168  26.615  1.00  0.00     0.116 C 
BRANCH  32  33
ATOM     33  N   UNL A   1      32.296  31.587  26.889  1.00  0.00    -0.352 N 
ATOM     34  C   UNL A   1      33.205  32.451  27.461  1.00  0.00     0.251 C 
ATOM     35  H   UNL A   1      31.428  31.977  26.637  1.00  0.00     0.163 HD
ATOM     36  O   UNL A   1      32.905  33.614  27.707  1.00  0.00    -0.269 OA
BRANCH  34  37
ATOM     37  C   UNL A   1      34.535  31.928  27.835  1.00  0.00     0.039 A 
ATOM     38  C   UNL A   1      34.700  30.572  28.119  1.00  0.00     0.014 A 
ATOM     39  C   UNL A   1      35.594  32.823  28.001  1.00  0.00     0.014 A 
ATOM     40  C   UNL A   1      35.863  30.145  28.747  1.00  0.00     0.010 A 
ATOM     41  C   UNL A   1      36.793  32.375  28.561  1.00  0.00     0.010 A 
ATOM     42  C   UNL A   1      36.911  31.047  28.999  1.00  0.00    -0.014 A 
BRANCH  42  43
ATOM     43  C   UNL A   1      38.096  30.579  29.763  1.00  0.00     0.031 A 
ATOM     44  C   UNL A   1      38.262  30.943  31.214  1.00  0.00     0.074 A 
ATOM     45  C   UNL A   1      38.974  29.749  29.171  1.00  0.00     0.049 A 
ATOM     46  N   UNL A   1      39.200  30.578  32.054  1.00  0.00    -0.248 NA
ATOM     47  C   UNL A   1      37.246  31.830  31.805  1.00  0.00     0.031 C 
ATOM     48  C   UNL A   1      38.905  29.311  27.776  1.00  0.00     0.029 A 
ATOM     49  N   UNL A   1      40.069  29.094  29.673  1.00  0.00    -0.354 N 
ATOM     50  C   UNL A   1      38.899  31.203  33.257  1.00  0.00     0.074 A 
ATOM     51  C   UNL A   1      37.705  31.990  33.039  1.00  0.00     0.031 C 
ATOM     52  C   UNL A   1      39.873  28.410  27.552  1.00  0.00     0.029 A 
ATOM     53  C   UNL A   1      40.662  28.248  28.770  1.00  0.00     0.049 A 
ATOM     54  H   UNL A   1      40.397  29.218  30.593  1.00  0.00     0.167 HD
ATOM     55  C   UNL A   1      39.553  31.117  34.440  1.00  0.00     0.037 A 
ATOM     56  C   UNL A   1      41.725  27.434  28.905  1.00  0.00     0.037 A 
ATOM     57  C   UNL A   1      40.719  30.306  34.668  1.00  0.00     0.049 A 
ATOM     58  C   UNL A   1      42.448  27.380  30.220  1.00  0.00     0.074 A 
ATOM     59  C   UNL A   1      41.436  30.137  35.840  1.00  0.00     0.029 A 
ATOM     60  N   UNL A   1      41.334  29.520  33.705  1.00  0.00    -0.354 N 
ATOM     61  N   UNL A   1      42.157  27.985  31.346  1.00  0.00    -0.248 NA
ATOM     62  C   UNL A   1      43.656  26.545  30.278  1.00  0.00     0.031 C 
ATOM     63  C   UNL A   1      42.504  29.273  35.578  1.00  0.00     0.029 A 
ATOM     64  C   UNL A   1      42.433  28.879  34.252  1.00  0.00     0.049 A 
ATOM     65  H   UNL A   1      41.034  29.432  32.771  1.00  0.00     0.167 HD
ATOM     66  C   UNL A   1      43.143  27.608  32.245  1.00  0.00     0.074 A 
ATOM     67  C   UNL A   1      44.027  26.700  31.543  1.00  0.00     0.031 C 
ATOM     68  C   UNL A   1      43.305  27.987  33.535  1.00  0.00     0.037 A 
BRANCH  55  69
ATOM     69  C   UNL A   1      39.028  31.922  35.591  1.00  0.00     0.064 A 
ATOM     70  C   UNL A   1      38.201  31.350  36.569  1.00  0.00     0.173 A 
ATOM     71  C   UNL A   1      39.420  33.259  35.760  1.00  0.00     0.173 A 
ATOM     72  F   UNL A   1      37.790  30.079  36.445  1.00  0.00    -0.203 F 
ATOM     73  C   UNL A   1      37.778  32.091  37.669  1.00  0.00     0.198 A 
ATOM     74  C   UNL A   1      39.013  33.990  36.872  1.00  0.00     0.198 A 
ATOM     75  F   UNL A   1      40.215  33.850  34.855  1.00  0.00    -0.203 F 
ATOM     76  F   UNL A   1      36.969  31.532  38.580  1.00  0.00    -0.200 F 
ATOM     77  C   UNL A   1      38.191  33.406  37.825  1.00  0.00     0.200 A 
ATOM     78  F   UNL A   1      39.420  35.257  37.026  1.00  0.00    -0.200 F 
ATOM     79  F   UNL A   1      37.794  34.112  38.893  1.00  0.00    -0.200 F 
ENDBRANCH  55  69
BRANCH  56  80
ATOM     80  C   UNL A   1      42.156  26.597  27.757  1.00  0.00     0.064 A 
ATOM     81  C   UNL A   1      43.165  27.035  26.890  1.00  0.00     0.173 A 
ATOM     82  C   UNL A   1      41.594  25.334  27.526  1.00  0.00     0.173 A 
ATOM     83  F   UNL A   1      43.717  28.245  27.061  1.00  0.00    -0.203 F 
ATOM     84  C   UNL A   1      43.596  26.238  25.832  1.00  0.00     0.198 A 
ATOM     85  C   UNL A   1      42.043  24.528  26.484  1.00  0.00     0.198 A 
ATOM     86  F   UNL A   1      40.626  24.872  28.332  1.00  0.00    -0.203 F 
ATOM     87  F   UNL A   1      44.547  26.687  25.002  1.00  0.00    -0.200 F 
ATOM     88  C   UNL A   1      43.042  24.982  25.636  1.00  0.00     0.200 A 
ATOM     89  F   UNL A   1      41.515  23.309  26.307  1.00  0.00    -0.200 F 
ATOM     90  F   UNL A   1      43.468  24.210  24.627  1.00  0.00    -0.200 F 
ENDBRANCH  56  80
BRANCH  68  91
ATOM     91  C   UNL A   1      44.487  27.433  34.271  1.00  0.00     0.064 A 
ATOM     92  C   UNL A   1      45.710  28.118  34.296  1.00  0.00     0.173 A 
ATOM     93  C   UNL A   1      44.378  26.247  35.009  1.00  0.00     0.173 A 
ATOM     94  F   UNL A   1      45.863  29.250  33.593  1.00  0.00    -0.203 F 
ATOM     95  C   UNL A   1      46.787  27.629  35.028  1.00  0.00     0.198 A 
ATOM     96  C   UNL A   1      45.451  25.770  35.757  1.00  0.00     0.198 A 
ATOM     97  F   UNL A   1      43.225  25.561  35.020  1.00  0.00    -0.203 F 
ATOM     98  F   UNL A   1      47.955  28.284  35.018  1.00  0.00    -0.200 F 
ATOM     99  C   UNL A   1      46.655  26.460  35.764  1.00  0.00     0.200 A 
ATOM    100  F   UNL A   1      45.319  24.648  36.476  1.00  0.00    -0.200 F 
ATOM    101  F   UNL A   1      47.689  25.996  36.478  1.00  0.00    -0.200 F 
ENDBRANCH  68  91
ENDBRANCH  42  43
ENDBRANCH  34  37
ENDBRANCH  32  33
ENDBRANCH  31  32
ENDBRANCH   1  31
TORSDOF 14
ENDMDL
MODEL 3
REMARK VINA RESULT:     -14.1      0.421      7.272
REMARK SMILES Nc1ccc(-c2cc(Cl)cc3c2O[C@H](C(F)(F)F)C(C(=O)NCCCCNC(=O)c2ccc(-c4c5nc(c(-c6c(F)c(F)c(F)c(F)c6F)c6ccc([nH]6)c(-c6c(F)c(F)c(F)c(F)c6F)c6nc(c(-c7c(F)c(F)c(F)c(F)c7F)c7ccc4[nH]7)C=C6)C=C5)cc2)=C3)cc1
REMARK SMILES IDX 24 1 23 2 22 3 20 4 21 5 19 7 6 8 7 9 12 10 8 11 11 12 13 13
REMARK SMILES IDX 9 14 10 15 93 16 14 17 5 18 2 19 3 20 95 21 4 22 94 23 1 24
REMARK SMILES IDX 15 27 16 28 17 29 18 30 25 31 26 32 27 33 28 34 29 36 30 37
REMARK SMILES IDX 31 38 92 39 32 40 91 41 33 42 34 43 35 44 85 45 36 46 90 47
REMARK SMILES IDX 84 48 86 49 37 50 89 51 83 52 82 53 38 55 70 56 50 57 69 58
REMARK SMILES IDX 51 59 54 60 68 61 87 62 52 63 53 64 67 66 88 67 55 68 39 69
REMARK SMILES IDX 40 70 48 71 41 72 42 73 46 74 49 75 43 76 44 77 47 78 45 79
REMARK SMILES IDX 71 80 72 81 80 82 73 83 74 84 78 85 81 86 75 87 76 88 79 89
REMARK SMILES IDX 77 90 56 91 57 92 65 93 58 94 59 95 63 96 66 97 60 98 61 99
REMARK SMILES IDX 64 100 62 101
REMARK H PARENT 22 6 1 25 1 26 27 35 86 54 54 65
REMARK Flexibility Score: inf
ROOT
ATOM      1  C   UNL A   1      31.967  28.816  23.890  1.00  0.00     0.023 C 
ENDROOT
BRANCH   1   2
ATOM      2  C   UNL A   1      31.407  27.416  23.647  1.00  0.00     0.116 C 
BRANCH   2   3
ATOM      3  N   UNL A   1      30.681  26.906  24.798  1.00  0.00    -0.352 N 
ATOM      4  C   UNL A   1      30.753  25.822  25.609  1.00  0.00     0.251 C 
ATOM      5  O   UNL A   1      29.906  25.781  26.507  1.00  0.00    -0.270 OA
ATOM      6  H   UNL A   1      29.944  27.504  25.057  1.00  0.00     0.163 HD
BRANCH   4   7
ATOM      7  C   UNL A   1      31.751  24.719  25.489  1.00  0.00     0.067 C 
ATOM      8  C   UNL A   1      34.606  21.621  25.380  1.00  0.00     0.026 A 
ATOM      9  C   UNL A   1      35.961  21.946  25.531  1.00  0.00     0.033 A 
ATOM     10  C   UNL A   1      33.659  22.660  25.493  1.00  0.00     0.135 A 
ATOM     11  C   UNL A   1      36.345  23.265  25.784  1.00  0.00     0.042 A 
ATOM     12  C   UNL A   1      34.042  23.983  25.740  1.00  0.00     0.019 A 
ATOM     13  O   UNL A   1      32.333  22.316  25.419  1.00  0.00    -0.475 OA
ATOM     14  Cl  UNL A   1      38.016  23.641  25.971  1.00  0.00    -0.084 Cl
ATOM     15  C   UNL A   1      35.396  24.284  25.888  1.00  0.00     0.032 A 
ATOM     16  C   UNL A   1      33.011  25.012  25.864  1.00  0.00     0.025 C 
ATOM     17  C   UNL A   1      31.434  23.351  24.957  1.00  0.00     0.314 C 
BRANCH   8  18
ATOM     18  C   UNL A   1      34.183  20.240  25.096  1.00  0.00    -0.014 A 
ATOM     19  C   UNL A   1      33.373  17.625  24.368  1.00  0.00     0.031 A 
ATOM     20  C   UNL A   1      34.720  17.983  24.347  1.00  0.00     0.026 A 
ATOM     21  C   UNL A   1      32.433  18.587  24.744  1.00  0.00     0.026 A 
ATOM     22  C   UNL A   1      35.124  19.268  24.721  1.00  0.00     0.011 A 
ATOM     23  C   UNL A   1      32.832  19.877  25.116  1.00  0.00     0.011 A 
BRANCH  19  24
ATOM     24  N   UNL A   1      32.968  16.385  23.903  1.00  0.00    -0.399 N 
ATOM     25  H   UNL A   1      32.096  16.288  23.456  1.00  0.00     0.156 HD
ATOM     26  H   UNL A   1      33.552  15.602  24.020  1.00  0.00     0.156 HD
ENDBRANCH  19  24
ENDBRANCH   8  18
BRANCH  17  27
ATOM     27  C   UNL A   1      31.340  23.311  23.420  1.00  0.00     0.429 C 
ATOM     28  F   UNL A   1      32.266  24.130  22.863  1.00  0.00    -0.167 F 
ATOM     29  F   UNL A   1      31.575  22.073  22.921  1.00  0.00    -0.167 F 
ATOM     30  F   UNL A   1      30.130  23.697  22.958  1.00  0.00    -0.167 F 
ENDBRANCH  17  27
ENDBRANCH   4   7
ENDBRANCH   2   3
ENDBRANCH   1   2
BRANCH   1  31
ATOM     31  C   UNL A   1      31.437  29.498  25.155  1.00  0.00     0.023 C 
BRANCH  31  32
ATOM     32  C   UNL A   1      32.504  30.048  26.100  1.00  0.00     0.116 C 
BRANCH  32  33
ATOM     33  N   UNL A   1      32.277  31.418  26.538  1.00  0.00    -0.352 N 
ATOM     34  C   UNL A   1      33.104  32.201  27.314  1.00  0.00     0.251 C 
ATOM     35  H   UNL A   1      31.434  31.834  26.246  1.00  0.00     0.163 HD
ATOM     36  O   UNL A   1      32.758  33.320  27.677  1.00  0.00    -0.269 OA
BRANCH  34  37
ATOM     37  C   UNL A   1      34.395  31.639  27.759  1.00  0.00     0.039 A 
ATOM     38  C   UNL A   1      34.503  30.278  28.048  1.00  0.00     0.014 A 
ATOM     39  C   UNL A   1      35.469  32.501  27.985  1.00  0.00     0.014 A 
ATOM     40  C   UNL A   1      35.617  29.816  28.737  1.00  0.00     0.010 A 
ATOM     41  C   UNL A   1      36.622  32.017  28.609  1.00  0.00     0.010 A 
ATOM     42  C   UNL A   1      36.677  30.686  29.048  1.00  0.00    -0.014 A 
BRANCH  42  43
ATOM     43  C   UNL A   1      37.804  30.181  29.874  1.00  0.00     0.031 A 
ATOM     44  C   UNL A   1      38.852  29.284  29.271  1.00  0.00     0.074 A 
ATOM     45  C   UNL A   1      37.932  30.609  31.143  1.00  0.00     0.049 A 
ATOM     46  N   UNL A   1      39.935  28.795  29.822  1.00  0.00    -0.248 NA
ATOM     47  C   UNL A   1      38.665  28.882  27.867  1.00  0.00     0.031 C 
ATOM     48  C   UNL A   1      36.989  31.494  31.829  1.00  0.00     0.029 A 
ATOM     49  N   UNL A   1      38.920  30.392  32.069  1.00  0.00    -0.354 N 
ATOM     50  C   UNL A   1      40.543  28.017  28.845  1.00  0.00     0.074 A 
ATOM     51  C   UNL A   1      39.700  28.078  27.671  1.00  0.00     0.031 C 
ATOM     52  C   UNL A   1      37.477  31.799  33.041  1.00  0.00     0.029 A 
ATOM     53  C   UNL A   1      38.737  31.087  33.238  1.00  0.00     0.049 A 
ATOM     54  H   UNL A   1      39.686  29.795  31.910  1.00  0.00     0.167 HD
ATOM     55  C   UNL A   1      41.706  27.327  28.918  1.00  0.00     0.037 A 
ATOM     56  C   UNL A   1      39.498  31.145  34.347  1.00  0.00     0.037 A 
ATOM     57  C   UNL A   1      42.563  27.296  30.074  1.00  0.00     0.049 A 
ATOM     58  C   UNL A   1      40.767  30.346  34.410  1.00  0.00     0.074 A 
ATOM     59  C   UNL A   1      43.773  26.643  30.232  1.00  0.00     0.029 A 
ATOM     60  N   UNL A   1      42.304  27.955  31.266  1.00  0.00    -0.354 N 
ATOM     61  N   UNL A   1      41.323  29.607  33.482  1.00  0.00    -0.248 NA
ATOM     62  C   UNL A   1      41.505  30.375  35.680  1.00  0.00     0.031 C 
ATOM     63  C   UNL A   1      44.232  26.881  31.531  1.00  0.00     0.029 A 
ATOM     64  C   UNL A   1      43.324  27.709  32.170  1.00  0.00     0.049 A 
ATOM     65  H   UNL A   1      41.514  28.515  31.442  1.00  0.00     0.167 HD
ATOM     66  C   UNL A   1      42.473  29.082  34.052  1.00  0.00     0.074 A 
ATOM     67  C   UNL A   1      42.551  29.608  35.399  1.00  0.00     0.031 C 
ATOM     68  C   UNL A   1      43.378  28.234  33.510  1.00  0.00     0.037 A 
BRANCH  55  69
ATOM     69  C   UNL A   1      42.130  26.538  27.715  1.00  0.00     0.064 A 
ATOM     70  C   UNL A   1      43.078  27.036  26.810  1.00  0.00     0.173 A 
ATOM     71  C   UNL A   1      41.639  25.240  27.508  1.00  0.00     0.173 A 
ATOM     72  F   UNL A   1      43.567  28.276  26.959  1.00  0.00    -0.203 F 
ATOM     73  C   UNL A   1      43.514  26.265  25.736  1.00  0.00     0.198 A 
ATOM     74  C   UNL A   1      42.093  24.464  26.445  1.00  0.00     0.198 A 
ATOM     75  F   UNL A   1      40.734  24.717  28.350  1.00  0.00    -0.203 F 
ATOM     76  F   UNL A   1      44.403  26.769  24.869  1.00  0.00    -0.200 F 
ATOM     77  C   UNL A   1      43.028  24.977  25.559  1.00  0.00     0.200 A 
ATOM     78  F   UNL A   1      41.630  23.217  26.282  1.00  0.00    -0.200 F 
ATOM     79  F   UNL A   1      43.460  24.232  24.533  1.00  0.00    -0.200 F 
ENDBRANCH  55  69
BRANCH  56  80
ATOM     80  C   UNL A   1      39.073  32.004  35.481  1.00  0.00     0.064 A 
ATOM     81  C   UNL A   1      38.334  31.472  36.545  1.00  0.00     0.173 A 
ATOM     82  C   UNL A   1      39.426  33.360  35.538  1.00  0.00     0.173 A 
ATOM     83  F   UNL A   1      37.958  30.186  36.523  1.00  0.00    -0.203 F 
ATOM     84  C   UNL A   1      37.964  32.266  37.627  1.00  0.00     0.198 A 
ATOM     85  C   UNL A   1      39.076  34.147  36.632  1.00  0.00     0.198 A 
ATOM     86  F   UNL A   1      40.135  33.912  34.542  1.00  0.00    -0.203 F 
ATOM     87  F   UNL A   1      37.238  31.742  38.624  1.00  0.00    -0.200 F 
ATOM     88  C   UNL A   1      38.343  33.600  37.674  1.00  0.00     0.200 A 
ATOM     89  F   UNL A   1      39.457  35.430  36.680  1.00  0.00    -0.200 F 
ATOM     90  F   UNL A   1      37.999  34.360  38.723  1.00  0.00    -0.200 F 
ENDBRANCH  56  80
BRANCH  68  91
ATOM     91  C   UNL A   1      44.526  27.808  34.373  1.00  0.00     0.064 A 
ATOM     92  C   UNL A   1      45.698  28.574  34.447  1.00  0.00     0.173 A 
ATOM     93  C   UNL A   1      44.429  26.667  35.181  1.00  0.00     0.173 A 
ATOM     94  F   UNL A   1      45.840  29.666  33.681  1.00  0.00    -0.203 F 
ATOM     95  C   UNL A   1      46.739  28.205  35.293  1.00  0.00     0.198 A 
ATOM     96  C   UNL A   1      45.464  26.312  36.042  1.00  0.00     0.198 A 
ATOM     97  F   UNL A   1      43.324  25.907  35.149  1.00  0.00    -0.203 F 
ATOM     98  F   UNL A   1      47.862  28.935  35.330  1.00  0.00    -0.200 F 
ATOM     99  C   UNL A   1      46.618  27.080  36.096  1.00  0.00     0.200 A 
ATOM    100  F   UNL A   1      45.342  25.231  36.825  1.00  0.00    -0.200 F 
ATOM    101  F   UNL A   1      47.616  26.733  36.920  1.00  0.00    -0.200 F 
ENDBRANCH  68  91
ENDBRANCH  42  43
ENDBRANCH  34  37
ENDBRANCH  32  33
ENDBRANCH  31  32
ENDBRANCH   1  31
TORSDOF 14
ENDMDL
