MODEL 1
REMARK VINA RESULT:     -12.8      0.000      0.000
REMARK SMILES O=C(CSc1ccc(NC(=O)c2cccc3ccccc23)cc1)NCCCCNC(=O)c1ccc(-c2c3nc(c(-c4c(F)c(F)c(F)c(F)c4F)c4ccc([nH]4)c(-c4c(F)c(F)c(F)c(F)c4F)c4nc(c(-c5c(F)c(F)c(F)c(F)c5F)c5ccc2[nH]5)C=C4)C=C3)cc1
REMARK SMILES IDX 25 1 24 2 1 3 2 4 3 6 4 7 5 8 6 9 23 10 7 11 22 12 8 13 9 14
REMARK SMILES IDX 10 15 11 17 12 18 13 19 21 20 14 21 16 22 20 23 15 24 17 25
REMARK SMILES IDX 19 26 18 27 26 28 27 29 28 30 29 31 30 32 31 34 32 35 33 36
REMARK SMILES IDX 94 37 34 38 93 39 35 40 36 41 37 42 87 43 38 44 92 45 86 46
REMARK SMILES IDX 88 47 39 48 91 49 85 50 84 51 40 53 72 54 52 55 71 56 53 57
REMARK SMILES IDX 56 58 70 59 89 60 54 61 55 62 69 64 90 65 57 66 41 67 42 68
REMARK SMILES IDX 50 69 43 70 44 71 48 72 51 73 45 74 46 75 49 76 47 77 73 78
REMARK SMILES IDX 74 79 82 80 75 81 76 82 80 83 83 84 77 85 78 86 81 87 79 88
REMARK SMILES IDX 58 89 59 90 67 91 60 92 61 93 65 94 68 95 62 96 63 97 66 98
REMARK SMILES IDX 64 99
REMARK H PARENT 24 5 9 16 29 33 88 52 56 63
REMARK Flexibility Score: inf
ROOT
ATOM      1  C   UNL A   1      34.749  32.434  28.073  1.00  0.00     0.116 C 
ENDROOT
BRANCH   1   2
ATOM      2  N   UNL A   1      33.575  31.720  27.610  1.00  0.00    -0.355 N 
ATOM      3  O   UNL A   1      34.598  29.683  27.350  1.00  0.00    -0.274 OA
ATOM      4  C   UNL A   1      33.585  30.375  27.298  1.00  0.00     0.230 C 
ATOM      5  H   UNL A   1      32.732  32.218  27.513  1.00  0.00     0.163 HD
BRANCH   4   6
ATOM      6  C   UNL A   1      32.269  29.828  26.762  1.00  0.00     0.174 C 
BRANCH   6   7
ATOM      7  S   UNL A   1      31.784  28.250  27.555  1.00  0.00    -0.116 SA
BRANCH   7   8
ATOM      8  C   UNL A   1      32.020  27.144  26.179  1.00  0.00     0.008 A 
ATOM      9  C   UNL A   1      30.932  26.583  25.506  1.00  0.00     0.017 A 
ATOM     10  C   UNL A   1      33.313  26.844  25.753  1.00  0.00     0.017 A 
ATOM     11  C   UNL A   1      31.130  25.813  24.354  1.00  0.00     0.027 A 
ATOM     12  C   UNL A   1      33.507  26.090  24.594  1.00  0.00     0.027 A 
ATOM     13  C   UNL A   1      32.412  25.643  23.843  1.00  0.00     0.041 A 
BRANCH  13  14
ATOM     14  N   UNL A   1      32.706  25.120  22.579  1.00  0.00    -0.322 N 
ATOM     15  C   UNL A   1      33.168  23.908  22.125  1.00  0.00     0.256 C 
ATOM     16  H   UNL A   1      32.548  25.764  21.853  1.00  0.00     0.170 HD
ATOM     17  O   UNL A   1      33.369  23.806  20.909  1.00  0.00    -0.269 OA
BRANCH  15  18
ATOM     18  C   UNL A   1      33.445  22.712  22.957  1.00  0.00     0.048 A 
ATOM     19  C   UNL A   1      32.341  21.846  23.074  1.00  0.00     0.014 A 
ATOM     20  C   UNL A   1      34.637  22.472  23.704  1.00  0.00    -0.006 A 
ATOM     21  C   UNL A   1      32.383  20.753  23.928  1.00  0.00     0.001 A 
ATOM     22  C   UNL A   1      34.654  21.341  24.565  1.00  0.00    -0.018 A 
ATOM     23  C   UNL A   1      35.819  23.254  23.657  1.00  0.00     0.009 A 
ATOM     24  C   UNL A   1      33.526  20.516  24.681  1.00  0.00     0.009 A 
ATOM     25  C   UNL A   1      35.805  21.026  25.305  1.00  0.00     0.009 A 
ATOM     26  C   UNL A   1      36.987  22.872  24.325  1.00  0.00     0.001 A 
ATOM     27  C   UNL A   1      36.977  21.763  25.159  1.00  0.00     0.001 A 
ENDBRANCH  15  18
ENDBRANCH  13  14
ENDBRANCH   7   8
ENDBRANCH   6   7
ENDBRANCH   4   6
ENDBRANCH   1   2
BRANCH   1  28
ATOM     28  C   UNL A   1      34.418  33.446  29.170  1.00  0.00     0.023 C 
BRANCH  28  29
ATOM     29  C   UNL A   1      33.305  34.440  28.825  1.00  0.00     0.023 C 
BRANCH  29  30
ATOM     30  C   UNL A   1      33.453  35.829  29.437  1.00  0.00     0.116 C 
BRANCH  30  31
ATOM     31  N   UNL A   1      32.532  36.068  30.538  1.00  0.00    -0.352 N 
ATOM     32  C   UNL A   1      32.612  35.672  31.852  1.00  0.00     0.251 C 
ATOM     33  H   UNL A   1      31.732  36.592  30.306  1.00  0.00     0.163 HD
ATOM     34  O   UNL A   1      31.662  35.853  32.604  1.00  0.00    -0.269 OA
BRANCH  32  35
ATOM     35  C   UNL A   1      33.829  34.995  32.360  1.00  0.00     0.039 A 
ATOM     36  C   UNL A   1      33.715  33.694  32.860  1.00  0.00     0.014 A 
ATOM     37  C   UNL A   1      35.073  35.630  32.353  1.00  0.00     0.014 A 
ATOM     38  C   UNL A   1      34.856  33.007  33.281  1.00  0.00     0.010 A 
ATOM     39  C   UNL A   1      36.220  34.917  32.698  1.00  0.00     0.010 A 
ATOM     40  C   UNL A   1      36.125  33.597  33.164  1.00  0.00    -0.014 A 
BRANCH  40  41
ATOM     41  C   UNL A   1      37.361  32.843  33.509  1.00  0.00     0.031 A 
ATOM     42  C   UNL A   1      38.103  33.137  34.784  1.00  0.00     0.074 A 
ATOM     43  C   UNL A   1      37.851  31.935  32.642  1.00  0.00     0.049 A 
ATOM     44  N   UNL A   1      39.229  32.632  35.224  1.00  0.00    -0.248 NA
ATOM     45  C   UNL A   1      37.517  34.153  35.671  1.00  0.00     0.031 C 
ATOM     46  C   UNL A   1      37.251  31.586  31.354  1.00  0.00     0.029 A 
ATOM     47  N   UNL A   1      38.974  31.145  32.708  1.00  0.00    -0.354 N 
ATOM     48  C   UNL A   1      39.490  33.275  36.426  1.00  0.00     0.074 A 
ATOM     49  C   UNL A   1      38.435  34.247  36.622  1.00  0.00     0.031 C 
ATOM     50  C   UNL A   1      37.993  30.636  30.765  1.00  0.00     0.029 A 
ATOM     51  C   UNL A   1      39.148  30.340  31.608  1.00  0.00     0.049 A 
ATOM     52  H   UNL A   1      39.595  31.155  33.472  1.00  0.00     0.167 HD
ATOM     53  C   UNL A   1      40.504  33.061  37.299  1.00  0.00     0.037 A 
ATOM     54  C   UNL A   1      40.131  29.470  31.308  1.00  0.00     0.037 A 
ATOM     55  C   UNL A   1      41.543  32.081  37.110  1.00  0.00     0.049 A 
ATOM     56  C   UNL A   1      41.260  29.271  32.283  1.00  0.00     0.074 A 
ATOM     57  C   UNL A   1      42.578  31.746  37.967  1.00  0.00     0.029 A 
ATOM     58  N   UNL A   1      41.683  31.283  35.984  1.00  0.00    -0.354 N 
ATOM     59  N   UNL A   1      41.456  29.832  33.452  1.00  0.00    -0.248 NA
ATOM     60  C   UNL A   1      42.306  28.312  31.898  1.00  0.00     0.031 C 
ATOM     61  C   UNL A   1      43.381  30.793  37.331  1.00  0.00     0.029 A 
ATOM     62  C   UNL A   1      42.808  30.482  36.109  1.00  0.00     0.049 A 
ATOM     63  H   UNL A   1      41.075  31.286  35.210  1.00  0.00     0.167 HD
ATOM     64  C   UNL A   1      42.622  29.270  33.955  1.00  0.00     0.074 A 
ATOM     65  C   UNL A   1      43.083  28.314  32.971  1.00  0.00     0.031 C 
ATOM     66  C   UNL A   1      43.253  29.525  35.127  1.00  0.00     0.037 A 
BRANCH  53  67
ATOM     67  C   UNL A   1      40.549  33.909  38.539  1.00  0.00     0.064 A 
ATOM     68  C   UNL A   1      39.856  33.550  39.706  1.00  0.00     0.173 A 
ATOM     69  C   UNL A   1      41.331  35.074  38.575  1.00  0.00     0.173 A 
ATOM     70  F   UNL A   1      39.086  32.451  39.723  1.00  0.00    -0.203 F 
ATOM     71  C   UNL A   1      39.917  34.343  40.850  1.00  0.00     0.198 A 
ATOM     72  C   UNL A   1      41.417  35.845  39.732  1.00  0.00     0.198 A 
ATOM     73  F   UNL A   1      42.021  35.461  37.492  1.00  0.00    -0.203 F 
ATOM     74  F   UNL A   1      39.203  34.008  41.933  1.00  0.00    -0.200 F 
ATOM     75  C   UNL A   1      40.704  35.484  40.865  1.00  0.00     0.200 A 
ATOM     76  F   UNL A   1      42.192  36.938  39.750  1.00  0.00    -0.200 F 
ATOM     77  F   UNL A   1      40.769  36.240  41.969  1.00  0.00    -0.200 F 
ENDBRANCH  53  67
BRANCH  54  78
ATOM     78  C   UNL A   1      40.085  28.704  30.033  1.00  0.00     0.064 A 
ATOM     79  C   UNL A   1      39.472  27.444  29.972  1.00  0.00     0.173 A 
ATOM     80  C   UNL A   1      40.665  29.203  28.857  1.00  0.00     0.173 A 
ATOM     81  F   UNL A   1      38.923  26.914  31.075  1.00  0.00    -0.203 F 
ATOM     82  C   UNL A   1      39.465  26.702  28.793  1.00  0.00     0.198 A 
ATOM     83  C   UNL A   1      40.628  28.475  27.669  1.00  0.00     0.198 A 
ATOM     84  F   UNL A   1      41.262  30.404  28.860  1.00  0.00    -0.203 F 
ATOM     85  F   UNL A   1      38.920  25.478  28.777  1.00  0.00    -0.200 F 
ATOM     86  C   UNL A   1      40.036  27.221  27.641  1.00  0.00     0.200 A 
ATOM     87  F   UNL A   1      41.167  28.987  26.555  1.00  0.00    -0.200 F 
ATOM     88  F   UNL A   1      40.026  26.509  26.506  1.00  0.00    -0.200 F 
ENDBRANCH  54  78
BRANCH  66  89
ATOM     89  C   UNL A   1      44.488  28.726  35.436  1.00  0.00     0.064 A 
ATOM     90  C   UNL A   1      44.429  27.501  36.116  1.00  0.00     0.173 A 
ATOM     91  C   UNL A   1      45.748  29.177  35.011  1.00  0.00     0.173 A 
ATOM     92  F   UNL A   1      43.252  27.030  36.558  1.00  0.00    -0.203 F 
ATOM     93  C   UNL A   1      45.585  26.772  36.385  1.00  0.00     0.198 A 
ATOM     94  C   UNL A   1      46.898  28.429  35.249  1.00  0.00     0.198 A 
ATOM     95  F   UNL A   1      45.863  30.340  34.349  1.00  0.00    -0.203 F 
ATOM     96  F   UNL A   1      45.509  25.632  37.084  1.00  0.00    -0.200 F 
ATOM     97  C   UNL A   1      46.817  27.232  35.944  1.00  0.00     0.200 A 
ATOM     98  F   UNL A   1      48.084  28.868  34.806  1.00  0.00    -0.200 F 
ATOM     99  F   UNL A   1      47.928  26.526  36.194  1.00  0.00    -0.200 F 
ENDBRANCH  66  89
ENDBRANCH  40  41
ENDBRANCH  32  35
ENDBRANCH  30  31
ENDBRANCH  29  30
ENDBRANCH  28  29
ENDBRANCH   1  28
TORSDOF 15
ENDMDL
MODEL 2
REMARK VINA RESULT:     -12.8      0.389      1.598
REMARK SMILES O=C(CSc1ccc(NC(=O)c2cccc3ccccc23)cc1)NCCCCNC(=O)c1ccc(-c2c3nc(c(-c4c(F)c(F)c(F)c(F)c4F)c4ccc([nH]4)c(-c4c(F)c(F)c(F)c(F)c4F)c4nc(c(-c5c(F)c(F)c(F)c(F)c5F)c5ccc2[nH]5)C=C4)C=C3)cc1
REMARK SMILES IDX 25 1 24 2 1 3 2 4 3 6 4 7 5 8 6 9 23 10 7 11 22 12 8 13 9 14
REMARK SMILES IDX 10 15 11 17 12 18 13 19 21 20 14 21 16 22 20 23 15 24 17 25
REMARK SMILES IDX 19 26 18 27 26 28 27 29 28 30 29 31 30 32 31 34 32 35 33 36
REMARK SMILES IDX 94 37 34 38 93 39 35 40 36 41 37 42 87 43 38 44 92 45 86 46
REMARK SMILES IDX 88 47 39 48 91 49 85 50 84 51 40 53 72 54 52 55 71 56 53 57
REMARK SMILES IDX 56 58 70 59 89 60 54 61 55 62 69 64 90 65 57 66 41 67 42 68
REMARK SMILES IDX 50 69 43 70 44 71 48 72 51 73 45 74 46 75 49 76 47 77 73 78
REMARK SMILES IDX 74 79 82 80 75 81 76 82 80 83 83 84 77 85 78 86 81 87 79 88
REMARK SMILES IDX 58 89 59 90 67 91 60 92 61 93 65 94 68 95 62 96 63 97 66 98
REMARK SMILES IDX 64 99
REMARK H PARENT 24 5 9 16 29 33 88 52 56 63
REMARK Flexibility Score: inf
ROOT
ATOM      1  C   UNL A   1      35.154  32.806  27.968  1.00  0.00     0.116 C 
ENDROOT
BRANCH   1   2
ATOM      2  N   UNL A   1      35.017  31.366  27.870  1.00  0.00    -0.355 N 
ATOM      3  O   UNL A   1      32.902  31.367  26.982  1.00  0.00    -0.274 OA
ATOM      4  C   UNL A   1      33.894  30.749  27.358  1.00  0.00     0.230 C 
ATOM      5  H   UNL A   1      35.761  30.803  28.183  1.00  0.00     0.163 HD
BRANCH   4   6
ATOM      6  C   UNL A   1      33.917  29.226  27.406  1.00  0.00     0.174 C 
BRANCH   6   7
ATOM      7  S   UNL A   1      32.239  28.493  27.419  1.00  0.00    -0.116 SA
BRANCH   7   8
ATOM      8  C   UNL A   1      32.415  27.328  26.085  1.00  0.00     0.008 A 
ATOM      9  C   UNL A   1      31.318  26.617  25.595  1.00  0.00     0.017 A 
ATOM     10  C   UNL A   1      33.668  27.132  25.505  1.00  0.00     0.017 A 
ATOM     11  C   UNL A   1      31.449  25.795  24.470  1.00  0.00     0.027 A 
ATOM     12  C   UNL A   1      33.792  26.325  24.372  1.00  0.00     0.027 A 
ATOM     13  C   UNL A   1      32.665  25.721  23.801  1.00  0.00     0.041 A 
BRANCH  13  14
ATOM     14  N   UNL A   1      32.851  25.147  22.538  1.00  0.00    -0.322 N 
ATOM     15  C   UNL A   1      33.210  23.898  22.094  1.00  0.00     0.256 C 
ATOM     16  H   UNL A   1      32.687  25.780  21.803  1.00  0.00     0.170 HD
ATOM     17  O   UNL A   1      33.331  23.751  20.873  1.00  0.00    -0.269 OA
BRANCH  15  18
ATOM     18  C   UNL A   1      33.466  22.710  22.944  1.00  0.00     0.048 A 
ATOM     19  C   UNL A   1      32.354  21.855  23.058  1.00  0.00     0.014 A 
ATOM     20  C   UNL A   1      34.646  22.469  23.710  1.00  0.00    -0.006 A 
ATOM     21  C   UNL A   1      32.374  20.772  23.926  1.00  0.00     0.001 A 
ATOM     22  C   UNL A   1      34.643  21.349  24.586  1.00  0.00    -0.018 A 
ATOM     23  C   UNL A   1      35.836  23.240  23.669  1.00  0.00     0.009 A 
ATOM     24  C   UNL A   1      33.506  20.535  24.697  1.00  0.00     0.009 A 
ATOM     25  C   UNL A   1      35.781  21.033  25.345  1.00  0.00     0.009 A 
ATOM     26  C   UNL A   1      36.991  22.856  24.357  1.00  0.00     0.001 A 
ATOM     27  C   UNL A   1      36.961  21.758  25.204  1.00  0.00     0.001 A 
ENDBRANCH  15  18
ENDBRANCH  13  14
ENDBRANCH   7   8
ENDBRANCH   6   7
ENDBRANCH   4   6
ENDBRANCH   1   2
BRANCH   1  28
ATOM     28  C   UNL A   1      34.468  33.371  29.212  1.00  0.00     0.023 C 
BRANCH  28  29
ATOM     29  C   UNL A   1      33.292  34.312  28.937  1.00  0.00     0.023 C 
BRANCH  29  30
ATOM     30  C   UNL A   1      33.465  35.743  29.437  1.00  0.00     0.116 C 
BRANCH  30  31
ATOM     31  N   UNL A   1      32.586  36.070  30.548  1.00  0.00    -0.352 N 
ATOM     32  C   UNL A   1      32.692  35.742  31.879  1.00  0.00     0.251 C 
ATOM     33  H   UNL A   1      31.796  36.607  30.310  1.00  0.00     0.163 HD
ATOM     34  O   UNL A   1      31.771  35.993  32.646  1.00  0.00    -0.269 OA
BRANCH  32  35
ATOM     35  C   UNL A   1      33.902  35.054  32.388  1.00  0.00     0.039 A 
ATOM     36  C   UNL A   1      33.772  33.762  32.907  1.00  0.00     0.014 A 
ATOM     37  C   UNL A   1      35.156  35.669  32.364  1.00  0.00     0.014 A 
ATOM     38  C   UNL A   1      34.905  33.064  33.331  1.00  0.00     0.010 A 
ATOM     39  C   UNL A   1      36.294  34.944  32.712  1.00  0.00     0.010 A 
ATOM     40  C   UNL A   1      36.182  33.632  33.198  1.00  0.00    -0.014 A 
BRANCH  40  41
ATOM     41  C   UNL A   1      37.409  32.865  33.545  1.00  0.00     0.031 A 
ATOM     42  C   UNL A   1      38.156  33.156  34.818  1.00  0.00     0.074 A 
ATOM     43  C   UNL A   1      37.887  31.947  32.682  1.00  0.00     0.049 A 
ATOM     44  N   UNL A   1      39.275  32.638  35.260  1.00  0.00    -0.248 NA
ATOM     45  C   UNL A   1      37.583  34.182  35.701  1.00  0.00     0.031 C 
ATOM     46  C   UNL A   1      37.281  31.599  31.396  1.00  0.00     0.029 A 
ATOM     47  N   UNL A   1      39.000  31.143  32.751  1.00  0.00    -0.354 N 
ATOM     48  C   UNL A   1      39.545  33.284  36.459  1.00  0.00     0.074 A 
ATOM     49  C   UNL A   1      38.503  34.269  36.651  1.00  0.00     0.031 C 
ATOM     50  C   UNL A   1      38.012  30.637  30.811  1.00  0.00     0.029 A 
ATOM     51  C   UNL A   1      39.163  30.330  31.655  1.00  0.00     0.049 A 
ATOM     52  H   UNL A   1      39.622  31.149  33.514  1.00  0.00     0.167 HD
ATOM     53  C   UNL A   1      40.558  33.061  37.332  1.00  0.00     0.037 A 
ATOM     54  C   UNL A   1      40.134  29.447  31.358  1.00  0.00     0.037 A 
ATOM     55  C   UNL A   1      41.583  32.067  37.147  1.00  0.00     0.049 A 
ATOM     56  C   UNL A   1      41.262  29.239  32.333  1.00  0.00     0.074 A 
ATOM     57  C   UNL A   1      42.615  31.723  38.005  1.00  0.00     0.029 A 
ATOM     58  N   UNL A   1      41.713  31.263  36.024  1.00  0.00    -0.354 N 
ATOM     59  N   UNL A   1      41.466  29.803  33.499  1.00  0.00    -0.248 NA
ATOM     60  C   UNL A   1      42.295  28.265  31.952  1.00  0.00     0.031 C 
ATOM     61  C   UNL A   1      43.405  30.758  37.373  1.00  0.00     0.029 A 
ATOM     62  C   UNL A   1      42.828  30.447  36.153  1.00  0.00     0.049 A 
ATOM     63  H   UNL A   1      41.105  31.270  35.250  1.00  0.00     0.167 HD
ATOM     64  C   UNL A   1      42.625  29.228  34.004  1.00  0.00     0.074 A 
ATOM     65  C   UNL A   1      43.073  28.262  33.024  1.00  0.00     0.031 C 
ATOM     66  C   UNL A   1      43.260  29.481  35.175  1.00  0.00     0.037 A 
BRANCH  53  67
ATOM     67  C   UNL A   1      40.614  33.914  38.568  1.00  0.00     0.064 A 
ATOM     68  C   UNL A   1      41.365  35.099  38.616  1.00  0.00     0.173 A 
ATOM     69  C   UNL A   1      39.872  33.564  39.707  1.00  0.00     0.173 A 
ATOM     70  F   UNL A   1      42.100  35.476  37.558  1.00  0.00    -0.203 F 
ATOM     71  C   UNL A   1      41.398  35.882  39.768  1.00  0.00     0.198 A 
ATOM     72  C   UNL A   1      39.879  34.368  40.844  1.00  0.00     0.198 A 
ATOM     73  F   UNL A   1      39.130  32.447  39.715  1.00  0.00    -0.203 F 
ATOM     74  F   UNL A   1      42.165  36.980  39.807  1.00  0.00    -0.200 F 
ATOM     75  C   UNL A   1      40.649  35.521  40.877  1.00  0.00     0.200 A 
ATOM     76  F   UNL A   1      39.141  34.026  41.909  1.00  0.00    -0.200 F 
ATOM     77  F   UNL A   1      40.673  36.281  41.980  1.00  0.00    -0.200 F 
ENDBRANCH  53  67
BRANCH  54  78
ATOM     78  C   UNL A   1      40.079  28.676  30.087  1.00  0.00     0.064 A 
ATOM     79  C   UNL A   1      39.447  27.424  30.032  1.00  0.00     0.173 A 
ATOM     80  C   UNL A   1      40.666  29.160  28.909  1.00  0.00     0.173 A 
ATOM     81  F   UNL A   1      38.889  26.907  31.136  1.00  0.00    -0.203 F 
ATOM     82  C   UNL A   1      39.429  26.677  28.855  1.00  0.00     0.198 A 
ATOM     83  C   UNL A   1      40.619  28.428  27.725  1.00  0.00     0.198 A 
ATOM     84  F   UNL A   1      41.280  30.353  28.906  1.00  0.00    -0.203 F 
ATOM     85  F   UNL A   1      38.867  25.461  28.846  1.00  0.00    -0.200 F 
ATOM     86  C   UNL A   1      40.009  27.182  27.702  1.00  0.00     0.200 A 
ATOM     87  F   UNL A   1      41.166  28.926  26.608  1.00  0.00    -0.200 F 
ATOM     88  F   UNL A   1      39.989  26.465  26.570  1.00  0.00    -0.200 F 
ENDBRANCH  54  78
BRANCH  66  89
ATOM     89  C   UNL A   1      44.485  28.668  35.487  1.00  0.00     0.064 A 
ATOM     90  C   UNL A   1      45.772  29.098  35.131  1.00  0.00     0.173 A 
ATOM     91  C   UNL A   1      44.371  27.456  36.188  1.00  0.00     0.173 A 
ATOM     92  F   UNL A   1      45.937  30.241  34.447  1.00  0.00    -0.203 F 
ATOM     93  C   UNL A   1      46.895  28.332  35.437  1.00  0.00     0.198 A 
ATOM     94  C   UNL A   1      45.498  26.711  36.525  1.00  0.00     0.198 A 
ATOM     95  F   UNL A   1      43.164  27.001  36.561  1.00  0.00    -0.203 F 
ATOM     96  F   UNL A   1      48.108  28.736  35.038  1.00  0.00    -0.200 F 
ATOM     97  C   UNL A   1      46.757  27.145  36.141  1.00  0.00     0.200 A 
ATOM     98  F   UNL A   1      45.363  25.574  37.220  1.00  0.00    -0.200 F 
ATOM     99  F   UNL A   1      47.839  26.414  36.444  1.00  0.00    -0.200 F 
ENDBRANCH  66  89
ENDBRANCH  40  41
ENDBRANCH  32  35
ENDBRANCH  30  31
ENDBRANCH  29  30
ENDBRANCH  28  29
ENDBRANCH   1  28
TORSDOF 15
ENDMDL
MODEL 3
REMARK VINA RESULT:     -12.7      6.689     12.317
REMARK SMILES O=C(CSc1ccc(NC(=O)c2cccc3ccccc23)cc1)NCCCCNC(=O)c1ccc(-c2c3nc(c(-c4c(F)c(F)c(F)c(F)c4F)c4ccc([nH]4)c(-c4c(F)c(F)c(F)c(F)c4F)c4nc(c(-c5c(F)c(F)c(F)c(F)c5F)c5ccc2[nH]5)C=C4)C=C3)cc1
REMARK SMILES IDX 25 1 24 2 1 3 2 4 3 6 4 7 5 8 6 9 23 10 7 11 22 12 8 13 9 14
REMARK SMILES IDX 10 15 11 17 12 18 13 19 21 20 14 21 16 22 20 23 15 24 17 25
REMARK SMILES IDX 19 26 18 27 26 28 27 29 28 30 29 31 30 32 31 34 32 35 33 36
REMARK SMILES IDX 94 37 34 38 93 39 35 40 36 41 37 42 87 43 38 44 92 45 86 46
REMARK SMILES IDX 88 47 39 48 91 49 85 50 84 51 40 53 72 54 52 55 71 56 53 57
REMARK SMILES IDX 56 58 70 59 89 60 54 61 55 62 69 64 90 65 57 66 41 67 42 68
REMARK SMILES IDX 50 69 43 70 44 71 48 72 51 73 45 74 46 75 49 76 47 77 73 78
REMARK SMILES IDX 74 79 82 80 75 81 76 82 80 83 83 84 77 85 78 86 81 87 79 88
REMARK SMILES IDX 58 89 59 90 67 91 60 92 61 93 65 94 68 95 62 96 63 97 66 98
REMARK SMILES IDX 64 99
REMARK H PARENT 24 5 9 16 29 33 88 52 56 63
REMARK Flexibility Score: inf
ROOT
ATOM      1  C   UNL A   1      40.380  21.674  27.049  1.00  0.00     0.116 C 
ENDROOT
BRANCH   1   2
ATOM      2  N   UNL A   1      39.494  22.636  26.422  1.00  0.00    -0.355 N 
ATOM      3  O   UNL A   1      37.998  21.107  25.593  1.00  0.00    -0.274 OA
ATOM      4  C   UNL A   1      38.344  22.275  25.749  1.00  0.00     0.230 C 
ATOM      5  H   UNL A   1      39.724  23.591  26.479  1.00  0.00     0.163 HD
BRANCH   4   6
ATOM      6  C   UNL A   1      37.588  23.427  25.101  1.00  0.00     0.174 C 
BRANCH   6   7
ATOM      7  S   UNL A   1      36.629  22.905  23.631  1.00  0.00    -0.116 SA
BRANCH   7   8
ATOM      8  C   UNL A   1      34.996  23.374  24.162  1.00  0.00     0.008 A 
ATOM      9  C   UNL A   1      33.856  22.852  23.547  1.00  0.00     0.017 A 
ATOM     10  C   UNL A   1      34.848  24.267  25.222  1.00  0.00     0.017 A 
ATOM     11  C   UNL A   1      32.583  23.136  24.052  1.00  0.00     0.027 A 
ATOM     12  C   UNL A   1      33.578  24.536  25.736  1.00  0.00     0.027 A 
ATOM     13  C   UNL A   1      32.447  23.903  25.204  1.00  0.00     0.041 A 
BRANCH  13  14
ATOM     14  N   UNL A   1      31.264  24.041  25.939  1.00  0.00    -0.322 N 
ATOM     15  C   UNL A   1      30.327  25.035  26.074  1.00  0.00     0.256 C 
ATOM     16  H   UNL A   1      31.058  23.246  26.482  1.00  0.00     0.170 HD
ATOM     17  O   UNL A   1      29.406  24.833  26.874  1.00  0.00    -0.269 OA
BRANCH  15  18
ATOM     18  C   UNL A   1      30.316  26.328  25.348  1.00  0.00     0.048 A 
ATOM     19  C   UNL A   1      29.604  26.281  24.135  1.00  0.00     0.014 A 
ATOM     20  C   UNL A   1      31.047  27.498  25.714  1.00  0.00    -0.006 A 
ATOM     21  C   UNL A   1      29.610  27.362  23.263  1.00  0.00     0.001 A 
ATOM     22  C   UNL A   1      31.031  28.592  24.806  1.00  0.00    -0.018 A 
ATOM     23  C   UNL A   1      31.783  27.677  26.913  1.00  0.00     0.009 A 
ATOM     24  C   UNL A   1      30.335  28.500  23.591  1.00  0.00     0.009 A 
ATOM     25  C   UNL A   1      31.702  29.786  25.116  1.00  0.00     0.009 A 
ATOM     26  C   UNL A   1      32.364  28.905  27.249  1.00  0.00     0.001 A 
ATOM     27  C   UNL A   1      32.333  29.957  26.345  1.00  0.00     0.001 A 
ENDBRANCH  15  18
ENDBRANCH  13  14
ENDBRANCH   7   8
ENDBRANCH   6   7
ENDBRANCH   4   6
ENDBRANCH   1   2
BRANCH   1  28
ATOM     28  C   UNL A   1      41.523  21.250  26.127  1.00  0.00     0.023 C 
BRANCH  28  29
ATOM     29  C   UNL A   1      41.595  19.751  25.824  1.00  0.00     0.023 C 
BRANCH  29  30
ATOM     30  C   UNL A   1      42.914  19.072  26.178  1.00  0.00     0.116 C 
BRANCH  30  31
ATOM     31  N   UNL A   1      43.694  18.698  25.010  1.00  0.00    -0.352 N 
ATOM     32  C   UNL A   1      44.533  19.461  24.232  1.00  0.00     0.251 C 
ATOM     33  H   UNL A   1      43.608  17.757  24.734  1.00  0.00     0.163 HD
ATOM     34  O   UNL A   1      44.999  18.998  23.198  1.00  0.00    -0.269 OA
BRANCH  32  35
ATOM     35  C   UNL A   1      44.855  20.855  24.619  1.00  0.00     0.039 A 
ATOM     36  C   UNL A   1      44.490  21.893  23.756  1.00  0.00     0.014 A 
ATOM     37  C   UNL A   1      45.514  21.146  25.816  1.00  0.00     0.014 A 
ATOM     38  C   UNL A   1      44.718  23.220  24.127  1.00  0.00     0.010 A 
ATOM     39  C   UNL A   1      45.670  22.471  26.220  1.00  0.00     0.010 A 
ATOM     40  C   UNL A   1      45.271  23.524  25.381  1.00  0.00    -0.014 A 
BRANCH  40  41
ATOM     41  C   UNL A   1      45.426  24.932  25.837  1.00  0.00     0.031 A 
ATOM     42  C   UNL A   1      46.771  25.603  25.798  1.00  0.00     0.074 A 
ATOM     43  C   UNL A   1      44.364  25.587  26.346  1.00  0.00     0.049 A 
ATOM     44  N   UNL A   1      47.114  26.799  26.210  1.00  0.00    -0.248 NA
ATOM     45  C   UNL A   1      47.885  24.820  25.245  1.00  0.00     0.031 C 
ATOM     46  C   UNL A   1      43.014  25.036  26.479  1.00  0.00     0.029 A 
ATOM     47  N   UNL A   1      44.254  26.858  26.858  1.00  0.00    -0.354 N 
ATOM     48  C   UNL A   1      48.479  26.902  25.979  1.00  0.00     0.074 A 
ATOM     49  C   UNL A   1      48.914  25.632  25.442  1.00  0.00     0.031 C 
ATOM     50  C   UNL A   1      42.208  25.969  27.008  1.00  0.00     0.029 A 
ATOM     51  C   UNL A   1      42.989  27.168  27.297  1.00  0.00     0.049 A 
ATOM     52  H   UNL A   1      45.009  27.487  26.905  1.00  0.00     0.167 HD
ATOM     53  C   UNL A   1      49.293  27.968  26.178  1.00  0.00     0.037 A 
ATOM     54  C   UNL A   1      42.514  28.287  27.876  1.00  0.00     0.037 A 
ATOM     55  C   UNL A   1      48.854  29.238  26.696  1.00  0.00     0.049 A 
ATOM     56  C   UNL A   1      43.447  29.447  28.110  1.00  0.00     0.074 A 
ATOM     57  C   UNL A   1      49.590  30.398  26.873  1.00  0.00     0.029 A 
ATOM     58  N   UNL A   1      47.564  29.514  27.128  1.00  0.00    -0.354 N 
ATOM     59  N   UNL A   1      44.720  29.559  27.819  1.00  0.00    -0.248 NA
ATOM     60  C   UNL A   1      42.872  30.639  28.750  1.00  0.00     0.031 C 
ATOM     61  C   UNL A   1      48.763  31.353  27.473  1.00  0.00     0.029 A 
ATOM     62  C   UNL A   1      47.493  30.815  27.603  1.00  0.00     0.049 A 
ATOM     63  H   UNL A   1      46.812  28.880  27.101  1.00  0.00     0.167 HD
ATOM     64  C   UNL A   1      45.089  30.841  28.206  1.00  0.00     0.074 A 
ATOM     65  C   UNL A   1      43.901  31.473  28.740  1.00  0.00     0.031 C 
ATOM     66  C   UNL A   1      46.303  31.439  28.125  1.00  0.00     0.037 A 
BRANCH  53  67
ATOM     67  C   UNL A   1      50.748  27.808  25.840  1.00  0.00     0.064 A 
ATOM     68  C   UNL A   1      51.224  27.953  24.527  1.00  0.00     0.173 A 
ATOM     69  C   UNL A   1      51.687  27.547  26.850  1.00  0.00     0.173 A 
ATOM     70  F   UNL A   1      50.368  28.194  23.522  1.00  0.00    -0.203 F 
ATOM     71  C   UNL A   1      52.578  27.810  24.234  1.00  0.00     0.198 A 
ATOM     72  C   UNL A   1      53.045  27.440  26.558  1.00  0.00     0.198 A 
ATOM     73  F   UNL A   1      51.291  27.406  28.124  1.00  0.00    -0.203 F 
ATOM     74  F   UNL A   1      53.000  27.900  22.965  1.00  0.00    -0.200 F 
ATOM     75  C   UNL A   1      53.488  27.562  25.250  1.00  0.00     0.200 A 
ATOM     76  F   UNL A   1      53.925  27.217  27.544  1.00  0.00    -0.200 F 
ATOM     77  F   UNL A   1      54.792  27.435  24.968  1.00  0.00    -0.200 F 
ENDBRANCH  53  67
BRANCH  54  78
ATOM     78  C   UNL A   1      41.081  28.378  28.263  1.00  0.00     0.064 A 
ATOM     79  C   UNL A   1      40.129  28.906  27.378  1.00  0.00     0.173 A 
ATOM     80  C   UNL A   1      40.633  27.956  29.524  1.00  0.00     0.173 A 
ATOM     81  F   UNL A   1      40.510  29.344  26.169  1.00  0.00    -0.203 F 
ATOM     82  C   UNL A   1      38.792  29.034  27.750  1.00  0.00     0.198 A 
ATOM     83  C   UNL A   1      39.290  28.052  29.882  1.00  0.00     0.198 A 
ATOM     84  F   UNL A   1      41.502  27.439  30.406  1.00  0.00    -0.203 F 
ATOM     85  F   UNL A   1      37.915  29.593  26.905  1.00  0.00    -0.200 F 
ATOM     86  C   UNL A   1      38.372  28.601  28.998  1.00  0.00     0.200 A 
ATOM     87  F   UNL A   1      38.887  27.618  31.083  1.00  0.00    -0.200 F 
ATOM     88  F   UNL A   1      37.087  28.721  29.355  1.00  0.00    -0.200 F 
ENDBRANCH  54  78
BRANCH  66  89
ATOM     89  C   UNL A   1      46.403  32.867  28.583  1.00  0.00     0.064 A 
ATOM     90  C   UNL A   1      46.751  33.202  29.900  1.00  0.00     0.173 A 
ATOM     91  C   UNL A   1      46.183  33.918  27.677  1.00  0.00     0.173 A 
ATOM     92  F   UNL A   1      46.958  32.237  30.809  1.00  0.00    -0.203 F 
ATOM     93  C   UNL A   1      46.846  34.532  30.300  1.00  0.00     0.198 A 
ATOM     94  C   UNL A   1      46.314  35.246  28.071  1.00  0.00     0.198 A 
ATOM     95  F   UNL A   1      45.855  33.655  26.402  1.00  0.00    -0.203 F 
ATOM     96  F   UNL A   1      47.126  34.827  31.577  1.00  0.00    -0.200 F 
ATOM     97  C   UNL A   1      46.637  35.552  29.384  1.00  0.00     0.200 A 
ATOM     98  F   UNL A   1      46.128  36.229  27.180  1.00  0.00    -0.200 F 
ATOM     99  F   UNL A   1      46.738  36.832  29.769  1.00  0.00    -0.200 F 
ENDBRANCH  66  89
ENDBRANCH  40  41
ENDBRANCH  32  35
ENDBRANCH  30  31
ENDBRANCH  29  30
ENDBRANCH  28  29
ENDBRANCH   1  28
TORSDOF 15
ENDMDL
