MODEL 1
REMARK VINA RESULT:     -13.2      0.000      0.000
REMARK SMILES Cc1ccccc1NC(=O)C[NH+]1CCC(CC(=O)NCCCCNC(=O)c2ccc(-c3c4nc(c(-c5c(F)c(F)c(F)c(F)c5F)c5ccc([nH]5)c(-c5c(F)c(F)c(F)c(F)c5F)c5nc(c(-c6c(F)c(F)c(F)c(F)c6F)c6ccc3[nH]6)C=C5)C=C4)cc2)CC1
REMARK SMILES IDX 20 1 19 2 17 3 18 4 16 6 15 7 12 8 13 9 91 10 14 12 90 13
REMARK SMILES IDX 11 14 9 15 8 16 10 18 7 19 1 20 2 21 3 22 4 23 6 24 5 25
REMARK SMILES IDX 21 26 22 27 23 28 24 29 25 30 26 32 27 33 28 34 89 35 29 36
REMARK SMILES IDX 88 37 30 38 31 39 32 40 82 41 33 42 87 43 81 44 83 45 34 46
REMARK SMILES IDX 86 47 80 48 79 49 35 51 67 52 47 53 66 54 48 55 51 56 65 57
REMARK SMILES IDX 84 58 49 59 50 60 64 62 85 63 52 64 36 65 37 66 45 67 38 68
REMARK SMILES IDX 39 69 43 70 46 71 40 72 41 73 44 74 42 75 68 76 69 77 77 78
REMARK SMILES IDX 70 79 71 80 75 81 78 82 72 83 73 84 76 85 74 86 53 87 54 88
REMARK SMILES IDX 62 89 55 90 56 91 60 92 63 93 57 94 58 95 61 96 59 97
REMARK H PARENT 19 5 12 11 8 17 24 31 83 50 51 61
REMARK Flexibility Score: inf
ROOT
ATOM      1  C   UNL A   1      32.764  29.498  24.854  1.00  0.00     0.116 C 
ENDROOT
BRANCH   1   2
ATOM      2  N   UNL A   1      32.184  28.926  23.643  1.00  0.00    -0.356 N 
ATOM      3  C   UNL A   1      32.112  27.637  23.191  1.00  0.00     0.220 C 
ATOM      4  O   UNL A   1      31.463  27.420  22.164  1.00  0.00    -0.275 OA
ATOM      5  H   UNL A   1      31.770  29.587  23.044  1.00  0.00     0.163 HD
BRANCH   3   6
ATOM      6  C   UNL A   1      32.851  26.509  23.894  1.00  0.00     0.104 C 
BRANCH   6   7
ATOM      7  C   UNL A   1      32.360  25.114  23.462  1.00  0.00     0.009 C 
ATOM      8  N   UNL A   1      32.637  22.206  23.860  1.00  0.00    -0.327 N 
ATOM      9  C   UNL A   1      33.216  22.821  22.675  1.00  0.00     0.262 C 
ATOM     10  C   UNL A   1      31.422  22.904  24.279  1.00  0.00     0.262 C 
ATOM     11  H   UNL A   1      33.285  22.327  24.638  1.00  0.00     0.348 HD
ATOM     12  C   UNL A   1      33.527  24.271  22.976  1.00  0.00     0.066 C 
ATOM     13  C   UNL A   1      31.685  24.376  24.628  1.00  0.00     0.066 C 
BRANCH   8  14
ATOM     14  C   UNL A   1      32.527  20.734  23.740  1.00  0.00     0.363 C 
BRANCH  14  15
ATOM     15  C   UNL A   1      32.949  19.924  24.981  1.00  0.00     0.279 C 
ATOM     16  N   UNL A   1      34.029  20.252  25.753  1.00  0.00    -0.321 N 
ATOM     17  H   UNL A   1      34.153  19.697  26.556  1.00  0.00     0.170 HD
ATOM     18  O   UNL A   1      32.246  18.984  25.376  1.00  0.00    -0.268 OA
BRANCH  16  19
ATOM     19  C   UNL A   1      34.984  21.261  25.575  1.00  0.00     0.044 A 
ATOM     20  C   UNL A   1      33.839  22.707  27.369  1.00  0.00     0.046 C 
ATOM     21  C   UNL A   1      34.865  22.465  26.295  1.00  0.00    -0.027 A 
ATOM     22  C   UNL A   1      35.726  23.528  25.969  1.00  0.00     0.005 A 
ATOM     23  C   UNL A   1      36.695  23.393  24.975  1.00  0.00     0.000 A 
ATOM     24  C   UNL A   1      36.024  21.104  24.652  1.00  0.00     0.026 A 
ATOM     25  C   UNL A   1      36.862  22.171  24.336  1.00  0.00     0.002 A 
ENDBRANCH  16  19
ENDBRANCH  14  15
ENDBRANCH   8  14
ENDBRANCH   6   7
ENDBRANCH   3   6
ENDBRANCH   1   2
BRANCH   1  26
ATOM     26  C   UNL A   1      31.754  30.077  25.871  1.00  0.00     0.023 C 
BRANCH  26  27
ATOM     27  C   UNL A   1      32.313  31.081  26.876  1.00  0.00     0.023 C 
BRANCH  27  28
ATOM     28  C   UNL A   1      33.550  30.534  27.558  1.00  0.00     0.116 C 
BRANCH  28  29
ATOM     29  N   UNL A   1      34.249  31.491  28.410  1.00  0.00    -0.352 N 
ATOM     30  C   UNL A   1      35.406  31.302  29.163  1.00  0.00     0.251 C 
ATOM     31  H   UNL A   1      33.848  32.389  28.461  1.00  0.00     0.163 HD
ATOM     32  O   UNL A   1      35.846  32.164  29.883  1.00  0.00    -0.269 OA
BRANCH  30  33
ATOM     33  C   UNL A   1      36.160  30.042  28.937  1.00  0.00     0.039 A 
ATOM     34  C   UNL A   1      36.655  29.390  30.069  1.00  0.00     0.014 A 
ATOM     35  C   UNL A   1      36.665  29.768  27.670  1.00  0.00     0.014 A 
ATOM     36  C   UNL A   1      37.849  28.684  29.963  1.00  0.00     0.010 A 
ATOM     37  C   UNL A   1      37.912  29.175  27.590  1.00  0.00     0.010 A 
ATOM     38  C   UNL A   1      38.538  28.701  28.749  1.00  0.00    -0.014 A 
BRANCH  38  39
ATOM     39  C   UNL A   1      39.957  28.366  28.656  1.00  0.00     0.031 A 
ATOM     40  C   UNL A   1      40.377  27.019  28.226  1.00  0.00     0.074 A 
ATOM     41  C   UNL A   1      40.907  29.276  28.977  1.00  0.00     0.049 A 
ATOM     42  N   UNL A   1      41.410  26.403  28.696  1.00  0.00    -0.248 NA
ATOM     43  C   UNL A   1      39.641  26.241  27.238  1.00  0.00     0.031 C 
ATOM     44  C   UNL A   1      42.351  29.138  28.799  1.00  0.00     0.029 A 
ATOM     45  N   UNL A   1      40.761  30.455  29.729  1.00  0.00    -0.354 N 
ATOM     46  C   UNL A   1      41.627  25.296  27.911  1.00  0.00     0.074 A 
ATOM     47  C   UNL A   1      40.465  25.206  27.056  1.00  0.00     0.031 C 
ATOM     48  C   UNL A   1      42.973  29.970  29.648  1.00  0.00     0.029 A 
ATOM     49  C   UNL A   1      41.955  30.599  30.469  1.00  0.00     0.049 A 
ATOM     50  H   UNL A   1      39.983  31.059  29.738  1.00  0.00     0.167 HD
ATOM     51  C   UNL A   1      42.827  24.650  27.961  1.00  0.00     0.037 A 
ATOM     52  C   UNL A   1      41.956  30.646  31.830  1.00  0.00     0.037 A 
ATOM     53  C   UNL A   1      43.742  25.288  28.903  1.00  0.00     0.049 A 
ATOM     54  C   UNL A   1      42.748  29.539  32.482  1.00  0.00     0.074 A 
ATOM     55  C   UNL A   1      44.775  26.193  28.722  1.00  0.00     0.029 A 
ATOM     56  N   UNL A   1      43.462  25.280  30.265  1.00  0.00    -0.354 N 
ATOM     57  N   UNL A   1      43.149  28.469  31.856  1.00  0.00    -0.248 NA
ATOM     58  C   UNL A   1      43.100  29.521  33.899  1.00  0.00     0.031 C 
ATOM     59  C   UNL A   1      45.101  26.752  29.979  1.00  0.00     0.029 A 
ATOM     60  C   UNL A   1      44.271  26.183  30.929  1.00  0.00     0.049 A 
ATOM     61  H   UNL A   1      42.783  24.712  30.696  1.00  0.00     0.167 HD
ATOM     62  C   UNL A   1      43.742  27.612  32.748  1.00  0.00     0.074 A 
ATOM     63  C   UNL A   1      43.717  28.331  34.007  1.00  0.00     0.031 C 
ATOM     64  C   UNL A   1      44.177  26.373  32.368  1.00  0.00     0.037 A 
BRANCH  51  65
ATOM     65  C   UNL A   1      43.259  23.657  26.905  1.00  0.00     0.064 A 
ATOM     66  C   UNL A   1      42.858  22.305  26.959  1.00  0.00     0.173 A 
ATOM     67  C   UNL A   1      44.130  23.971  25.845  1.00  0.00     0.173 A 
ATOM     68  F   UNL A   1      41.925  21.883  27.821  1.00  0.00    -0.203 F 
ATOM     69  C   UNL A   1      43.407  21.327  26.126  1.00  0.00     0.198 A 
ATOM     70  C   UNL A   1      44.726  22.986  25.051  1.00  0.00     0.198 A 
ATOM     71  F   UNL A   1      44.399  25.245  25.528  1.00  0.00    -0.203 F 
ATOM     72  F   UNL A   1      43.002  20.054  26.240  1.00  0.00    -0.200 F 
ATOM     73  C   UNL A   1      44.379  21.660  25.205  1.00  0.00     0.200 A 
ATOM     74  F   UNL A   1      45.648  23.333  24.141  1.00  0.00    -0.200 F 
ATOM     75  F   UNL A   1      44.954  20.713  24.453  1.00  0.00    -0.200 F 
ENDBRANCH  51  65
BRANCH  52  76
ATOM     76  C   UNL A   1      40.737  31.275  32.399  1.00  0.00     0.064 A 
ATOM     77  C   UNL A   1      40.601  32.673  32.297  1.00  0.00     0.173 A 
ATOM     78  C   UNL A   1      39.590  30.532  32.693  1.00  0.00     0.173 A 
ATOM     79  F   UNL A   1      41.672  33.429  32.006  1.00  0.00    -0.203 F 
ATOM     80  C   UNL A   1      39.354  33.287  32.373  1.00  0.00     0.198 A 
ATOM     81  C   UNL A   1      38.342  31.154  32.782  1.00  0.00     0.198 A 
ATOM     82  F   UNL A   1      39.651  29.196  32.781  1.00  0.00    -0.203 F 
ATOM     83  F   UNL A   1      39.246  34.606  32.159  1.00  0.00    -0.200 F 
ATOM     84  C   UNL A   1      38.221  32.524  32.589  1.00  0.00     0.200 A 
ATOM     85  F   UNL A   1      37.241  30.410  32.966  1.00  0.00    -0.200 F 
ATOM     86  F   UNL A   1      37.011  33.098  32.574  1.00  0.00    -0.200 F 
ENDBRANCH  52  76
BRANCH  64  87
ATOM     87  C   UNL A   1      44.650  25.269  33.283  1.00  0.00     0.064 A 
ATOM     88  C   UNL A   1      45.976  24.810  33.346  1.00  0.00     0.173 A 
ATOM     89  C   UNL A   1      43.770  24.716  34.248  1.00  0.00     0.173 A 
ATOM     90  F   UNL A   1      46.935  25.339  32.577  1.00  0.00    -0.203 F 
ATOM     91  C   UNL A   1      46.376  23.825  34.255  1.00  0.00     0.198 A 
ATOM     92  C   UNL A   1      44.187  23.777  35.192  1.00  0.00     0.198 A 
ATOM     93  F   UNL A   1      42.484  25.087  34.321  1.00  0.00    -0.203 F 
ATOM     94  F   UNL A   1      47.643  23.388  34.244  1.00  0.00    -0.200 F 
ATOM     95  C   UNL A   1      45.486  23.317  35.184  1.00  0.00     0.200 A 
ATOM     96  F   UNL A   1      43.325  23.338  36.119  1.00  0.00    -0.200 F 
ATOM     97  F   UNL A   1      45.885  22.406  36.081  1.00  0.00    -0.200 F 
ENDBRANCH  64  87
ENDBRANCH  38  39
ENDBRANCH  30  33
ENDBRANCH  28  29
ENDBRANCH  27  28
ENDBRANCH  26  27
ENDBRANCH   1  26
TORSDOF 15
ENDMDL
MODEL 2
REMARK VINA RESULT:     -13.0      3.255      9.943
REMARK SMILES Cc1ccccc1NC(=O)C[NH+]1CCC(CC(=O)NCCCCNC(=O)c2ccc(-c3c4nc(c(-c5c(F)c(F)c(F)c(F)c5F)c5ccc([nH]5)c(-c5c(F)c(F)c(F)c(F)c5F)c5nc(c(-c6c(F)c(F)c(F)c(F)c6F)c6ccc3[nH]6)C=C5)C=C4)cc2)CC1
REMARK SMILES IDX 20 1 19 2 17 3 18 4 16 6 15 7 12 8 13 9 91 10 14 12 90 13
REMARK SMILES IDX 11 14 9 15 8 16 10 18 7 19 1 20 2 21 3 22 4 23 6 24 5 25
REMARK SMILES IDX 21 26 22 27 23 28 24 29 25 30 26 32 27 33 28 34 89 35 29 36
REMARK SMILES IDX 88 37 30 38 31 39 32 40 82 41 33 42 87 43 81 44 83 45 34 46
REMARK SMILES IDX 86 47 80 48 79 49 35 51 67 52 47 53 66 54 48 55 51 56 65 57
REMARK SMILES IDX 84 58 49 59 50 60 64 62 85 63 52 64 36 65 37 66 45 67 38 68
REMARK SMILES IDX 39 69 43 70 46 71 40 72 41 73 44 74 42 75 68 76 69 77 77 78
REMARK SMILES IDX 70 79 71 80 75 81 78 82 72 83 73 84 76 85 74 86 53 87 54 88
REMARK SMILES IDX 62 89 55 90 56 91 60 92 63 93 57 94 58 95 61 96 59 97
REMARK H PARENT 19 5 12 11 8 17 24 31 83 50 51 61
REMARK Flexibility Score: inf
ROOT
ATOM      1  C   UNL A   1      36.597  21.100  24.910  1.00  0.00     0.116 C 
ENDROOT
BRANCH   1   2
ATOM      2  N   UNL A   1      35.298  20.974  25.562  1.00  0.00    -0.356 N 
ATOM      3  C   UNL A   1      34.132  21.673  25.408  1.00  0.00     0.220 C 
ATOM      4  O   UNL A   1      33.137  21.281  26.025  1.00  0.00    -0.275 OA
ATOM      5  H   UNL A   1      35.251  20.254  26.231  1.00  0.00     0.163 HD
BRANCH   3   6
ATOM      6  C   UNL A   1      34.069  22.928  24.552  1.00  0.00     0.104 C 
BRANCH   6   7
ATOM      7  C   UNL A   1      32.681  23.598  24.578  1.00  0.00     0.009 C 
ATOM      8  N   UNL A   1      31.169  26.083  24.095  1.00  0.00    -0.327 N 
ATOM      9  C   UNL A   1      31.454  25.676  25.464  1.00  0.00     0.262 C 
ATOM     10  C   UNL A   1      30.995  24.921  23.222  1.00  0.00     0.262 C 
ATOM     11  H   UNL A   1      31.988  26.564  23.723  1.00  0.00     0.348 HD
ATOM     12  C   UNL A   1      32.704  24.826  25.473  1.00  0.00     0.066 C 
ATOM     13  C   UNL A   1      32.248  24.036  23.171  1.00  0.00     0.066 C 
BRANCH   8  14
ATOM     14  C   UNL A   1      30.110  27.114  24.017  1.00  0.00     0.363 C 
BRANCH  14  15
ATOM     15  C   UNL A   1      30.447  28.364  23.181  1.00  0.00     0.279 C 
ATOM     16  N   UNL A   1      31.392  29.278  23.556  1.00  0.00    -0.321 N 
ATOM     17  H   UNL A   1      31.563  29.995  22.904  1.00  0.00     0.170 HD
ATOM     18  O   UNL A   1      29.921  28.527  22.071  1.00  0.00    -0.268 OA
BRANCH  16  19
ATOM     19  C   UNL A   1      32.157  29.346  24.727  1.00  0.00     0.044 A 
ATOM     20  C   UNL A   1      34.092  28.100  23.575  1.00  0.00     0.046 C 
ATOM     21  C   UNL A   1      33.422  28.729  24.767  1.00  0.00    -0.027 A 
ATOM     22  C   UNL A   1      34.092  28.654  26.002  1.00  0.00     0.005 A 
ATOM     23  C   UNL A   1      33.535  29.198  27.159  1.00  0.00     0.000 A 
ATOM     24  C   UNL A   1      31.655  29.976  25.872  1.00  0.00     0.026 A 
ATOM     25  C   UNL A   1      32.329  29.884  27.088  1.00  0.00     0.002 A 
ENDBRANCH  16  19
ENDBRANCH  14  15
ENDBRANCH   8  14
ENDBRANCH   6   7
ENDBRANCH   3   6
ENDBRANCH   1   2
BRANCH   1  26
ATOM     26  C   UNL A   1      37.492  22.253  25.419  1.00  0.00     0.023 C 
BRANCH  26  27
ATOM     27  C   UNL A   1      38.935  21.886  25.754  1.00  0.00     0.023 C 
BRANCH  27  28
ATOM     28  C   UNL A   1      39.521  22.856  26.759  1.00  0.00     0.116 C 
BRANCH  28  29
ATOM     29  N   UNL A   1      40.908  23.234  26.503  1.00  0.00    -0.352 N 
ATOM     30  C   UNL A   1      41.433  24.501  26.254  1.00  0.00     0.251 C 
ATOM     31  H   UNL A   1      41.559  22.495  26.505  1.00  0.00     0.163 HD
ATOM     32  O   UNL A   1      42.597  24.667  25.991  1.00  0.00    -0.269 OA
BRANCH  30  33
ATOM     33  C   UNL A   1      40.527  25.659  26.465  1.00  0.00     0.039 A 
ATOM     34  C   UNL A   1      40.986  26.907  26.038  1.00  0.00     0.014 A 
ATOM     35  C   UNL A   1      39.484  25.552  27.381  1.00  0.00     0.014 A 
ATOM     36  C   UNL A   1      40.599  28.040  26.746  1.00  0.00     0.010 A 
ATOM     37  C   UNL A   1      39.197  26.656  28.161  1.00  0.00     0.010 A 
ATOM     38  C   UNL A   1      39.813  27.884  27.890  1.00  0.00    -0.014 A 
BRANCH  38  39
ATOM     39  C   UNL A   1      39.713  28.925  28.911  1.00  0.00     0.031 A 
ATOM     40  C   UNL A   1      38.680  29.974  28.804  1.00  0.00     0.074 A 
ATOM     41  C   UNL A   1      40.571  28.956  29.958  1.00  0.00     0.049 A 
ATOM     42  N   UNL A   1      38.861  31.200  29.167  1.00  0.00    -0.248 NA
ATOM     43  C   UNL A   1      37.357  29.724  28.250  1.00  0.00     0.031 C 
ATOM     44  C   UNL A   1      40.506  29.838  31.120  1.00  0.00     0.029 A 
ATOM     45  N   UNL A   1      41.813  28.310  30.080  1.00  0.00    -0.354 N 
ATOM     46  C   UNL A   1      37.636  31.823  29.146  1.00  0.00     0.074 A 
ATOM     47  C   UNL A   1      36.743  30.881  28.511  1.00  0.00     0.031 C 
ATOM     48  C   UNL A   1      41.730  29.931  31.662  1.00  0.00     0.029 A 
ATOM     49  C   UNL A   1      42.643  29.190  30.811  1.00  0.00     0.049 A 
ATOM     50  H   UNL A   1      42.058  27.423  29.728  1.00  0.00     0.167 HD
ATOM     51  C   UNL A   1      37.465  33.012  29.794  1.00  0.00     0.037 A 
ATOM     52  C   UNL A   1      43.810  29.669  30.299  1.00  0.00     0.037 A 
ATOM     53  C   UNL A   1      38.696  33.449  30.446  1.00  0.00     0.049 A 
ATOM     54  C   UNL A   1      43.855  31.172  30.175  1.00  0.00     0.074 A 
ATOM     55  C   UNL A   1      39.139  33.343  31.754  1.00  0.00     0.029 A 
ATOM     56  N   UNL A   1      39.805  33.803  29.684  1.00  0.00    -0.354 N 
ATOM     57  N   UNL A   1      42.803  31.937  30.256  1.00  0.00    -0.248 NA
ATOM     58  C   UNL A   1      45.073  31.926  29.893  1.00  0.00     0.031 C 
ATOM     59  C   UNL A   1      40.528  33.609  31.775  1.00  0.00     0.029 A 
ATOM     60  C   UNL A   1      40.931  33.884  30.481  1.00  0.00     0.049 A 
ATOM     61  H   UNL A   1      39.789  33.971  28.714  1.00  0.00     0.167 HD
ATOM     62  C   UNL A   1      43.161  33.236  29.991  1.00  0.00     0.074 A 
ATOM     63  C   UNL A   1      44.598  33.181  29.804  1.00  0.00     0.031 C 
ATOM     64  C   UNL A   1      42.230  34.234  29.927  1.00  0.00     0.037 A 
BRANCH  51  65
ATOM     65  C   UNL A   1      36.098  33.579  30.104  1.00  0.00     0.064 A 
ATOM     66  C   UNL A   1      35.286  34.134  29.092  1.00  0.00     0.173 A 
ATOM     67  C   UNL A   1      35.561  33.661  31.402  1.00  0.00     0.173 A 
ATOM     68  F   UNL A   1      35.594  34.008  27.796  1.00  0.00    -0.203 F 
ATOM     69  C   UNL A   1      34.121  34.850  29.375  1.00  0.00     0.198 A 
ATOM     70  C   UNL A   1      34.428  34.427  31.694  1.00  0.00     0.198 A 
ATOM     71  F   UNL A   1      36.099  32.970  32.416  1.00  0.00    -0.203 F 
ATOM     72  F   UNL A   1      33.403  35.375  28.372  1.00  0.00    -0.200 F 
ATOM     73  C   UNL A   1      33.718  35.040  30.682  1.00  0.00     0.200 A 
ATOM     74  F   UNL A   1      34.036  34.576  32.968  1.00  0.00    -0.200 F 
ATOM     75  F   UNL A   1      32.639  35.782  30.959  1.00  0.00    -0.200 F 
ENDBRANCH  51  65
BRANCH  52  76
ATOM     76  C   UNL A   1      44.489  28.715  29.386  1.00  0.00     0.064 A 
ATOM     77  C   UNL A   1      45.175  27.625  29.954  1.00  0.00     0.173 A 
ATOM     78  C   UNL A   1      44.179  28.647  28.024  1.00  0.00     0.173 A 
ATOM     79  F   UNL A   1      45.487  27.638  31.261  1.00  0.00    -0.203 F 
ATOM     80  C   UNL A   1      45.439  26.472  29.220  1.00  0.00     0.198 A 
ATOM     81  C   UNL A   1      44.457  27.493  27.287  1.00  0.00     0.198 A 
ATOM     82  F   UNL A   1      43.507  29.643  27.431  1.00  0.00    -0.203 F 
ATOM     83  F   UNL A   1      45.993  25.409  29.822  1.00  0.00    -0.200 F 
ATOM     84  C   UNL A   1      45.056  26.396  27.893  1.00  0.00     0.200 A 
ATOM     85  F   UNL A   1      44.063  27.411  26.008  1.00  0.00    -0.200 F 
ATOM     86  F   UNL A   1      45.227  25.258  27.208  1.00  0.00    -0.200 F 
ENDBRANCH  52  76
BRANCH  64  87
ATOM     87  C   UNL A   1      42.462  35.647  29.446  1.00  0.00     0.064 A 
ATOM     88  C   UNL A   1      43.260  36.588  30.116  1.00  0.00     0.173 A 
ATOM     89  C   UNL A   1      41.971  36.059  28.181  1.00  0.00     0.173 A 
ATOM     90  F   UNL A   1      43.887  36.284  31.259  1.00  0.00    -0.203 F 
ATOM     91  C   UNL A   1      43.492  37.866  29.596  1.00  0.00     0.198 A 
ATOM     92  C   UNL A   1      42.254  37.313  27.639  1.00  0.00     0.198 A 
ATOM     93  F   UNL A   1      41.222  35.249  27.420  1.00  0.00    -0.203 F 
ATOM     94  F   UNL A   1      44.224  38.743  30.298  1.00  0.00    -0.200 F 
ATOM     95  C   UNL A   1      42.999  38.224  28.355  1.00  0.00     0.200 A 
ATOM     96  F   UNL A   1      41.814  37.622  26.412  1.00  0.00    -0.200 F 
ATOM     97  F   UNL A   1      43.262  39.434  27.843  1.00  0.00    -0.200 F 
ENDBRANCH  64  87
ENDBRANCH  38  39
ENDBRANCH  30  33
ENDBRANCH  28  29
ENDBRANCH  27  28
ENDBRANCH  26  27
ENDBRANCH   1  26
TORSDOF 15
ENDMDL
MODEL 3
REMARK VINA RESULT:     -13.0      1.241      1.875
REMARK SMILES Cc1ccccc1NC(=O)C[NH+]1CCC(CC(=O)NCCCCNC(=O)c2ccc(-c3c4nc(c(-c5c(F)c(F)c(F)c(F)c5F)c5ccc([nH]5)c(-c5c(F)c(F)c(F)c(F)c5F)c5nc(c(-c6c(F)c(F)c(F)c(F)c6F)c6ccc3[nH]6)C=C5)C=C4)cc2)CC1
REMARK SMILES IDX 20 1 19 2 17 3 18 4 16 6 15 7 12 8 13 9 91 10 14 12 90 13
REMARK SMILES IDX 11 14 9 15 8 16 10 18 7 19 1 20 2 21 3 22 4 23 6 24 5 25
REMARK SMILES IDX 21 26 22 27 23 28 24 29 25 30 26 32 27 33 28 34 89 35 29 36
REMARK SMILES IDX 88 37 30 38 31 39 32 40 82 41 33 42 87 43 81 44 83 45 34 46
REMARK SMILES IDX 86 47 80 48 79 49 35 51 67 52 47 53 66 54 48 55 51 56 65 57
REMARK SMILES IDX 84 58 49 59 50 60 64 62 85 63 52 64 36 65 37 66 45 67 38 68
REMARK SMILES IDX 39 69 43 70 46 71 40 72 41 73 44 74 42 75 68 76 69 77 77 78
REMARK SMILES IDX 70 79 71 80 75 81 78 82 72 83 73 84 76 85 74 86 53 87 54 88
REMARK SMILES IDX 62 89 55 90 56 91 60 92 63 93 57 94 58 95 61 96 59 97
REMARK H PARENT 19 5 12 11 8 17 24 31 83 50 51 61
REMARK Flexibility Score: inf
ROOT
ATOM      1  C   UNL A   1      32.165  29.993  25.919  1.00  0.00     0.116 C 
ENDROOT
BRANCH   1   2
ATOM      2  N   UNL A   1      32.292  29.611  24.517  1.00  0.00    -0.356 N 
ATOM      3  C   UNL A   1      31.713  28.606  23.793  1.00  0.00     0.220 C 
ATOM      4  O   UNL A   1      31.923  28.574  22.577  1.00  0.00    -0.275 OA
ATOM      5  H   UNL A   1      32.904  30.181  23.998  1.00  0.00     0.163 HD
BRANCH   3   6
ATOM      6  C   UNL A   1      30.882  27.524  24.464  1.00  0.00     0.104 C 
BRANCH   6   7
ATOM      7  C   UNL A   1      31.596  26.159  24.499  1.00  0.00     0.009 C 
ATOM      8  N   UNL A   1      31.976  23.649  25.999  1.00  0.00    -0.327 N 
ATOM      9  C   UNL A   1      33.022  24.661  26.026  1.00  0.00     0.262 C 
ATOM     10  C   UNL A   1      31.268  23.654  24.719  1.00  0.00     0.262 C 
ATOM     11  H   UNL A   1      31.265  23.898  26.687  1.00  0.00     0.348 HD
ATOM     12  C   UNL A   1      32.400  26.017  25.782  1.00  0.00     0.066 C 
ATOM     13  C   UNL A   1      30.590  25.001  24.431  1.00  0.00     0.066 C 
BRANCH   8  14
ATOM     14  C   UNL A   1      32.450  22.328  26.469  1.00  0.00     0.363 C 
BRANCH  14  15
ATOM     15  C   UNL A   1      32.589  21.238  25.388  1.00  0.00     0.279 C 
ATOM     16  N   UNL A   1      33.752  21.012  24.704  1.00  0.00    -0.321 N 
ATOM     17  H   UNL A   1      33.732  20.244  24.089  1.00  0.00     0.170 HD
ATOM     18  O   UNL A   1      31.653  20.457  25.172  1.00  0.00    -0.268 OA
BRANCH  16  19
ATOM     19  C   UNL A   1      34.967  21.706  24.749  1.00  0.00     0.044 A 
ATOM     20  C   UNL A   1      34.228  23.193  22.784  1.00  0.00     0.046 C 
ATOM     21  C   UNL A   1      35.231  22.706  23.795  1.00  0.00    -0.027 A 
ATOM     22  C   UNL A   1      36.522  23.263  23.747  1.00  0.00     0.005 A 
ATOM     23  C   UNL A   1      37.515  22.857  24.637  1.00  0.00     0.000 A 
ATOM     24  C   UNL A   1      35.940  21.380  25.701  1.00  0.00     0.026 A 
ATOM     25  C   UNL A   1      37.216  21.936  25.633  1.00  0.00     0.002 A 
ENDBRANCH  16  19
ENDBRANCH  14  15
ENDBRANCH   8  14
ENDBRANCH   6   7
ENDBRANCH   3   6
ENDBRANCH   1   2
BRANCH   1  26
ATOM     26  C   UNL A   1      33.475  29.982  26.738  1.00  0.00     0.023 C 
BRANCH  26  27
ATOM     27  C   UNL A   1      33.680  31.154  27.695  1.00  0.00     0.023 C 
BRANCH  27  28
ATOM     28  C   UNL A   1      35.140  31.550  27.761  1.00  0.00     0.116 C 
BRANCH  28  29
ATOM     29  N   UNL A   1      35.600  31.963  29.084  1.00  0.00    -0.352 N 
ATOM     30  C   UNL A   1      36.306  31.222  30.030  1.00  0.00     0.251 C 
ATOM     31  H   UNL A   1      35.381  32.888  29.343  1.00  0.00     0.163 HD
ATOM     32  O   UNL A   1      36.568  31.665  31.120  1.00  0.00    -0.269 OA
BRANCH  30  33
ATOM     33  C   UNL A   1      36.847  29.910  29.592  1.00  0.00     0.039 A 
ATOM     34  C   UNL A   1      37.310  29.051  30.592  1.00  0.00     0.014 A 
ATOM     35  C   UNL A   1      37.225  29.737  28.264  1.00  0.00     0.014 A 
ATOM     36  C   UNL A   1      38.377  28.206  30.304  1.00  0.00     0.010 A 
ATOM     37  C   UNL A   1      38.362  28.992  28.010  1.00  0.00     0.010 A 
ATOM     38  C   UNL A   1      38.982  28.287  29.048  1.00  0.00    -0.014 A 
BRANCH  38  39
ATOM     39  C   UNL A   1      40.328  27.772  28.800  1.00  0.00     0.031 A 
ATOM     40  C   UNL A   1      40.529  26.349  28.464  1.00  0.00     0.074 A 
ATOM     41  C   UNL A   1      41.408  28.583  28.890  1.00  0.00     0.049 A 
ATOM     42  N   UNL A   1      41.547  25.656  28.853  1.00  0.00    -0.248 NA
ATOM     43  C   UNL A   1      39.575  25.583  27.674  1.00  0.00     0.031 C 
ATOM     44  C   UNL A   1      42.786  28.252  28.532  1.00  0.00     0.029 A 
ATOM     45  N   UNL A   1      41.504  29.834  29.523  1.00  0.00    -0.354 N 
ATOM     46  C   UNL A   1      41.523  24.464  28.168  1.00  0.00     0.074 A 
ATOM     47  C   UNL A   1      40.244  24.441  27.494  1.00  0.00     0.031 C 
ATOM     48  C   UNL A   1      43.614  29.074  29.195  1.00  0.00     0.029 A 
ATOM     49  C   UNL A   1      42.803  29.896  30.075  1.00  0.00     0.049 A 
ATOM     50  H   UNL A   1      40.807  30.527  29.574  1.00  0.00     0.167 HD
ATOM     51  C   UNL A   1      42.639  23.682  28.124  1.00  0.00     0.037 A 
ATOM     52  C   UNL A   1      43.009  30.065  31.410  1.00  0.00     0.037 A 
ATOM     53  C   UNL A   1      43.747  24.285  28.859  1.00  0.00     0.049 A 
ATOM     54  C   UNL A   1      43.763  28.932  32.063  1.00  0.00     0.074 A 
ATOM     55  C   UNL A   1      44.835  25.035  28.443  1.00  0.00     0.029 A 
ATOM     56  N   UNL A   1      43.672  24.435  30.240  1.00  0.00    -0.354 N 
ATOM     57  N   UNL A   1      43.948  27.769  31.507  1.00  0.00    -0.248 NA
ATOM     58  C   UNL A   1      44.317  29.000  33.413  1.00  0.00     0.031 C 
ATOM     59  C   UNL A   1      45.402  25.661  29.577  1.00  0.00     0.029 A 
ATOM     60  C   UNL A   1      44.665  25.287  30.686  1.00  0.00     0.049 A 
ATOM     61  H   UNL A   1      43.006  23.996  30.817  1.00  0.00     0.167 HD
ATOM     62  C   UNL A   1      44.568  26.930  32.397  1.00  0.00     0.074 A 
ATOM     63  C   UNL A   1      44.809  27.757  33.563  1.00  0.00     0.031 C 
ATOM     64  C   UNL A   1      44.804  25.618  32.096  1.00  0.00     0.037 A 
BRANCH  51  65
ATOM     65  C   UNL A   1      42.800  22.551  27.132  1.00  0.00     0.064 A 
ATOM     66  C   UNL A   1      42.107  21.332  27.288  1.00  0.00     0.173 A 
ATOM     67  C   UNL A   1      43.681  22.592  26.036  1.00  0.00     0.173 A 
ATOM     68  F   UNL A   1      41.134  21.189  28.197  1.00  0.00    -0.203 F 
ATOM     69  C   UNL A   1      42.392  20.204  26.516  1.00  0.00     0.198 A 
ATOM     70  C   UNL A   1      44.011  21.449  25.300  1.00  0.00     0.198 A 
ATOM     71  F   UNL A   1      44.217  23.749  25.624  1.00  0.00    -0.203 F 
ATOM     72  F   UNL A   1      41.716  19.066  26.727  1.00  0.00    -0.200 F 
ATOM     73  C   UNL A   1      43.381  20.248  25.554  1.00  0.00     0.200 A 
ATOM     74  F   UNL A   1      44.955  21.519  24.351  1.00  0.00    -0.200 F 
ATOM     75  F   UNL A   1      43.701  19.150  24.859  1.00  0.00    -0.200 F 
ENDBRANCH  51  65
BRANCH  52  76
ATOM     76  C   UNL A   1      41.965  30.889  32.068  1.00  0.00     0.064 A 
ATOM     77  C   UNL A   1      41.998  32.284  31.876  1.00  0.00     0.173 A 
ATOM     78  C   UNL A   1      40.777  30.330  32.551  1.00  0.00     0.173 A 
ATOM     79  F   UNL A   1      43.112  32.867  31.404  1.00  0.00    -0.203 F 
ATOM     80  C   UNL A   1      40.861  33.067  32.051  1.00  0.00     0.198 A 
ATOM     81  C   UNL A   1      39.642  31.122  32.738  1.00  0.00     0.198 A 
ATOM     82  F   UNL A   1      40.676  29.006  32.733  1.00  0.00    -0.203 F 
ATOM     83  F   UNL A   1      40.897  34.373  31.750  1.00  0.00    -0.200 F 
ATOM     84  C   UNL A   1      39.675  32.481  32.457  1.00  0.00     0.200 A 
ATOM     85  F   UNL A   1      38.486  30.549  33.107  1.00  0.00    -0.200 F 
ATOM     86  F   UNL A   1      38.557  33.215  32.540  1.00  0.00    -0.200 F 
ENDBRANCH  52  76
BRANCH  64  87
ATOM     87  C   UNL A   1      45.284  24.550  33.051  1.00  0.00     0.064 A 
ATOM     88  C   UNL A   1      44.543  23.407  33.394  1.00  0.00     0.173 A 
ATOM     89  C   UNL A   1      46.607  24.591  33.562  1.00  0.00     0.173 A 
ATOM     90  F   UNL A   1      43.328  23.183  32.880  1.00  0.00    -0.203 F 
ATOM     91  C   UNL A   1      45.058  22.417  34.238  1.00  0.00     0.198 A 
ATOM     92  C   UNL A   1      47.136  23.573  34.354  1.00  0.00     0.198 A 
ATOM     93  F   UNL A   1      47.434  25.610  33.286  1.00  0.00    -0.203 F 
ATOM     94  F   UNL A   1      44.293  21.368  34.571  1.00  0.00    -0.200 F 
ATOM     95  C   UNL A   1      46.356  22.494  34.707  1.00  0.00     0.200 A 
ATOM     96  F   UNL A   1      48.414  23.638  34.754  1.00  0.00    -0.200 F 
ATOM     97  F   UNL A   1      46.859  21.521  35.479  1.00  0.00    -0.200 F 
ENDBRANCH  64  87
ENDBRANCH  38  39
ENDBRANCH  30  33
ENDBRANCH  28  29
ENDBRANCH  27  28
ENDBRANCH  26  27
ENDBRANCH   1  26
TORSDOF 15
ENDMDL
