MODEL 1
REMARK VINA RESULT:     -12.0      0.000      0.000
REMARK SMILES CN(CCS(C)(=O)=O)S(=O)(=O)c1cc(C(=O)NCCCCNC(=O)c2ccc(-c3c4nc(c(-c5c(F)c(F)c(F)c(F)c5F)c5ccc([nH]5)c(-c5c(F)c(F)c(F)c(F)c5F)c5nc(c(-c6c(F)c(F)c(F)c(F)c6F)c6ccc3[nH]6)C=C5)C=C4)cc2)ccc1F
REMARK SMILES IDX 18 1 17 2 15 3 16 4 14 6 12 7 13 8 90 9 89 10 91 11 88 12
REMARK SMILES IDX 9 13 10 14 11 15 2 16 1 17 3 18 4 19 5 20 6 21 7 22 8 23
REMARK SMILES IDX 19 24 20 25 21 26 22 27 23 28 24 30 25 31 26 32 87 33 27 34
REMARK SMILES IDX 86 35 28 36 29 37 30 38 80 39 31 40 85 41 79 42 81 43 32 44
REMARK SMILES IDX 84 45 78 46 77 47 33 49 65 50 45 51 64 52 46 53 49 54 63 55
REMARK SMILES IDX 82 56 47 57 48 58 62 60 83 61 50 62 34 63 35 64 43 65 36 66
REMARK SMILES IDX 37 67 41 68 44 69 38 70 39 71 42 72 40 73 66 74 67 75 75 76
REMARK SMILES IDX 68 77 69 78 73 79 76 80 70 81 71 82 74 83 72 84 51 85 52 86
REMARK SMILES IDX 60 87 53 88 54 89 58 90 61 91 55 92 56 93 59 94 57 95
REMARK H PARENT 17 5 22 29 81 48 49 59
REMARK Flexibility Score: inf
ROOT
ATOM      1  C   UNL A   1      37.473  22.376  25.479  1.00  0.00     0.116 C 
ENDROOT
BRANCH   1   2
ATOM      2  N   UNL A   1      36.328  22.613  26.333  1.00  0.00    -0.352 N 
ATOM      3  C   UNL A   1      35.038  23.030  26.147  1.00  0.00     0.251 C 
ATOM      4  O   UNL A   1      34.323  23.015  27.153  1.00  0.00    -0.269 OA
ATOM      5  H   UNL A   1      36.526  22.429  27.280  1.00  0.00     0.163 HD
BRANCH   3   6
ATOM      6  C   UNL A   1      34.431  23.504  24.862  1.00  0.00     0.041 A 
ATOM      7  C   UNL A   1      33.530  25.434  23.639  1.00  0.00     0.119 A 
ATOM      8  C   UNL A   1      34.091  24.874  24.801  1.00  0.00     0.038 A 
ATOM      9  C   UNL A   1      33.366  24.655  22.510  1.00  0.00     0.143 A 
ATOM     10  C   UNL A   1      33.648  23.298  22.563  1.00  0.00     0.041 A 
ATOM     11  F   UNL A   1      32.937  25.156  21.348  1.00  0.00    -0.206 F 
ATOM     12  C   UNL A   1      34.167  22.726  23.732  1.00  0.00     0.017 A 
BRANCH   7  13
ATOM     13  S   UNL A   1      33.014  27.117  23.653  1.00  0.00     0.245 S 
ATOM     14  O   UNL A   1      33.506  27.819  22.489  1.00  0.00    -0.207 OA
ATOM     15  O   UNL A   1      33.279  27.620  24.982  1.00  0.00    -0.207 OA
BRANCH  13  16
ATOM     16  N   UNL A   1      31.316  27.042  23.470  1.00  0.00    -0.200 NA
ATOM     17  C   UNL A   1      30.596  26.906  24.759  1.00  0.00     0.124 C 
BRANCH  16  18
ATOM     18  C   UNL A   1      30.599  27.848  22.443  1.00  0.00     0.118 C 
BRANCH  18  19
ATOM     19  C   UNL A   1      30.059  29.213  22.831  1.00  0.00     0.153 C 
BRANCH  19  20
ATOM     20  S   UNL A   1      28.329  29.536  22.520  1.00  0.00     0.148 S 
ATOM     21  C   UNL A   1      27.846  30.947  23.490  1.00  0.00     0.158 C 
ATOM     22  O   UNL A   1      28.221  29.945  21.131  1.00  0.00    -0.229 OA
ATOM     23  O   UNL A   1      27.555  28.414  23.000  1.00  0.00    -0.229 OA
ENDBRANCH  19  20
ENDBRANCH  18  19
ENDBRANCH  16  18
ENDBRANCH  13  16
ENDBRANCH   7  13
ENDBRANCH   3   6
ENDBRANCH   1   2
BRANCH   1  24
ATOM     24  C   UNL A   1      37.296  21.145  24.592  1.00  0.00     0.023 C 
BRANCH  24  25
ATOM     25  C   UNL A   1      38.111  19.927  25.043  1.00  0.00     0.023 C 
BRANCH  25  26
ATOM     26  C   UNL A   1      39.365  20.242  25.857  1.00  0.00     0.116 C 
BRANCH  26  27
ATOM     27  N   UNL A   1      40.330  19.151  25.888  1.00  0.00    -0.352 N 
ATOM     28  C   UNL A   1      41.680  19.211  26.143  1.00  0.00     0.251 C 
ATOM     29  H   UNL A   1      39.969  18.255  25.701  1.00  0.00     0.163 HD
ATOM     30  O   UNL A   1      42.383  18.214  26.029  1.00  0.00    -0.269 OA
BRANCH  28  31
ATOM     31  C   UNL A   1      42.279  20.507  26.514  1.00  0.00     0.039 A 
ATOM     32  C   UNL A   1      42.800  21.324  25.509  1.00  0.00     0.014 A 
ATOM     33  C   UNL A   1      42.264  20.937  27.843  1.00  0.00     0.014 A 
ATOM     34  C   UNL A   1      43.233  22.611  25.829  1.00  0.00     0.010 A 
ATOM     35  C   UNL A   1      42.620  22.246  28.145  1.00  0.00     0.010 A 
ATOM     36  C   UNL A   1      43.103  23.098  27.141  1.00  0.00    -0.014 A 
BRANCH  36  37
ATOM     37  C   UNL A   1      43.450  24.501  27.480  1.00  0.00     0.031 A 
ATOM     38  C   UNL A   1      44.889  24.930  27.532  1.00  0.00     0.074 A 
ATOM     39  C   UNL A   1      42.473  25.369  27.805  1.00  0.00     0.049 A 
ATOM     40  N   UNL A   1      45.394  26.085  27.880  1.00  0.00    -0.248 NA
ATOM     41  C   UNL A   1      45.896  23.919  27.170  1.00  0.00     0.031 C 
ATOM     42  C   UNL A   1      41.042  25.059  27.831  1.00  0.00     0.029 A 
ATOM     43  N   UNL A   1      42.531  26.688  28.183  1.00  0.00    -0.354 N 
ATOM     44  C   UNL A   1      46.771  25.938  27.785  1.00  0.00     0.074 A 
ATOM     45  C   UNL A   1      47.028  24.566  27.406  1.00  0.00     0.031 C 
ATOM     46  C   UNL A   1      40.358  26.162  28.172  1.00  0.00     0.029 A 
ATOM     47  C   UNL A   1      41.301  27.245  28.437  1.00  0.00     0.049 A 
ATOM     48  H   UNL A   1      43.376  27.188  28.264  1.00  0.00     0.167 HD
ATOM     49  C   UNL A   1      47.731  26.874  27.970  1.00  0.00     0.037 A 
ATOM     50  C   UNL A   1      40.969  28.486  28.847  1.00  0.00     0.037 A 
ATOM     51  C   UNL A   1      47.466  28.243  28.322  1.00  0.00     0.049 A 
ATOM     52  C   UNL A   1      42.059  29.498  29.075  1.00  0.00     0.074 A 
ATOM     53  C   UNL A   1      48.370  29.279  28.479  1.00  0.00     0.029 A 
ATOM     54  N   UNL A   1      46.207  28.767  28.576  1.00  0.00    -0.354 N 
ATOM     55  N   UNL A   1      43.354  29.364  28.925  1.00  0.00    -0.248 NA
ATOM     56  C   UNL A   1      41.644  30.834  29.526  1.00  0.00     0.031 C 
ATOM     57  C   UNL A   1      47.666  30.413  28.887  1.00  0.00     0.029 A 
ATOM     58  C   UNL A   1      46.316  30.105  28.917  1.00  0.00     0.049 A 
ATOM     59  H   UNL A   1      45.363  28.263  28.521  1.00  0.00     0.167 HD
ATOM     60  C   UNL A   1      43.905  30.600  29.234  1.00  0.00     0.074 A 
ATOM     61  C   UNL A   1      42.804  31.476  29.572  1.00  0.00     0.031 C 
ATOM     62  C   UNL A   1      45.209  30.971  29.238  1.00  0.00     0.037 A 
BRANCH  49  63
ATOM     63  C   UNL A   1      49.162  26.461  27.779  1.00  0.00     0.064 A 
ATOM     64  C   UNL A   1      49.998  26.258  28.888  1.00  0.00     0.173 A 
ATOM     65  C   UNL A   1      49.730  26.350  26.502  1.00  0.00     0.173 A 
ATOM     66  F   UNL A   1      49.507  26.357  30.133  1.00  0.00    -0.203 F 
ATOM     67  C   UNL A   1      51.351  25.977  28.724  1.00  0.00     0.198 A 
ATOM     68  C   UNL A   1      51.077  26.035  26.340  1.00  0.00     0.198 A 
ATOM     69  F   UNL A   1      48.972  26.522  25.408  1.00  0.00    -0.203 F 
ATOM     70  F   UNL A   1      52.138  25.827  29.799  1.00  0.00    -0.200 F 
ATOM     71  C   UNL A   1      51.889  25.863  27.450  1.00  0.00     0.200 A 
ATOM     72  F   UNL A   1      51.588  25.899  25.109  1.00  0.00    -0.200 F 
ATOM     73  F   UNL A   1      53.190  25.585  27.294  1.00  0.00    -0.200 F 
ENDBRANCH  49  63
BRANCH  50  74
ATOM     74  C   UNL A   1      39.537  28.839  29.036  1.00  0.00     0.064 A 
ATOM     75  C   UNL A   1      38.761  29.343  27.981  1.00  0.00     0.173 A 
ATOM     76  C   UNL A   1      38.924  28.708  30.289  1.00  0.00     0.173 A 
ATOM     77  F   UNL A   1      39.301  29.493  26.762  1.00  0.00    -0.203 F 
ATOM     78  C   UNL A   1      37.437  29.727  28.180  1.00  0.00     0.198 A 
ATOM     79  C   UNL A   1      37.590  29.063  30.480  1.00  0.00     0.198 A 
ATOM     80  F   UNL A   1      39.617  28.212  31.324  1.00  0.00    -0.203 F 
ATOM     81  F   UNL A   1      36.732  30.244  27.164  1.00  0.00    -0.200 F 
ATOM     82  C   UNL A   1      36.851  29.582  29.427  1.00  0.00     0.200 A 
ATOM     83  F   UNL A   1      37.020  28.899  31.681  1.00  0.00    -0.200 F 
ATOM     84  F   UNL A   1      35.573  29.941  29.616  1.00  0.00    -0.200 F 
ENDBRANCH  50  74
BRANCH  62  85
ATOM     85  C   UNL A   1      45.535  32.394  29.588  1.00  0.00     0.064 A 
ATOM     86  C   UNL A   1      45.604  33.371  28.583  1.00  0.00     0.173 A 
ATOM     87  C   UNL A   1      45.888  32.768  30.893  1.00  0.00     0.173 A 
ATOM     88  F   UNL A   1      45.286  33.063  27.316  1.00  0.00    -0.203 F 
ATOM     89  C   UNL A   1      46.040  34.662  28.866  1.00  0.00     0.198 A 
ATOM     90  C   UNL A   1      46.293  34.069  31.178  1.00  0.00     0.198 A 
ATOM     91  F   UNL A   1      45.828  31.873  31.891  1.00  0.00    -0.203 F 
ATOM     92  F   UNL A   1      46.146  35.564  27.879  1.00  0.00    -0.200 F 
ATOM     93  C   UNL A   1      46.382  35.011  30.163  1.00  0.00     0.200 A 
ATOM     94  F   UNL A   1      46.601  34.411  32.437  1.00  0.00    -0.200 F 
ATOM     95  F   UNL A   1      46.801  36.255  30.436  1.00  0.00    -0.200 F 
ENDBRANCH  62  85
ENDBRANCH  36  37
ENDBRANCH  28  31
ENDBRANCH  26  27
ENDBRANCH  25  26
ENDBRANCH  24  25
ENDBRANCH   1  24
TORSDOF 16
ENDMDL
MODEL 2
REMARK VINA RESULT:     -11.9      0.853      7.313
REMARK SMILES CN(CCS(C)(=O)=O)S(=O)(=O)c1cc(C(=O)NCCCCNC(=O)c2ccc(-c3c4nc(c(-c5c(F)c(F)c(F)c(F)c5F)c5ccc([nH]5)c(-c5c(F)c(F)c(F)c(F)c5F)c5nc(c(-c6c(F)c(F)c(F)c(F)c6F)c6ccc3[nH]6)C=C5)C=C4)cc2)ccc1F
REMARK SMILES IDX 18 1 17 2 15 3 16 4 14 6 12 7 13 8 90 9 89 10 91 11 88 12
REMARK SMILES IDX 9 13 10 14 11 15 2 16 1 17 3 18 4 19 5 20 6 21 7 22 8 23
REMARK SMILES IDX 19 24 20 25 21 26 22 27 23 28 24 30 25 31 26 32 87 33 27 34
REMARK SMILES IDX 86 35 28 36 29 37 30 38 80 39 31 40 85 41 79 42 81 43 32 44
REMARK SMILES IDX 84 45 78 46 77 47 33 49 65 50 45 51 64 52 46 53 49 54 63 55
REMARK SMILES IDX 82 56 47 57 48 58 62 60 83 61 50 62 34 63 35 64 43 65 36 66
REMARK SMILES IDX 37 67 41 68 44 69 38 70 39 71 42 72 40 73 66 74 67 75 75 76
REMARK SMILES IDX 68 77 69 78 73 79 76 80 70 81 71 82 74 83 72 84 51 85 52 86
REMARK SMILES IDX 60 87 53 88 54 89 58 90 61 91 55 92 56 93 59 94 57 95
REMARK H PARENT 17 5 22 29 81 48 49 59
REMARK Flexibility Score: inf
ROOT
ATOM      1  C   UNL A   1      37.457  22.478  25.539  1.00  0.00     0.116 C 
ENDROOT
BRANCH   1   2
ATOM      2  N   UNL A   1      36.300  22.642  26.394  1.00  0.00    -0.352 N 
ATOM      3  C   UNL A   1      34.990  22.995  26.211  1.00  0.00     0.251 C 
ATOM      4  O   UNL A   1      34.275  22.928  27.214  1.00  0.00    -0.269 OA
ATOM      5  H   UNL A   1      36.506  22.455  27.338  1.00  0.00     0.163 HD
BRANCH   3   6
ATOM      6  C   UNL A   1      34.362  23.457  24.931  1.00  0.00     0.041 A 
ATOM      7  C   UNL A   1      33.374  25.358  23.731  1.00  0.00     0.119 A 
ATOM      8  C   UNL A   1      33.960  24.811  24.886  1.00  0.00     0.038 A 
ATOM      9  C   UNL A   1      33.245  24.587  22.593  1.00  0.00     0.143 A 
ATOM     10  C   UNL A   1      33.589  23.243  22.630  1.00  0.00     0.041 A 
ATOM     11  F   UNL A   1      32.793  25.081  21.437  1.00  0.00    -0.206 F 
ATOM     12  C   UNL A   1      34.133  22.681  23.792  1.00  0.00     0.017 A 
BRANCH   7  13
ATOM     13  S   UNL A   1      32.783  27.016  23.765  1.00  0.00     0.245 S 
ATOM     14  O   UNL A   1      33.360  27.794  22.693  1.00  0.00    -0.207 OA
ATOM     15  O   UNL A   1      32.884  27.463  25.135  1.00  0.00    -0.207 OA
BRANCH  13  16
ATOM     16  N   UNL A   1      31.118  26.880  23.401  1.00  0.00    -0.200 NA
ATOM     17  C   UNL A   1      30.283  26.580  24.588  1.00  0.00     0.124 C 
BRANCH  16  18
ATOM     18  C   UNL A   1      30.460  27.751  22.387  1.00  0.00     0.118 C 
BRANCH  18  19
ATOM     19  C   UNL A   1      30.117  29.181  22.763  1.00  0.00     0.153 C 
BRANCH  19  20
ATOM     20  S   UNL A   1      28.425  29.710  22.544  1.00  0.00     0.148 S 
ATOM     21  C   UNL A   1      28.183  31.201  23.483  1.00  0.00     0.158 C 
ATOM     22  O   UNL A   1      28.278  30.084  21.148  1.00  0.00    -0.229 OA
ATOM     23  O   UNL A   1      27.550  28.711  23.114  1.00  0.00    -0.229 OA
ENDBRANCH  19  20
ENDBRANCH  18  19
ENDBRANCH  16  18
ENDBRANCH  13  16
ENDBRANCH   7  13
ENDBRANCH   3   6
ENDBRANCH   1   2
BRANCH   1  24
ATOM     24  C   UNL A   1      37.327  21.277  24.604  1.00  0.00     0.023 C 
BRANCH  24  25
ATOM     25  C   UNL A   1      38.086  20.031  25.075  1.00  0.00     0.023 C 
BRANCH  25  26
ATOM     26  C   UNL A   1      39.345  20.303  25.896  1.00  0.00     0.116 C 
BRANCH  26  27
ATOM     27  N   UNL A   1      40.274  19.180  25.929  1.00  0.00    -0.352 N 
ATOM     28  C   UNL A   1      41.633  19.201  26.129  1.00  0.00     0.251 C 
ATOM     29  H   UNL A   1      39.875  18.291  25.790  1.00  0.00     0.163 HD
ATOM     30  O   UNL A   1      42.297  18.176  26.025  1.00  0.00    -0.269 OA
BRANCH  28  31
ATOM     31  C   UNL A   1      42.291  20.488  26.428  1.00  0.00     0.039 A 
ATOM     32  C   UNL A   1      42.838  21.228  25.379  1.00  0.00     0.014 A 
ATOM     33  C   UNL A   1      42.306  20.986  27.733  1.00  0.00     0.014 A 
ATOM     34  C   UNL A   1      43.329  22.510  25.629  1.00  0.00     0.010 A 
ATOM     35  C   UNL A   1      42.720  22.292  27.965  1.00  0.00     0.010 A 
ATOM     36  C   UNL A   1      43.231  23.070  26.914  1.00  0.00    -0.014 A 
BRANCH  36  37
ATOM     37  C   UNL A   1      43.640  24.472  27.178  1.00  0.00     0.031 A 
ATOM     38  C   UNL A   1      42.640  25.463  27.701  1.00  0.00     0.074 A 
ATOM     39  C   UNL A   1      44.894  24.866  26.885  1.00  0.00     0.049 A 
ATOM     40  N   UNL A   1      42.785  26.744  27.922  1.00  0.00    -0.248 NA
ATOM     41  C   UNL A   1      41.289  24.955  27.989  1.00  0.00     0.031 C 
ATOM     42  C   UNL A   1      45.943  24.005  26.334  1.00  0.00     0.029 A 
ATOM     43  N   UNL A   1      45.502  26.092  27.001  1.00  0.00    -0.354 N 
ATOM     44  C   UNL A   1      41.550  27.192  28.367  1.00  0.00     0.074 A 
ATOM     45  C   UNL A   1      40.647  26.063  28.328  1.00  0.00     0.031 C 
ATOM     46  C   UNL A   1      47.070  24.719  26.191  1.00  0.00     0.029 A 
ATOM     47  C   UNL A   1      46.814  26.099  26.593  1.00  0.00     0.049 A 
ATOM     48  H   UNL A   1      45.040  26.891  27.345  1.00  0.00     0.167 HD
ATOM     49  C   UNL A   1      41.209  28.430  28.797  1.00  0.00     0.037 A 
ATOM     50  C   UNL A   1      47.708  27.107  26.539  1.00  0.00     0.037 A 
ATOM     51  C   UNL A   1      42.119  29.542  28.857  1.00  0.00     0.049 A 
ATOM     52  C   UNL A   1      47.294  28.480  26.994  1.00  0.00     0.074 A 
ATOM     53  C   UNL A   1      41.881  30.821  29.328  1.00  0.00     0.029 A 
ATOM     54  N   UNL A   1      43.438  29.511  28.430  1.00  0.00    -0.354 N 
ATOM     55  N   UNL A   1      46.139  28.878  27.468  1.00  0.00    -0.248 NA
ATOM     56  C   UNL A   1      48.305  29.543  26.910  1.00  0.00     0.031 C 
ATOM     57  C   UNL A   1      43.035  31.581  29.130  1.00  0.00     0.029 A 
ATOM     58  C   UNL A   1      44.016  30.758  28.600  1.00  0.00     0.049 A 
ATOM     59  H   UNL A   1      43.895  28.720  28.061  1.00  0.00     0.167 HD
ATOM     60  C   UNL A   1      46.291  30.226  27.764  1.00  0.00     0.074 A 
ATOM     61  C   UNL A   1      47.654  30.577  27.426  1.00  0.00     0.031 C 
ATOM     62  C   UNL A   1      45.380  31.092  28.271  1.00  0.00     0.037 A 
BRANCH  49  63
ATOM     63  C   UNL A   1      39.797  28.651  29.256  1.00  0.00     0.064 A 
ATOM     64  C   UNL A   1      38.831  29.154  28.370  1.00  0.00     0.173 A 
ATOM     65  C   UNL A   1      39.418  28.448  30.590  1.00  0.00     0.173 A 
ATOM     66  F   UNL A   1      39.142  29.372  27.083  1.00  0.00    -0.203 F 
ATOM     67  C   UNL A   1      37.547  29.462  28.808  1.00  0.00     0.198 A 
ATOM     68  C   UNL A   1      38.122  28.725  31.019  1.00  0.00     0.198 A 
ATOM     69  F   UNL A   1      40.299  27.957  31.476  1.00  0.00    -0.203 F 
ATOM     70  F   UNL A   1      36.654  29.979  27.953  1.00  0.00    -0.200 F 
ATOM     71  C   UNL A   1      37.192  29.244  30.131  1.00  0.00     0.200 A 
ATOM     72  F   UNL A   1      37.774  28.489  32.291  1.00  0.00    -0.200 F 
ATOM     73  F   UNL A   1      35.953  29.534  30.551  1.00  0.00    -0.200 F 
ENDBRANCH  49  63
BRANCH  50  74
ATOM     74  C   UNL A   1      49.091  26.836  26.062  1.00  0.00     0.064 A 
ATOM     75  C   UNL A   1      49.453  27.025  24.720  1.00  0.00     0.173 A 
ATOM     76  C   UNL A   1      50.070  26.350  26.938  1.00  0.00     0.173 A 
ATOM     77  F   UNL A   1      48.552  27.484  23.838  1.00  0.00    -0.203 F 
ATOM     78  C   UNL A   1      50.734  26.714  24.268  1.00  0.00     0.198 A 
ATOM     79  C   UNL A   1      51.360  26.068  26.492  1.00  0.00     0.198 A 
ATOM     80  F   UNL A   1      49.780  26.172  28.234  1.00  0.00    -0.203 F 
ATOM     81  F   UNL A   1      51.040  26.865  22.973  1.00  0.00    -0.200 F 
ATOM     82  C   UNL A   1      51.688  26.240  25.155  1.00  0.00     0.200 A 
ATOM     83  F   UNL A   1      52.286  25.633  27.357  1.00  0.00    -0.200 F 
ATOM     84  F   UNL A   1      52.923  25.951  24.723  1.00  0.00    -0.200 F 
ENDBRANCH  50  74
BRANCH  62  85
ATOM     85  C   UNL A   1      45.817  32.505  28.526  1.00  0.00     0.064 A 
ATOM     86  C   UNL A   1      46.305  32.877  29.789  1.00  0.00     0.173 A 
ATOM     87  C   UNL A   1      45.649  33.512  27.565  1.00  0.00     0.173 A 
ATOM     88  F   UNL A   1      46.475  31.954  30.747  1.00  0.00    -0.203 F 
ATOM     89  C   UNL A   1      46.584  34.208  30.086  1.00  0.00     0.198 A 
ATOM     90  C   UNL A   1      45.958  34.838  27.856  1.00  0.00     0.198 A 
ATOM     91  F   UNL A   1      45.195  33.206  26.339  1.00  0.00    -0.203 F 
ATOM     92  F   UNL A   1      47.001  34.545  31.315  1.00  0.00    -0.200 F 
ATOM     93  C   UNL A   1      46.412  35.187  29.120  1.00  0.00     0.200 A 
ATOM     94  F   UNL A   1      45.814  35.779  26.914  1.00  0.00    -0.200 F 
ATOM     95  F   UNL A   1      46.682  36.467  29.407  1.00  0.00    -0.200 F 
ENDBRANCH  62  85
ENDBRANCH  36  37
ENDBRANCH  28  31
ENDBRANCH  26  27
ENDBRANCH  25  26
ENDBRANCH  24  25
ENDBRANCH   1  24
TORSDOF 16
ENDMDL
MODEL 3
REMARK VINA RESULT:     -11.7      0.975      7.339
REMARK SMILES CN(CCS(C)(=O)=O)S(=O)(=O)c1cc(C(=O)NCCCCNC(=O)c2ccc(-c3c4nc(c(-c5c(F)c(F)c(F)c(F)c5F)c5ccc([nH]5)c(-c5c(F)c(F)c(F)c(F)c5F)c5nc(c(-c6c(F)c(F)c(F)c(F)c6F)c6ccc3[nH]6)C=C5)C=C4)cc2)ccc1F
REMARK SMILES IDX 18 1 17 2 15 3 16 4 14 6 12 7 13 8 90 9 89 10 91 11 88 12
REMARK SMILES IDX 9 13 10 14 11 15 2 16 1 17 3 18 4 19 5 20 6 21 7 22 8 23
REMARK SMILES IDX 19 24 20 25 21 26 22 27 23 28 24 30 25 31 26 32 87 33 27 34
REMARK SMILES IDX 86 35 28 36 29 37 30 38 80 39 31 40 85 41 79 42 81 43 32 44
REMARK SMILES IDX 84 45 78 46 77 47 33 49 65 50 45 51 64 52 46 53 49 54 63 55
REMARK SMILES IDX 82 56 47 57 48 58 62 60 83 61 50 62 34 63 35 64 43 65 36 66
REMARK SMILES IDX 37 67 41 68 44 69 38 70 39 71 42 72 40 73 66 74 67 75 75 76
REMARK SMILES IDX 68 77 69 78 73 79 76 80 70 81 71 82 74 83 72 84 51 85 52 86
REMARK SMILES IDX 60 87 53 88 54 89 58 90 61 91 55 92 56 93 59 94 57 95
REMARK H PARENT 17 5 22 29 81 48 49 59
REMARK Flexibility Score: inf
ROOT
ATOM      1  C   UNL A   1      37.147  22.050  25.612  1.00  0.00     0.116 C 
ENDROOT
BRANCH   1   2
ATOM      2  N   UNL A   1      36.049  22.474  26.455  1.00  0.00    -0.352 N 
ATOM      3  C   UNL A   1      34.800  22.993  26.247  1.00  0.00     0.251 C 
ATOM      4  O   UNL A   1      34.110  23.143  27.259  1.00  0.00    -0.269 OA
ATOM      5  H   UNL A   1      36.251  22.364  27.412  1.00  0.00     0.163 HD
BRANCH   3   6
ATOM      6  C   UNL A   1      34.211  23.399  24.930  1.00  0.00     0.041 A 
ATOM      7  C   UNL A   1      33.469  25.281  23.538  1.00  0.00     0.119 A 
ATOM      8  C   UNL A   1      34.002  24.784  24.740  1.00  0.00     0.038 A 
ATOM      9  C   UNL A   1      33.205  24.418  22.493  1.00  0.00     0.143 A 
ATOM     10  C   UNL A   1      33.358  23.051  22.674  1.00  0.00     0.041 A 
ATOM     11  F   UNL A   1      32.798  24.844  21.294  1.00  0.00    -0.206 F 
ATOM     12  C   UNL A   1      33.846  22.546  23.886  1.00  0.00     0.017 A 
BRANCH   7  13
ATOM     13  S   UNL A   1      33.117  27.000  23.395  1.00  0.00     0.245 S 
ATOM     14  O   UNL A   1      33.536  27.510  22.108  1.00  0.00    -0.207 OA
ATOM     15  O   UNL A   1      33.578  27.620  24.616  1.00  0.00    -0.207 OA
BRANCH  13  16
ATOM     16  N   UNL A   1      31.410  27.085  23.398  1.00  0.00    -0.200 NA
ATOM     17  C   UNL A   1      30.835  27.234  24.756  1.00  0.00     0.124 C 
BRANCH  16  18
ATOM     18  C   UNL A   1      30.655  27.794  22.326  1.00  0.00     0.118 C 
BRANCH  18  19
ATOM     19  C   UNL A   1      30.434  29.290  22.454  1.00  0.00     0.153 C 
BRANCH  19  20
ATOM     20  S   UNL A   1      28.760  29.858  22.717  1.00  0.00     0.148 S 
ATOM     21  C   UNL A   1      28.184  30.604  21.208  1.00  0.00     0.158 C 
ATOM     22  O   UNL A   1      27.942  28.676  22.921  1.00  0.00    -0.229 OA
ATOM     23  O   UNL A   1      28.777  30.900  23.718  1.00  0.00    -0.229 OA
ENDBRANCH  19  20
ENDBRANCH  18  19
ENDBRANCH  16  18
ENDBRANCH  13  16
ENDBRANCH   7  13
ENDBRANCH   3   6
ENDBRANCH   1   2
BRANCH   1  24
ATOM     24  C   UNL A   1      37.021  20.590  25.179  1.00  0.00     0.023 C 
BRANCH  24  25
ATOM     25  C   UNL A   1      38.356  19.927  24.818  1.00  0.00     0.023 C 
BRANCH  25  26
ATOM     26  C   UNL A   1      39.477  20.113  25.839  1.00  0.00     0.116 C 
BRANCH  26  27
ATOM     27  N   UNL A   1      40.400  18.988  25.903  1.00  0.00    -0.352 N 
ATOM     28  C   UNL A   1      41.755  19.005  26.136  1.00  0.00     0.251 C 
ATOM     29  H   UNL A   1      40.002  18.099  25.760  1.00  0.00     0.163 HD
ATOM     30  O   UNL A   1      42.417  17.977  26.056  1.00  0.00    -0.269 OA
BRANCH  28  31
ATOM     31  C   UNL A   1      42.410  20.291  26.441  1.00  0.00     0.039 A 
ATOM     32  C   UNL A   1      42.998  21.014  25.403  1.00  0.00     0.014 A 
ATOM     33  C   UNL A   1      42.381  20.807  27.740  1.00  0.00     0.014 A 
ATOM     34  C   UNL A   1      43.489  22.296  25.653  1.00  0.00     0.010 A 
ATOM     35  C   UNL A   1      42.796  22.113  27.969  1.00  0.00     0.010 A 
ATOM     36  C   UNL A   1      43.348  22.874  26.927  1.00  0.00    -0.014 A 
BRANCH  36  37
ATOM     37  C   UNL A   1      43.757  24.277  27.187  1.00  0.00     0.031 A 
ATOM     38  C   UNL A   1      42.752  25.274  27.690  1.00  0.00     0.074 A 
ATOM     39  C   UNL A   1      45.016  24.667  26.908  1.00  0.00     0.049 A 
ATOM     40  N   UNL A   1      42.897  26.556  27.905  1.00  0.00    -0.248 NA
ATOM     41  C   UNL A   1      41.397  24.770  27.964  1.00  0.00     0.031 C 
ATOM     42  C   UNL A   1      46.069  23.800  26.377  1.00  0.00     0.029 A 
ATOM     43  N   UNL A   1      45.624  25.892  27.023  1.00  0.00    -0.354 N 
ATOM     44  C   UNL A   1      41.657  27.009  28.331  1.00  0.00     0.074 A 
ATOM     45  C   UNL A   1      40.753  25.882  28.287  1.00  0.00     0.031 C 
ATOM     46  C   UNL A   1      47.200  24.511  26.243  1.00  0.00     0.029 A 
ATOM     47  C   UNL A   1      46.941  25.894  26.633  1.00  0.00     0.049 A 
ATOM     48  H   UNL A   1      45.160  26.694  27.356  1.00  0.00     0.167 HD
ATOM     49  C   UNL A   1      41.313  28.250  28.748  1.00  0.00     0.037 A 
ATOM     50  C   UNL A   1      47.839  26.899  26.584  1.00  0.00     0.037 A 
ATOM     51  C   UNL A   1      42.225  29.361  28.813  1.00  0.00     0.049 A 
ATOM     52  C   UNL A   1      47.422  28.277  27.024  1.00  0.00     0.074 A 
ATOM     53  C   UNL A   1      41.983  30.644  29.272  1.00  0.00     0.029 A 
ATOM     54  N   UNL A   1      43.549  29.325  28.403  1.00  0.00    -0.354 N 
ATOM     55  N   UNL A   1      46.261  28.680  27.481  1.00  0.00    -0.248 NA
ATOM     56  C   UNL A   1      48.436  29.337  26.947  1.00  0.00     0.031 C 
ATOM     57  C   UNL A   1      43.141  31.400  29.085  1.00  0.00     0.029 A 
ATOM     58  C   UNL A   1      44.127  30.572  28.573  1.00  0.00     0.049 A 
ATOM     59  H   UNL A   1      44.009  28.531  28.046  1.00  0.00     0.167 HD
ATOM     60  C   UNL A   1      46.412  30.029  27.770  1.00  0.00     0.074 A 
ATOM     61  C   UNL A   1      47.780  30.376  27.447  1.00  0.00     0.031 C 
ATOM     62  C   UNL A   1      45.496  30.901  28.259  1.00  0.00     0.037 A 
BRANCH  49  63
ATOM     63  C   UNL A   1      39.895  28.478  29.187  1.00  0.00     0.064 A 
ATOM     64  C   UNL A   1      38.944  28.982  28.287  1.00  0.00     0.173 A 
ATOM     65  C   UNL A   1      39.498  28.279  30.517  1.00  0.00     0.173 A 
ATOM     66  F   UNL A   1      39.273  29.195  27.003  1.00  0.00    -0.203 F 
ATOM     67  C   UNL A   1      37.654  29.295  28.707  1.00  0.00     0.198 A 
ATOM     68  C   UNL A   1      38.197  28.561  30.927  1.00  0.00     0.198 A 
ATOM     69  F   UNL A   1      40.365  27.787  31.415  1.00  0.00    -0.203 F 
ATOM     70  F   UNL A   1      36.776  29.813  27.838  1.00  0.00    -0.200 F 
ATOM     71  C   UNL A   1      37.281  29.081  30.025  1.00  0.00     0.200 A 
ATOM     72  F   UNL A   1      37.831  28.329  32.195  1.00  0.00    -0.200 F 
ATOM     73  F   UNL A   1      36.037  29.376  30.427  1.00  0.00    -0.200 F 
ENDBRANCH  49  63
BRANCH  50  74
ATOM     74  C   UNL A   1      49.226  26.623  26.127  1.00  0.00     0.064 A 
ATOM     75  C   UNL A   1      50.213  26.165  27.013  1.00  0.00     0.173 A 
ATOM     76  C   UNL A   1      49.602  26.846  24.795  1.00  0.00     0.173 A 
ATOM     77  F   UNL A   1      49.908  25.942  28.301  1.00  0.00    -0.203 F 
ATOM     78  C   UNL A   1      51.525  25.966  26.591  1.00  0.00     0.198 A 
ATOM     79  C   UNL A   1      50.907  26.616  24.366  1.00  0.00     0.198 A 
ATOM     80  F   UNL A   1      48.691  27.263  23.904  1.00  0.00    -0.203 F 
ATOM     81  F   UNL A   1      52.456  25.568  27.468  1.00  0.00    -0.200 F 
ATOM     82  C   UNL A   1      51.871  26.186  25.267  1.00  0.00     0.200 A 
ATOM     83  F   UNL A   1      51.231  26.807  23.080  1.00  0.00    -0.200 F 
ATOM     84  F   UNL A   1      53.130  25.983  24.857  1.00  0.00    -0.200 F 
ENDBRANCH  50  74
BRANCH  62  85
ATOM     85  C   UNL A   1      45.933  32.315  28.511  1.00  0.00     0.064 A 
ATOM     86  C   UNL A   1      45.846  33.274  27.491  1.00  0.00     0.173 A 
ATOM     87  C   UNL A   1      46.538  32.693  29.718  1.00  0.00     0.173 A 
ATOM     88  F   UNL A   1      45.284  32.961  26.313  1.00  0.00    -0.203 F 
ATOM     89  C   UNL A   1      46.373  34.551  27.660  1.00  0.00     0.198 A 
ATOM     90  C   UNL A   1      47.036  33.981  29.895  1.00  0.00     0.198 A 
ATOM     91  F   UNL A   1      46.636  31.815  30.729  1.00  0.00    -0.203 F 
ATOM     92  F   UNL A   1      46.323  35.434  26.652  1.00  0.00    -0.200 F 
ATOM     93  C   UNL A   1      46.966  34.904  28.862  1.00  0.00     0.200 A 
ATOM     94  F   UNL A   1      47.588  34.328  31.066  1.00  0.00    -0.200 F 
ATOM     95  F   UNL A   1      47.472  36.134  29.025  1.00  0.00    -0.200 F 
ENDBRANCH  62  85
ENDBRANCH  36  37
ENDBRANCH  28  31
ENDBRANCH  26  27
ENDBRANCH  25  26
ENDBRANCH  24  25
ENDBRANCH   1  24
TORSDOF 16
ENDMDL
