MODEL 1
REMARK VINA RESULT:     -13.2      0.000      0.000
REMARK SMILES Cc1cc(C)c2c(c1)C=C(C(=O)NCCCCNC(=O)c1ccc(-c3c4nc(c(-c5c(F)c(F)c(F)c(F)c5F)c5ccc([nH]5)c(-c5c(F)c(F)c(F)c(F)c5F)c5nc(c(-c6c(F)c(F)c(F)c(F)c6F)c6ccc3[nH]6)C=C5)C=C4)cc1)[C@@H](C(F)(F)F)O2
REMARK SMILES IDX 16 1 15 2 14 3 13 4 11 5 12 6 10 8 1 9 2 10 3 11 8 12 4 13
REMARK SMILES IDX 7 14 5 15 6 16 9 17 89 18 84 19 85 20 86 21 87 22 88 23
REMARK SMILES IDX 17 24 18 25 19 26 20 28 21 29 22 30 83 31 23 32 82 33 24 34
REMARK SMILES IDX 25 35 26 36 76 37 27 38 81 39 75 40 77 41 28 42 80 43 74 44
REMARK SMILES IDX 73 45 29 47 61 48 41 49 60 50 42 51 45 52 59 53 78 54 43 55
REMARK SMILES IDX 44 56 58 58 79 59 46 60 30 61 31 62 39 63 32 64 33 65 37 66
REMARK SMILES IDX 40 67 34 68 35 69 38 70 36 71 62 72 63 73 71 74 64 75 65 76
REMARK SMILES IDX 69 77 72 78 66 79 67 80 70 81 68 82 47 83 48 84 56 85 49 86
REMARK SMILES IDX 50 87 54 88 57 89 51 90 52 91 55 92 53 93
REMARK H PARENT 13 7 18 27 77 46 45 57
REMARK Flexibility Score: inf
ROOT
ATOM      1  C   UNL A   1      31.587  32.006  26.815  1.00  0.00     0.023 C 
ENDROOT
BRANCH   1   2
ATOM      2  C   UNL A   1      31.798  30.491  26.841  1.00  0.00     0.023 C 
BRANCH   2   3
ATOM      3  C   UNL A   1      33.252  30.065  26.667  1.00  0.00     0.116 C 
BRANCH   3   4
ATOM      4  N   UNL A   1      33.548  29.696  25.295  1.00  0.00    -0.352 N 
ATOM      5  C   UNL A   1      33.447  28.584  24.529  1.00  0.00     0.251 C 
ATOM      6  O   UNL A   1      33.835  28.715  23.364  1.00  0.00    -0.270 OA
ATOM      7  H   UNL A   1      33.920  30.453  24.787  1.00  0.00     0.163 HD
BRANCH   5   8
ATOM      8  C   UNL A   1      32.921  27.263  24.991  1.00  0.00     0.067 C 
ATOM      9  C   UNL A   1      34.927  21.658  26.661  1.00  0.00     0.044 C 
ATOM     10  C   UNL A   1      33.921  22.750  26.440  1.00  0.00    -0.050 A 
ATOM     11  C   UNL A   1      32.565  22.542  26.718  1.00  0.00     0.010 A 
ATOM     12  C   UNL A   1      34.342  24.001  25.966  1.00  0.00     0.015 A 
ATOM     13  C   UNL A   1      31.628  23.566  26.528  1.00  0.00    -0.008 A 
ATOM     14  C   UNL A   1      33.420  25.031  25.772  1.00  0.00     0.018 A 
ATOM     15  C   UNL A   1      30.176  23.336  26.835  1.00  0.00     0.048 C 
ATOM     16  C   UNL A   1      32.069  24.806  26.048  1.00  0.00     0.130 A 
ATOM     17  C   UNL A   1      33.851  26.352  25.327  1.00  0.00     0.025 C 
ATOM     18  O   UNL A   1      31.130  25.790  25.919  1.00  0.00    -0.475 OA
ATOM     19  C   UNL A   1      31.464  26.907  25.056  1.00  0.00     0.314 C 
BRANCH  19  20
ATOM     20  C   UNL A   1      30.844  26.673  23.665  1.00  0.00     0.429 C 
ATOM     21  F   UNL A   1      30.346  27.833  23.169  1.00  0.00    -0.167 F 
ATOM     22  F   UNL A   1      31.752  26.233  22.760  1.00  0.00    -0.167 F 
ATOM     23  F   UNL A   1      29.838  25.772  23.683  1.00  0.00    -0.167 F 
ENDBRANCH  19  20
ENDBRANCH   5   8
ENDBRANCH   3   4
ENDBRANCH   2   3
ENDBRANCH   1   2
BRANCH   1  24
ATOM     24  C   UNL A   1      32.778  32.840  27.282  1.00  0.00     0.116 C 
BRANCH  24  25
ATOM     25  N   UNL A   1      32.432  34.207  27.642  1.00  0.00    -0.352 N 
ATOM     26  C   UNL A   1      33.004  35.007  28.599  1.00  0.00     0.251 C 
ATOM     27  H   UNL A   1      31.691  34.610  27.132  1.00  0.00     0.163 HD
ATOM     28  O   UNL A   1      32.548  36.117  28.847  1.00  0.00    -0.269 OA
BRANCH  26  29
ATOM     29  C   UNL A   1      34.159  34.492  29.356  1.00  0.00     0.039 A 
ATOM     30  C   UNL A   1      33.931  33.844  30.571  1.00  0.00     0.014 A 
ATOM     31  C   UNL A   1      35.451  34.605  28.835  1.00  0.00     0.014 A 
ATOM     32  C   UNL A   1      35.000  33.248  31.239  1.00  0.00     0.010 A 
ATOM     33  C   UNL A   1      36.503  33.958  29.470  1.00  0.00     0.010 A 
ATOM     34  C   UNL A   1      36.286  33.277  30.677  1.00  0.00    -0.014 A 
BRANCH  34  35
ATOM     35  C   UNL A   1      37.429  32.622  31.355  1.00  0.00     0.031 A 
ATOM     36  C   UNL A   1      38.152  31.500  30.669  1.00  0.00     0.074 A 
ATOM     37  C   UNL A   1      37.779  33.005  32.596  1.00  0.00     0.049 A 
ATOM     38  N   UNL A   1      39.127  30.751  31.115  1.00  0.00    -0.248 NA
ATOM     39  C   UNL A   1      37.701  31.158  29.311  1.00  0.00     0.031 C 
ATOM     40  C   UNL A   1      37.128  34.061  33.372  1.00  0.00     0.029 A 
ATOM     41  N   UNL A   1      38.770  32.545  33.425  1.00  0.00    -0.354 N 
ATOM     42  C   UNL A   1      39.398  29.847  30.097  1.00  0.00     0.074 A 
ATOM     43  C   UNL A   1      38.451  30.102  29.034  1.00  0.00     0.031 C 
ATOM     44  C   UNL A   1      37.755  34.187  34.553  1.00  0.00     0.029 A 
ATOM     45  C   UNL A   1      38.829  33.202  34.630  1.00  0.00     0.049 A 
ATOM     46  H   UNL A   1      39.382  31.812  33.181  1.00  0.00     0.167 HD
ATOM     47  C   UNL A   1      40.370  28.907  30.044  1.00  0.00     0.037 A 
ATOM     48  C   UNL A   1      39.659  33.025  35.675  1.00  0.00     0.037 A 
ATOM     49  C   UNL A   1      41.329  28.677  31.091  1.00  0.00     0.049 A 
ATOM     50  C   UNL A   1      40.721  31.962  35.597  1.00  0.00     0.074 A 
ATOM     51  C   UNL A   1      42.381  27.780  31.114  1.00  0.00     0.029 A 
ATOM     52  N   UNL A   1      41.352  29.356  32.299  1.00  0.00    -0.354 N 
ATOM     53  N   UNL A   1      40.994  31.138  34.615  1.00  0.00    -0.248 NA
ATOM     54  C   UNL A   1      41.588  31.804  36.773  1.00  0.00     0.031 C 
ATOM     55  C   UNL A   1      43.024  27.894  32.351  1.00  0.00     0.029 A 
ATOM     56  C   UNL A   1      42.393  28.887  33.084  1.00  0.00     0.049 A 
ATOM     57  H   UNL A   1      40.723  30.066  32.561  1.00  0.00     0.167 HD
ATOM     58  C   UNL A   1      42.070  30.375  35.045  1.00  0.00     0.074 A 
ATOM     59  C   UNL A   1      42.413  30.846  36.371  1.00  0.00     0.031 C 
ATOM     60  C   UNL A   1      42.713  29.370  34.402  1.00  0.00     0.037 A 
BRANCH  47  61
ATOM     61  C   UNL A   1      40.454  28.070  28.803  1.00  0.00     0.064 A 
ATOM     62  C   UNL A   1      41.226  28.474  27.702  1.00  0.00     0.173 A 
ATOM     63  C   UNL A   1      39.785  26.840  28.722  1.00  0.00     0.173 A 
ATOM     64  F   UNL A   1      41.871  29.650  27.726  1.00  0.00    -0.203 F 
ATOM     65  C   UNL A   1      41.307  27.686  26.558  1.00  0.00     0.198 A 
ATOM     66  C   UNL A   1      39.890  26.043  27.586  1.00  0.00     0.198 A 
ATOM     67  F   UNL A   1      39.034  26.410  29.747  1.00  0.00    -0.203 F 
ATOM     68  F   UNL A   1      42.016  28.111  25.504  1.00  0.00    -0.200 F 
ATOM     69  C   UNL A   1      40.646  26.468  26.503  1.00  0.00     0.200 A 
ATOM     70  F   UNL A   1      39.257  24.863  27.537  1.00  0.00    -0.200 F 
ATOM     71  F   UNL A   1      40.730  25.707  25.404  1.00  0.00    -0.200 F 
ENDBRANCH  47  61
BRANCH  48  72
ATOM     72  C   UNL A   1      39.540  33.899  36.869  1.00  0.00     0.064 A 
ATOM     73  C   UNL A   1      40.176  35.148  36.905  1.00  0.00     0.173 A 
ATOM     74  C   UNL A   1      38.783  33.518  37.985  1.00  0.00     0.173 A 
ATOM     75  F   UNL A   1      40.928  35.545  35.869  1.00  0.00    -0.203 F 
ATOM     76  C   UNL A   1      40.068  35.979  38.018  1.00  0.00     0.198 A 
ATOM     77  C   UNL A   1      38.656  34.359  39.089  1.00  0.00     0.198 A 
ATOM     78  F   UNL A   1      38.153  32.334  37.998  1.00  0.00    -0.203 F 
ATOM     79  F   UNL A   1      40.711  37.154  38.040  1.00  0.00    -0.200 F 
ATOM     80  C   UNL A   1      39.303  35.587  39.107  1.00  0.00     0.200 A 
ATOM     81  F   UNL A   1      37.907  33.983  40.134  1.00  0.00    -0.200 F 
ATOM     82  F   UNL A   1      39.192  36.390  40.174  1.00  0.00    -0.200 F 
ENDBRANCH  48  72
BRANCH  60  83
ATOM     83  C   UNL A   1      43.855  28.715  35.119  1.00  0.00     0.064 A 
ATOM     84  C   UNL A   1      43.654  27.595  35.939  1.00  0.00     0.173 A 
ATOM     85  C   UNL A   1      45.169  29.168  34.930  1.00  0.00     0.173 A 
ATOM     86  F   UNL A   1      42.413  27.135  36.159  1.00  0.00    -0.203 F 
ATOM     87  C   UNL A   1      44.727  26.960  36.556  1.00  0.00     0.198 A 
ATOM     88  C   UNL A   1      46.243  28.515  35.528  1.00  0.00     0.198 A 
ATOM     89  F   UNL A   1      45.413  30.231  34.148  1.00  0.00    -0.203 F 
ATOM     90  F   UNL A   1      44.509  25.912  37.361  1.00  0.00    -0.200 F 
ATOM     91  C   UNL A   1      46.020  27.414  36.344  1.00  0.00     0.200 A 
ATOM     92  F   UNL A   1      47.493  28.947  35.313  1.00  0.00    -0.200 F 
ATOM     93  F   UNL A   1      47.054  26.793  36.928  1.00  0.00    -0.200 F 
ENDBRANCH  60  83
ENDBRANCH  34  35
ENDBRANCH  26  29
ENDBRANCH  24  25
ENDBRANCH   1  24
TORSDOF 12
ENDMDL
MODEL 2
REMARK VINA RESULT:     -13.2      0.134      1.598
REMARK SMILES Cc1cc(C)c2c(c1)C=C(C(=O)NCCCCNC(=O)c1ccc(-c3c4nc(c(-c5c(F)c(F)c(F)c(F)c5F)c5ccc([nH]5)c(-c5c(F)c(F)c(F)c(F)c5F)c5nc(c(-c6c(F)c(F)c(F)c(F)c6F)c6ccc3[nH]6)C=C5)C=C4)cc1)[C@@H](C(F)(F)F)O2
REMARK SMILES IDX 16 1 15 2 14 3 13 4 11 5 12 6 10 8 1 9 2 10 3 11 8 12 4 13
REMARK SMILES IDX 7 14 5 15 6 16 9 17 89 18 84 19 85 20 86 21 87 22 88 23
REMARK SMILES IDX 17 24 18 25 19 26 20 28 21 29 22 30 83 31 23 32 82 33 24 34
REMARK SMILES IDX 25 35 26 36 76 37 27 38 81 39 75 40 77 41 28 42 80 43 74 44
REMARK SMILES IDX 73 45 29 47 61 48 41 49 60 50 42 51 45 52 59 53 78 54 43 55
REMARK SMILES IDX 44 56 58 58 79 59 46 60 30 61 31 62 39 63 32 64 33 65 37 66
REMARK SMILES IDX 40 67 34 68 35 69 38 70 36 71 62 72 63 73 71 74 64 75 65 76
REMARK SMILES IDX 69 77 72 78 66 79 67 80 70 81 68 82 47 83 48 84 56 85 49 86
REMARK SMILES IDX 50 87 54 88 57 89 51 90 52 91 55 92 53 93
REMARK H PARENT 13 7 18 27 77 46 45 57
REMARK Flexibility Score: inf
ROOT
ATOM      1  C   UNL A   1      31.574  32.012  26.783  1.00  0.00     0.023 C 
ENDROOT
BRANCH   1   2
ATOM      2  C   UNL A   1      31.770  30.495  26.826  1.00  0.00     0.023 C 
BRANCH   2   3
ATOM      3  C   UNL A   1      33.230  30.057  26.759  1.00  0.00     0.116 C 
BRANCH   3   4
ATOM      4  N   UNL A   1      33.621  29.678  25.414  1.00  0.00    -0.352 N 
ATOM      5  C   UNL A   1      33.575  28.560  24.652  1.00  0.00     0.251 C 
ATOM      6  O   UNL A   1      34.042  28.684  23.515  1.00  0.00    -0.270 OA
ATOM      7  H   UNL A   1      34.025  30.433  24.927  1.00  0.00     0.163 HD
BRANCH   5   8
ATOM      8  C   UNL A   1      33.022  27.242  25.087  1.00  0.00     0.067 C 
ATOM      9  C   UNL A   1      34.904  21.540  26.561  1.00  0.00     0.044 C 
ATOM     10  C   UNL A   1      33.925  22.663  26.389  1.00  0.00    -0.050 A 
ATOM     11  C   UNL A   1      32.569  22.484  26.687  1.00  0.00     0.010 A 
ATOM     12  C   UNL A   1      34.371  23.916  25.943  1.00  0.00     0.015 A 
ATOM     13  C   UNL A   1      31.657  23.538  26.543  1.00  0.00    -0.008 A 
ATOM     14  C   UNL A   1      33.474  24.976  25.795  1.00  0.00     0.018 A 
ATOM     15  C   UNL A   1      30.205  23.338  26.871  1.00  0.00     0.048 C 
ATOM     16  C   UNL A   1      32.123  24.779  26.090  1.00  0.00     0.130 A 
ATOM     17  C   UNL A   1      33.933  26.296  25.379  1.00  0.00     0.025 C 
ATOM     18  O   UNL A   1      31.209  25.791  26.007  1.00  0.00    -0.475 OA
ATOM     19  C   UNL A   1      31.557  26.923  25.169  1.00  0.00     0.314 C 
BRANCH  19  20
ATOM     20  C   UNL A   1      30.906  26.745  23.784  1.00  0.00     0.429 C 
ATOM     21  F   UNL A   1      30.626  27.954  23.235  1.00  0.00    -0.167 F 
ATOM     22  F   UNL A   1      31.719  26.109  22.906  1.00  0.00    -0.167 F 
ATOM     23  F   UNL A   1      29.753  26.043  23.831  1.00  0.00    -0.167 F 
ENDBRANCH  19  20
ENDBRANCH   5   8
ENDBRANCH   3   4
ENDBRANCH   2   3
ENDBRANCH   1   2
BRANCH   1  24
ATOM     24  C   UNL A   1      32.759  32.838  27.281  1.00  0.00     0.116 C 
BRANCH  24  25
ATOM     25  N   UNL A   1      32.411  34.207  27.634  1.00  0.00    -0.352 N 
ATOM     26  C   UNL A   1      32.981  35.010  28.589  1.00  0.00     0.251 C 
ATOM     27  H   UNL A   1      31.671  34.608  27.121  1.00  0.00     0.163 HD
ATOM     28  O   UNL A   1      32.523  36.122  28.832  1.00  0.00    -0.269 OA
BRANCH  26  29
ATOM     29  C   UNL A   1      34.133  34.499  29.352  1.00  0.00     0.039 A 
ATOM     30  C   UNL A   1      33.902  33.862  30.572  1.00  0.00     0.014 A 
ATOM     31  C   UNL A   1      35.426  34.604  28.830  1.00  0.00     0.014 A 
ATOM     32  C   UNL A   1      34.969  33.269  31.247  1.00  0.00     0.010 A 
ATOM     33  C   UNL A   1      36.476  33.959  29.473  1.00  0.00     0.010 A 
ATOM     34  C   UNL A   1      36.256  33.289  30.685  1.00  0.00    -0.014 A 
BRANCH  34  35
ATOM     35  C   UNL A   1      37.396  32.636  31.369  1.00  0.00     0.031 A 
ATOM     36  C   UNL A   1      38.119  31.510  30.692  1.00  0.00     0.074 A 
ATOM     37  C   UNL A   1      37.744  33.026  32.609  1.00  0.00     0.049 A 
ATOM     38  N   UNL A   1      39.093  30.762  31.144  1.00  0.00    -0.248 NA
ATOM     39  C   UNL A   1      37.671  31.160  29.335  1.00  0.00     0.031 C 
ATOM     40  C   UNL A   1      37.093  34.088  33.377  1.00  0.00     0.029 A 
ATOM     41  N   UNL A   1      38.733  32.570  33.443  1.00  0.00    -0.354 N 
ATOM     42  C   UNL A   1      39.364  29.852  30.133  1.00  0.00     0.074 A 
ATOM     43  C   UNL A   1      38.420  30.102  29.066  1.00  0.00     0.031 C 
ATOM     44  C   UNL A   1      37.717  34.220  34.559  1.00  0.00     0.029 A 
ATOM     45  C   UNL A   1      38.789  33.234  34.644  1.00  0.00     0.049 A 
ATOM     46  H   UNL A   1      39.344  31.835  33.204  1.00  0.00     0.167 HD
ATOM     47  C   UNL A   1      40.335  28.910  30.087  1.00  0.00     0.037 A 
ATOM     48  C   UNL A   1      39.616  33.062  35.692  1.00  0.00     0.037 A 
ATOM     49  C   UNL A   1      41.292  28.685  31.138  1.00  0.00     0.049 A 
ATOM     50  C   UNL A   1      40.677  31.998  35.623  1.00  0.00     0.074 A 
ATOM     51  C   UNL A   1      42.343  27.787  31.169  1.00  0.00     0.029 A 
ATOM     52  N   UNL A   1      41.313  29.372  32.342  1.00  0.00    -0.354 N 
ATOM     53  N   UNL A   1      40.952  31.167  34.647  1.00  0.00    -0.248 NA
ATOM     54  C   UNL A   1      41.541  31.846  36.802  1.00  0.00     0.031 C 
ATOM     55  C   UNL A   1      42.983  27.908  32.407  1.00  0.00     0.029 A 
ATOM     56  C   UNL A   1      42.351  28.906  33.132  1.00  0.00     0.049 A 
ATOM     57  H   UNL A   1      40.684  30.084  32.598  1.00  0.00     0.167 HD
ATOM     58  C   UNL A   1      42.026  30.406  35.084  1.00  0.00     0.074 A 
ATOM     59  C   UNL A   1      42.366  30.884  36.408  1.00  0.00     0.031 C 
ATOM     60  C   UNL A   1      42.669  29.396  34.449  1.00  0.00     0.037 A 
BRANCH  47  61
ATOM     61  C   UNL A   1      40.421  28.066  28.851  1.00  0.00     0.064 A 
ATOM     62  C   UNL A   1      41.197  28.461  27.751  1.00  0.00     0.173 A 
ATOM     63  C   UNL A   1      39.750  26.837  28.776  1.00  0.00     0.173 A 
ATOM     64  F   UNL A   1      41.845  29.636  27.770  1.00  0.00    -0.203 F 
ATOM     65  C   UNL A   1      41.280  27.667  26.612  1.00  0.00     0.198 A 
ATOM     66  C   UNL A   1      39.857  26.033  27.645  1.00  0.00     0.198 A 
ATOM     67  F   UNL A   1      38.995  26.414  29.802  1.00  0.00    -0.203 F 
ATOM     68  F   UNL A   1      41.993  28.084  25.557  1.00  0.00    -0.200 F 
ATOM     69  C   UNL A   1      40.616  26.450  26.562  1.00  0.00     0.200 A 
ATOM     70  F   UNL A   1      39.221  24.854  27.601  1.00  0.00    -0.200 F 
ATOM     71  F   UNL A   1      40.702  25.683  25.467  1.00  0.00    -0.200 F 
ENDBRANCH  47  61
BRANCH  48  72
ATOM     72  C   UNL A   1      39.496  33.944  36.881  1.00  0.00     0.064 A 
ATOM     73  C   UNL A   1      38.760  33.535  38.001  1.00  0.00     0.173 A 
ATOM     74  C   UNL A   1      40.122  35.197  36.931  1.00  0.00     0.173 A 
ATOM     75  F   UNL A   1      38.127  32.353  37.990  1.00  0.00    -0.203 F 
ATOM     76  C   UNL A   1      38.645  34.352  39.124  1.00  0.00     0.198 A 
ATOM     77  C   UNL A   1      40.025  36.004  38.063  1.00  0.00     0.198 A 
ATOM     78  F   UNL A   1      40.840  35.632  35.885  1.00  0.00    -0.203 F 
ATOM     79  F   UNL A   1      37.909  33.951  40.170  1.00  0.00    -0.200 F 
ATOM     80  C   UNL A   1      39.282  35.583  39.157  1.00  0.00     0.200 A 
ATOM     81  F   UNL A   1      40.652  37.188  38.097  1.00  0.00    -0.200 F 
ATOM     82  F   UNL A   1      39.179  36.365  40.240  1.00  0.00    -0.200 F 
ENDBRANCH  48  72
BRANCH  60  83
ATOM     83  C   UNL A   1      43.809  28.744  35.171  1.00  0.00     0.064 A 
ATOM     84  C   UNL A   1      45.126  29.200  35.015  1.00  0.00     0.173 A 
ATOM     85  C   UNL A   1      43.574  27.700  36.078  1.00  0.00     0.173 A 
ATOM     86  F   UNL A   1      45.400  30.187  34.149  1.00  0.00    -0.203 F 
ATOM     87  C   UNL A   1      46.169  28.624  35.732  1.00  0.00     0.198 A 
ATOM     88  C   UNL A   1      44.617  27.143  36.812  1.00  0.00     0.198 A 
ATOM     89  F   UNL A   1      42.330  27.235  36.267  1.00  0.00    -0.203 F 
ATOM     90  F   UNL A   1      47.425  29.053  35.544  1.00  0.00    -0.200 F 
ATOM     91  C   UNL A   1      45.914  27.603  36.636  1.00  0.00     0.200 A 
ATOM     92  F   UNL A   1      44.367  26.165  37.694  1.00  0.00    -0.200 F 
ATOM     93  F   UNL A   1      46.919  27.058  37.335  1.00  0.00    -0.200 F 
ENDBRANCH  60  83
ENDBRANCH  34  35
ENDBRANCH  26  29
ENDBRANCH  24  25
ENDBRANCH   1  24
TORSDOF 12
ENDMDL
MODEL 3
REMARK VINA RESULT:     -13.1      0.565      7.344
REMARK SMILES Cc1cc(C)c2c(c1)C=C(C(=O)NCCCCNC(=O)c1ccc(-c3c4nc(c(-c5c(F)c(F)c(F)c(F)c5F)c5ccc([nH]5)c(-c5c(F)c(F)c(F)c(F)c5F)c5nc(c(-c6c(F)c(F)c(F)c(F)c6F)c6ccc3[nH]6)C=C5)C=C4)cc1)[C@@H](C(F)(F)F)O2
REMARK SMILES IDX 16 1 15 2 14 3 13 4 11 5 12 6 10 8 1 9 2 10 3 11 8 12 4 13
REMARK SMILES IDX 7 14 5 15 6 16 9 17 89 18 84 19 85 20 86 21 87 22 88 23
REMARK SMILES IDX 17 24 18 25 19 26 20 28 21 29 22 30 83 31 23 32 82 33 24 34
REMARK SMILES IDX 25 35 26 36 76 37 27 38 81 39 75 40 77 41 28 42 80 43 74 44
REMARK SMILES IDX 73 45 29 47 61 48 41 49 60 50 42 51 45 52 59 53 78 54 43 55
REMARK SMILES IDX 44 56 58 58 79 59 46 60 30 61 31 62 39 63 32 64 33 65 37 66
REMARK SMILES IDX 40 67 34 68 35 69 38 70 36 71 62 72 63 73 71 74 64 75 65 76
REMARK SMILES IDX 69 77 72 78 66 79 67 80 70 81 68 82 47 83 48 84 56 85 49 86
REMARK SMILES IDX 50 87 54 88 57 89 51 90 52 91 55 92 53 93
REMARK H PARENT 13 7 18 27 77 46 45 57
REMARK Flexibility Score: inf
ROOT
ATOM      1  C   UNL A   1      31.403  32.105  26.694  1.00  0.00     0.023 C 
ENDROOT
BRANCH   1   2
ATOM      2  C   UNL A   1      31.570  30.600  26.477  1.00  0.00     0.023 C 
BRANCH   2   3
ATOM      3  C   UNL A   1      33.005  30.172  26.188  1.00  0.00     0.116 C 
BRANCH   3   4
ATOM      4  N   UNL A   1      33.180  29.758  24.808  1.00  0.00    -0.352 N 
ATOM      5  C   UNL A   1      33.057  28.611  24.099  1.00  0.00     0.251 C 
ATOM      6  O   UNL A   1      33.318  28.711  22.896  1.00  0.00    -0.270 OA
ATOM      7  H   UNL A   1      33.460  30.509  24.237  1.00  0.00     0.163 HD
BRANCH   5   8
ATOM      8  C   UNL A   1      32.647  27.289  24.661  1.00  0.00     0.067 C 
ATOM      9  C   UNL A   1      35.112  21.925  26.501  1.00  0.00     0.044 C 
ATOM     10  C   UNL A   1      34.025  22.937  26.284  1.00  0.00    -0.050 A 
ATOM     11  C   UNL A   1      32.704  22.660  26.655  1.00  0.00     0.010 A 
ATOM     12  C   UNL A   1      34.334  24.182  25.720  1.00  0.00     0.015 A 
ATOM     13  C   UNL A   1      31.692  23.611  26.469  1.00  0.00    -0.008 A 
ATOM     14  C   UNL A   1      33.336  25.141  25.527  1.00  0.00     0.018 A 
ATOM     15  C   UNL A   1      30.278  23.308  26.876  1.00  0.00     0.048 C 
ATOM     16  C   UNL A   1      32.022  24.847  25.898  1.00  0.00     0.130 A 
ATOM     17  C   UNL A   1      33.653  26.458  24.988  1.00  0.00     0.025 C 
ATOM     18  O   UNL A   1      31.014  25.761  25.774  1.00  0.00    -0.475 OA
ATOM     19  C   UNL A   1      31.223  26.846  24.834  1.00  0.00     0.314 C 
BRANCH  19  20
ATOM     20  C   UNL A   1      30.541  26.494  23.498  1.00  0.00     0.429 C 
ATOM     21  F   UNL A   1      29.489  25.664  23.709  1.00  0.00    -0.167 F 
ATOM     22  F   UNL A   1      30.042  27.585  22.867  1.00  0.00    -0.167 F 
ATOM     23  F   UNL A   1      31.374  25.883  22.628  1.00  0.00    -0.167 F 
ENDBRANCH  19  20
ENDBRANCH   5   8
ENDBRANCH   3   4
ENDBRANCH   2   3
ENDBRANCH   1   2
BRANCH   1  24
ATOM     24  C   UNL A   1      32.645  32.833  27.203  1.00  0.00     0.116 C 
BRANCH  24  25
ATOM     25  N   UNL A   1      32.389  34.203  27.626  1.00  0.00    -0.352 N 
ATOM     26  C   UNL A   1      33.039  34.931  28.589  1.00  0.00     0.251 C 
ATOM     27  H   UNL A   1      31.653  34.665  27.161  1.00  0.00     0.163 HD
ATOM     28  O   UNL A   1      32.655  36.055  28.897  1.00  0.00    -0.269 OA
BRANCH  26  29
ATOM     29  C   UNL A   1      34.190  34.325  29.282  1.00  0.00     0.039 A 
ATOM     30  C   UNL A   1      33.953  33.485  30.371  1.00  0.00     0.014 A 
ATOM     31  C   UNL A   1      35.489  34.547  28.817  1.00  0.00     0.014 A 
ATOM     32  C   UNL A   1      35.022  32.812  30.961  1.00  0.00     0.010 A 
ATOM     33  C   UNL A   1      36.544  33.828  29.366  1.00  0.00     0.010 A 
ATOM     34  C   UNL A   1      36.318  32.957  30.442  1.00  0.00    -0.014 A 
BRANCH  34  35
ATOM     35  C   UNL A   1      37.462  32.225  31.033  1.00  0.00     0.031 A 
ATOM     36  C   UNL A   1      37.947  32.591  32.405  1.00  0.00     0.074 A 
ATOM     37  C   UNL A   1      38.087  31.271  30.318  1.00  0.00     0.049 A 
ATOM     38  N   UNL A   1      38.971  32.124  33.072  1.00  0.00    -0.248 NA
ATOM     39  C   UNL A   1      37.195  33.640  33.111  1.00  0.00     0.031 C 
ATOM     40  C   UNL A   1      37.724  30.854  28.963  1.00  0.00     0.029 A 
ATOM     41  N   UNL A   1      39.164  30.482  30.632  1.00  0.00    -0.354 N 
ATOM     42  C   UNL A   1      38.989  32.827  34.267  1.00  0.00     0.074 A 
ATOM     43  C   UNL A   1      37.911  33.790  34.215  1.00  0.00     0.031 C 
ATOM     44  C   UNL A   1      38.546  29.867  28.573  1.00  0.00     0.029 A 
ATOM     45  C   UNL A   1      39.511  29.603  29.635  1.00  0.00     0.049 A 
ATOM     46  H   UNL A   1      39.643  30.540  31.491  1.00  0.00     0.167 HD
ATOM     47  C   UNL A   1      39.815  32.664  35.327  1.00  0.00     0.037 A 
ATOM     48  C   UNL A   1      40.499  28.689  29.591  1.00  0.00     0.037 A 
ATOM     49  C   UNL A   1      40.866  31.684  35.388  1.00  0.00     0.049 A 
ATOM     50  C   UNL A   1      41.413  28.538  30.775  1.00  0.00     0.074 A 
ATOM     51  C   UNL A   1      41.728  31.407  36.433  1.00  0.00     0.029 A 
ATOM     52  N   UNL A   1      41.193  30.817  34.356  1.00  0.00    -0.354 N 
ATOM     53  N   UNL A   1      41.399  29.181  31.917  1.00  0.00    -0.248 NA
ATOM     54  C   UNL A   1      42.482  27.535  30.664  1.00  0.00     0.031 C 
ATOM     55  C   UNL A   1      42.599  30.393  36.023  1.00  0.00     0.029 A 
ATOM     56  C   UNL A   1      42.256  30.013  34.735  1.00  0.00     0.049 A 
ATOM     57  H   UNL A   1      40.739  30.778  33.484  1.00  0.00     0.167 HD
ATOM     58  C   UNL A   1      42.442  28.654  32.666  1.00  0.00     0.074 A 
ATOM     59  C   UNL A   1      43.059  27.624  31.855  1.00  0.00     0.031 C 
ATOM     60  C   UNL A   1      42.856  28.996  33.910  1.00  0.00     0.037 A 
BRANCH  47  61
ATOM     61  C   UNL A   1      39.599  33.553  36.515  1.00  0.00     0.064 A 
ATOM     62  C   UNL A   1      40.200  34.818  36.596  1.00  0.00     0.173 A 
ATOM     63  C   UNL A   1      38.760  33.153  37.565  1.00  0.00     0.173 A 
ATOM     64  F   UNL A   1      41.023  35.238  35.624  1.00  0.00    -0.203 F 
ATOM     65  C   UNL A   1      39.986  35.641  37.698  1.00  0.00     0.198 A 
ATOM     66  C   UNL A   1      38.528  33.990  38.652  1.00  0.00     0.198 A 
ATOM     67  F   UNL A   1      38.162  31.952  37.533  1.00  0.00    -0.203 F 
ATOM     68  F   UNL A   1      40.603  36.828  37.775  1.00  0.00    -0.200 F 
ATOM     69  C   UNL A   1      39.144  35.231  38.721  1.00  0.00     0.200 A 
ATOM     70  F   UNL A   1      37.708  33.596  39.636  1.00  0.00    -0.200 F 
ATOM     71  F   UNL A   1      38.933  36.028  39.777  1.00  0.00    -0.200 F 
ENDBRANCH  47  61
BRANCH  48  72
ATOM     72  C   UNL A   1      40.649  27.822  28.395  1.00  0.00     0.064 A 
ATOM     73  C   UNL A   1      40.007  26.578  28.330  1.00  0.00     0.173 A 
ATOM     74  C   UNL A   1      41.418  28.219  27.292  1.00  0.00     0.173 A 
ATOM     75  F   UNL A   1      39.278  26.147  29.370  1.00  0.00    -0.203 F 
ATOM     76  C   UNL A   1      40.137  25.758  27.211  1.00  0.00     0.198 A 
ATOM     77  C   UNL A   1      41.529  27.409  26.164  1.00  0.00     0.198 A 
ATOM     78  F   UNL A   1      42.050  29.402  27.304  1.00  0.00    -0.203 F 
ATOM     79  F   UNL A   1      39.538  24.560  27.188  1.00  0.00    -0.200 F 
ATOM     80  C   UNL A   1      40.892  26.177  26.126  1.00  0.00     0.200 A 
ATOM     81  F   UNL A   1      42.250  27.822  25.112  1.00  0.00    -0.200 F 
ATOM     82  F   UNL A   1      41.010  25.392  25.046  1.00  0.00    -0.200 F 
ENDBRANCH  48  72
BRANCH  60  83
ATOM     83  C   UNL A   1      44.025  28.249  34.475  1.00  0.00     0.064 A 
ATOM     84  C   UNL A   1      43.853  27.038  35.161  1.00  0.00     0.173 A 
ATOM     85  C   UNL A   1      45.333  28.713  34.272  1.00  0.00     0.173 A 
ATOM     86  F   UNL A   1      42.620  26.563  35.391  1.00  0.00    -0.203 F 
ATOM     87  C   UNL A   1      44.949  26.324  35.634  1.00  0.00     0.198 A 
ATOM     88  C   UNL A   1      46.429  27.984  34.725  1.00  0.00     0.198 A 
ATOM     89  F   UNL A   1      45.549  29.863  33.616  1.00  0.00    -0.203 F 
ATOM     90  F   UNL A   1      44.761  25.185  36.315  1.00  0.00    -0.200 F 
ATOM     91  C   UNL A   1      46.236  26.792  35.409  1.00  0.00     0.200 A 
ATOM     92  F   UNL A   1      47.671  28.430  34.496  1.00  0.00    -0.200 F 
ATOM     93  F   UNL A   1      47.290  26.096  35.855  1.00  0.00    -0.200 F 
ENDBRANCH  60  83
ENDBRANCH  34  35
ENDBRANCH  26  29
ENDBRANCH  24  25
ENDBRANCH   1  24
TORSDOF 12
ENDMDL
