MODEL 1
REMARK VINA RESULT:     -12.9      0.000      0.000
REMARK SMILES O=C(NCCCCNC(=O)c1cc(Cl)cc(S(=O)(=O)N[C@@H]2CONC2=O)c1F)c1ccc(-c2c3nc(c(-c4c(F)c(F)c(F)c(F)c4F)c4ccc([nH]4)c(-c4c(F)c(F)c(F)c(F)c4F)c4nc(c(-c5c(F)c(F)c(F)c(F)c5F)c5ccc2[nH]5)C=C4)C=C3)cc1
REMARK SMILES IDX 6 1 5 2 4 3 3 4 1 5 2 6 29 8 30 9 91 10 31 11 90 12 32 13
REMARK SMILES IDX 33 14 34 15 84 16 35 17 89 18 83 19 85 20 36 21 88 22 82 23
REMARK SMILES IDX 81 24 37 26 69 27 49 28 68 29 50 30 53 31 67 32 86 33 51 34
REMARK SMILES IDX 52 35 66 37 87 38 54 39 38 40 39 41 47 42 40 43 41 44 45 45
REMARK SMILES IDX 48 46 42 47 43 48 46 49 44 50 70 51 71 52 79 53 72 54 73 55
REMARK SMILES IDX 77 56 80 57 74 58 75 59 78 60 76 61 55 62 56 63 64 64 57 65
REMARK SMILES IDX 58 66 62 67 65 68 59 69 60 70 63 71 61 72 7 73 8 74 9 75
REMARK SMILES IDX 10 77 11 78 12 79 27 80 13 81 16 82 28 83 14 84 15 85 17 86
REMARK SMILES IDX 18 87 19 88 20 89 21 91 22 92 25 93 23 94 24 95 26 96
REMARK H PARENT 3 7 85 25 53 36 8 76 20 90 24 97
REMARK Flexibility Score: inf
ROOT
ATOM      1  C   UNL A   1      31.533  30.751  26.052  1.00  0.00     0.023 C 
ENDROOT
BRANCH   1   2
ATOM      2  C   UNL A   1      31.329  32.184  26.539  1.00  0.00     0.023 C 
BRANCH   2   3
ATOM      3  C   UNL A   1      32.519  32.796  27.269  1.00  0.00     0.116 C 
BRANCH   3   4
ATOM      4  N   UNL A   1      32.304  34.186  27.643  1.00  0.00    -0.352 N 
ATOM      5  O   UNL A   1      32.504  36.067  28.877  1.00  0.00    -0.269 OA
ATOM      6  C   UNL A   1      32.937  34.954  28.592  1.00  0.00     0.251 C 
ATOM      7  H   UNL A   1      31.594  34.648  27.140  1.00  0.00     0.163 HD
BRANCH   6   8
ATOM      8  C   UNL A   1      34.126  34.428  29.295  1.00  0.00     0.039 A 
ATOM      9  C   UNL A   1      35.403  34.600  28.761  1.00  0.00     0.014 A 
ATOM     10  C   UNL A   1      33.956  33.745  30.503  1.00  0.00     0.014 A 
ATOM     11  C   UNL A   1      36.483  33.936  29.331  1.00  0.00     0.010 A 
ATOM     12  C   UNL A   1      35.060  33.159  31.128  1.00  0.00     0.010 A 
ATOM     13  C   UNL A   1      36.325  33.207  30.521  1.00  0.00    -0.014 A 
BRANCH  13  14
ATOM     14  C   UNL A   1      37.501  32.524  31.115  1.00  0.00     0.031 A 
ATOM     15  C   UNL A   1      37.973  32.858  32.503  1.00  0.00     0.074 A 
ATOM     16  C   UNL A   1      38.121  31.561  30.405  1.00  0.00     0.049 A 
ATOM     17  N   UNL A   1      38.960  32.335  33.189  1.00  0.00    -0.248 NA
ATOM     18  C   UNL A   1      37.251  33.924  33.214  1.00  0.00     0.031 C 
ATOM     19  C   UNL A   1      37.758  31.154  29.047  1.00  0.00     0.029 A 
ATOM     20  N   UNL A   1      39.165  30.735  30.733  1.00  0.00    -0.354 N 
ATOM     21  C   UNL A   1      38.996  33.024  34.394  1.00  0.00     0.074 A 
ATOM     22  C   UNL A   1      37.944  34.018  34.340  1.00  0.00     0.031 C 
ATOM     23  C   UNL A   1      38.526  30.118  28.679  1.00  0.00     0.029 A 
ATOM     24  C   UNL A   1      39.474  29.829  29.750  1.00  0.00     0.049 A 
ATOM     25  H   UNL A   1      39.647  30.787  31.590  1.00  0.00     0.167 HD
ATOM     26  C   UNL A   1      39.826  32.838  35.450  1.00  0.00     0.037 A 
ATOM     27  C   UNL A   1      40.420  28.874  29.709  1.00  0.00     0.037 A 
ATOM     28  C   UNL A   1      40.851  31.828  35.509  1.00  0.00     0.049 A 
ATOM     29  C   UNL A   1      41.329  28.695  30.890  1.00  0.00     0.074 A 
ATOM     30  C   UNL A   1      41.712  31.532  36.551  1.00  0.00     0.029 A 
ATOM     31  N   UNL A   1      41.156  30.950  34.479  1.00  0.00    -0.354 N 
ATOM     32  N   UNL A   1      41.333  29.333  32.035  1.00  0.00    -0.248 NA
ATOM     33  C   UNL A   1      42.370  27.666  30.769  1.00  0.00     0.031 C 
ATOM     34  C   UNL A   1      42.565  30.502  36.137  1.00  0.00     0.029 A 
ATOM     35  C   UNL A   1      42.205  30.125  34.853  1.00  0.00     0.049 A 
ATOM     36  H   UNL A   1      40.693  30.916  33.610  1.00  0.00     0.167 HD
ATOM     37  C   UNL A   1      42.359  28.772  32.779  1.00  0.00     0.074 A 
ATOM     38  C   UNL A   1      42.948  27.730  31.961  1.00  0.00     0.031 C 
ATOM     39  C   UNL A   1      42.777  29.091  34.029  1.00  0.00     0.037 A 
BRANCH  26  40
ATOM     40  C   UNL A   1      39.675  33.766  36.622  1.00  0.00     0.064 A 
ATOM     41  C   UNL A   1      40.305  35.018  36.662  1.00  0.00     0.173 A 
ATOM     42  C   UNL A   1      38.860  33.407  37.707  1.00  0.00     0.173 A 
ATOM     43  F   UNL A   1      41.104  35.405  35.655  1.00  0.00    -0.203 F 
ATOM     44  C   UNL A   1      40.151  35.864  37.758  1.00  0.00     0.198 A 
ATOM     45  C   UNL A   1      38.687  34.266  38.789  1.00  0.00     0.198 A 
ATOM     46  F   UNL A   1      38.229  32.223  37.717  1.00  0.00    -0.203 F 
ATOM     47  F   UNL A   1      40.801  37.035  37.796  1.00  0.00    -0.200 F 
ATOM     48  C   UNL A   1      39.337  35.489  38.818  1.00  0.00     0.200 A 
ATOM     49  F   UNL A   1      37.891  33.907  39.807  1.00  0.00    -0.200 F 
ATOM     50  F   UNL A   1      39.188  36.305  39.870  1.00  0.00    -0.200 F 
ENDBRANCH  26  40
BRANCH  27  51
ATOM     51  C   UNL A   1      40.532  28.006  28.511  1.00  0.00     0.064 A 
ATOM     52  C   UNL A   1      41.304  28.399  27.410  1.00  0.00     0.173 A 
ATOM     53  C   UNL A   1      39.902  26.754  28.457  1.00  0.00     0.173 A 
ATOM     54  F   UNL A   1      41.911  29.595  27.411  1.00  0.00    -0.203 F 
ATOM     55  C   UNL A   1      41.437  27.575  26.296  1.00  0.00     0.198 A 
ATOM     56  C   UNL A   1      40.058  25.919  27.353  1.00  0.00     0.198 A 
ATOM     57  F   UNL A   1      39.158  26.331  29.489  1.00  0.00    -0.203 F 
ATOM     58  F   UNL A   1      42.159  27.985  25.244  1.00  0.00    -0.200 F 
ATOM     59  C   UNL A   1      40.821  26.331  26.271  1.00  0.00     0.200 A 
ATOM     60  F   UNL A   1      39.475  24.713  27.342  1.00  0.00    -0.200 F 
ATOM     61  F   UNL A   1      40.963  25.533  25.205  1.00  0.00    -0.200 F 
ENDBRANCH  27  51
BRANCH  39  62
ATOM     62  C   UNL A   1      43.903  28.282  34.597  1.00  0.00     0.064 A 
ATOM     63  C   UNL A   1      45.240  28.687  34.466  1.00  0.00     0.173 A 
ATOM     64  C   UNL A   1      43.641  27.096  35.299  1.00  0.00     0.173 A 
ATOM     65  F   UNL A   1      45.543  29.803  33.787  1.00  0.00    -0.203 F 
ATOM     66  C   UNL A   1      46.274  27.919  34.994  1.00  0.00     0.198 A 
ATOM     67  C   UNL A   1      44.675  26.345  35.849  1.00  0.00     0.198 A 
ATOM     68  F   UNL A   1      42.378  26.668  35.455  1.00  0.00    -0.203 F 
ATOM     69  F   UNL A   1      47.547  28.298  34.815  1.00  0.00    -0.200 F 
ATOM     70  C   UNL A   1      45.991  26.752  35.690  1.00  0.00     0.200 A 
ATOM     71  F   UNL A   1      44.399  25.224  36.530  1.00  0.00    -0.200 F 
ATOM     72  F   UNL A   1      46.988  26.017  36.200  1.00  0.00    -0.200 F 
ENDBRANCH  39  62
ENDBRANCH  13  14
ENDBRANCH   6   8
ENDBRANCH   3   4
ENDBRANCH   2   3
ENDBRANCH   1   2
BRANCH   1  73
ATOM     73  C   UNL A   1      31.950  29.755  27.127  1.00  0.00     0.116 C 
BRANCH  73  74
ATOM     74  N   UNL A   1      33.387  29.732  27.347  1.00  0.00    -0.352 N 
ATOM     75  C   UNL A   1      34.323  28.841  26.891  1.00  0.00     0.254 C 
ATOM     76  H   UNL A   1      33.739  30.464  27.905  1.00  0.00     0.163 HD
ATOM     77  O   UNL A   1      35.494  28.938  27.242  1.00  0.00    -0.269 OA
BRANCH  75  78
ATOM     78  C   UNL A   1      33.941  27.741  25.988  1.00  0.00     0.078 A 
ATOM     79  C   UNL A   1      33.815  26.450  26.509  1.00  0.00     0.037 A 
ATOM     80  C   UNL A   1      33.785  27.964  24.622  1.00  0.00     0.156 A 
ATOM     81  C   UNL A   1      33.482  25.400  25.656  1.00  0.00     0.043 A 
ATOM     82  C   UNL A   1      33.460  26.916  23.775  1.00  0.00     0.120 A 
ATOM     83  F   UNL A   1      33.977  29.199  24.149  1.00  0.00    -0.205 F 
ATOM     84  Cl  UNL A   1      33.299  23.814  26.292  1.00  0.00    -0.084 Cl
ATOM     85  C   UNL A   1      33.297  25.623  24.291  1.00  0.00     0.045 A 
BRANCH  82  86
ATOM     86  S   UNL A   1      33.234  27.147  22.042  1.00  0.00     0.244 S 
ATOM     87  O   UNL A   1      34.091  28.243  21.644  1.00  0.00    -0.207 OA
ATOM     88  O   UNL A   1      33.342  25.834  21.456  1.00  0.00    -0.207 OA
BRANCH  86  89
ATOM     89  N   UNL A   1      31.673  27.627  21.798  1.00  0.00    -0.196 NA
ATOM     90  H   UNL A   1      31.231  26.859  21.293  1.00  0.00     0.142 HD
BRANCH  89  91
ATOM     91  C   UNL A   1      30.716  27.999  22.854  1.00  0.00     0.189 C 
ATOM     92  C   UNL A   1      29.801  26.916  23.410  1.00  0.00     0.224 C 
ATOM     93  C   UNL A   1      29.707  28.955  22.269  1.00  0.00     0.264 C 
ATOM     94  O   UNL A   1      28.501  27.499  23.593  1.00  0.00    -0.271 OA
ATOM     95  N   UNL A   1      28.471  28.628  22.750  1.00  0.00    -0.233 N 
ATOM     96  O   UNL A   1      29.947  29.867  21.489  1.00  0.00    -0.271 OA
ATOM     97  H   UNL A   1      27.651  29.125  22.531  1.00  0.00     0.199 HD
ENDBRANCH  89  91
ENDBRANCH  86  89
ENDBRANCH  82  86
ENDBRANCH  75  78
ENDBRANCH  73  74
ENDBRANCH   1  73
TORSDOF 14
ENDMDL
MODEL 2
REMARK VINA RESULT:     -12.6      5.313     10.309
REMARK SMILES O=C(NCCCCNC(=O)c1cc(Cl)cc(S(=O)(=O)N[C@@H]2CONC2=O)c1F)c1ccc(-c2c3nc(c(-c4c(F)c(F)c(F)c(F)c4F)c4ccc([nH]4)c(-c4c(F)c(F)c(F)c(F)c4F)c4nc(c(-c5c(F)c(F)c(F)c(F)c5F)c5ccc2[nH]5)C=C4)C=C3)cc1
REMARK SMILES IDX 6 1 5 2 4 3 3 4 1 5 2 6 29 8 30 9 91 10 31 11 90 12 32 13
REMARK SMILES IDX 33 14 34 15 84 16 35 17 89 18 83 19 85 20 36 21 88 22 82 23
REMARK SMILES IDX 81 24 37 26 69 27 49 28 68 29 50 30 53 31 67 32 86 33 51 34
REMARK SMILES IDX 52 35 66 37 87 38 54 39 38 40 39 41 47 42 40 43 41 44 45 45
REMARK SMILES IDX 48 46 42 47 43 48 46 49 44 50 70 51 71 52 79 53 72 54 73 55
REMARK SMILES IDX 77 56 80 57 74 58 75 59 78 60 76 61 55 62 56 63 64 64 57 65
REMARK SMILES IDX 58 66 62 67 65 68 59 69 60 70 63 71 61 72 7 73 8 74 9 75
REMARK SMILES IDX 10 77 11 78 12 79 27 80 13 81 16 82 28 83 14 84 15 85 17 86
REMARK SMILES IDX 18 87 19 88 20 89 21 91 22 92 25 93 23 94 24 95 26 96
REMARK H PARENT 3 7 85 25 53 36 8 76 20 90 24 97
REMARK Flexibility Score: inf
ROOT
ATOM      1  C   UNL A   1      39.121  22.601  26.424  1.00  0.00     0.023 C 
ENDROOT
BRANCH   1   2
ATOM      2  C   UNL A   1      39.431  21.326  25.642  1.00  0.00     0.023 C 
BRANCH   2   3
ATOM      3  C   UNL A   1      39.632  20.077  26.491  1.00  0.00     0.116 C 
BRANCH   3   4
ATOM      4  N   UNL A   1      40.748  19.257  26.044  1.00  0.00    -0.352 N 
ATOM      5  O   UNL A   1      42.847  18.792  25.354  1.00  0.00    -0.269 OA
ATOM      6  C   UNL A   1      42.078  19.575  25.904  1.00  0.00     0.251 C 
ATOM      7  H   UNL A   1      40.514  18.332  25.802  1.00  0.00     0.163 HD
BRANCH   6   8
ATOM      8  C   UNL A   1      42.581  20.877  26.390  1.00  0.00     0.039 A 
ATOM      9  C   UNL A   1      42.581  21.178  27.752  1.00  0.00     0.014 A 
ATOM     10  C   UNL A   1      43.053  21.814  25.465  1.00  0.00     0.014 A 
ATOM     11  C   UNL A   1      42.873  22.470  28.172  1.00  0.00     0.010 A 
ATOM     12  C   UNL A   1      43.440  23.084  25.901  1.00  0.00     0.010 A 
ATOM     13  C   UNL A   1      43.306  23.439  27.252  1.00  0.00    -0.014 A 
BRANCH  13  14
ATOM     14  C   UNL A   1      43.628  24.806  27.734  1.00  0.00     0.031 A 
ATOM     15  C   UNL A   1      45.052  25.280  27.826  1.00  0.00     0.074 A 
ATOM     16  C   UNL A   1      42.618  25.638  28.052  1.00  0.00     0.049 A 
ATOM     17  N   UNL A   1      45.511  26.451  28.193  1.00  0.00    -0.248 NA
ATOM     18  C   UNL A   1      46.101  24.313  27.469  1.00  0.00     0.031 C 
ATOM     19  C   UNL A   1      41.198  25.289  28.008  1.00  0.00     0.029 A 
ATOM     20  N   UNL A   1      42.627  26.951  28.447  1.00  0.00    -0.354 N 
ATOM     21  C   UNL A   1      46.895  26.354  28.138  1.00  0.00     0.074 A 
ATOM     22  C   UNL A   1      47.205  25.002  27.723  1.00  0.00     0.031 C 
ATOM     23  C   UNL A   1      40.470  26.375  28.306  1.00  0.00     0.029 A 
ATOM     24  C   UNL A   1      41.372  27.478  28.619  1.00  0.00     0.049 A 
ATOM     25  H   UNL A   1      43.454  27.466  28.593  1.00  0.00     0.167 HD
ATOM     26  C   UNL A   1      47.821  27.308  28.404  1.00  0.00     0.037 A 
ATOM     27  C   UNL A   1      40.987  28.711  28.994  1.00  0.00     0.037 A 
ATOM     28  C   UNL A   1      47.507  28.660  28.789  1.00  0.00     0.049 A 
ATOM     29  C   UNL A   1      42.033  29.746  29.288  1.00  0.00     0.074 A 
ATOM     30  C   UNL A   1      48.372  29.711  29.035  1.00  0.00     0.029 A 
ATOM     31  N   UNL A   1      46.223  29.148  28.985  1.00  0.00    -0.354 N 
ATOM     32  N   UNL A   1      43.338  29.649  29.205  1.00  0.00    -0.248 NA
ATOM     33  C   UNL A   1      41.553  31.059  29.736  1.00  0.00     0.031 C 
ATOM     34  C   UNL A   1      47.614  30.824  29.421  1.00  0.00     0.029 A 
ATOM     35  C   UNL A   1      46.273  30.478  29.370  1.00  0.00     0.049 A 
ATOM     36  H   UNL A   1      45.396  28.625  28.867  1.00  0.00     0.167 HD
ATOM     37  C   UNL A   1      43.835  30.892  29.568  1.00  0.00     0.074 A 
ATOM     38  C   UNL A   1      42.689  31.731  29.859  1.00  0.00     0.031 C 
ATOM     39  C   UNL A   1      45.125  31.300  29.653  1.00  0.00     0.037 A 
BRANCH  26  40
ATOM     40  C   UNL A   1      49.268  26.915  28.312  1.00  0.00     0.064 A 
ATOM     41  C   UNL A   1      49.977  26.975  27.104  1.00  0.00     0.173 A 
ATOM     42  C   UNL A   1      49.963  26.502  29.461  1.00  0.00     0.173 A 
ATOM     43  F   UNL A   1      49.358  27.353  25.975  1.00  0.00    -0.203 F 
ATOM     44  C   UNL A   1      51.320  26.608  27.041  1.00  0.00     0.198 A 
ATOM     45  C   UNL A   1      51.311  26.161  29.399  1.00  0.00     0.198 A 
ATOM     46  F   UNL A   1      49.334  26.432  30.643  1.00  0.00    -0.203 F 
ATOM     47  F   UNL A   1      51.964  26.627  25.867  1.00  0.00    -0.200 F 
ATOM     48  C   UNL A   1      51.986  26.206  28.190  1.00  0.00     0.200 A 
ATOM     49  F   UNL A   1      51.957  25.784  30.513  1.00  0.00    -0.200 F 
ATOM     50  F   UNL A   1      53.278  25.855  28.128  1.00  0.00    -0.200 F 
ENDBRANCH  26  40
BRANCH  27  51
ATOM     51  C   UNL A   1      39.541  29.028  29.089  1.00  0.00     0.064 A 
ATOM     52  C   UNL A   1      38.811  29.395  27.950  1.00  0.00     0.173 A 
ATOM     53  C   UNL A   1      38.852  28.936  30.307  1.00  0.00     0.173 A 
ATOM     54  F   UNL A   1      39.431  29.512  26.766  1.00  0.00    -0.203 F 
ATOM     55  C   UNL A   1      37.447  29.664  28.027  1.00  0.00     0.198 A 
ATOM     56  C   UNL A   1      37.483  29.180  30.378  1.00  0.00     0.198 A 
ATOM     57  F   UNL A   1      39.506  28.583  31.423  1.00  0.00    -0.203 F 
ATOM     58  F   UNL A   1      36.777  30.039  26.929  1.00  0.00    -0.200 F 
ATOM     59  C   UNL A   1      36.781  29.547  29.240  1.00  0.00     0.200 A 
ATOM     60  F   UNL A   1      36.842  29.049  31.547  1.00  0.00    -0.200 F 
ATOM     61  F   UNL A   1      35.466  29.792  29.310  1.00  0.00    -0.200 F 
ENDBRANCH  27  51
BRANCH  39  62
ATOM     62  C   UNL A   1      45.361  32.728  30.046  1.00  0.00     0.064 A 
ATOM     63  C   UNL A   1      45.402  33.756  29.092  1.00  0.00     0.173 A 
ATOM     64  C   UNL A   1      45.529  33.074  31.395  1.00  0.00     0.173 A 
ATOM     65  F   UNL A   1      45.266  33.473  27.788  1.00  0.00    -0.203 F 
ATOM     66  C   UNL A   1      45.630  35.075  29.474  1.00  0.00     0.198 A 
ATOM     67  C   UNL A   1      45.729  34.397  31.775  1.00  0.00     0.198 A 
ATOM     68  F   UNL A   1      45.494  32.126  32.346  1.00  0.00    -0.203 F 
ATOM     69  F   UNL A   1      45.714  36.035  28.543  1.00  0.00    -0.200 F 
ATOM     70  C   UNL A   1      45.787  35.396  30.815  1.00  0.00     0.200 A 
ATOM     71  F   UNL A   1      45.871  34.706  33.072  1.00  0.00    -0.200 F 
ATOM     72  F   UNL A   1      46.004  36.666  31.180  1.00  0.00    -0.200 F 
ENDBRANCH  39  62
ENDBRANCH  13  14
ENDBRANCH   6   8
ENDBRANCH   3   4
ENDBRANCH   2   3
ENDBRANCH   1   2
BRANCH   1  73
ATOM     73  C   UNL A   1      37.851  23.329  25.997  1.00  0.00     0.116 C 
BRANCH  73  74
ATOM     74  N   UNL A   1      37.654  23.320  24.556  1.00  0.00    -0.352 N 
ATOM     75  C   UNL A   1      36.514  23.071  23.837  1.00  0.00     0.254 C 
ATOM     76  H   UNL A   1      38.455  23.522  24.020  1.00  0.00     0.163 HD
ATOM     77  O   UNL A   1      36.551  23.032  22.611  1.00  0.00    -0.269 OA
BRANCH  75  78
ATOM     78  C   UNL A   1      35.230  22.826  24.517  1.00  0.00     0.078 A 
ATOM     79  C   UNL A   1      34.822  21.508  24.739  1.00  0.00     0.037 A 
ATOM     80  C   UNL A   1      34.395  23.887  24.862  1.00  0.00     0.156 A 
ATOM     81  C   UNL A   1      33.596  21.269  25.356  1.00  0.00     0.043 A 
ATOM     82  C   UNL A   1      33.172  23.644  25.469  1.00  0.00     0.120 A 
ATOM     83  F   UNL A   1      34.788  25.131  24.575  1.00  0.00    -0.205 F 
ATOM     84  Cl  UNL A   1      33.098  19.652  25.658  1.00  0.00    -0.084 Cl
ATOM     85  C   UNL A   1      32.767  22.329  25.729  1.00  0.00     0.045 A 
BRANCH  82  86
ATOM     86  S   UNL A   1      32.086  24.950  25.942  1.00  0.00     0.244 S 
ATOM     87  O   UNL A   1      31.411  25.397  24.742  1.00  0.00    -0.207 OA
ATOM     88  O   UNL A   1      31.367  24.462  27.092  1.00  0.00    -0.207 OA
BRANCH  86  89
ATOM     89  N   UNL A   1      33.013  26.204  26.483  1.00  0.00    -0.196 NA
ATOM     90  H   UNL A   1      33.958  26.002  26.156  1.00  0.00     0.142 HD
BRANCH  89  91
ATOM     91  C   UNL A   1      32.793  27.628  26.176  1.00  0.00     0.189 C 
ATOM     92  C   UNL A   1      34.013  28.525  26.011  1.00  0.00     0.224 C 
ATOM     93  C   UNL A   1      32.120  28.274  27.361  1.00  0.00     0.264 C 
ATOM     94  O   UNL A   1      33.718  29.779  26.647  1.00  0.00    -0.271 OA
ATOM     95  N   UNL A   1      32.678  29.505  27.558  1.00  0.00    -0.233 N 
ATOM     96  O   UNL A   1      31.228  27.781  28.039  1.00  0.00    -0.271 OA
ATOM     97  H   UNL A   1      32.387  30.130  28.259  1.00  0.00     0.199 HD
ENDBRANCH  89  91
ENDBRANCH  86  89
ENDBRANCH  82  86
ENDBRANCH  75  78
ENDBRANCH  73  74
ENDBRANCH   1  73
TORSDOF 14
ENDMDL
MODEL 3
REMARK VINA RESULT:     -12.6      0.448      7.241
REMARK SMILES O=C(NCCCCNC(=O)c1cc(Cl)cc(S(=O)(=O)N[C@@H]2CONC2=O)c1F)c1ccc(-c2c3nc(c(-c4c(F)c(F)c(F)c(F)c4F)c4ccc([nH]4)c(-c4c(F)c(F)c(F)c(F)c4F)c4nc(c(-c5c(F)c(F)c(F)c(F)c5F)c5ccc2[nH]5)C=C4)C=C3)cc1
REMARK SMILES IDX 6 1 5 2 4 3 3 4 1 5 2 6 29 8 30 9 91 10 31 11 90 12 32 13
REMARK SMILES IDX 33 14 34 15 84 16 35 17 89 18 83 19 85 20 36 21 88 22 82 23
REMARK SMILES IDX 81 24 37 26 69 27 49 28 68 29 50 30 53 31 67 32 86 33 51 34
REMARK SMILES IDX 52 35 66 37 87 38 54 39 38 40 39 41 47 42 40 43 41 44 45 45
REMARK SMILES IDX 48 46 42 47 43 48 46 49 44 50 70 51 71 52 79 53 72 54 73 55
REMARK SMILES IDX 77 56 80 57 74 58 75 59 78 60 76 61 55 62 56 63 64 64 57 65
REMARK SMILES IDX 58 66 62 67 65 68 59 69 60 70 63 71 61 72 7 73 8 74 9 75
REMARK SMILES IDX 10 77 11 78 12 79 27 80 13 81 16 82 28 83 14 84 15 85 17 86
REMARK SMILES IDX 18 87 19 88 20 89 21 91 22 92 25 93 23 94 24 95 26 96
REMARK H PARENT 3 7 85 25 53 36 8 76 20 90 24 97
REMARK Flexibility Score: inf
ROOT
ATOM      1  C   UNL A   1      31.565  30.877  26.169  1.00  0.00     0.023 C 
ENDROOT
BRANCH   1   2
ATOM      2  C   UNL A   1      31.370  32.290  26.714  1.00  0.00     0.023 C 
BRANCH   2   3
ATOM      3  C   UNL A   1      32.629  32.958  27.252  1.00  0.00     0.116 C 
BRANCH   3   4
ATOM      4  N   UNL A   1      32.419  34.346  27.637  1.00  0.00    -0.352 N 
ATOM      5  O   UNL A   1      32.581  36.202  28.913  1.00  0.00    -0.269 OA
ATOM      6  C   UNL A   1      33.010  35.086  28.634  1.00  0.00     0.251 C 
ATOM      7  H   UNL A   1      31.748  34.829  27.102  1.00  0.00     0.163 HD
BRANCH   6   8
ATOM      8  C   UNL A   1      34.146  34.525  29.396  1.00  0.00     0.039 A 
ATOM      9  C   UNL A   1      35.442  34.576  28.882  1.00  0.00     0.014 A 
ATOM     10  C   UNL A   1      33.907  33.933  30.639  1.00  0.00     0.014 A 
ATOM     11  C   UNL A   1      36.462  33.877  29.516  1.00  0.00     0.010 A 
ATOM     12  C   UNL A   1      34.955  33.314  31.325  1.00  0.00     0.010 A 
ATOM     13  C   UNL A   1      36.231  33.237  30.745  1.00  0.00    -0.014 A 
BRANCH  13  14
ATOM     14  C   UNL A   1      37.346  32.514  31.408  1.00  0.00     0.031 A 
ATOM     15  C   UNL A   1      38.098  31.426  30.693  1.00  0.00     0.074 A 
ATOM     16  C   UNL A   1      37.707  32.878  32.653  1.00  0.00     0.049 A 
ATOM     17  N   UNL A   1      39.118  30.716  31.109  1.00  0.00    -0.248 NA
ATOM     18  C   UNL A   1      37.642  31.079  29.339  1.00  0.00     0.031 C 
ATOM     19  C   UNL A   1      37.050  33.915  33.449  1.00  0.00     0.029 A 
ATOM     20  N   UNL A   1      38.727  32.438  33.457  1.00  0.00    -0.354 N 
ATOM     21  C   UNL A   1      39.407  29.824  30.084  1.00  0.00     0.074 A 
ATOM     22  C   UNL A   1      38.441  30.067  29.033  1.00  0.00     0.031 C 
ATOM     23  C   UNL A   1      37.716  34.073  34.602  1.00  0.00     0.029 A 
ATOM     24  C   UNL A   1      38.809  33.108  34.652  1.00  0.00     0.049 A 
ATOM     25  H   UNL A   1      39.341  31.711  33.202  1.00  0.00     0.167 HD
ATOM     26  C   UNL A   1      40.391  28.894  30.025  1.00  0.00     0.037 A 
ATOM     27  C   UNL A   1      39.665  32.960  35.679  1.00  0.00     0.037 A 
ATOM     28  C   UNL A   1      41.367  28.678  31.061  1.00  0.00     0.049 A 
ATOM     29  C   UNL A   1      40.742  31.918  35.588  1.00  0.00     0.074 A 
ATOM     30  C   UNL A   1      42.430  27.792  31.075  1.00  0.00     0.029 A 
ATOM     31  N   UNL A   1      41.398  29.354  32.272  1.00  0.00    -0.354 N 
ATOM     32  N   UNL A   1      41.021  31.102  34.602  1.00  0.00    -0.248 NA
ATOM     33  C   UNL A   1      41.617  31.772  36.759  1.00  0.00     0.031 C 
ATOM     34  C   UNL A   1      43.079  27.903  32.311  1.00  0.00     0.029 A 
ATOM     35  C   UNL A   1      42.448  28.891  33.049  1.00  0.00     0.049 A 
ATOM     36  H   UNL A   1      40.766  30.061  32.540  1.00  0.00     0.167 HD
ATOM     37  C   UNL A   1      42.116  30.360  35.021  1.00  0.00     0.074 A 
ATOM     38  C   UNL A   1      42.459  30.835  36.347  1.00  0.00     0.031 C 
ATOM     39  C   UNL A   1      42.777  29.375  34.365  1.00  0.00     0.037 A 
BRANCH  26  40
ATOM     40  C   UNL A   1      40.447  28.021  28.804  1.00  0.00     0.064 A 
ATOM     41  C   UNL A   1      41.193  28.377  27.671  1.00  0.00     0.173 A 
ATOM     42  C   UNL A   1      39.768  26.792  28.782  1.00  0.00     0.173 A 
ATOM     43  F   UNL A   1      41.852  29.546  27.636  1.00  0.00    -0.203 F 
ATOM     44  C   UNL A   1      41.233  27.551  26.550  1.00  0.00     0.198 A 
ATOM     45  C   UNL A   1      39.832  25.957  27.670  1.00  0.00     0.198 A 
ATOM     46  F   UNL A   1      39.045  26.400  29.842  1.00  0.00    -0.203 F 
ATOM     47  F   UNL A   1      41.912  27.934  25.460  1.00  0.00    -0.200 F 
ATOM     48  C   UNL A   1      40.556  26.339  26.552  1.00  0.00     0.200 A 
ATOM     49  F   UNL A   1      39.187  24.781  27.679  1.00  0.00    -0.200 F 
ATOM     50  F   UNL A   1      40.598  25.545  25.474  1.00  0.00    -0.200 F 
ENDBRANCH  26  40
BRANCH  27  51
ATOM     51  C   UNL A   1      39.541  33.839  36.867  1.00  0.00     0.064 A 
ATOM     52  C   UNL A   1      40.142  35.105  36.888  1.00  0.00     0.173 A 
ATOM     53  C   UNL A   1      38.791  33.451  37.986  1.00  0.00     0.173 A 
ATOM     54  F   UNL A   1      40.883  35.512  35.847  1.00  0.00    -0.203 F 
ATOM     55  C   UNL A   1      40.004  35.947  37.988  1.00  0.00     0.198 A 
ATOM     56  C   UNL A   1      38.631  34.305  39.075  1.00  0.00     0.198 A 
ATOM     57  F   UNL A   1      38.191  32.252  38.010  1.00  0.00    -0.203 F 
ATOM     58  F   UNL A   1      40.611  37.141  37.996  1.00  0.00    -0.200 F 
ATOM     59  C   UNL A   1      39.240  35.550  39.078  1.00  0.00     0.200 A 
ATOM     60  F   UNL A   1      37.879  33.924  40.116  1.00  0.00    -0.200 F 
ATOM     61  F   UNL A   1      39.095  36.368  40.129  1.00  0.00    -0.200 F 
ENDBRANCH  27  51
BRANCH  39  62
ATOM     62  C   UNL A   1      43.958  28.769  35.062  1.00  0.00     0.064 A 
ATOM     63  C   UNL A   1      43.829  27.637  35.881  1.00  0.00     0.173 A 
ATOM     64  C   UNL A   1      45.240  29.315  34.892  1.00  0.00     0.173 A 
ATOM     65  F   UNL A   1      42.622  27.090  36.089  1.00  0.00    -0.203 F 
ATOM     66  C   UNL A   1      44.936  27.091  36.526  1.00  0.00     0.198 A 
ATOM     67  C   UNL A   1      46.347  28.751  35.516  1.00  0.00     0.198 A 
ATOM     68  F   UNL A   1      45.416  30.396  34.116  1.00  0.00    -0.203 F 
ATOM     69  F   UNL A   1      44.782  26.040  37.342  1.00  0.00    -0.200 F 
ATOM     70  C   UNL A   1      46.194  27.644  36.338  1.00  0.00     0.200 A 
ATOM     71  F   UNL A   1      47.564  29.280  35.327  1.00  0.00    -0.200 F 
ATOM     72  F   UNL A   1      47.258  27.116  36.958  1.00  0.00    -0.200 F 
ENDBRANCH  39  62
ENDBRANCH  13  14
ENDBRANCH   6   8
ENDBRANCH   3   4
ENDBRANCH   2   3
ENDBRANCH   1   2
BRANCH   1  73
ATOM     73  C   UNL A   1      31.972  29.834  27.204  1.00  0.00     0.116 C 
BRANCH  73  74
ATOM     74  N   UNL A   1      33.411  29.771  27.403  1.00  0.00    -0.352 N 
ATOM     75  C   UNL A   1      34.314  28.853  26.933  1.00  0.00     0.254 C 
ATOM     76  H   UNL A   1      33.792  30.492  27.957  1.00  0.00     0.163 HD
ATOM     77  O   UNL A   1      35.493  28.916  27.268  1.00  0.00    -0.269 OA
BRANCH  75  78
ATOM     78  C   UNL A   1      33.888  27.765  26.035  1.00  0.00     0.078 A 
ATOM     79  C   UNL A   1      33.791  26.467  26.543  1.00  0.00     0.037 A 
ATOM     80  C   UNL A   1      33.662  28.008  24.682  1.00  0.00     0.156 A 
ATOM     81  C   UNL A   1      33.416  25.429  25.693  1.00  0.00     0.043 A 
ATOM     82  C   UNL A   1      33.297  26.971  23.838  1.00  0.00     0.120 A 
ATOM     83  F   UNL A   1      33.829  29.250  24.218  1.00  0.00    -0.205 F 
ATOM     84  Cl  UNL A   1      33.267  23.833  26.314  1.00  0.00    -0.084 Cl
ATOM     85  C   UNL A   1      33.162  25.671  24.342  1.00  0.00     0.045 A 
BRANCH  82  86
ATOM     86  S   UNL A   1      32.982  27.227  22.122  1.00  0.00     0.244 S 
ATOM     87  O   UNL A   1      34.146  27.887  21.570  1.00  0.00    -0.207 OA
ATOM     88  O   UNL A   1      32.505  25.963  21.620  1.00  0.00    -0.207 OA
BRANCH  86  89
ATOM     89  N   UNL A   1      31.713  28.275  21.994  1.00  0.00    -0.196 NA
ATOM     90  H   UNL A   1      31.263  28.047  21.108  1.00  0.00     0.142 HD
BRANCH  89  91
ATOM     91  C   UNL A   1      30.614  28.413  22.965  1.00  0.00     0.189 C 
ATOM     92  C   UNL A   1      29.885  27.152  23.409  1.00  0.00     0.224 C 
ATOM     93  C   UNL A   1      29.491  29.178  22.310  1.00  0.00     0.264 C 
ATOM     94  O   UNL A   1      28.484  27.464  23.484  1.00  0.00    -0.271 OA
ATOM     95  N   UNL A   1      28.307  28.599  22.667  1.00  0.00    -0.233 N 
ATOM     96  O   UNL A   1      29.614  30.150  21.577  1.00  0.00    -0.271 OA
ATOM     97  H   UNL A   1      27.426  28.936  22.385  1.00  0.00     0.199 HD
ENDBRANCH  89  91
ENDBRANCH  86  89
ENDBRANCH  82  86
ENDBRANCH  75  78
ENDBRANCH  73  74
ENDBRANCH   1  73
TORSDOF 14
ENDMDL
