MODEL 1
REMARK VINA RESULT:     -11.2      0.000      0.000
REMARK SMILES Cc1cccc(CN(C)C(=O)N[C@@H](CC(C)C)C(=O)NCCCCNC(=O)c2ccc(-c3c4nc(c(-c5c(F)c(F)c(F)c(F)c5F)c5ccc([nH]5)c(-c5c(F)c(F)c(F)c(F)c5F)c5nc(c(-c6c(F)c(F)c(F)c(F)c6F)c6ccc3[nH]6)C=C5)C=C4)cc2)n1
REMARK SMILES IDX 21 1 20 2 18 3 19 4 13 6 12 7 10 8 11 9 8 11 9 12 7 13 6 14
REMARK SMILES IDX 1 15 2 16 3 17 91 18 4 19 5 20 14 21 15 22 16 23 17 24 22 25
REMARK SMILES IDX 23 26 24 27 25 28 26 29 27 31 28 32 29 33 90 34 30 35 89 36
REMARK SMILES IDX 31 37 32 38 33 39 83 40 34 41 88 42 82 43 84 44 35 45 87 46
REMARK SMILES IDX 81 47 80 48 36 50 68 51 48 52 67 53 49 54 52 55 66 56 85 57
REMARK SMILES IDX 50 58 51 59 65 61 86 62 53 63 37 64 38 65 46 66 39 67 40 68
REMARK SMILES IDX 44 69 47 70 41 71 42 72 45 73 43 74 69 75 70 76 78 77 71 78
REMARK SMILES IDX 72 79 76 80 79 81 73 82 74 83 77 84 75 85 54 86 55 87 63 88
REMARK SMILES IDX 56 89 57 90 61 91 64 92 58 93 59 94 62 95 60 96
REMARK H PARENT 20 5 12 10 25 30 84 49 52 60
REMARK Flexibility Score: inf
ROOT
ATOM      1  C   UNL A   1      36.955  21.749  24.192  1.00  0.00     0.116 C 
ENDROOT
BRANCH   1   2
ATOM      2  N   UNL A   1      37.321  22.917  24.969  1.00  0.00    -0.354 N 
ATOM      3  C   UNL A   1      36.561  23.781  25.702  1.00  0.00     0.242 C 
ATOM      4  O   UNL A   1      37.171  24.445  26.550  1.00  0.00    -0.273 OA
ATOM      5  H   UNL A   1      38.283  23.121  24.968  1.00  0.00     0.163 HD
BRANCH   3   6
ATOM      6  C   UNL A   1      35.015  23.864  25.635  1.00  0.00     0.173 C 
BRANCH   6   7
ATOM      7  N   UNL A   1      34.331  23.425  26.852  1.00  0.00    -0.326 N 
ATOM      8  C   UNL A   1      33.187  22.778  27.147  1.00  0.00     0.318 C 
ATOM      9  O   UNL A   1      33.081  22.443  28.332  1.00  0.00    -0.249 OA
ATOM     10  H   UNL A   1      34.837  23.662  27.664  1.00  0.00     0.166 HD
BRANCH   8  11
ATOM     11  N   UNL A   1      32.190  22.540  26.245  1.00  0.00    -0.322 N 
ATOM     12  C   UNL A   1      32.240  21.716  25.051  1.00  0.00     0.149 C 
BRANCH  11  13
ATOM     13  C   UNL A   1      30.908  23.214  26.490  1.00  0.00     0.177 C 
BRANCH  13  14
ATOM     14  C   UNL A   1      30.855  24.652  26.007  1.00  0.00     0.060 A 
ATOM     15  C   UNL A   1      31.810  27.964  27.306  1.00  0.00     0.067 C 
ATOM     16  C   UNL A   1      31.248  26.912  26.397  1.00  0.00     0.038 A 
ATOM     17  C   UNL A   1      30.704  27.261  25.165  1.00  0.00     0.023 A 
ATOM     18  N   UNL A   1      31.313  25.630  26.834  1.00  0.00    -0.256 NA
ATOM     19  C   UNL A   1      30.214  26.255  24.341  1.00  0.00     0.004 A 
ATOM     20  C   UNL A   1      30.291  24.934  24.764  1.00  0.00     0.026 A 
ENDBRANCH  13  14
ENDBRANCH  11  13
ENDBRANCH   8  11
ENDBRANCH   6   7
BRANCH   6  21
ATOM     21  C   UNL A   1      34.393  25.168  25.084  1.00  0.00     0.038 C 
BRANCH  21  22
ATOM     22  C   UNL A   1      33.606  25.108  23.765  1.00  0.00    -0.015 C 
ATOM     23  C   UNL A   1      33.707  26.422  22.983  1.00  0.00     0.007 C 
ATOM     24  C   UNL A   1      34.124  23.978  22.867  1.00  0.00     0.007 C 
ENDBRANCH  21  22
ENDBRANCH   6  21
ENDBRANCH   3   6
ENDBRANCH   1   2
BRANCH   1  25
ATOM     25  C   UNL A   1      36.852  20.465  25.006  1.00  0.00     0.023 C 
BRANCH  25  26
ATOM     26  C   UNL A   1      38.077  19.548  24.952  1.00  0.00     0.023 C 
BRANCH  26  27
ATOM     27  C   UNL A   1      39.315  20.039  25.699  1.00  0.00     0.116 C 
BRANCH  27  28
ATOM     28  N   UNL A   1      40.338  19.015  25.859  1.00  0.00    -0.352 N 
ATOM     29  C   UNL A   1      41.675  19.137  26.163  1.00  0.00     0.251 C 
ATOM     30  H   UNL A   1      40.024  18.091  25.727  1.00  0.00     0.163 HD
ATOM     31  O   UNL A   1      42.408  18.161  26.123  1.00  0.00    -0.269 OA
BRANCH  29  32
ATOM     32  C   UNL A   1      42.233  20.463  26.507  1.00  0.00     0.039 A 
ATOM     33  C   UNL A   1      42.685  21.292  25.477  1.00  0.00     0.014 A 
ATOM     34  C   UNL A   1      42.295  20.894  27.833  1.00  0.00     0.014 A 
ATOM     35  C   UNL A   1      43.111  22.590  25.771  1.00  0.00     0.010 A 
ATOM     36  C   UNL A   1      42.636  22.214  28.114  1.00  0.00     0.010 A 
ATOM     37  C   UNL A   1      43.043  23.078  27.087  1.00  0.00    -0.014 A 
BRANCH  37  38
ATOM     38  C   UNL A   1      43.374  24.492  27.404  1.00  0.00     0.031 A 
ATOM     39  C   UNL A   1      44.806  24.952  27.419  1.00  0.00     0.074 A 
ATOM     40  C   UNL A   1      42.392  25.345  27.753  1.00  0.00     0.049 A 
ATOM     41  N   UNL A   1      45.297  26.124  27.731  1.00  0.00    -0.248 NA
ATOM     42  C   UNL A   1      45.824  23.951  27.063  1.00  0.00     0.031 C 
ATOM     43  C   UNL A   1      40.967  25.013  27.826  1.00  0.00     0.029 A 
ATOM     44  N   UNL A   1      42.441  26.667  28.122  1.00  0.00    -0.354 N 
ATOM     45  C   UNL A   1      46.676  25.996  27.631  1.00  0.00     0.074 A 
ATOM     46  C   UNL A   1      46.947  24.618  27.281  1.00  0.00     0.031 C 
ATOM     47  C   UNL A   1      40.277  26.107  28.179  1.00  0.00     0.029 A 
ATOM     48  C   UNL A   1      41.209  27.208  28.403  1.00  0.00     0.049 A 
ATOM     49  H   UNL A   1      43.279  27.180  28.179  1.00  0.00     0.167 HD
ATOM     50  C   UNL A   1      47.629  26.944  27.794  1.00  0.00     0.037 A 
ATOM     51  C   UNL A   1      40.871  28.450  28.798  1.00  0.00     0.037 A 
ATOM     52  C   UNL A   1      47.355  28.320  28.116  1.00  0.00     0.049 A 
ATOM     53  C   UNL A   1      41.951  29.481  28.989  1.00  0.00     0.074 A 
ATOM     54  C   UNL A   1      48.244  29.375  28.222  1.00  0.00     0.029 A 
ATOM     55  N   UNL A   1      46.094  28.830  28.393  1.00  0.00    -0.354 N 
ATOM     56  N   UNL A   1      43.244  29.370  28.806  1.00  0.00    -0.248 NA
ATOM     57  C   UNL A   1      41.520  30.812  29.439  1.00  0.00     0.031 C 
ATOM     58  C   UNL A   1      47.530  30.511  28.623  1.00  0.00     0.029 A 
ATOM     59  C   UNL A   1      46.187  30.178  28.704  1.00  0.00     0.049 A 
ATOM     60  H   UNL A   1      45.258  28.312  28.371  1.00  0.00     0.167 HD
ATOM     61  C   UNL A   1      43.778  30.622  29.083  1.00  0.00     0.074 A 
ATOM     62  C   UNL A   1      42.665  31.480  29.436  1.00  0.00     0.031 C 
ATOM     63  C   UNL A   1      45.072  31.025  29.047  1.00  0.00     0.037 A 
BRANCH  50  64
ATOM     64  C   UNL A   1      49.064  26.522  27.637  1.00  0.00     0.064 A 
ATOM     65  C   UNL A   1      49.871  26.217  28.744  1.00  0.00     0.173 A 
ATOM     66  C   UNL A   1      49.632  26.399  26.360  1.00  0.00     0.173 A 
ATOM     67  F   UNL A   1      49.382  26.328  29.989  1.00  0.00    -0.203 F 
ATOM     68  C   UNL A   1      51.203  25.844  28.580  1.00  0.00     0.198 A 
ATOM     69  C   UNL A   1      50.953  25.991  26.198  1.00  0.00     0.198 A 
ATOM     70  F   UNL A   1      48.903  26.670  25.267  1.00  0.00    -0.203 F 
ATOM     71  F   UNL A   1      51.971  25.617  29.655  1.00  0.00    -0.200 F 
ATOM     72  C   UNL A   1      51.740  25.724  27.307  1.00  0.00     0.200 A 
ATOM     73  F   UNL A   1      51.466  25.861  24.967  1.00  0.00    -0.200 F 
ATOM     74  F   UNL A   1      53.020  25.361  27.151  1.00  0.00    -0.200 F 
ENDBRANCH  50  64
BRANCH  51  75
ATOM     75  C   UNL A   1      39.441  28.803  29.005  1.00  0.00     0.064 A 
ATOM     76  C   UNL A   1      38.662  29.284  27.943  1.00  0.00     0.173 A 
ATOM     77  C   UNL A   1      38.826  28.677  30.259  1.00  0.00     0.173 A 
ATOM     78  F   UNL A   1      39.211  29.443  26.730  1.00  0.00    -0.203 F 
ATOM     79  C   UNL A   1      37.330  29.644  28.131  1.00  0.00     0.198 A 
ATOM     80  C   UNL A   1      37.485  29.010  30.439  1.00  0.00     0.198 A 
ATOM     81  F   UNL A   1      39.525  28.219  31.308  1.00  0.00    -0.203 F 
ATOM     82  F   UNL A   1      36.624  30.146  27.109  1.00  0.00    -0.200 F 
ATOM     83  C   UNL A   1      36.741  29.502  29.378  1.00  0.00     0.200 A 
ATOM     84  F   UNL A   1      36.915  28.857  31.642  1.00  0.00    -0.200 F 
ATOM     85  F   UNL A   1      35.458  29.845  29.557  1.00  0.00    -0.200 F 
ENDBRANCH  51  75
BRANCH  63  86
ATOM     86  C   UNL A   1      45.355  32.467  29.353  1.00  0.00     0.064 A 
ATOM     87  C   UNL A   1      45.326  33.454  28.357  1.00  0.00     0.173 A 
ATOM     88  C   UNL A   1      45.621  32.872  30.670  1.00  0.00     0.173 A 
ATOM     89  F   UNL A   1      45.093  33.119  27.079  1.00  0.00    -0.203 F 
ATOM     90  C   UNL A   1      45.583  34.789  28.663  1.00  0.00     0.198 A 
ATOM     91  C   UNL A   1      45.843  34.211  30.979  1.00  0.00     0.198 A 
ATOM     92  F   UNL A   1      45.654  31.970  31.662  1.00  0.00    -0.203 F 
ATOM     93  F   UNL A   1      45.601  35.706  27.687  1.00  0.00    -0.200 F 
ATOM     94  C   UNL A   1      45.831  35.167  29.974  1.00  0.00     0.200 A 
ATOM     95  F   UNL A   1      46.067  34.577  32.248  1.00  0.00    -0.200 F 
ATOM     96  F   UNL A   1      46.067  36.453  30.269  1.00  0.00    -0.200 F 
ENDBRANCH  63  86
ENDBRANCH  37  38
ENDBRANCH  29  32
ENDBRANCH  27  28
ENDBRANCH  26  27
ENDBRANCH  25  26
ENDBRANCH   1  25
TORSDOF 17
ENDMDL
MODEL 2
REMARK VINA RESULT:     -11.2      0.922      7.327
REMARK SMILES Cc1cccc(CN(C)C(=O)N[C@@H](CC(C)C)C(=O)NCCCCNC(=O)c2ccc(-c3c4nc(c(-c5c(F)c(F)c(F)c(F)c5F)c5ccc([nH]5)c(-c5c(F)c(F)c(F)c(F)c5F)c5nc(c(-c6c(F)c(F)c(F)c(F)c6F)c6ccc3[nH]6)C=C5)C=C4)cc2)n1
REMARK SMILES IDX 21 1 20 2 18 3 19 4 13 6 12 7 10 8 11 9 8 11 9 12 7 13 6 14
REMARK SMILES IDX 1 15 2 16 3 17 91 18 4 19 5 20 14 21 15 22 16 23 17 24 22 25
REMARK SMILES IDX 23 26 24 27 25 28 26 29 27 31 28 32 29 33 90 34 30 35 89 36
REMARK SMILES IDX 31 37 32 38 33 39 83 40 34 41 88 42 82 43 84 44 35 45 87 46
REMARK SMILES IDX 81 47 80 48 36 50 68 51 48 52 67 53 49 54 52 55 66 56 85 57
REMARK SMILES IDX 50 58 51 59 65 61 86 62 53 63 37 64 38 65 46 66 39 67 40 68
REMARK SMILES IDX 44 69 47 70 41 71 42 72 45 73 43 74 69 75 70 76 78 77 71 78
REMARK SMILES IDX 72 79 76 80 79 81 73 82 74 83 77 84 75 85 54 86 55 87 63 88
REMARK SMILES IDX 56 89 57 90 61 91 64 92 58 93 59 94 62 95 60 96
REMARK H PARENT 20 5 12 10 25 30 84 49 52 60
REMARK Flexibility Score: inf
ROOT
ATOM      1  C   UNL A   1      37.055  21.830  24.205  1.00  0.00     0.116 C 
ENDROOT
BRANCH   1   2
ATOM      2  N   UNL A   1      37.408  22.992  24.996  1.00  0.00    -0.354 N 
ATOM      3  C   UNL A   1      36.638  23.843  25.734  1.00  0.00     0.242 C 
ATOM      4  O   UNL A   1      37.239  24.502  26.592  1.00  0.00    -0.273 OA
ATOM      5  H   UNL A   1      38.369  23.203  25.002  1.00  0.00     0.163 HD
BRANCH   3   6
ATOM      6  C   UNL A   1      35.092  23.915  25.661  1.00  0.00     0.173 C 
BRANCH   6   7
ATOM      7  N   UNL A   1      34.405  23.444  26.864  1.00  0.00    -0.326 N 
ATOM      8  C   UNL A   1      33.277  22.761  27.138  1.00  0.00     0.318 C 
ATOM      9  O   UNL A   1      33.166  22.412  28.319  1.00  0.00    -0.249 OA
ATOM     10  H   UNL A   1      34.892  23.690  27.685  1.00  0.00     0.166 HD
BRANCH   8  11
ATOM     11  N   UNL A   1      32.301  22.499  26.220  1.00  0.00    -0.322 N 
ATOM     12  C   UNL A   1      32.395  21.693  25.018  1.00  0.00     0.149 C 
BRANCH  11  13
ATOM     13  C   UNL A   1      30.993  23.126  26.457  1.00  0.00     0.177 C 
BRANCH  13  14
ATOM     14  C   UNL A   1      30.893  24.563  25.979  1.00  0.00     0.060 A 
ATOM     15  C   UNL A   1      31.813  27.893  27.258  1.00  0.00     0.067 C 
ATOM     16  C   UNL A   1      31.247  26.831  26.364  1.00  0.00     0.038 A 
ATOM     17  C   UNL A   1      30.657  27.170  25.150  1.00  0.00     0.023 A 
ATOM     18  N   UNL A   1      31.355  25.549  26.795  1.00  0.00    -0.256 NA
ATOM     19  C   UNL A   1      30.165  26.155  24.340  1.00  0.00     0.004 A 
ATOM     20  C   UNL A   1      30.284  24.835  24.756  1.00  0.00     0.026 A 
ENDBRANCH  13  14
ENDBRANCH  11  13
ENDBRANCH   8  11
ENDBRANCH   6   7
BRANCH   6  21
ATOM     21  C   UNL A   1      34.462  25.225  25.134  1.00  0.00     0.038 C 
BRANCH  21  22
ATOM     22  C   UNL A   1      33.662  25.182  23.822  1.00  0.00    -0.015 C 
ATOM     23  C   UNL A   1      33.708  26.524  23.083  1.00  0.00     0.007 C 
ATOM     24  C   UNL A   1      34.209  24.101  22.880  1.00  0.00     0.007 C 
ENDBRANCH  21  22
ENDBRANCH   6  21
ENDBRANCH   3   6
ENDBRANCH   1   2
BRANCH   1  25
ATOM     25  C   UNL A   1      36.926  20.542  25.010  1.00  0.00     0.023 C 
BRANCH  25  26
ATOM     26  C   UNL A   1      38.118  19.586  24.924  1.00  0.00     0.023 C 
BRANCH  26  27
ATOM     27  C   UNL A   1      39.371  20.006  25.690  1.00  0.00     0.116 C 
BRANCH  27  28
ATOM     28  N   UNL A   1      40.334  18.927  25.857  1.00  0.00    -0.352 N 
ATOM     29  C   UNL A   1      41.681  18.977  26.138  1.00  0.00     0.251 C 
ATOM     30  H   UNL A   1      39.965  18.021  25.752  1.00  0.00     0.163 HD
ATOM     31  O   UNL A   1      42.356  17.958  26.109  1.00  0.00    -0.269 OA
BRANCH  29  32
ATOM     32  C   UNL A   1      42.322  20.275  26.442  1.00  0.00     0.039 A 
ATOM     33  C   UNL A   1      42.989  20.954  25.419  1.00  0.00     0.014 A 
ATOM     34  C   UNL A   1      42.251  20.828  27.722  1.00  0.00     0.014 A 
ATOM     35  C   UNL A   1      43.502  22.232  25.658  1.00  0.00     0.010 A 
ATOM     36  C   UNL A   1      42.686  22.133  27.934  1.00  0.00     0.010 A 
ATOM     37  C   UNL A   1      43.311  22.852  26.904  1.00  0.00    -0.014 A 
BRANCH  37  38
ATOM     38  C   UNL A   1      43.740  24.255  27.143  1.00  0.00     0.031 A 
ATOM     39  C   UNL A   1      42.757  25.274  27.649  1.00  0.00     0.074 A 
ATOM     40  C   UNL A   1      44.996  24.631  26.832  1.00  0.00     0.049 A 
ATOM     41  N   UNL A   1      42.924  26.555  27.859  1.00  0.00    -0.248 NA
ATOM     42  C   UNL A   1      41.395  24.793  27.930  1.00  0.00     0.031 C 
ATOM     43  C   UNL A   1      46.033  23.751  26.286  1.00  0.00     0.029 A 
ATOM     44  N   UNL A   1      45.614  25.854  26.920  1.00  0.00    -0.354 N 
ATOM     45  C   UNL A   1      41.689  27.035  28.273  1.00  0.00     0.074 A 
ATOM     46  C   UNL A   1      40.768  25.920  28.235  1.00  0.00     0.031 C 
ATOM     47  C   UNL A   1      47.164  24.453  26.124  1.00  0.00     0.029 A 
ATOM     48  C   UNL A   1      46.925  25.841  26.508  1.00  0.00     0.049 A 
ATOM     49  H   UNL A   1      45.162  26.664  27.248  1.00  0.00     0.167 HD
ATOM     50  C   UNL A   1      41.357  28.287  28.671  1.00  0.00     0.037 A 
ATOM     51  C   UNL A   1      47.830  26.836  26.445  1.00  0.00     0.037 A 
ATOM     52  C   UNL A   1      42.283  29.388  28.734  1.00  0.00     0.049 A 
ATOM     53  C   UNL A   1      47.431  28.222  26.877  1.00  0.00     0.074 A 
ATOM     54  C   UNL A   1      42.065  30.673  29.200  1.00  0.00     0.029 A 
ATOM     55  N   UNL A   1      43.602  29.336  28.309  1.00  0.00    -0.354 N 
ATOM     56  N   UNL A   1      46.284  28.644  27.350  1.00  0.00    -0.248 NA
ATOM     57  C   UNL A   1      48.457  29.268  26.768  1.00  0.00     0.031 C 
ATOM     58  C   UNL A   1      43.234  31.415  29.001  1.00  0.00     0.029 A 
ATOM     59  C   UNL A   1      44.201  30.577  28.469  1.00  0.00     0.049 A 
ATOM     60  H   UNL A   1      44.048  28.536  27.947  1.00  0.00     0.167 HD
ATOM     61  C   UNL A   1      46.459  29.994  27.628  1.00  0.00     0.074 A 
ATOM     62  C   UNL A   1      47.828  30.316  27.281  1.00  0.00     0.031 C 
ATOM     63  C   UNL A   1      45.567  30.884  28.127  1.00  0.00     0.037 A 
BRANCH  50  64
ATOM     64  C   UNL A   1      39.927  28.536  29.060  1.00  0.00     0.064 A 
ATOM     65  C   UNL A   1      38.982  29.016  28.139  1.00  0.00     0.173 A 
ATOM     66  C   UNL A   1      39.490  28.269  30.366  1.00  0.00     0.173 A 
ATOM     67  F   UNL A   1      39.348  29.298  26.879  1.00  0.00    -0.203 F 
ATOM     68  C   UNL A   1      37.665  29.256  28.523  1.00  0.00     0.198 A 
ATOM     69  C   UNL A   1      38.163  28.476  30.736  1.00  0.00     0.198 A 
ATOM     70  F   UNL A   1      40.348  27.801  31.284  1.00  0.00    -0.203 F 
ATOM     71  F   UNL A   1      36.796  29.773  27.642  1.00  0.00    -0.200 F 
ATOM     72  C   UNL A   1      37.255  28.980  29.818  1.00  0.00     0.200 A 
ATOM     73  F   UNL A   1      37.767  28.193  31.984  1.00  0.00    -0.200 F 
ATOM     74  F   UNL A   1      35.987  29.207  30.184  1.00  0.00    -0.200 F 
ENDBRANCH  50  64
BRANCH  51  75
ATOM     75  C   UNL A   1      49.218  26.554  25.991  1.00  0.00     0.064 A 
ATOM     76  C   UNL A   1      50.158  25.994  26.867  1.00  0.00     0.173 A 
ATOM     77  C   UNL A   1      49.636  26.843  24.684  1.00  0.00     0.173 A 
ATOM     78  F   UNL A   1      49.811  25.720  28.133  1.00  0.00    -0.203 F 
ATOM     79  C   UNL A   1      51.467  25.751  26.461  1.00  0.00     0.198 A 
ATOM     80  C   UNL A   1      50.939  26.573  24.270  1.00  0.00     0.198 A 
ATOM     81  F   UNL A   1      48.776  27.378  23.805  1.00  0.00    -0.203 F 
ATOM     82  F   UNL A   1      52.357  25.259  27.333  1.00  0.00    -0.200 F 
ATOM     83  C   UNL A   1      51.856  26.036  25.160  1.00  0.00     0.200 A 
ATOM     84  F   UNL A   1      51.307  26.835  23.008  1.00  0.00    -0.200 F 
ATOM     85  F   UNL A   1      53.115  25.798  24.769  1.00  0.00    -0.200 F 
ENDBRANCH  51  75
BRANCH  63  86
ATOM     86  C   UNL A   1      46.052  32.284  28.372  1.00  0.00     0.064 A 
ATOM     87  C   UNL A   1      45.901  33.297  27.413  1.00  0.00     0.173 A 
ATOM     88  C   UNL A   1      46.642  32.625  29.599  1.00  0.00     0.173 A 
ATOM     89  F   UNL A   1      45.358  33.021  26.218  1.00  0.00    -0.203 F 
ATOM     90  C   UNL A   1      46.349  34.592  27.663  1.00  0.00     0.198 A 
ATOM     91  C   UNL A   1      47.057  33.928  29.859  1.00  0.00     0.198 A 
ATOM     92  F   UNL A   1      46.804  31.695  30.553  1.00  0.00    -0.203 F 
ATOM     93  F   UNL A   1      46.241  35.531  26.713  1.00  0.00    -0.200 F 
ATOM     94  C   UNL A   1      46.918  34.908  28.888  1.00  0.00     0.200 A 
ATOM     95  F   UNL A   1      47.592  34.234  31.048  1.00  0.00    -0.200 F 
ATOM     96  F   UNL A   1      47.339  36.157  29.131  1.00  0.00    -0.200 F 
ENDBRANCH  63  86
ENDBRANCH  37  38
ENDBRANCH  29  32
ENDBRANCH  27  28
ENDBRANCH  26  27
ENDBRANCH  25  26
ENDBRANCH   1  25
TORSDOF 17
ENDMDL
MODEL 3
REMARK VINA RESULT:     -11.0      1.732      7.806
REMARK SMILES Cc1cccc(CN(C)C(=O)N[C@@H](CC(C)C)C(=O)NCCCCNC(=O)c2ccc(-c3c4nc(c(-c5c(F)c(F)c(F)c(F)c5F)c5ccc([nH]5)c(-c5c(F)c(F)c(F)c(F)c5F)c5nc(c(-c6c(F)c(F)c(F)c(F)c6F)c6ccc3[nH]6)C=C5)C=C4)cc2)n1
REMARK SMILES IDX 21 1 20 2 18 3 19 4 13 6 12 7 10 8 11 9 8 11 9 12 7 13 6 14
REMARK SMILES IDX 1 15 2 16 3 17 91 18 4 19 5 20 14 21 15 22 16 23 17 24 22 25
REMARK SMILES IDX 23 26 24 27 25 28 26 29 27 31 28 32 29 33 90 34 30 35 89 36
REMARK SMILES IDX 31 37 32 38 33 39 83 40 34 41 88 42 82 43 84 44 35 45 87 46
REMARK SMILES IDX 81 47 80 48 36 50 68 51 48 52 67 53 49 54 52 55 66 56 85 57
REMARK SMILES IDX 50 58 51 59 65 61 86 62 53 63 37 64 38 65 46 66 39 67 40 68
REMARK SMILES IDX 44 69 47 70 41 71 42 72 45 73 43 74 69 75 70 76 78 77 71 78
REMARK SMILES IDX 72 79 76 80 79 81 73 82 74 83 77 84 75 85 54 86 55 87 63 88
REMARK SMILES IDX 56 89 57 90 61 91 64 92 58 93 59 94 62 95 60 96
REMARK H PARENT 20 5 12 10 25 30 84 49 52 60
REMARK Flexibility Score: inf
ROOT
ATOM      1  C   UNL A   1      36.932  22.145  25.358  1.00  0.00     0.116 C 
ENDROOT
BRANCH   1   2
ATOM      2  N   UNL A   1      36.161  22.503  26.532  1.00  0.00    -0.354 N 
ATOM      3  C   UNL A   1      34.896  22.997  26.659  1.00  0.00     0.242 C 
ATOM      4  O   UNL A   1      34.372  22.852  27.771  1.00  0.00    -0.273 OA
ATOM      5  H   UNL A   1      36.632  22.365  27.385  1.00  0.00     0.163 HD
BRANCH   3   6
ATOM      6  C   UNL A   1      34.058  23.574  25.490  1.00  0.00     0.173 C 
BRANCH   6   7
ATOM      7  N   UNL A   1      32.627  23.277  25.565  1.00  0.00    -0.326 N 
ATOM      8  C   UNL A   1      31.849  22.189  25.411  1.00  0.00     0.318 C 
ATOM      9  O   UNL A   1      30.672  22.350  25.754  1.00  0.00    -0.249 OA
ATOM     10  H   UNL A   1      32.097  24.078  25.786  1.00  0.00     0.166 HD
BRANCH   8  11
ATOM     11  N   UNL A   1      32.284  21.008  24.882  1.00  0.00    -0.322 N 
ATOM     12  C   UNL A   1      32.158  20.539  23.515  1.00  0.00     0.149 C 
BRANCH  11  13
ATOM     13  C   UNL A   1      32.943  20.077  25.808  1.00  0.00     0.177 C 
BRANCH  13  14
ATOM     14  C   UNL A   1      33.201  18.698  25.230  1.00  0.00     0.060 A 
ATOM     15  C   UNL A   1      31.974  15.270  25.795  1.00  0.00     0.067 C 
ATOM     16  C   UNL A   1      32.774  16.410  25.238  1.00  0.00     0.038 A 
ATOM     17  C   UNL A   1      33.710  16.191  24.232  1.00  0.00     0.023 A 
ATOM     18  N   UNL A   1      32.524  17.640  25.753  1.00  0.00    -0.256 NA
ATOM     19  C   UNL A   1      34.414  17.276  23.726  1.00  0.00     0.004 A 
ATOM     20  C   UNL A   1      34.157  18.545  24.228  1.00  0.00     0.026 A 
ENDBRANCH  13  14
ENDBRANCH  11  13
ENDBRANCH   8  11
ENDBRANCH   6   7
BRANCH   6  21
ATOM     21  C   UNL A   1      34.303  25.049  25.096  1.00  0.00     0.038 C 
BRANCH  21  22
ATOM     22  C   UNL A   1      33.176  26.070  25.329  1.00  0.00    -0.015 C 
ATOM     23  C   UNL A   1      33.668  27.289  26.117  1.00  0.00     0.007 C 
ATOM     24  C   UNL A   1      32.599  26.564  23.996  1.00  0.00     0.007 C 
ENDBRANCH  21  22
ENDBRANCH   6  21
ENDBRANCH   3   6
ENDBRANCH   1   2
BRANCH   1  25
ATOM     25  C   UNL A   1      36.827  20.675  24.967  1.00  0.00     0.023 C 
BRANCH  25  26
ATOM     26  C   UNL A   1      38.159  19.956  24.738  1.00  0.00     0.023 C 
BRANCH  26  27
ATOM     27  C   UNL A   1      39.265  20.255  25.748  1.00  0.00     0.116 C 
BRANCH  27  28
ATOM     28  N   UNL A   1      40.224  19.169  25.892  1.00  0.00    -0.352 N 
ATOM     29  C   UNL A   1      41.578  19.210  26.143  1.00  0.00     0.251 C 
ATOM     30  H   UNL A   1      39.846  18.266  25.795  1.00  0.00     0.163 HD
ATOM     31  O   UNL A   1      42.244  18.187  26.098  1.00  0.00    -0.269 OA
BRANCH  29  32
ATOM     32  C   UNL A   1      42.234  20.504  26.433  1.00  0.00     0.039 A 
ATOM     33  C   UNL A   1      42.794  21.227  25.377  1.00  0.00     0.014 A 
ATOM     34  C   UNL A   1      42.282  21.008  27.733  1.00  0.00     0.014 A 
ATOM     35  C   UNL A   1      43.318  22.502  25.614  1.00  0.00     0.010 A 
ATOM     36  C   UNL A   1      42.725  22.309  27.952  1.00  0.00     0.010 A 
ATOM     37  C   UNL A   1      43.242  23.073  26.895  1.00  0.00    -0.014 A 
BRANCH  37  38
ATOM     38  C   UNL A   1      43.681  24.471  27.144  1.00  0.00     0.031 A 
ATOM     39  C   UNL A   1      42.698  25.500  27.629  1.00  0.00     0.074 A 
ATOM     40  C   UNL A   1      44.947  24.834  26.861  1.00  0.00     0.049 A 
ATOM     41  N   UNL A   1      42.874  26.780  27.843  1.00  0.00    -0.248 NA
ATOM     42  C   UNL A   1      41.325  25.034  27.879  1.00  0.00     0.031 C 
ATOM     43  C   UNL A   1      45.986  23.944  26.338  1.00  0.00     0.029 A 
ATOM     44  N   UNL A   1      45.577  26.050  26.964  1.00  0.00    -0.354 N 
ATOM     45  C   UNL A   1      41.635  27.273  28.231  1.00  0.00     0.074 A 
ATOM     46  C   UNL A   1      40.704  26.167  28.171  1.00  0.00     0.031 C 
ATOM     47  C   UNL A   1      47.129  24.633  26.201  1.00  0.00     0.029 A 
ATOM     48  C   UNL A   1      46.896  26.023  26.581  1.00  0.00     0.049 A 
ATOM     49  H   UNL A   1      45.125  26.865  27.282  1.00  0.00     0.167 HD
ATOM     50  C   UNL A   1      41.308  28.528  28.621  1.00  0.00     0.037 A 
ATOM     51  C   UNL A   1      47.813  27.008  26.539  1.00  0.00     0.037 A 
ATOM     52  C   UNL A   1      42.244  29.619  28.706  1.00  0.00     0.049 A 
ATOM     53  C   UNL A   1      47.419  28.398  26.963  1.00  0.00     0.074 A 
ATOM     54  C   UNL A   1      42.029  30.906  29.168  1.00  0.00     0.029 A 
ATOM     55  N   UNL A   1      43.572  29.553  28.310  1.00  0.00    -0.354 N 
ATOM     56  N   UNL A   1      46.266  28.833  27.410  1.00  0.00    -0.248 NA
ATOM     57  C   UNL A   1      48.458  29.434  26.878  1.00  0.00     0.031 C 
ATOM     58  C   UNL A   1      43.210  31.635  28.995  1.00  0.00     0.029 A 
ATOM     59  C   UNL A   1      44.180  30.787  28.484  1.00  0.00     0.049 A 
ATOM     60  H   UNL A   1      44.017  28.749  27.958  1.00  0.00     0.167 HD
ATOM     61  C   UNL A   1      46.450  30.180  27.693  1.00  0.00     0.074 A 
ATOM     62  C   UNL A   1      47.829  30.488  27.377  1.00  0.00     0.031 C 
ATOM     63  C   UNL A   1      45.556  31.080  28.173  1.00  0.00     0.037 A 
BRANCH  50  64
ATOM     64  C   UNL A   1      39.872  28.792  28.979  1.00  0.00     0.064 A 
ATOM     65  C   UNL A   1      39.393  28.627  30.288  1.00  0.00     0.173 A 
ATOM     66  C   UNL A   1      38.968  29.238  28.003  1.00  0.00     0.173 A 
ATOM     67  F   UNL A   1      40.212  28.193  31.258  1.00  0.00    -0.203 F 
ATOM     68  C   UNL A   1      38.055  28.862  30.596  1.00  0.00     0.198 A 
ATOM     69  C   UNL A   1      37.639  29.506  28.323  1.00  0.00     0.198 A 
ATOM     70  F   UNL A   1      39.374  29.421  26.738  1.00  0.00    -0.203 F 
ATOM     71  F   UNL A   1      37.607  28.638  31.840  1.00  0.00    -0.200 F 
ATOM     72  C   UNL A   1      37.182  29.307  29.616  1.00  0.00     0.200 A 
ATOM     73  F   UNL A   1      36.801  29.951  27.377  1.00  0.00    -0.200 F 
ATOM     74  F   UNL A   1      35.896  29.535  29.916  1.00  0.00    -0.200 F 
ENDBRANCH  50  64
BRANCH  51  75
ATOM     75  C   UNL A   1      49.207  26.712  26.115  1.00  0.00     0.064 A 
ATOM     76  C   UNL A   1      50.157  26.264  27.044  1.00  0.00     0.173 A 
ATOM     77  C   UNL A   1      49.622  26.876  24.786  1.00  0.00     0.173 A 
ATOM     78  F   UNL A   1      49.814  26.113  28.331  1.00  0.00    -0.203 F 
ATOM     79  C   UNL A   1      51.473  26.010  26.664  1.00  0.00     0.198 A 
ATOM     80  C   UNL A   1      50.931  26.593  24.401  1.00  0.00     0.198 A 
ATOM     81  F   UNL A   1      48.752  27.299  23.857  1.00  0.00    -0.203 F 
ATOM     82  F   UNL A   1      52.371  25.629  27.582  1.00  0.00    -0.200 F 
ATOM     83  C   UNL A   1      51.858  26.169  25.341  1.00  0.00     0.200 A 
ATOM     84  F   UNL A   1      51.296  26.734  23.119  1.00  0.00    -0.200 F 
ATOM     85  F   UNL A   1      53.123  25.921  24.976  1.00  0.00    -0.200 F 
ENDBRANCH  51  75
BRANCH  63  86
ATOM     86  C   UNL A   1      46.051  32.475  28.429  1.00  0.00     0.064 A 
ATOM     87  C   UNL A   1      45.993  33.472  27.445  1.00  0.00     0.173 A 
ATOM     88  C   UNL A   1      46.554  32.827  29.692  1.00  0.00     0.173 A 
ATOM     89  F   UNL A   1      45.536  33.185  26.217  1.00  0.00    -0.203 F 
ATOM     90  C   UNL A   1      46.449  34.763  27.706  1.00  0.00     0.198 A 
ATOM     91  C   UNL A   1      46.976  34.126  29.960  1.00  0.00     0.198 A 
ATOM     92  F   UNL A   1      46.625  31.912  30.671  1.00  0.00    -0.203 F 
ATOM     93  F   UNL A   1      46.432  35.685  26.734  1.00  0.00    -0.200 F 
ATOM     94  C   UNL A   1      46.931  35.090  28.965  1.00  0.00     0.200 A 
ATOM     95  F   UNL A   1      47.426  34.444  31.180  1.00  0.00    -0.200 F 
ATOM     96  F   UNL A   1      47.358  36.335  29.217  1.00  0.00    -0.200 F 
ENDBRANCH  63  86
ENDBRANCH  37  38
ENDBRANCH  29  32
ENDBRANCH  27  28
ENDBRANCH  26  27
ENDBRANCH  25  26
ENDBRANCH   1  25
TORSDOF 17
ENDMDL
