MODEL 1
REMARK VINA RESULT:     -11.1      0.000      0.000
REMARK SMILES CC[C@@](C)(Nc1nccs1)C(=O)NCCCCNC(=O)c1ccc(-c2c3nc(c(-c4c(F)c(F)c(F)c(F)c4F)c4ccc([nH]4)c(-c4c(F)c(F)c(F)c(F)c4F)c4nc(c(-c5c(F)c(F)c(F)c(F)c5F)c5ccc2[nH]5)C=C4)C=C3)cc1
REMARK SMILES IDX 15 1 14 2 13 3 11 4 12 5 3 7 4 8 2 9 1 10 5 11 6 13 7 14
REMARK SMILES IDX 10 15 8 16 9 17 16 18 17 19 18 20 19 21 20 23 21 24 22 25
REMARK SMILES IDX 83 26 23 27 82 28 24 29 25 30 26 31 76 32 27 33 81 34 75 35
REMARK SMILES IDX 77 36 28 37 80 38 74 39 73 40 29 42 61 43 41 44 60 45 42 46
REMARK SMILES IDX 45 47 59 48 78 49 43 50 44 51 58 53 79 54 46 55 30 56 31 57
REMARK SMILES IDX 39 58 32 59 33 60 37 61 40 62 34 63 35 64 38 65 36 66 62 67
REMARK SMILES IDX 63 68 71 69 64 70 65 71 69 72 72 73 66 74 67 75 70 76 68 77
REMARK SMILES IDX 47 78 48 79 56 80 49 81 50 82 54 83 57 84 51 85 52 86 55 87
REMARK SMILES IDX 53 88
REMARK H PARENT 13 6 5 12 18 22 77 41 45 52
REMARK Flexibility Score: inf
ROOT
ATOM      1  C   UNL A   1      37.818  21.326  25.189  1.00  0.00     0.023 C 
ENDROOT
BRANCH   1   2
ATOM      2  C   UNL A   1      36.351  21.041  24.878  1.00  0.00     0.116 C 
BRANCH   2   3
ATOM      3  N   UNL A   1      35.472  21.077  26.031  1.00  0.00    -0.354 N 
ATOM      4  C   UNL A   1      34.113  21.210  26.129  1.00  0.00     0.245 C 
ATOM      5  O   UNL A   1      33.653  21.188  27.277  1.00  0.00    -0.272 OA
ATOM      6  H   UNL A   1      35.935  20.991  26.896  1.00  0.00     0.163 HD
BRANCH   4   7
ATOM      7  C   UNL A   1      33.195  21.303  24.862  1.00  0.00     0.115 C 
ATOM      8  C   UNL A   1      31.751  21.618  25.315  1.00  0.00     0.045 C 
BRANCH   7   9
ATOM      9  C   UNL A   1      33.662  22.432  23.893  1.00  0.00     0.035 C 
ATOM     10  C   UNL A   1      32.887  22.572  22.582  1.00  0.00     0.007 C 
ENDBRANCH   7   9
BRANCH   7  11
ATOM     11  N   UNL A   1      33.172  20.053  24.071  1.00  0.00    -0.347 N 
ATOM     12  H   UNL A   1      33.133  20.126  23.090  1.00  0.00     0.164 HD
BRANCH  11  13
ATOM     13  C   UNL A   1      33.200  18.817  24.618  1.00  0.00     0.183 A 
ATOM     14  N   UNL A   1      32.274  18.287  25.382  1.00  0.00    -0.229 NA
ATOM     15  S   UNL A   1      34.508  17.745  24.251  1.00  0.00    -0.106 S 
ATOM     16  C   UNL A   1      32.529  16.951  25.614  1.00  0.00     0.125 A 
ATOM     17  C   UNL A   1      33.700  16.474  25.071  1.00  0.00     0.088 A 
ENDBRANCH  11  13
ENDBRANCH   7  11
ENDBRANCH   4   7
ENDBRANCH   2   3
ENDBRANCH   1   2
BRANCH   1  18
ATOM     18  C   UNL A   1      38.752  20.126  25.106  1.00  0.00     0.023 C 
BRANCH  18  19
ATOM     19  C   UNL A   1      39.616  19.932  26.342  1.00  0.00     0.116 C 
BRANCH  19  20
ATOM     20  N   UNL A   1      40.685  18.968  26.120  1.00  0.00    -0.352 N 
ATOM     21  C   UNL A   1      42.029  19.181  25.951  1.00  0.00     0.251 C 
ATOM     22  H   UNL A   1      40.400  18.025  26.087  1.00  0.00     0.163 HD
ATOM     23  O   UNL A   1      42.758  18.276  25.562  1.00  0.00    -0.269 OA
BRANCH  21  24
ATOM     24  C   UNL A   1      42.590  20.517  26.229  1.00  0.00     0.039 A 
ATOM     25  C   UNL A   1      43.053  21.295  25.166  1.00  0.00     0.014 A 
ATOM     26  C   UNL A   1      42.646  21.001  27.538  1.00  0.00     0.014 A 
ATOM     27  C   UNL A   1      43.517  22.587  25.414  1.00  0.00     0.010 A 
ATOM     28  C   UNL A   1      43.018  22.319  27.770  1.00  0.00     0.010 A 
ATOM     29  C   UNL A   1      43.470  23.120  26.713  1.00  0.00    -0.014 A 
BRANCH  29  30
ATOM     30  C   UNL A   1      43.910  24.508  26.996  1.00  0.00     0.031 A 
ATOM     31  C   UNL A   1      42.919  25.515  27.513  1.00  0.00     0.074 A 
ATOM     32  C   UNL A   1      45.176  24.874  26.720  1.00  0.00     0.049 A 
ATOM     33  N   UNL A   1      43.083  26.791  27.751  1.00  0.00    -0.248 NA
ATOM     34  C   UNL A   1      41.553  25.029  27.767  1.00  0.00     0.031 C 
ATOM     35  C   UNL A   1      46.210  23.998  26.166  1.00  0.00     0.029 A 
ATOM     36  N   UNL A   1      45.807  26.084  26.860  1.00  0.00    -0.354 N 
ATOM     37  C   UNL A   1      41.841  27.259  28.160  1.00  0.00     0.074 A 
ATOM     38  C   UNL A   1      40.920  26.148  28.082  1.00  0.00     0.031 C 
ATOM     39  C   UNL A   1      47.353  24.691  26.041  1.00  0.00     0.029 A 
ATOM     40  C   UNL A   1      47.122  26.068  26.463  1.00  0.00     0.049 A 
ATOM     41  H   UNL A   1      45.360  26.888  27.211  1.00  0.00     0.167 HD
ATOM     42  C   UNL A   1      41.508  28.499  28.588  1.00  0.00     0.037 A 
ATOM     43  C   UNL A   1      48.034  27.058  26.438  1.00  0.00     0.037 A 
ATOM     44  C   UNL A   1      42.440  29.591  28.692  1.00  0.00     0.049 A 
ATOM     45  C   UNL A   1      47.634  28.429  26.916  1.00  0.00     0.074 A 
ATOM     46  C   UNL A   1      42.222  30.867  29.178  1.00  0.00     0.029 A 
ATOM     47  N   UNL A   1      43.769  29.532  28.297  1.00  0.00    -0.354 N 
ATOM     48  N   UNL A   1      46.478  28.842  27.375  1.00  0.00    -0.248 NA
ATOM     49  C   UNL A   1      48.670  29.470  26.876  1.00  0.00     0.031 C 
ATOM     50  C   UNL A   1      43.405  31.599  29.027  1.00  0.00     0.029 A 
ATOM     51  C   UNL A   1      44.377  30.760  28.505  1.00  0.00     0.049 A 
ATOM     52  H   UNL A   1      44.213  28.737  27.926  1.00  0.00     0.167 HD
ATOM     53  C   UNL A   1      46.655  30.177  27.710  1.00  0.00     0.074 A 
ATOM     54  C   UNL A   1      48.035  30.500  27.415  1.00  0.00     0.031 C 
ATOM     55  C   UNL A   1      45.757  31.058  28.215  1.00  0.00     0.037 A 
BRANCH  42  56
ATOM     56  C   UNL A   1      40.078  28.742  28.981  1.00  0.00     0.064 A 
ATOM     57  C   UNL A   1      39.117  29.161  28.048  1.00  0.00     0.173 A 
ATOM     58  C   UNL A   1      39.655  28.519  30.300  1.00  0.00     0.173 A 
ATOM     59  F   UNL A   1      39.469  29.402  26.776  1.00  0.00    -0.203 F 
ATOM     60  C   UNL A   1      37.794  29.375  28.426  1.00  0.00     0.198 A 
ATOM     61  C   UNL A   1      38.325  28.700  30.668  1.00  0.00     0.198 A 
ATOM     62  F   UNL A   1      40.532  28.113  31.231  1.00  0.00    -0.203 F 
ATOM     63  F   UNL A   1      36.906  29.825  27.529  1.00  0.00    -0.200 F 
ATOM     64  C   UNL A   1      37.398  29.136  29.733  1.00  0.00     0.200 A 
ATOM     65  F   UNL A   1      37.941  28.454  31.928  1.00  0.00    -0.200 F 
ATOM     66  F   UNL A   1      36.122  29.332  30.095  1.00  0.00    -0.200 F 
ENDBRANCH  42  56
BRANCH  43  67
ATOM     67  C   UNL A   1      49.420  26.786  25.971  1.00  0.00     0.064 A 
ATOM     68  C   UNL A   1      49.782  26.998  24.633  1.00  0.00     0.173 A 
ATOM     69  C   UNL A   1      50.404  26.296  26.841  1.00  0.00     0.173 A 
ATOM     70  F   UNL A   1      48.873  27.450  23.756  1.00  0.00    -0.203 F 
ATOM     71  C   UNL A   1      51.066  26.707  24.179  1.00  0.00     0.198 A 
ATOM     72  C   UNL A   1      51.697  26.035  26.393  1.00  0.00     0.198 A 
ATOM     73  F   UNL A   1      50.112  26.081  28.133  1.00  0.00    -0.203 F 
ATOM     74  F   UNL A   1      51.369  26.871  22.884  1.00  0.00    -0.200 F 
ATOM     75  C   UNL A   1      52.024  26.231  25.061  1.00  0.00     0.200 A 
ATOM     76  F   UNL A   1      52.624  25.589  27.252  1.00  0.00    -0.200 F 
ATOM     77  F   UNL A   1      53.260  25.952  24.624  1.00  0.00    -0.200 F 
ENDBRANCH  43  67
BRANCH  55  78
ATOM     78  C   UNL A   1      46.249  32.443  28.523  1.00  0.00     0.064 A 
ATOM     79  C   UNL A   1      46.243  33.461  27.559  1.00  0.00     0.173 A 
ATOM     80  C   UNL A   1      46.692  32.764  29.816  1.00  0.00     0.173 A 
ATOM     81  F   UNL A   1      45.842  33.201  26.306  1.00  0.00    -0.203 F 
ATOM     82  C   UNL A   1      46.691  34.741  27.869  1.00  0.00     0.198 A 
ATOM     83  C   UNL A   1      47.105  34.054  30.132  1.00  0.00     0.198 A 
ATOM     84  F   UNL A   1      46.709  31.829  30.778  1.00  0.00    -0.203 F 
ATOM     85  F   UNL A   1      46.727  35.685  26.918  1.00  0.00    -0.200 F 
ATOM     86  C   UNL A   1      47.114  35.040  29.156  1.00  0.00     0.200 A 
ATOM     87  F   UNL A   1      47.497  34.345  31.380  1.00  0.00    -0.200 F 
ATOM     88  F   UNL A   1      47.535  36.276  29.455  1.00  0.00    -0.200 F 
ENDBRANCH  55  78
ENDBRANCH  29  30
ENDBRANCH  21  24
ENDBRANCH  19  20
ENDBRANCH  18  19
ENDBRANCH   1  18
TORSDOF 14
ENDMDL
MODEL 2
REMARK VINA RESULT:     -11.0      6.602     10.533
REMARK SMILES CC[C@@](C)(Nc1nccs1)C(=O)NCCCCNC(=O)c1ccc(-c2c3nc(c(-c4c(F)c(F)c(F)c(F)c4F)c4ccc([nH]4)c(-c4c(F)c(F)c(F)c(F)c4F)c4nc(c(-c5c(F)c(F)c(F)c(F)c5F)c5ccc2[nH]5)C=C4)C=C3)cc1
REMARK SMILES IDX 15 1 14 2 13 3 11 4 12 5 3 7 4 8 2 9 1 10 5 11 6 13 7 14
REMARK SMILES IDX 10 15 8 16 9 17 16 18 17 19 18 20 19 21 20 23 21 24 22 25
REMARK SMILES IDX 83 26 23 27 82 28 24 29 25 30 26 31 76 32 27 33 81 34 75 35
REMARK SMILES IDX 77 36 28 37 80 38 74 39 73 40 29 42 61 43 41 44 60 45 42 46
REMARK SMILES IDX 45 47 59 48 78 49 43 50 44 51 58 53 79 54 46 55 30 56 31 57
REMARK SMILES IDX 39 58 32 59 33 60 37 61 40 62 34 63 35 64 38 65 36 66 62 67
REMARK SMILES IDX 63 68 71 69 64 70 65 71 69 72 72 73 66 74 67 75 70 76 68 77
REMARK SMILES IDX 47 78 48 79 56 80 49 81 50 82 54 83 57 84 51 85 52 86 55 87
REMARK SMILES IDX 53 88
REMARK H PARENT 13 6 5 12 18 22 77 41 45 52
REMARK Flexibility Score: inf
ROOT
ATOM      1  C   UNL A   1      36.855  33.540  28.839  1.00  0.00     0.023 C 
ENDROOT
BRANCH   1   2
ATOM      2  C   UNL A   1      36.757  33.118  30.303  1.00  0.00     0.116 C 
BRANCH   2   3
ATOM      3  N   UNL A   1      37.284  34.087  31.245  1.00  0.00    -0.354 N 
ATOM      4  C   UNL A   1      37.034  34.280  32.578  1.00  0.00     0.245 C 
ATOM      5  O   UNL A   1      37.666  35.199  33.113  1.00  0.00    -0.272 OA
ATOM      6  H   UNL A   1      37.934  34.717  30.858  1.00  0.00     0.163 HD
BRANCH   4   7
ATOM      7  C   UNL A   1      36.072  33.344  33.385  1.00  0.00     0.115 C 
ATOM      8  C   UNL A   1      35.970  31.984  32.656  1.00  0.00     0.045 C 
BRANCH   7   9
ATOM      9  C   UNL A   1      36.595  33.086  34.831  1.00  0.00     0.035 C 
ATOM     10  C   UNL A   1      37.732  32.075  34.978  1.00  0.00     0.007 C 
ENDBRANCH   7   9
BRANCH   7  11
ATOM     11  N   UNL A   1      34.707  33.898  33.525  1.00  0.00    -0.347 N 
ATOM     12  H   UNL A   1      34.152  33.581  34.273  1.00  0.00     0.164 HD
BRANCH  11  13
ATOM     13  C   UNL A   1      34.179  34.816  32.683  1.00  0.00     0.183 A 
ATOM     14  N   UNL A   1      33.619  34.569  31.522  1.00  0.00    -0.229 NA
ATOM     15  S   UNL A   1      34.123  36.480  33.152  1.00  0.00    -0.106 S 
ATOM     16  C   UNL A   1      33.021  35.702  31.011  1.00  0.00     0.125 A 
ATOM     17  C   UNL A   1      33.184  36.842  31.764  1.00  0.00     0.088 A 
ENDBRANCH  11  13
ENDBRANCH   7  11
ENDBRANCH   4   7
ENDBRANCH   2   3
ENDBRANCH   1   2
BRANCH   1  18
ATOM     18  C   UNL A   1      35.554  33.475  28.049  1.00  0.00     0.023 C 
BRANCH  18  19
ATOM     19  C   UNL A   1      34.433  32.741  28.768  1.00  0.00     0.116 C 
BRANCH  19  20
ATOM     20  N   UNL A   1      33.810  31.729  27.925  1.00  0.00    -0.352 N 
ATOM     21  C   UNL A   1      34.331  30.556  27.442  1.00  0.00     0.251 C 
ATOM     22  H   UNL A   1      32.878  31.916  27.664  1.00  0.00     0.163 HD
ATOM     23  O   UNL A   1      33.741  29.925  26.573  1.00  0.00    -0.269 OA
BRANCH  21  24
ATOM     24  C   UNL A   1      35.618  30.065  27.971  1.00  0.00     0.039 A 
ATOM     25  C   UNL A   1      36.754  30.125  27.160  1.00  0.00     0.014 A 
ATOM     26  C   UNL A   1      35.701  29.557  29.269  1.00  0.00     0.014 A 
ATOM     27  C   UNL A   1      37.988  29.730  27.678  1.00  0.00     0.010 A 
ATOM     28  C   UNL A   1      36.942  29.255  29.813  1.00  0.00     0.010 A 
ATOM     29  C   UNL A   1      38.095  29.325  29.019  1.00  0.00    -0.014 A 
BRANCH  29  30
ATOM     30  C   UNL A   1      39.403  28.948  29.610  1.00  0.00     0.031 A 
ATOM     31  C   UNL A   1      40.007  29.800  30.693  1.00  0.00     0.074 A 
ATOM     32  C   UNL A   1      40.072  27.887  29.123  1.00  0.00     0.049 A 
ATOM     33  N   UNL A   1      41.168  29.687  31.285  1.00  0.00    -0.248 NA
ATOM     34  C   UNL A   1      39.212  30.952  31.150  1.00  0.00     0.031 C 
ATOM     35  C   UNL A   1      39.610  27.019  28.037  1.00  0.00     0.029 A 
ATOM     36  N   UNL A   1      41.291  27.361  29.471  1.00  0.00    -0.354 N 
ATOM     37  C   UNL A   1      41.248  30.759  32.163  1.00  0.00     0.074 A 
ATOM     38  C   UNL A   1      40.049  31.546  31.986  1.00  0.00     0.031 C 
ATOM     39  C   UNL A   1      40.519  26.053  27.830  1.00  0.00     0.029 A 
ATOM     40  C   UNL A   1      41.645  26.258  28.733  1.00  0.00     0.049 A 
ATOM     41  H   UNL A   1      41.858  27.739  30.181  1.00  0.00     0.167 HD
ATOM     42  C   UNL A   1      42.225  31.046  33.056  1.00  0.00     0.037 A 
ATOM     43  C   UNL A   1      42.760  25.503  28.780  1.00  0.00     0.037 A 
ATOM     44  C   UNL A   1      43.401  30.239  33.247  1.00  0.00     0.049 A 
ATOM     45  C   UNL A   1      43.831  25.848  29.780  1.00  0.00     0.074 A 
ATOM     46  C   UNL A   1      44.417  30.402  34.170  1.00  0.00     0.029 A 
ATOM     47  N   UNL A   1      43.718  29.118  32.493  1.00  0.00    -0.354 N 
ATOM     48  N   UNL A   1      43.862  26.818  30.660  1.00  0.00    -0.248 NA
ATOM     49  C   UNL A   1      45.022  24.987  29.795  1.00  0.00     0.031 C 
ATOM     50  C   UNL A   1      45.377  29.411  33.940  1.00  0.00     0.029 A 
ATOM     51  C   UNL A   1      44.929  28.594  32.914  1.00  0.00     0.049 A 
ATOM     52  H   UNL A   1      43.164  28.750  31.767  1.00  0.00     0.167 HD
ATOM     53  C   UNL A   1      45.054  26.667  31.355  1.00  0.00     0.074 A 
ATOM     54  C   UNL A   1      45.711  25.500  30.804  1.00  0.00     0.031 C 
ATOM     55  C   UNL A   1      45.560  27.424  32.359  1.00  0.00     0.037 A 
BRANCH  42  56
ATOM     56  C   UNL A   1      42.061  32.280  33.898  1.00  0.00     0.064 A 
ATOM     57  C   UNL A   1      42.520  33.534  33.467  1.00  0.00     0.173 A 
ATOM     58  C   UNL A   1      41.406  32.213  35.136  1.00  0.00     0.173 A 
ATOM     59  F   UNL A   1      43.164  33.653  32.296  1.00  0.00    -0.203 F 
ATOM     60  C   UNL A   1      42.354  34.669  34.256  1.00  0.00     0.198 A 
ATOM     61  C   UNL A   1      41.211  33.355  35.908  1.00  0.00     0.198 A 
ATOM     62  F   UNL A   1      40.944  31.040  35.595  1.00  0.00    -0.203 F 
ATOM     63  F   UNL A   1      42.847  35.846  33.846  1.00  0.00    -0.200 F 
ATOM     64  C   UNL A   1      41.693  34.581  35.471  1.00  0.00     0.200 A 
ATOM     65  F   UNL A   1      40.559  33.271  37.076  1.00  0.00    -0.200 F 
ATOM     66  F   UNL A   1      41.525  35.676  36.226  1.00  0.00    -0.200 F 
ENDBRANCH  42  56
BRANCH  43  67
ATOM     67  C   UNL A   1      42.908  24.333  27.873  1.00  0.00     0.064 A 
ATOM     68  C   UNL A   1      43.391  24.493  26.567  1.00  0.00     0.173 A 
ATOM     69  C   UNL A   1      42.558  23.039  28.284  1.00  0.00     0.173 A 
ATOM     70  F   UNL A   1      43.723  25.713  26.120  1.00  0.00    -0.203 F 
ATOM     71  C   UNL A   1      43.494  23.408  25.699  1.00  0.00     0.198 A 
ATOM     72  C   UNL A   1      42.692  21.950  27.426  1.00  0.00     0.198 A 
ATOM     73  F   UNL A   1      42.097  22.830  29.526  1.00  0.00    -0.203 F 
ATOM     74  F   UNL A   1      43.910  23.599  24.439  1.00  0.00    -0.200 F 
ATOM     75  C   UNL A   1      43.149  22.136  26.131  1.00  0.00     0.200 A 
ATOM     76  F   UNL A   1      42.372  20.720  27.853  1.00  0.00    -0.200 F 
ATOM     77  F   UNL A   1      43.250  21.093  25.296  1.00  0.00    -0.200 F 
ENDBRANCH  43  67
BRANCH  55  78
ATOM     78  C   UNL A   1      46.868  26.989  32.957  1.00  0.00     0.064 A 
ATOM     79  C   UNL A   1      46.928  26.074  34.018  1.00  0.00     0.173 A 
ATOM     80  C   UNL A   1      48.079  27.465  32.431  1.00  0.00     0.173 A 
ATOM     81  F   UNL A   1      45.798  25.600  34.565  1.00  0.00    -0.203 F 
ATOM     82  C   UNL A   1      48.151  25.674  34.549  1.00  0.00     0.198 A 
ATOM     83  C   UNL A   1      49.300  27.036  32.940  1.00  0.00     0.198 A 
ATOM     84  F   UNL A   1      48.077  28.336  31.409  1.00  0.00    -0.203 F 
ATOM     85  F   UNL A   1      48.183  24.840  35.597  1.00  0.00    -0.200 F 
ATOM     86  C   UNL A   1      49.335  26.148  34.004  1.00  0.00     0.200 A 
ATOM     87  F   UNL A   1      50.444  27.482  32.402  1.00  0.00    -0.200 F 
ATOM     88  F   UNL A   1      50.511  25.754  34.511  1.00  0.00    -0.200 F 
ENDBRANCH  55  78
ENDBRANCH  29  30
ENDBRANCH  21  24
ENDBRANCH  19  20
ENDBRANCH  18  19
ENDBRANCH   1  18
TORSDOF 14
ENDMDL
MODEL 3
REMARK VINA RESULT:     -10.9      5.987     10.661
REMARK SMILES CC[C@@](C)(Nc1nccs1)C(=O)NCCCCNC(=O)c1ccc(-c2c3nc(c(-c4c(F)c(F)c(F)c(F)c4F)c4ccc([nH]4)c(-c4c(F)c(F)c(F)c(F)c4F)c4nc(c(-c5c(F)c(F)c(F)c(F)c5F)c5ccc2[nH]5)C=C4)C=C3)cc1
REMARK SMILES IDX 15 1 14 2 13 3 11 4 12 5 3 7 4 8 2 9 1 10 5 11 6 13 7 14
REMARK SMILES IDX 10 15 8 16 9 17 16 18 17 19 18 20 19 21 20 23 21 24 22 25
REMARK SMILES IDX 83 26 23 27 82 28 24 29 25 30 26 31 76 32 27 33 81 34 75 35
REMARK SMILES IDX 77 36 28 37 80 38 74 39 73 40 29 42 61 43 41 44 60 45 42 46
REMARK SMILES IDX 45 47 59 48 78 49 43 50 44 51 58 53 79 54 46 55 30 56 31 57
REMARK SMILES IDX 39 58 32 59 33 60 37 61 40 62 34 63 35 64 38 65 36 66 62 67
REMARK SMILES IDX 63 68 71 69 64 70 65 71 69 72 72 73 66 74 67 75 70 76 68 77
REMARK SMILES IDX 47 78 48 79 56 80 49 81 50 82 54 83 57 84 51 85 52 86 55 87
REMARK SMILES IDX 53 88
REMARK H PARENT 13 6 5 12 18 22 77 41 45 52
REMARK Flexibility Score: inf
ROOT
ATOM      1  C   UNL A   1      37.096  33.403  29.135  1.00  0.00     0.023 C 
ENDROOT
BRANCH   1   2
ATOM      2  C   UNL A   1      37.564  33.665  30.565  1.00  0.00     0.116 C 
BRANCH   2   3
ATOM      3  N   UNL A   1      36.743  34.603  31.305  1.00  0.00    -0.354 N 
ATOM      4  C   UNL A   1      36.319  34.603  32.607  1.00  0.00     0.245 C 
ATOM      5  O   UNL A   1      35.628  35.571  32.946  1.00  0.00    -0.272 OA
ATOM      6  H   UNL A   1      36.434  35.376  30.778  1.00  0.00     0.163 HD
BRANCH   4   7
ATOM      7  C   UNL A   1      36.751  33.487  33.619  1.00  0.00     0.115 C 
ATOM      8  C   UNL A   1      36.111  33.788  34.995  1.00  0.00     0.045 C 
BRANCH   7   9
ATOM      9  C   UNL A   1      36.280  32.075  33.158  1.00  0.00     0.035 C 
ATOM     10  C   UNL A   1      37.341  30.974  33.130  1.00  0.00     0.007 C 
ENDBRANCH   7   9
BRANCH   7  11
ATOM     11  N   UNL A   1      38.217  33.404  33.798  1.00  0.00    -0.347 N 
ATOM     12  H   UNL A   1      38.731  32.857  33.162  1.00  0.00     0.164 HD
BRANCH  11  13
ATOM     13  C   UNL A   1      38.891  34.036  34.786  1.00  0.00     0.183 A 
ATOM     14  N   UNL A   1      39.095  35.329  34.879  1.00  0.00    -0.229 NA
ATOM     15  S   UNL A   1      39.496  33.130  36.129  1.00  0.00    -0.106 S 
ATOM     16  C   UNL A   1      39.653  35.655  36.097  1.00  0.00     0.125 A 
ATOM     17  C   UNL A   1      39.938  34.587  36.917  1.00  0.00     0.088 A 
ENDBRANCH  11  13
ENDBRANCH   7  11
ENDBRANCH   4   7
ENDBRANCH   2   3
ENDBRANCH   1   2
BRANCH   1  18
ATOM     18  C   UNL A   1      35.595  33.520  28.904  1.00  0.00     0.023 C 
BRANCH  18  19
ATOM     19  C   UNL A   1      34.776  32.468  29.636  1.00  0.00     0.116 C 
BRANCH  19  20
ATOM     20  N   UNL A   1      34.093  31.567  28.718  1.00  0.00    -0.352 N 
ATOM     21  C   UNL A   1      34.593  30.510  28.002  1.00  0.00     0.251 C 
ATOM     22  H   UNL A   1      33.131  31.742  28.595  1.00  0.00     0.163 HD
ATOM     23  O   UNL A   1      33.927  29.990  27.114  1.00  0.00    -0.269 OA
BRANCH  21  24
ATOM     24  C   UNL A   1      35.950  30.011  28.300  1.00  0.00     0.039 A 
ATOM     25  C   UNL A   1      36.940  30.105  27.320  1.00  0.00     0.014 A 
ATOM     26  C   UNL A   1      36.241  29.462  29.551  1.00  0.00     0.014 A 
ATOM     27  C   UNL A   1      38.242  29.703  27.620  1.00  0.00     0.010 A 
ATOM     28  C   UNL A   1      37.554  29.152  29.878  1.00  0.00     0.010 A 
ATOM     29  C   UNL A   1      38.564  29.256  28.912  1.00  0.00    -0.014 A 
BRANCH  29  30
ATOM     30  C   UNL A   1      39.950  28.869  29.272  1.00  0.00     0.031 A 
ATOM     31  C   UNL A   1      40.799  29.807  30.086  1.00  0.00     0.074 A 
ATOM     32  C   UNL A   1      40.461  27.714  28.808  1.00  0.00     0.049 A 
ATOM     33  N   UNL A   1      42.054  29.691  30.442  1.00  0.00    -0.248 NA
ATOM     34  C   UNL A   1      40.163  31.057  30.535  1.00  0.00     0.031 C 
ATOM     35  C   UNL A   1      39.750  26.751  27.964  1.00  0.00     0.029 A 
ATOM     36  N   UNL A   1      41.705  27.157  28.970  1.00  0.00    -0.354 N 
ATOM     37  C   UNL A   1      42.357  30.857  31.134  1.00  0.00     0.074 A 
ATOM     38  C   UNL A   1      41.178  31.692  31.098  1.00  0.00     0.031 C 
ATOM     39  C   UNL A   1      40.556  25.709  27.710  1.00  0.00     0.029 A 
ATOM     40  C   UNL A   1      41.854  25.949  28.332  1.00  0.00     0.049 A 
ATOM     41  H   UNL A   1      42.421  27.581  29.494  1.00  0.00     0.167 HD
ATOM     42  C   UNL A   1      43.508  31.187  31.764  1.00  0.00     0.037 A 
ATOM     43  C   UNL A   1      42.923  25.134  28.254  1.00  0.00     0.037 A 
ATOM     44  C   UNL A   1      44.666  30.334  31.821  1.00  0.00     0.049 A 
ATOM     45  C   UNL A   1      44.193  25.529  28.961  1.00  0.00     0.074 A 
ATOM     46  C   UNL A   1      45.859  30.541  32.490  1.00  0.00     0.029 A 
ATOM     47  N   UNL A   1      44.775  29.109  31.176  1.00  0.00    -0.354 N 
ATOM     48  N   UNL A   1      44.444  26.596  29.678  1.00  0.00    -0.248 NA
ATOM     49  C   UNL A   1      45.325  24.599  28.852  1.00  0.00     0.031 C 
ATOM     50  C   UNL A   1      46.710  29.468  32.206  1.00  0.00     0.029 A 
ATOM     51  C   UNL A   1      46.026  28.562  31.412  1.00  0.00     0.049 A 
ATOM     52  H   UNL A   1      44.068  28.692  30.633  1.00  0.00     0.167 HD
ATOM     53  C   UNL A   1      45.748  26.453  30.133  1.00  0.00     0.074 A 
ATOM     54  C   UNL A   1      46.229  25.186  29.623  1.00  0.00     0.031 C 
ATOM     55  C   UNL A   1      46.481  27.293  30.903  1.00  0.00     0.037 A 
BRANCH  42  56
ATOM     56  C   UNL A   1      43.572  32.523  32.448  1.00  0.00     0.064 A 
ATOM     57  C   UNL A   1      43.941  33.688  31.759  1.00  0.00     0.173 A 
ATOM     58  C   UNL A   1      43.227  32.646  33.802  1.00  0.00     0.173 A 
ATOM     59  F   UNL A   1      44.293  33.626  30.465  1.00  0.00    -0.203 F 
ATOM     60  C   UNL A   1      43.988  34.920  32.405  1.00  0.00     0.198 A 
ATOM     61  C   UNL A   1      43.242  33.884  34.437  1.00  0.00     0.198 A 
ATOM     62  F   UNL A   1      42.864  31.564  34.508  1.00  0.00    -0.203 F 
ATOM     63  F   UNL A   1      44.393  36.010  31.739  1.00  0.00    -0.200 F 
ATOM     64  C   UNL A   1      43.631  35.019  33.741  1.00  0.00     0.200 A 
ATOM     65  F   UNL A   1      42.882  33.980  35.725  1.00  0.00    -0.200 F 
ATOM     66  F   UNL A   1      43.667  36.207  34.360  1.00  0.00    -0.200 F 
ENDBRANCH  42  56
BRANCH  43  67
ATOM     67  C   UNL A   1      42.833  23.854  27.502  1.00  0.00     0.064 A 
ATOM     68  C   UNL A   1      43.208  23.785  26.153  1.00  0.00     0.173 A 
ATOM     69  C   UNL A   1      42.360  22.681  28.107  1.00  0.00     0.173 A 
ATOM     70  F   UNL A   1      43.651  24.884  25.523  1.00  0.00    -0.203 F 
ATOM     71  C   UNL A   1      43.088  22.599  25.431  1.00  0.00     0.198 A 
ATOM     72  C   UNL A   1      42.271  21.488  27.393  1.00  0.00     0.198 A 
ATOM     73  F   UNL A   1      41.994  22.690  29.397  1.00  0.00    -0.203 F 
ATOM     74  F   UNL A   1      43.404  22.576  24.129  1.00  0.00    -0.200 F 
ATOM     75  C   UNL A   1      42.625  21.450  26.053  1.00  0.00     0.200 A 
ATOM     76  F   UNL A   1      41.837  20.376  28.002  1.00  0.00    -0.200 F 
ATOM     77  F   UNL A   1      42.511  20.310  25.359  1.00  0.00    -0.200 F 
ENDBRANCH  43  67
BRANCH  55  78
ATOM     78  C   UNL A   1      47.867  26.851  31.278  1.00  0.00     0.064 A 
ATOM     79  C   UNL A   1      48.106  26.034  32.392  1.00  0.00     0.173 A 
ATOM     80  C   UNL A   1      48.965  27.217  30.484  1.00  0.00     0.173 A 
ATOM     81  F   UNL A   1      47.092  25.669  33.191  1.00  0.00    -0.203 F 
ATOM     82  C   UNL A   1      49.396  25.624  32.715  1.00  0.00     0.198 A 
ATOM     83  C   UNL A   1      50.249  26.776  30.788  1.00  0.00     0.198 A 
ATOM     84  F   UNL A   1      48.790  27.990  29.401  1.00  0.00    -0.203 F 
ATOM     85  F   UNL A   1      49.608  24.888  33.814  1.00  0.00    -0.200 F 
ATOM     86  C   UNL A   1      50.465  25.988  31.909  1.00  0.00     0.200 A 
ATOM     87  F   UNL A   1      51.278  27.114  29.999  1.00  0.00    -0.200 F 
ATOM     88  F   UNL A   1      51.705  25.583  32.216  1.00  0.00    -0.200 F 
ENDBRANCH  55  78
ENDBRANCH  29  30
ENDBRANCH  21  24
ENDBRANCH  19  20
ENDBRANCH  18  19
ENDBRANCH   1  18
TORSDOF 14
ENDMDL
