MODEL 1
REMARK VINA RESULT:     -11.0      0.000      0.000
REMARK SMILES CCC[C@@](C)(C(=O)NCCCCNC(=O)c1ccc(-c2c3nc(c(-c4c(F)c(F)c(F)c(F)c4F)c4ccc([nH]4)c(-c4c(F)c(F)c(F)c(F)c4F)c4nc(c(-c5c(F)c(F)c(F)c(F)c5F)c5ccc2[nH]5)C=C4)C=C3)cc1)[C@H]1CCOC1
REMARK SMILES IDX 10 1 9 2 8 3 6 4 7 5 4 7 5 8 3 9 2 10 1 11 79 12 80 13 83 14
REMARK SMILES IDX 81 15 82 16 11 17 12 18 13 19 14 20 15 22 16 23 17 24 78 25
REMARK SMILES IDX 18 26 77 27 19 28 20 29 21 30 71 31 22 32 76 33 70 34 72 35
REMARK SMILES IDX 23 36 75 37 69 38 68 39 24 41 56 42 36 43 55 44 37 45 40 46
REMARK SMILES IDX 54 47 73 48 38 49 39 50 53 52 74 53 41 54 25 55 26 56 34 57
REMARK SMILES IDX 27 58 28 59 32 60 35 61 29 62 30 63 33 64 31 65 57 66 58 67
REMARK SMILES IDX 66 68 59 69 60 70 64 71 67 72 61 73 62 74 65 75 63 76 42 77
REMARK SMILES IDX 43 78 51 79 44 80 45 81 49 82 52 83 46 84 47 85 50 86 48 87
REMARK H PARENT 8 6 13 21 72 40 40 51
REMARK Flexibility Score: inf
ROOT
ATOM      1  C   UNL A   1      31.485  31.009  25.873  1.00  0.00     0.023 C 
ENDROOT
BRANCH   1   2
ATOM      2  C   UNL A   1      32.583  29.993  26.200  1.00  0.00     0.116 C 
BRANCH   2   3
ATOM      3  N   UNL A   1      32.029  28.823  26.856  1.00  0.00    -0.356 N 
ATOM      4  C   UNL A   1      31.467  27.671  26.402  1.00  0.00     0.226 C 
ATOM      5  O   UNL A   1      30.926  26.993  27.279  1.00  0.00    -0.274 OA
ATOM      6  H   UNL A   1      32.070  28.873  27.840  1.00  0.00     0.163 HD
BRANCH   4   7
ATOM      7  C   UNL A   1      31.518  27.215  24.913  1.00  0.00     0.051 C 
ATOM      8  C   UNL A   1      30.786  25.857  24.814  1.00  0.00     0.022 C 
BRANCH   7   9
ATOM      9  C   UNL A   1      33.005  27.130  24.442  1.00  0.00     0.017 C 
BRANCH   9  10
ATOM     10  C   UNL A   1      33.950  26.116  25.104  1.00  0.00    -0.002 C 
ATOM     11  C   UNL A   1      34.304  24.900  24.268  1.00  0.00     0.004 C 
ENDBRANCH   9  10
ENDBRANCH   7   9
BRANCH   7  12
ATOM     12  C   UNL A   1      30.742  28.221  23.993  1.00  0.00     0.032 C 
ATOM     13  C   UNL A   1      31.486  28.911  22.858  1.00  0.00     0.035 C 
ATOM     14  C   UNL A   1      29.505  27.705  23.266  1.00  0.00     0.164 C 
ATOM     15  C   UNL A   1      30.342  29.522  22.070  1.00  0.00     0.160 C 
ATOM     16  O   UNL A   1      29.196  28.680  22.257  1.00  0.00    -0.381 OA
ENDBRANCH   7  12
ENDBRANCH   4   7
ENDBRANCH   2   3
ENDBRANCH   1   2
BRANCH   1  17
ATOM     17  C   UNL A   1      31.344  32.151  26.881  1.00  0.00     0.023 C 
BRANCH  17  18
ATOM     18  C   UNL A   1      32.634  32.890  27.212  1.00  0.00     0.116 C 
BRANCH  18  19
ATOM     19  N   UNL A   1      32.412  34.265  27.632  1.00  0.00    -0.352 N 
ATOM     20  C   UNL A   1      33.051  34.984  28.611  1.00  0.00     0.251 C 
ATOM     21  H   UNL A   1      31.705  34.747  27.145  1.00  0.00     0.163 HD
ATOM     22  O   UNL A   1      32.656  36.105  28.915  1.00  0.00    -0.269 OA
BRANCH  20  23
ATOM     23  C   UNL A   1      34.198  34.387  29.326  1.00  0.00     0.039 A 
ATOM     24  C   UNL A   1      33.950  33.589  30.445  1.00  0.00     0.014 A 
ATOM     25  C   UNL A   1      35.506  34.594  28.881  1.00  0.00     0.014 A 
ATOM     26  C   UNL A   1      35.011  32.943  31.080  1.00  0.00     0.010 A 
ATOM     27  C   UNL A   1      36.554  33.895  29.473  1.00  0.00     0.010 A 
ATOM     28  C   UNL A   1      36.316  33.061  30.576  1.00  0.00    -0.014 A 
BRANCH  28  29
ATOM     29  C   UNL A   1      37.446  32.316  31.185  1.00  0.00     0.031 A 
ATOM     30  C   UNL A   1      37.943  32.685  32.553  1.00  0.00     0.074 A 
ATOM     31  C   UNL A   1      38.070  31.358  30.473  1.00  0.00     0.049 A 
ATOM     32  N   UNL A   1      38.963  32.209  33.221  1.00  0.00    -0.248 NA
ATOM     33  C   UNL A   1      37.213  33.753  33.254  1.00  0.00     0.031 C 
ATOM     34  C   UNL A   1      37.714  30.944  29.115  1.00  0.00     0.029 A 
ATOM     35  N   UNL A   1      39.145  30.565  30.790  1.00  0.00    -0.354 N 
ATOM     36  C   UNL A   1      39.006  32.927  34.408  1.00  0.00     0.074 A 
ATOM     37  C   UNL A   1      37.943  33.907  34.348  1.00  0.00     0.031 C 
ATOM     38  C   UNL A   1      38.543  29.964  28.722  1.00  0.00     0.029 A 
ATOM     39  C   UNL A   1      39.510  29.704  29.783  1.00  0.00     0.049 A 
ATOM     40  H   UNL A   1      39.611  30.609  31.656  1.00  0.00     0.167 HD
ATOM     41  C   UNL A   1      39.844  32.769  35.460  1.00  0.00     0.037 A 
ATOM     42  C   UNL A   1      40.516  28.811  29.723  1.00  0.00     0.037 A 
ATOM     43  C   UNL A   1      40.882  31.774  35.526  1.00  0.00     0.049 A 
ATOM     44  C   UNL A   1      41.428  28.651  30.909  1.00  0.00     0.074 A 
ATOM     45  C   UNL A   1      41.738  31.489  36.575  1.00  0.00     0.029 A 
ATOM     46  N   UNL A   1      41.203  30.900  34.499  1.00  0.00    -0.354 N 
ATOM     47  N   UNL A   1      41.414  29.287  32.055  1.00  0.00    -0.248 NA
ATOM     48  C   UNL A   1      42.492  27.644  30.795  1.00  0.00     0.031 C 
ATOM     49  C   UNL A   1      42.607  30.472  36.166  1.00  0.00     0.029 A 
ATOM     50  C   UNL A   1      42.259  30.089  34.881  1.00  0.00     0.049 A 
ATOM     51  H   UNL A   1      40.749  30.862  33.626  1.00  0.00     0.167 HD
ATOM     52  C   UNL A   1      42.444  28.739  32.808  1.00  0.00     0.074 A 
ATOM     53  C   UNL A   1      43.055  27.709  31.993  1.00  0.00     0.031 C 
ATOM     54  C   UNL A   1      42.849  29.062  34.060  1.00  0.00     0.037 A 
BRANCH  41  55
ATOM     55  C   UNL A   1      39.668  33.691  36.632  1.00  0.00     0.064 A 
ATOM     56  C   UNL A   1      38.850  33.351  37.718  1.00  0.00     0.173 A 
ATOM     57  C   UNL A   1      40.356  34.913  36.685  1.00  0.00     0.173 A 
ATOM     58  F   UNL A   1      38.161  32.199  37.711  1.00  0.00    -0.203 F 
ATOM     59  C   UNL A   1      38.704  34.211  38.804  1.00  0.00     0.198 A 
ATOM     60  C   UNL A   1      40.231  35.758  37.785  1.00  0.00     0.198 A 
ATOM     61  F   UNL A   1      41.156  35.284  35.674  1.00  0.00    -0.203 F 
ATOM     62  F   UNL A   1      37.879  33.887  39.808  1.00  0.00    -0.200 F 
ATOM     63  C   UNL A   1      39.400  35.410  38.839  1.00  0.00     0.200 A 
ATOM     64  F   UNL A   1      40.914  36.910  37.824  1.00  0.00    -0.200 F 
ATOM     65  F   UNL A   1      39.264  36.234  39.888  1.00  0.00    -0.200 F 
ENDBRANCH  41  55
BRANCH  42  66
ATOM     66  C   UNL A   1      40.698  27.980  28.505  1.00  0.00     0.064 A 
ATOM     67  C   UNL A   1      41.484  28.435  27.436  1.00  0.00     0.173 A 
ATOM     68  C   UNL A   1      40.091  26.722  28.379  1.00  0.00     0.173 A 
ATOM     69  F   UNL A   1      42.068  29.641  27.501  1.00  0.00    -0.203 F 
ATOM     70  C   UNL A   1      41.637  27.674  26.279  1.00  0.00     0.198 A 
ATOM     71  C   UNL A   1      40.267  25.949  27.233  1.00  0.00     0.198 A 
ATOM     72  F   UNL A   1      39.336  26.239  29.376  1.00  0.00    -0.203 F 
ATOM     73  F   UNL A   1      42.354  28.153  25.255  1.00  0.00    -0.200 F 
ATOM     74  C   UNL A   1      41.033  26.430  26.181  1.00  0.00     0.200 A 
ATOM     75  F   UNL A   1      39.695  24.741  27.148  1.00  0.00    -0.200 F 
ATOM     76  F   UNL A   1      41.183  25.697  25.070  1.00  0.00    -0.200 F 
ENDBRANCH  42  66
BRANCH  54  77
ATOM     77  C   UNL A   1      43.982  28.269  34.643  1.00  0.00     0.064 A 
ATOM     78  C   UNL A   1      45.313  28.699  34.533  1.00  0.00     0.173 A 
ATOM     79  C   UNL A   1      43.728  27.086  35.353  1.00  0.00     0.173 A 
ATOM     80  F   UNL A   1      45.608  29.815  33.851  1.00  0.00    -0.203 F 
ATOM     81  C   UNL A   1      46.350  27.959  35.096  1.00  0.00     0.198 A 
ATOM     82  C   UNL A   1      44.765  26.365  35.939  1.00  0.00     0.198 A 
ATOM     83  F   UNL A   1      42.472  26.636  35.490  1.00  0.00    -0.203 F 
ATOM     84  F   UNL A   1      47.618  28.364  34.941  1.00  0.00    -0.200 F 
ATOM     85  C   UNL A   1      46.076  26.799  35.804  1.00  0.00     0.200 A 
ATOM     86  F   UNL A   1      44.496  25.252  36.634  1.00  0.00    -0.200 F 
ATOM     87  F   UNL A   1      47.075  26.094  36.351  1.00  0.00    -0.200 F 
ENDBRANCH  54  77
ENDBRANCH  28  29
ENDBRANCH  20  23
ENDBRANCH  18  19
ENDBRANCH  17  18
ENDBRANCH   1  17
TORSDOF 14
ENDMDL
MODEL 2
REMARK VINA RESULT:     -11.0      0.888      7.721
REMARK SMILES CCC[C@@](C)(C(=O)NCCCCNC(=O)c1ccc(-c2c3nc(c(-c4c(F)c(F)c(F)c(F)c4F)c4ccc([nH]4)c(-c4c(F)c(F)c(F)c(F)c4F)c4nc(c(-c5c(F)c(F)c(F)c(F)c5F)c5ccc2[nH]5)C=C4)C=C3)cc1)[C@H]1CCOC1
REMARK SMILES IDX 10 1 9 2 8 3 6 4 7 5 4 7 5 8 3 9 2 10 1 11 79 12 80 13 83 14
REMARK SMILES IDX 81 15 82 16 11 17 12 18 13 19 14 20 15 22 16 23 17 24 78 25
REMARK SMILES IDX 18 26 77 27 19 28 20 29 21 30 71 31 22 32 76 33 70 34 72 35
REMARK SMILES IDX 23 36 75 37 69 38 68 39 24 41 56 42 36 43 55 44 37 45 40 46
REMARK SMILES IDX 54 47 73 48 38 49 39 50 53 52 74 53 41 54 25 55 26 56 34 57
REMARK SMILES IDX 27 58 28 59 32 60 35 61 29 62 30 63 33 64 31 65 57 66 58 67
REMARK SMILES IDX 66 68 59 69 60 70 64 71 67 72 61 73 62 74 65 75 63 76 42 77
REMARK SMILES IDX 43 78 51 79 44 80 45 81 49 82 52 83 46 84 47 85 50 86 48 87
REMARK H PARENT 8 6 13 21 72 40 40 51
REMARK Flexibility Score: inf
ROOT
ATOM      1  C   UNL A   1      31.668  30.820  25.987  1.00  0.00     0.023 C 
ENDROOT
BRANCH   1   2
ATOM      2  C   UNL A   1      32.956  30.054  26.302  1.00  0.00     0.116 C 
BRANCH   2   3
ATOM      3  N   UNL A   1      33.492  29.426  25.109  1.00  0.00    -0.356 N 
ATOM      4  C   UNL A   1      33.353  28.192  24.555  1.00  0.00     0.226 C 
ATOM      5  O   UNL A   1      34.135  27.962  23.629  1.00  0.00    -0.274 OA
ATOM      6  H   UNL A   1      34.082  30.020  24.589  1.00  0.00     0.163 HD
BRANCH   4   7
ATOM      7  C   UNL A   1      32.283  27.156  25.013  1.00  0.00     0.051 C 
ATOM      8  C   UNL A   1      32.277  27.142  26.559  1.00  0.00     0.022 C 
BRANCH   7   9
ATOM      9  C   UNL A   1      32.613  25.757  24.402  1.00  0.00     0.017 C 
BRANCH   9  10
ATOM     10  C   UNL A   1      33.320  24.703  25.267  1.00  0.00    -0.002 C 
ATOM     11  C   UNL A   1      34.830  24.831  25.361  1.00  0.00     0.004 C 
ENDBRANCH   9  10
ENDBRANCH   7   9
BRANCH   7  12
ATOM     12  C   UNL A   1      30.848  27.594  24.554  1.00  0.00     0.032 C 
ATOM     13  C   UNL A   1      30.696  28.403  23.274  1.00  0.00     0.035 C 
ATOM     14  C   UNL A   1      29.810  26.498  24.337  1.00  0.00     0.164 C 
ATOM     15  C   UNL A   1      29.196  28.342  23.051  1.00  0.00     0.160 C 
ATOM     16  O   UNL A   1      28.731  27.107  23.610  1.00  0.00    -0.381 OA
ENDBRANCH   7  12
ENDBRANCH   4   7
ENDBRANCH   2   3
ENDBRANCH   1   2
BRANCH   1  17
ATOM     17  C   UNL A   1      31.408  32.035  26.881  1.00  0.00     0.023 C 
BRANCH  17  18
ATOM     18  C   UNL A   1      32.647  32.824  27.283  1.00  0.00     0.116 C 
BRANCH  18  19
ATOM     19  N   UNL A   1      32.356  34.209  27.622  1.00  0.00    -0.352 N 
ATOM     20  C   UNL A   1      32.959  35.016  28.553  1.00  0.00     0.251 C 
ATOM     21  H   UNL A   1      31.624  34.624  27.111  1.00  0.00     0.163 HD
ATOM     22  O   UNL A   1      32.507  36.131  28.793  1.00  0.00    -0.269 OA
BRANCH  20  23
ATOM     23  C   UNL A   1      34.136  34.522  29.295  1.00  0.00     0.039 A 
ATOM     24  C   UNL A   1      33.943  33.930  30.546  1.00  0.00     0.014 A 
ATOM     25  C   UNL A   1      35.420  34.621  28.752  1.00  0.00     0.014 A 
ATOM     26  C   UNL A   1      35.030  33.376  31.223  1.00  0.00     0.010 A 
ATOM     27  C   UNL A   1      36.490  34.008  29.395  1.00  0.00     0.010 A 
ATOM     28  C   UNL A   1      36.306  33.378  30.635  1.00  0.00    -0.014 A 
BRANCH  28  29
ATOM     29  C   UNL A   1      37.459  32.720  31.300  1.00  0.00     0.031 A 
ATOM     30  C   UNL A   1      38.163  31.576  30.630  1.00  0.00     0.074 A 
ATOM     31  C   UNL A   1      37.821  33.109  32.537  1.00  0.00     0.049 A 
ATOM     32  N   UNL A   1      39.135  30.824  31.080  1.00  0.00    -0.248 NA
ATOM     33  C   UNL A   1      37.693  31.207  29.286  1.00  0.00     0.031 C 
ATOM     34  C   UNL A   1      37.182  34.173  33.313  1.00  0.00     0.029 A 
ATOM     35  N   UNL A   1      38.810  32.642  33.367  1.00  0.00    -0.354 N 
ATOM     36  C   UNL A   1      39.380  29.888  30.085  1.00  0.00     0.074 A 
ATOM     37  C   UNL A   1      38.422  30.132  29.029  1.00  0.00     0.031 C 
ATOM     38  C   UNL A   1      37.804  34.290  34.496  1.00  0.00     0.029 A 
ATOM     39  C   UNL A   1      38.862  33.288  34.579  1.00  0.00     0.049 A 
ATOM     40  H   UNL A   1      39.424  31.914  33.119  1.00  0.00     0.167 HD
ATOM     41  C   UNL A   1      40.333  28.925  30.048  1.00  0.00     0.037 A 
ATOM     42  C   UNL A   1      39.669  33.088  35.639  1.00  0.00     0.037 A 
ATOM     43  C   UNL A   1      41.302  28.705  31.088  1.00  0.00     0.049 A 
ATOM     44  C   UNL A   1      40.722  32.016  35.568  1.00  0.00     0.074 A 
ATOM     45  C   UNL A   1      42.349  27.800  31.114  1.00  0.00     0.029 A 
ATOM     46  N   UNL A   1      41.342  29.397  32.289  1.00  0.00    -0.354 N 
ATOM     47  N   UNL A   1      40.992  31.184  34.591  1.00  0.00    -0.248 NA
ATOM     48  C   UNL A   1      41.588  31.860  36.745  1.00  0.00     0.031 C 
ATOM     49  C   UNL A   1      42.996  27.916  32.349  1.00  0.00     0.029 A 
ATOM     50  C   UNL A   1      42.383  28.926  33.072  1.00  0.00     0.049 A 
ATOM     51  H   UNL A   1      40.721  30.117  32.547  1.00  0.00     0.167 HD
ATOM     52  C   UNL A   1      42.073  30.427  35.023  1.00  0.00     0.074 A 
ATOM     53  C   UNL A   1      42.419  30.909  36.344  1.00  0.00     0.031 C 
ATOM     54  C   UNL A   1      42.719  29.424  34.382  1.00  0.00     0.037 A 
BRANCH  41  55
ATOM     55  C   UNL A   1      40.377  28.040  28.836  1.00  0.00     0.064 A 
ATOM     56  C   UNL A   1      41.124  28.385  27.701  1.00  0.00     0.173 A 
ATOM     57  C   UNL A   1      39.694  26.814  28.825  1.00  0.00     0.173 A 
ATOM     58  F   UNL A   1      41.786  29.551  27.656  1.00  0.00    -0.203 F 
ATOM     59  C   UNL A   1      41.165  27.549  26.587  1.00  0.00     0.198 A 
ATOM     60  C   UNL A   1      39.760  25.967  27.722  1.00  0.00     0.198 A 
ATOM     61  F   UNL A   1      38.969  26.433  29.887  1.00  0.00    -0.203 F 
ATOM     62  F   UNL A   1      41.846  27.922  25.495  1.00  0.00    -0.200 F 
ATOM     63  C   UNL A   1      40.489  26.338  26.602  1.00  0.00     0.200 A 
ATOM     64  F   UNL A   1      39.118  24.791  27.742  1.00  0.00    -0.200 F 
ATOM     65  F   UNL A   1      40.535  25.532  25.532  1.00  0.00    -0.200 F 
ENDBRANCH  41  55
BRANCH  42  66
ATOM     66  C   UNL A   1      39.528  33.938  36.849  1.00  0.00     0.064 A 
ATOM     67  C   UNL A   1      40.165  35.184  36.931  1.00  0.00     0.173 A 
ATOM     68  C   UNL A   1      38.762  33.523  37.949  1.00  0.00     0.173 A 
ATOM     69  F   UNL A   1      40.924  35.614  35.913  1.00  0.00    -0.203 F 
ATOM     70  C   UNL A   1      40.060  35.974  38.073  1.00  0.00     0.198 A 
ATOM     71  C   UNL A   1      38.635  34.326  39.081  1.00  0.00     0.198 A 
ATOM     72  F   UNL A   1      38.128  32.343  37.919  1.00  0.00    -0.203 F 
ATOM     73  F   UNL A   1      40.716  37.139  38.142  1.00  0.00    -0.200 F 
ATOM     74  C   UNL A   1      39.291  35.547  39.145  1.00  0.00     0.200 A 
ATOM     75  F   UNL A   1      37.879  33.917  40.108  1.00  0.00    -0.200 F 
ATOM     76  F   UNL A   1      39.187  36.308  40.243  1.00  0.00    -0.200 F 
ENDBRANCH  42  66
BRANCH  54  77
ATOM     77  C   UNL A   1      43.891  28.802  35.084  1.00  0.00     0.064 A 
ATOM     78  C   UNL A   1      43.740  27.684  35.917  1.00  0.00     0.173 A 
ATOM     79  C   UNL A   1      45.185  29.307  34.887  1.00  0.00     0.173 A 
ATOM     80  F   UNL A   1      42.522  27.174  36.149  1.00  0.00    -0.203 F 
ATOM     81  C   UNL A   1      44.842  27.108  36.546  1.00  0.00     0.198 A 
ATOM     82  C   UNL A   1      46.287  28.711  35.494  1.00  0.00     0.198 A 
ATOM     83  F   UNL A   1      45.383  30.371  34.095  1.00  0.00    -0.203 F 
ATOM     84  F   UNL A   1      44.670  26.068  37.374  1.00  0.00    -0.200 F 
ATOM     85  C   UNL A   1      46.114  27.617  36.329  1.00  0.00     0.200 A 
ATOM     86  F   UNL A   1      47.516  29.195  35.272  1.00  0.00    -0.200 F 
ATOM     87  F   UNL A   1      47.172  27.057  36.929  1.00  0.00    -0.200 F 
ENDBRANCH  54  77
ENDBRANCH  28  29
ENDBRANCH  20  23
ENDBRANCH  18  19
ENDBRANCH  17  18
ENDBRANCH   1  17
TORSDOF 14
ENDMDL
MODEL 3
REMARK VINA RESULT:     -11.0      1.074      7.704
REMARK SMILES CCC[C@@](C)(C(=O)NCCCCNC(=O)c1ccc(-c2c3nc(c(-c4c(F)c(F)c(F)c(F)c4F)c4ccc([nH]4)c(-c4c(F)c(F)c(F)c(F)c4F)c4nc(c(-c5c(F)c(F)c(F)c(F)c5F)c5ccc2[nH]5)C=C4)C=C3)cc1)[C@H]1CCOC1
REMARK SMILES IDX 10 1 9 2 8 3 6 4 7 5 4 7 5 8 3 9 2 10 1 11 79 12 80 13 83 14
REMARK SMILES IDX 81 15 82 16 11 17 12 18 13 19 14 20 15 22 16 23 17 24 78 25
REMARK SMILES IDX 18 26 77 27 19 28 20 29 21 30 71 31 22 32 76 33 70 34 72 35
REMARK SMILES IDX 23 36 75 37 69 38 68 39 24 41 56 42 36 43 55 44 37 45 40 46
REMARK SMILES IDX 54 47 73 48 38 49 39 50 53 52 74 53 41 54 25 55 26 56 34 57
REMARK SMILES IDX 27 58 28 59 32 60 35 61 29 62 30 63 33 64 31 65 57 66 58 67
REMARK SMILES IDX 66 68 59 69 60 70 64 71 67 72 61 73 62 74 65 75 63 76 42 77
REMARK SMILES IDX 43 78 51 79 44 80 45 81 49 82 52 83 46 84 47 85 50 86 48 87
REMARK H PARENT 8 6 13 21 72 40 40 51
REMARK Flexibility Score: inf
ROOT
ATOM      1  C   UNL A   1      31.899  30.498  26.897  1.00  0.00     0.023 C 
ENDROOT
BRANCH   1   2
ATOM      2  C   UNL A   1      32.364  29.888  25.571  1.00  0.00     0.116 C 
BRANCH   2   3
ATOM      3  N   UNL A   1      31.321  29.970  24.566  1.00  0.00    -0.356 N 
ATOM      4  C   UNL A   1      30.672  29.046  23.810  1.00  0.00     0.226 C 
ATOM      5  O   UNL A   1      29.977  29.526  22.911  1.00  0.00    -0.274 OA
ATOM      6  H   UNL A   1      31.018  30.892  24.397  1.00  0.00     0.163 HD
BRANCH   4   7
ATOM      7  C   UNL A   1      30.760  27.510  24.061  1.00  0.00     0.051 C 
ATOM      8  C   UNL A   1      29.440  26.878  23.565  1.00  0.00     0.022 C 
BRANCH   7   9
ATOM      9  C   UNL A   1      31.019  27.241  25.579  1.00  0.00     0.017 C 
BRANCH   9  10
ATOM     10  C   UNL A   1      30.670  25.869  26.173  1.00  0.00    -0.002 C 
ATOM     11  C   UNL A   1      31.840  24.925  26.386  1.00  0.00     0.004 C 
ENDBRANCH   9  10
ENDBRANCH   7   9
BRANCH   7  12
ATOM     12  C   UNL A   1      31.919  26.871  23.219  1.00  0.00     0.032 C 
ATOM     13  C   UNL A   1      31.569  25.986  22.031  1.00  0.00     0.035 C 
ATOM     14  C   UNL A   1      32.941  27.814  22.594  1.00  0.00     0.164 C 
ATOM     15  C   UNL A   1      32.917  25.844  21.348  1.00  0.00     0.160 C 
ATOM     16  O   UNL A   1      33.662  27.038  21.624  1.00  0.00    -0.381 OA
ENDBRANCH   7  12
ENDBRANCH   4   7
ENDBRANCH   2   3
ENDBRANCH   1   2
BRANCH   1  17
ATOM     17  C   UNL A   1      31.634  32.004  26.855  1.00  0.00     0.023 C 
BRANCH  17  18
ATOM     18  C   UNL A   1      32.835  32.885  27.177  1.00  0.00     0.116 C 
BRANCH  18  19
ATOM     19  N   UNL A   1      32.461  34.225  27.601  1.00  0.00    -0.352 N 
ATOM     20  C   UNL A   1      32.984  34.989  28.615  1.00  0.00     0.251 C 
ATOM     21  H   UNL A   1      31.731  34.643  27.089  1.00  0.00     0.163 HD
ATOM     22  O   UNL A   1      32.467  36.061  28.913  1.00  0.00    -0.269 OA
BRANCH  20  23
ATOM     23  C   UNL A   1      34.153  34.496  29.372  1.00  0.00     0.039 A 
ATOM     24  C   UNL A   1      33.940  33.857  30.596  1.00  0.00     0.014 A 
ATOM     25  C   UNL A   1      35.447  34.645  28.868  1.00  0.00     0.014 A 
ATOM     26  C   UNL A   1      35.021  33.306  31.283  1.00  0.00     0.010 A 
ATOM     27  C   UNL A   1      36.515  34.035  29.519  1.00  0.00     0.010 A 
ATOM     28  C   UNL A   1      36.312  33.358  30.731  1.00  0.00    -0.014 A 
BRANCH  28  29
ATOM     29  C   UNL A   1      37.463  32.704  31.404  1.00  0.00     0.031 A 
ATOM     30  C   UNL A   1      38.164  31.550  30.749  1.00  0.00     0.074 A 
ATOM     31  C   UNL A   1      37.825  33.106  32.638  1.00  0.00     0.049 A 
ATOM     32  N   UNL A   1      39.134  30.801  31.208  1.00  0.00    -0.248 NA
ATOM     33  C   UNL A   1      37.695  31.168  29.408  1.00  0.00     0.031 C 
ATOM     34  C   UNL A   1      37.188  34.181  33.401  1.00  0.00     0.029 A 
ATOM     35  N   UNL A   1      38.812  32.646  33.474  1.00  0.00    -0.354 N 
ATOM     36  C   UNL A   1      39.377  29.853  30.224  1.00  0.00     0.074 A 
ATOM     37  C   UNL A   1      38.421  30.088  29.164  1.00  0.00     0.031 C 
ATOM     38  C   UNL A   1      37.809  34.310  34.583  1.00  0.00     0.029 A 
ATOM     39  C   UNL A   1      38.864  33.306  34.679  1.00  0.00     0.049 A 
ATOM     40  H   UNL A   1      39.423  31.913  33.235  1.00  0.00     0.167 HD
ATOM     41  C   UNL A   1      40.328  28.887  30.199  1.00  0.00     0.037 A 
ATOM     42  C   UNL A   1      39.668  33.115  35.742  1.00  0.00     0.037 A 
ATOM     43  C   UNL A   1      41.295  28.676  31.243  1.00  0.00     0.049 A 
ATOM     44  C   UNL A   1      40.719  32.040  35.685  1.00  0.00     0.074 A 
ATOM     45  C   UNL A   1      42.339  27.769  31.280  1.00  0.00     0.029 A 
ATOM     46  N   UNL A   1      41.335  29.382  32.436  1.00  0.00    -0.354 N 
ATOM     47  N   UNL A   1      40.987  31.196  34.717  1.00  0.00    -0.248 NA
ATOM     48  C   UNL A   1      41.584  31.895  36.864  1.00  0.00     0.031 C 
ATOM     49  C   UNL A   1      42.985  27.898  32.515  1.00  0.00     0.029 A 
ATOM     50  C   UNL A   1      42.374  28.917  33.225  1.00  0.00     0.049 A 
ATOM     51  H   UNL A   1      40.716  30.106  32.685  1.00  0.00     0.167 HD
ATOM     52  C   UNL A   1      42.066  30.441  35.159  1.00  0.00     0.074 A 
ATOM     53  C   UNL A   1      42.412  30.936  36.474  1.00  0.00     0.031 C 
ATOM     54  C   UNL A   1      42.711  29.428  34.530  1.00  0.00     0.037 A 
BRANCH  41  55
ATOM     55  C   UNL A   1      40.370  27.988  28.997  1.00  0.00     0.064 A 
ATOM     56  C   UNL A   1      41.145  28.303  27.872  1.00  0.00     0.173 A 
ATOM     57  C   UNL A   1      39.659  26.779  28.987  1.00  0.00     0.173 A 
ATOM     58  F   UNL A   1      41.836  29.453  27.826  1.00  0.00    -0.203 F 
ATOM     59  C   UNL A   1      41.185  27.454  26.767  1.00  0.00     0.198 A 
ATOM     60  C   UNL A   1      39.723  25.919  27.894  1.00  0.00     0.198 A 
ATOM     61  F   UNL A   1      38.906  26.428  30.041  1.00  0.00    -0.203 F 
ATOM     62  F   UNL A   1      41.894  27.799  25.684  1.00  0.00    -0.200 F 
ATOM     63  C   UNL A   1      40.479  26.261  26.783  1.00  0.00     0.200 A 
ATOM     64  F   UNL A   1      39.052  24.760  27.915  1.00  0.00    -0.200 F 
ATOM     65  F   UNL A   1      40.524  25.442  25.723  1.00  0.00    -0.200 F 
ENDBRANCH  41  55
BRANCH  42  66
ATOM     66  C   UNL A   1      39.528  33.979  36.942  1.00  0.00     0.064 A 
ATOM     67  C   UNL A   1      40.163  35.228  37.007  1.00  0.00     0.173 A 
ATOM     68  C   UNL A   1      38.767  33.576  38.049  1.00  0.00     0.173 A 
ATOM     69  F   UNL A   1      40.918  35.648  35.982  1.00  0.00    -0.203 F 
ATOM     70  C   UNL A   1      40.059  36.031  38.141  1.00  0.00     0.198 A 
ATOM     71  C   UNL A   1      38.640  34.392  39.171  1.00  0.00     0.198 A 
ATOM     72  F   UNL A   1      38.136  32.393  38.034  1.00  0.00    -0.203 F 
ATOM     73  F   UNL A   1      40.712  37.198  38.194  1.00  0.00    -0.200 F 
ATOM     74  C   UNL A   1      39.293  35.615  39.220  1.00  0.00     0.200 A 
ATOM     75  F   UNL A   1      37.888  33.993  40.206  1.00  0.00    -0.200 F 
ATOM     76  F   UNL A   1      39.191  36.389  40.308  1.00  0.00    -0.200 F 
ENDBRANCH  42  66
BRANCH  54  77
ATOM     77  C   UNL A   1      43.880  28.811  35.240  1.00  0.00     0.064 A 
ATOM     78  C   UNL A   1      45.187  29.283  35.053  1.00  0.00     0.173 A 
ATOM     79  C   UNL A   1      43.683  27.760  36.149  1.00  0.00     0.173 A 
ATOM     80  F   UNL A   1      45.429  30.276  34.184  1.00  0.00    -0.203 F 
ATOM     81  C   UNL A   1      46.258  28.710  35.735  1.00  0.00     0.198 A 
ATOM     82  C   UNL A   1      44.752  27.209  36.850  1.00  0.00     0.198 A 
ATOM     83  F   UNL A   1      42.451  27.276  36.366  1.00  0.00    -0.203 F 
ATOM     84  F   UNL A   1      47.504  29.147  35.508  1.00  0.00    -0.200 F 
ATOM     85  C   UNL A   1      46.039  27.679  36.637  1.00  0.00     0.200 A 
ATOM     86  F   UNL A   1      44.536  26.223  37.731  1.00  0.00    -0.200 F 
ATOM     87  F   UNL A   1      47.070  27.135  37.297  1.00  0.00    -0.200 F 
ENDBRANCH  54  77
ENDBRANCH  28  29
ENDBRANCH  20  23
ENDBRANCH  18  19
ENDBRANCH  17  18
ENDBRANCH   1  17
TORSDOF 14
ENDMDL
