MODEL 1
REMARK VINA RESULT:     -10.5      0.000      0.000
REMARK SMILES CCCSc1ccc(/C=C/C(=O)NCCCCNC(=O)c2ccc(-c3c4nc(c(-c5c(F)c(F)c(F)c(F)c5F)c5ccc([nH]5)c(-c5c(F)c(F)c(F)c(F)c5F)c5nc(c(-c6c(F)c(F)c(F)c(F)c6F)c6ccc3[nH]6)C=C5)C=C4)cc2)cc1
REMARK SMILES IDX 14 1 13 2 11 3 12 4 10 6 9 7 8 8 5 9 6 10 85 11 7 12 84 13
REMARK SMILES IDX 4 14 3 15 2 16 1 17 15 18 16 19 17 20 18 21 19 22 20 24
REMARK SMILES IDX 21 25 22 26 83 27 23 28 82 29 24 30 25 31 26 32 76 33 27 34
REMARK SMILES IDX 81 35 75 36 77 37 28 38 80 39 74 40 73 41 29 43 61 44 41 45
REMARK SMILES IDX 60 46 42 47 45 48 59 49 78 50 43 51 44 52 58 54 79 55 46 56
REMARK SMILES IDX 30 57 31 58 39 59 32 60 33 61 37 62 40 63 34 64 35 65 38 66
REMARK SMILES IDX 36 67 62 68 63 69 71 70 64 71 65 72 69 73 72 74 66 75 67 76
REMARK SMILES IDX 70 77 68 78 47 79 48 80 56 81 49 82 50 83 54 84 57 85 51 86
REMARK SMILES IDX 52 87 55 88 53 89
REMARK H PARENT 13 5 18 23 77 42 45 53
REMARK Flexibility Score: inf
ROOT
ATOM      1  C   UNL A   1      33.431  35.998  29.242  1.00  0.00     0.116 C 
ENDROOT
BRANCH   1   2
ATOM      2  N   UNL A   1      32.704  36.621  30.331  1.00  0.00    -0.353 N 
ATOM      3  C   UNL A   1      32.881  36.516  31.674  1.00  0.00     0.243 C 
ATOM      4  O   UNL A   1      32.166  37.160  32.439  1.00  0.00    -0.270 OA
ATOM      5  H   UNL A   1      31.967  37.211  30.054  1.00  0.00     0.163 HD
BRANCH   3   6
ATOM      6  C   UNL A   1      34.005  35.727  32.219  1.00  0.00     0.072 C 
ATOM      7  C   UNL A   1      33.876  34.563  32.875  1.00  0.00     0.014 C 
BRANCH   7   8
ATOM      8  C   UNL A   1      34.995  33.762  33.396  1.00  0.00    -0.025 A 
ATOM      9  C   UNL A   1      37.245  32.382  34.389  1.00  0.00     0.007 A 
ATOM     10  C   UNL A   1      36.620  31.961  33.217  1.00  0.00     0.015 A 
ATOM     11  C   UNL A   1      36.702  33.447  35.109  1.00  0.00     0.015 A 
ATOM     12  C   UNL A   1      35.522  32.659  32.713  1.00  0.00     0.009 A 
ATOM     13  C   UNL A   1      35.585  34.132  34.615  1.00  0.00     0.009 A 
BRANCH   9  14
ATOM     14  S   UNL A   1      38.743  31.596  34.934  1.00  0.00    -0.126 SA
BRANCH  14  15
ATOM     15  C   UNL A   1      38.793  30.184  33.761  1.00  0.00     0.075 C 
BRANCH  15  16
ATOM     16  C   UNL A   1      40.163  29.503  33.684  1.00  0.00     0.008 C 
ATOM     17  C   UNL A   1      40.138  28.197  32.898  1.00  0.00     0.005 C 
ENDBRANCH  15  16
ENDBRANCH  14  15
ENDBRANCH   9  14
ENDBRANCH   7   8
ENDBRANCH   3   6
ENDBRANCH   1   2
BRANCH   1  18
ATOM     18  C   UNL A   1      33.209  34.486  29.251  1.00  0.00     0.023 C 
BRANCH  18  19
ATOM     19  C   UNL A   1      33.743  33.774  28.006  1.00  0.00     0.023 C 
BRANCH  19  20
ATOM     20  C   UNL A   1      34.607  32.549  28.293  1.00  0.00     0.116 C 
BRANCH  20  21
ATOM     21  N   UNL A   1      33.975  31.298  27.905  1.00  0.00    -0.352 N 
ATOM     22  C   UNL A   1      34.546  30.052  27.800  1.00  0.00     0.251 C 
ATOM     23  H   UNL A   1      33.015  31.351  27.690  1.00  0.00     0.163 HD
ATOM     24  O   UNL A   1      33.913  29.106  27.358  1.00  0.00    -0.269 OA
BRANCH  22  25
ATOM     25  C   UNL A   1      35.961  29.886  28.189  1.00  0.00     0.039 A 
ATOM     26  C   UNL A   1      36.256  29.497  29.497  1.00  0.00     0.014 A 
ATOM     27  C   UNL A   1      36.979  30.063  27.251  1.00  0.00     0.014 A 
ATOM     28  C   UNL A   1      37.575  29.211  29.846  1.00  0.00     0.010 A 
ATOM     29  C   UNL A   1      38.285  29.716  27.582  1.00  0.00     0.010 A 
ATOM     30  C   UNL A   1      38.593  29.281  28.881  1.00  0.00    -0.014 A 
BRANCH  30  31
ATOM     31  C   UNL A   1      39.986  28.889  29.202  1.00  0.00     0.031 A 
ATOM     32  C   UNL A   1      40.875  29.835  29.954  1.00  0.00     0.074 A 
ATOM     33  C   UNL A   1      40.470  27.719  28.744  1.00  0.00     0.049 A 
ATOM     34  N   UNL A   1      42.146  29.720  30.247  1.00  0.00    -0.248 NA
ATOM     35  C   UNL A   1      40.263  31.090  30.416  1.00  0.00     0.031 C 
ATOM     36  C   UNL A   1      39.714  26.738  27.963  1.00  0.00     0.029 A 
ATOM     37  N   UNL A   1      41.718  27.160  28.859  1.00  0.00    -0.354 N 
ATOM     38  C   UNL A   1      42.485  30.890  30.913  1.00  0.00     0.074 A 
ATOM     39  C   UNL A   1      41.303  31.724  30.936  1.00  0.00     0.031 C 
ATOM     40  C   UNL A   1      40.508  25.693  27.682  1.00  0.00     0.029 A 
ATOM     41  C   UNL A   1      41.837  25.944  28.231  1.00  0.00     0.049 A 
ATOM     42  H   UNL A   1      42.457  27.590  29.345  1.00  0.00     0.167 HD
ATOM     43  C   UNL A   1      43.671  31.228  31.471  1.00  0.00     0.037 A 
ATOM     44  C   UNL A   1      42.902  25.131  28.105  1.00  0.00     0.037 A 
ATOM     45  C   UNL A   1      44.836  30.383  31.469  1.00  0.00     0.049 A 
ATOM     46  C   UNL A   1      44.210  25.534  28.730  1.00  0.00     0.074 A 
ATOM     47  C   UNL A   1      46.066  30.607  32.063  1.00  0.00     0.029 A 
ATOM     48  N   UNL A   1      44.913  29.149  30.840  1.00  0.00    -0.354 N 
ATOM     49  N   UNL A   1      44.502  26.614  29.413  1.00  0.00    -0.248 NA
ATOM     50  C   UNL A   1      45.336  24.604  28.567  1.00  0.00     0.031 C 
ATOM     51  C   UNL A   1      46.900  29.527  31.759  1.00  0.00     0.029 A 
ATOM     52  C   UNL A   1      46.178  28.609  31.013  1.00  0.00     0.049 A 
ATOM     53  H   UNL A   1      44.179  28.721  30.343  1.00  0.00     0.167 HD
ATOM     54  C   UNL A   1      45.833  26.481  29.784  1.00  0.00     0.074 A 
ATOM     55  C   UNL A   1      46.289  25.210  29.261  1.00  0.00     0.031 C 
ATOM     56  C   UNL A   1      46.609  27.337  30.493  1.00  0.00     0.037 A 
BRANCH  43  57
ATOM     57  C   UNL A   1      43.765  32.567  32.142  1.00  0.00     0.064 A 
ATOM     58  C   UNL A   1      44.123  33.721  31.430  1.00  0.00     0.173 A 
ATOM     59  C   UNL A   1      43.460  32.704  33.504  1.00  0.00     0.173 A 
ATOM     60  F   UNL A   1      44.436  33.640  30.128  1.00  0.00    -0.203 F 
ATOM     61  C   UNL A   1      44.199  34.959  32.062  1.00  0.00     0.198 A 
ATOM     62  C   UNL A   1      43.509  33.949  34.127  1.00  0.00     0.198 A 
ATOM     63  F   UNL A   1      43.108  31.633  34.231  1.00  0.00    -0.203 F 
ATOM     64  F   UNL A   1      44.588  36.039  31.371  1.00  0.00    -0.200 F 
ATOM     65  C   UNL A   1      43.885  35.073  33.408  1.00  0.00     0.200 A 
ATOM     66  F   UNL A   1      43.194  34.060  35.425  1.00  0.00    -0.200 F 
ATOM     67  F   UNL A   1      43.950  36.267  34.013  1.00  0.00    -0.200 F 
ENDBRANCH  43  57
BRANCH  44  68
ATOM     68  C   UNL A   1      42.772  23.843  27.375  1.00  0.00     0.064 A 
ATOM     69  C   UNL A   1      42.264  22.704  28.016  1.00  0.00     0.173 A 
ATOM     70  C   UNL A   1      43.157  23.720  26.033  1.00  0.00     0.173 A 
ATOM     71  F   UNL A   1      41.902  22.768  29.306  1.00  0.00    -0.203 F 
ATOM     72  C   UNL A   1      42.164  21.486  27.348  1.00  0.00     0.198 A 
ATOM     73  C   UNL A   1      43.032  22.508  25.358  1.00  0.00     0.198 A 
ATOM     74  F   UNL A   1      43.645  24.780  25.374  1.00  0.00    -0.203 F 
ATOM     75  F   UNL A   1      41.717  20.403  27.997  1.00  0.00    -0.200 F 
ATOM     76  C   UNL A   1      42.544  21.390  26.017  1.00  0.00     0.200 A 
ATOM     77  F   UNL A   1      43.388  22.422  24.068  1.00  0.00    -0.200 F 
ATOM     78  F   UNL A   1      42.446  20.218  25.374  1.00  0.00    -0.200 F 
ENDBRANCH  44  68
BRANCH  56  79
ATOM     79  C   UNL A   1      48.020  26.914  30.774  1.00  0.00     0.064 A 
ATOM     80  C   UNL A   1      48.332  26.065  31.845  1.00  0.00     0.173 A 
ATOM     81  C   UNL A   1      49.064  27.325  29.932  1.00  0.00     0.173 A 
ATOM     82  F   UNL A   1      47.370  25.659  32.688  1.00  0.00    -0.203 F 
ATOM     83  C   UNL A   1      49.643  25.655  32.073  1.00  0.00     0.198 A 
ATOM     84  C   UNL A   1      50.369  26.892  30.147  1.00  0.00     0.198 A 
ATOM     85  F   UNL A   1      48.815  28.134  28.892  1.00  0.00    -0.203 F 
ATOM     86  F   UNL A   1      49.926  24.875  33.126  1.00  0.00    -0.200 F 
ATOM     87  C   UNL A   1      50.658  26.062  31.220  1.00  0.00     0.200 A 
ATOM     88  F   UNL A   1      51.347  27.276  29.314  1.00  0.00    -0.200 F 
ATOM     89  F   UNL A   1      51.918  25.660  31.435  1.00  0.00    -0.200 F 
ENDBRANCH  56  79
ENDBRANCH  30  31
ENDBRANCH  22  25
ENDBRANCH  20  21
ENDBRANCH  19  20
ENDBRANCH  18  19
ENDBRANCH   1  18
TORSDOF 15
ENDMDL
MODEL 2
REMARK VINA RESULT:     -10.3      0.739      2.198
REMARK SMILES CCCSc1ccc(/C=C/C(=O)NCCCCNC(=O)c2ccc(-c3c4nc(c(-c5c(F)c(F)c(F)c(F)c5F)c5ccc([nH]5)c(-c5c(F)c(F)c(F)c(F)c5F)c5nc(c(-c6c(F)c(F)c(F)c(F)c6F)c6ccc3[nH]6)C=C5)C=C4)cc2)cc1
REMARK SMILES IDX 14 1 13 2 11 3 12 4 10 6 9 7 8 8 5 9 6 10 85 11 7 12 84 13
REMARK SMILES IDX 4 14 3 15 2 16 1 17 15 18 16 19 17 20 18 21 19 22 20 24
REMARK SMILES IDX 21 25 22 26 83 27 23 28 82 29 24 30 25 31 26 32 76 33 27 34
REMARK SMILES IDX 81 35 75 36 77 37 28 38 80 39 74 40 73 41 29 43 61 44 41 45
REMARK SMILES IDX 60 46 42 47 45 48 59 49 78 50 43 51 44 52 58 54 79 55 46 56
REMARK SMILES IDX 30 57 31 58 39 59 32 60 33 61 37 62 40 63 34 64 35 65 38 66
REMARK SMILES IDX 36 67 62 68 63 69 71 70 64 71 65 72 69 73 72 74 66 75 67 76
REMARK SMILES IDX 70 77 68 78 47 79 48 80 56 81 49 82 50 83 54 84 57 85 51 86
REMARK SMILES IDX 52 87 55 88 53 89
REMARK H PARENT 13 5 18 23 77 42 45 53
REMARK Flexibility Score: inf
ROOT
ATOM      1  C   UNL A   1      32.960  35.214  29.555  1.00  0.00     0.116 C 
ENDROOT
BRANCH   1   2
ATOM      2  N   UNL A   1      32.664  36.330  30.434  1.00  0.00    -0.353 N 
ATOM      3  C   UNL A   1      33.191  36.655  31.644  1.00  0.00     0.243 C 
ATOM      4  O   UNL A   1      32.821  37.675  32.219  1.00  0.00    -0.270 OA
ATOM      5  H   UNL A   1      31.976  36.949  30.101  1.00  0.00     0.163 HD
BRANCH   3   6
ATOM      6  C   UNL A   1      34.293  35.854  32.217  1.00  0.00     0.072 C 
ATOM      7  C   UNL A   1      34.147  34.646  32.783  1.00  0.00     0.014 C 
BRANCH   7   8
ATOM      8  C   UNL A   1      35.246  33.835  33.332  1.00  0.00    -0.025 A 
ATOM      9  C   UNL A   1      37.456  32.436  34.385  1.00  0.00     0.007 A 
ATOM     10  C   UNL A   1      36.886  32.047  33.174  1.00  0.00     0.015 A 
ATOM     11  C   UNL A   1      36.875  33.478  35.109  1.00  0.00     0.015 A 
ATOM     12  C   UNL A   1      35.809  32.755  32.641  1.00  0.00     0.009 A 
ATOM     13  C   UNL A   1      35.778  34.172  34.585  1.00  0.00     0.009 A 
BRANCH   9  14
ATOM     14  S   UNL A   1      38.932  31.641  34.974  1.00  0.00    -0.126 SA
BRANCH  14  15
ATOM     15  C   UNL A   1      38.837  30.073  34.024  1.00  0.00     0.075 C 
BRANCH  15  16
ATOM     16  C   UNL A   1      40.207  29.465  33.709  1.00  0.00     0.008 C 
ATOM     17  C   UNL A   1      40.120  28.204  32.857  1.00  0.00     0.005 C 
ENDBRANCH  15  16
ENDBRANCH  14  15
ENDBRANCH   9  14
ENDBRANCH   7   8
ENDBRANCH   3   6
ENDBRANCH   1   2
BRANCH   1  18
ATOM     18  C   UNL A   1      34.209  35.507  28.727  1.00  0.00     0.023 C 
BRANCH  18  19
ATOM     19  C   UNL A   1      34.740  34.295  27.957  1.00  0.00     0.023 C 
BRANCH  19  20
ATOM     20  C   UNL A   1      34.805  33.004  28.766  1.00  0.00     0.116 C 
BRANCH  20  21
ATOM     21  N   UNL A   1      33.900  31.975  28.278  1.00  0.00    -0.352 N 
ATOM     22  C   UNL A   1      34.181  30.659  27.994  1.00  0.00     0.251 C 
ATOM     23  H   UNL A   1      32.969  32.257  28.134  1.00  0.00     0.163 HD
ATOM     24  O   UNL A   1      33.339  29.933  27.488  1.00  0.00    -0.269 OA
BRANCH  22  25
ATOM     25  C   UNL A   1      35.538  30.149  28.270  1.00  0.00     0.039 A 
ATOM     26  C   UNL A   1      36.491  30.190  27.250  1.00  0.00     0.014 A 
ATOM     27  C   UNL A   1      35.876  29.686  29.543  1.00  0.00     0.014 A 
ATOM     28  C   UNL A   1      37.811  29.834  27.530  1.00  0.00     0.010 A 
ATOM     29  C   UNL A   1      37.204  29.392  29.836  1.00  0.00     0.010 A 
ATOM     30  C   UNL A   1      38.183  29.471  28.834  1.00  0.00    -0.014 A 
BRANCH  30  31
ATOM     31  C   UNL A   1      39.596  29.182  29.178  1.00  0.00     0.031 A 
ATOM     32  C   UNL A   1      40.404  30.194  29.937  1.00  0.00     0.074 A 
ATOM     33  C   UNL A   1      40.169  28.046  28.736  1.00  0.00     0.049 A 
ATOM     34  N   UNL A   1      41.675  30.171  30.249  1.00  0.00    -0.248 NA
ATOM     35  C   UNL A   1      39.696  31.405  30.380  1.00  0.00     0.031 C 
ATOM     36  C   UNL A   1      39.497  27.009  27.951  1.00  0.00     0.029 A 
ATOM     37  N   UNL A   1      41.452  27.578  28.873  1.00  0.00    -0.354 N 
ATOM     38  C   UNL A   1      41.920  31.368  30.910  1.00  0.00     0.074 A 
ATOM     39  C   UNL A   1      40.681  32.115  30.910  1.00  0.00     0.031 C 
ATOM     40  C   UNL A   1      40.368  26.022  27.689  1.00  0.00     0.029 A 
ATOM     41  C   UNL A   1      41.667  26.371  28.256  1.00  0.00     0.049 A 
ATOM     42  H   UNL A   1      42.152  28.064  29.367  1.00  0.00     0.167 HD
ATOM     43  C   UNL A   1      43.070  31.793  31.483  1.00  0.00     0.037 A 
ATOM     44  C   UNL A   1      42.789  25.635  28.151  1.00  0.00     0.037 A 
ATOM     45  C   UNL A   1      44.293  31.033  31.504  1.00  0.00     0.049 A 
ATOM     46  C   UNL A   1      44.056  26.135  28.792  1.00  0.00     0.074 A 
ATOM     47  C   UNL A   1      45.494  31.348  32.114  1.00  0.00     0.029 A 
ATOM     48  N   UNL A   1      44.467  29.804  30.885  1.00  0.00    -0.354 N 
ATOM     49  N   UNL A   1      44.260  27.237  29.471  1.00  0.00    -0.248 NA
ATOM     50  C   UNL A   1      45.247  25.287  28.652  1.00  0.00     0.031 C 
ATOM     51  C   UNL A   1      46.408  30.329  31.830  1.00  0.00     0.029 A 
ATOM     52  C   UNL A   1      45.764  29.357  31.081  1.00  0.00     0.049 A 
ATOM     53  H   UNL A   1      43.772  29.322  30.381  1.00  0.00     0.167 HD
ATOM     54  C   UNL A   1      45.591  27.202  29.863  1.00  0.00     0.074 A 
ATOM     55  C   UNL A   1      46.144  25.964  29.355  1.00  0.00     0.031 C 
ATOM     56  C   UNL A   1      46.293  28.116  30.577  1.00  0.00     0.037 A 
BRANCH  43  57
ATOM     57  C   UNL A   1      43.058  33.139  32.145  1.00  0.00     0.064 A 
ATOM     58  C   UNL A   1      42.751  33.285  33.506  1.00  0.00     0.173 A 
ATOM     59  C   UNL A   1      43.393  34.293  31.420  1.00  0.00     0.173 A 
ATOM     60  F   UNL A   1      42.413  32.214  34.240  1.00  0.00    -0.203 F 
ATOM     61  C   UNL A   1      42.751  34.539  34.110  1.00  0.00     0.198 A 
ATOM     62  C   UNL A   1      43.420  35.542  32.035  1.00  0.00     0.198 A 
ATOM     63  F   UNL A   1      43.699  34.208  30.117  1.00  0.00    -0.203 F 
ATOM     64  F   UNL A   1      42.408  34.659  35.400  1.00  0.00    -0.200 F 
ATOM     65  C   UNL A   1      43.093  35.665  33.376  1.00  0.00     0.200 A 
ATOM     66  F   UNL A   1      43.761  36.627  31.327  1.00  0.00    -0.200 F 
ATOM     67  F   UNL A   1      43.100  36.871  33.961  1.00  0.00    -0.200 F 
ENDBRANCH  43  57
BRANCH  44  68
ATOM     68  C   UNL A   1      42.762  24.337  27.429  1.00  0.00     0.064 A 
ATOM     69  C   UNL A   1      43.131  24.258  26.079  1.00  0.00     0.173 A 
ATOM     70  C   UNL A   1      42.363  23.153  28.067  1.00  0.00     0.173 A 
ATOM     71  F   UNL A   1      43.501  25.368  25.421  1.00  0.00    -0.203 F 
ATOM     72  C   UNL A   1      43.083  23.050  25.388  1.00  0.00     0.198 A 
ATOM     73  C   UNL A   1      42.340  21.941  27.381  1.00  0.00     0.198 A 
ATOM     74  F   UNL A   1      42.004  23.174  29.358  1.00  0.00    -0.203 F 
ATOM     75  F   UNL A   1      43.397  23.012  24.086  1.00  0.00    -0.200 F 
ATOM     76  C   UNL A   1      42.692  21.891  26.041  1.00  0.00     0.200 A 
ATOM     77  F   UNL A   1      41.974  20.820  28.019  1.00  0.00    -0.200 F 
ATOM     78  F   UNL A   1      42.647  20.728  25.376  1.00  0.00    -0.200 F 
ENDBRANCH  44  68
BRANCH  56  79
ATOM     79  C   UNL A   1      47.727  27.797  30.881  1.00  0.00     0.064 A 
ATOM     80  C   UNL A   1      48.766  28.222  30.042  1.00  0.00     0.173 A 
ATOM     81  C   UNL A   1      48.065  27.103  32.051  1.00  0.00     0.173 A 
ATOM     82  F   UNL A   1      48.490  28.875  28.903  1.00  0.00    -0.203 F 
ATOM     83  C   UNL A   1      50.095  27.947  30.355  1.00  0.00     0.198 A 
ATOM     84  C   UNL A   1      49.396  26.853  32.375  1.00  0.00     0.198 A 
ATOM     85  F   UNL A   1      47.107  26.680  32.889  1.00  0.00    -0.203 F 
ATOM     86  F   UNL A   1      51.070  28.327  29.518  1.00  0.00    -0.200 F 
ATOM     87  C   UNL A   1      50.408  27.271  31.525  1.00  0.00     0.200 A 
ATOM     88  F   UNL A   1      49.698  26.210  33.512  1.00  0.00    -0.200 F 
ATOM     89  F   UNL A   1      51.688  27.015  31.829  1.00  0.00    -0.200 F 
ENDBRANCH  56  79
ENDBRANCH  30  31
ENDBRANCH  22  25
ENDBRANCH  20  21
ENDBRANCH  19  20
ENDBRANCH  18  19
ENDBRANCH   1  18
TORSDOF 15
ENDMDL
MODEL 3
REMARK VINA RESULT:     -10.3      3.926     10.565
REMARK SMILES CCCSc1ccc(/C=C/C(=O)NCCCCNC(=O)c2ccc(-c3c4nc(c(-c5c(F)c(F)c(F)c(F)c5F)c5ccc([nH]5)c(-c5c(F)c(F)c(F)c(F)c5F)c5nc(c(-c6c(F)c(F)c(F)c(F)c6F)c6ccc3[nH]6)C=C5)C=C4)cc2)cc1
REMARK SMILES IDX 14 1 13 2 11 3 12 4 10 6 9 7 8 8 5 9 6 10 85 11 7 12 84 13
REMARK SMILES IDX 4 14 3 15 2 16 1 17 15 18 16 19 17 20 18 21 19 22 20 24
REMARK SMILES IDX 21 25 22 26 83 27 23 28 82 29 24 30 25 31 26 32 76 33 27 34
REMARK SMILES IDX 81 35 75 36 77 37 28 38 80 39 74 40 73 41 29 43 61 44 41 45
REMARK SMILES IDX 60 46 42 47 45 48 59 49 78 50 43 51 44 52 58 54 79 55 46 56
REMARK SMILES IDX 30 57 31 58 39 59 32 60 33 61 37 62 40 63 34 64 35 65 38 66
REMARK SMILES IDX 36 67 62 68 63 69 71 70 64 71 65 72 69 73 72 74 66 75 67 76
REMARK SMILES IDX 70 77 68 78 47 79 48 80 56 81 49 82 50 83 54 84 57 85 51 86
REMARK SMILES IDX 52 87 55 88 53 89
REMARK H PARENT 13 5 18 23 77 42 45 53
REMARK Flexibility Score: inf
ROOT
ATOM      1  C   UNL A   1      43.992  23.221  29.405  1.00  0.00     0.116 C 
ENDROOT
BRANCH   1   2
ATOM      2  N   UNL A   1      44.938  22.924  28.347  1.00  0.00    -0.353 N 
ATOM      3  C   UNL A   1      45.595  23.759  27.500  1.00  0.00     0.243 C 
ATOM      4  O   UNL A   1      46.390  23.302  26.683  1.00  0.00    -0.270 OA
ATOM      5  H   UNL A   1      45.135  21.968  28.223  1.00  0.00     0.163 HD
BRANCH   3   6
ATOM      6  C   UNL A   1      45.452  25.224  27.637  1.00  0.00     0.072 C 
ATOM      7  C   UNL A   1      44.818  26.016  26.758  1.00  0.00     0.014 C 
BRANCH   7   8
ATOM      8  C   UNL A   1      44.652  27.471  26.904  1.00  0.00    -0.025 A 
ATOM      9  C   UNL A   1      44.332  30.234  27.368  1.00  0.00     0.007 A 
ATOM     10  C   UNL A   1      43.400  29.534  26.604  1.00  0.00     0.015 A 
ATOM     11  C   UNL A   1      45.465  29.570  27.839  1.00  0.00     0.015 A 
ATOM     12  C   UNL A   1      43.545  28.162  26.396  1.00  0.00     0.009 A 
ATOM     13  C   UNL A   1      45.623  28.198  27.609  1.00  0.00     0.009 A 
BRANCH   9  14
ATOM     14  S   UNL A   1      44.053  31.941  27.775  1.00  0.00    -0.126 SA
BRANCH  14  15
ATOM     15  C   UNL A   1      45.385  32.183  29.016  1.00  0.00     0.075 C 
BRANCH  15  16
ATOM     16  C   UNL A   1      45.040  33.220  30.089  1.00  0.00     0.008 C 
ATOM     17  C   UNL A   1      43.666  33.849  29.893  1.00  0.00     0.005 C 
ENDBRANCH  15  16
ENDBRANCH  14  15
ENDBRANCH   9  14
ENDBRANCH   7   8
ENDBRANCH   3   6
ENDBRANCH   1   2
BRANCH   1  18
ATOM     18  C   UNL A   1      42.579  23.339  28.836  1.00  0.00     0.023 C 
BRANCH  18  19
ATOM     19  C   UNL A   1      42.245  22.280  27.783  1.00  0.00     0.023 C 
BRANCH  19  20
ATOM     20  C   UNL A   1      41.910  22.834  26.402  1.00  0.00     0.116 C 
BRANCH  20  21
ATOM     21  N   UNL A   1      40.531  22.593  26.006  1.00  0.00    -0.352 N 
ATOM     22  C   UNL A   1      39.419  23.351  26.287  1.00  0.00     0.251 C 
ATOM     23  H   UNL A   1      40.376  21.783  25.468  1.00  0.00     0.163 HD
ATOM     24  O   UNL A   1      38.302  22.967  25.975  1.00  0.00    -0.269 OA
BRANCH  22  25
ATOM     25  C   UNL A   1      39.594  24.622  27.016  1.00  0.00     0.039 A 
ATOM     26  C   UNL A   1      39.112  24.718  28.323  1.00  0.00     0.014 A 
ATOM     27  C   UNL A   1      40.279  25.688  26.429  1.00  0.00     0.014 A 
ATOM     28  C   UNL A   1      39.383  25.863  29.072  1.00  0.00     0.010 A 
ATOM     29  C   UNL A   1      40.602  26.802  27.197  1.00  0.00     0.010 A 
ATOM     30  C   UNL A   1      40.163  26.896  28.526  1.00  0.00    -0.014 A 
BRANCH  30  31
ATOM     31  C   UNL A   1      40.545  28.079  29.333  1.00  0.00     0.031 A 
ATOM     32  C   UNL A   1      41.882  28.121  30.014  1.00  0.00     0.074 A 
ATOM     33  C   UNL A   1      39.657  29.074  29.517  1.00  0.00     0.049 A 
ATOM     34  N   UNL A   1      42.363  29.018  30.837  1.00  0.00    -0.248 NA
ATOM     35  C   UNL A   1      42.789  26.992  29.757  1.00  0.00     0.031 C 
ATOM     36  C   UNL A   1      38.310  29.123  28.943  1.00  0.00     0.029 A 
ATOM     37  N   UNL A   1      39.747  30.232  30.248  1.00  0.00    -0.354 N 
ATOM     38  C   UNL A   1      43.619  28.553  31.206  1.00  0.00     0.074 A 
ATOM     39  C   UNL A   1      43.805  27.273  30.558  1.00  0.00     0.031 C 
ATOM     40  C   UNL A   1      37.707  30.257  29.333  1.00  0.00     0.029 A 
ATOM     41  C   UNL A   1      38.609  30.999  30.209  1.00  0.00     0.049 A 
ATOM     42  H   UNL A   1      40.552  30.487  30.754  1.00  0.00     0.167 HD
ATOM     43  C   UNL A   1      44.540  29.153  31.996  1.00  0.00     0.037 A 
ATOM     44  C   UNL A   1      38.322  32.162  30.822  1.00  0.00     0.037 A 
ATOM     45  C   UNL A   1      44.360  30.440  32.615  1.00  0.00     0.049 A 
ATOM     46  C   UNL A   1      39.362  32.804  31.701  1.00  0.00     0.074 A 
ATOM     47  C   UNL A   1      45.258  31.161  33.382  1.00  0.00     0.029 A 
ATOM     48  N   UNL A   1      43.200  31.196  32.537  1.00  0.00    -0.354 N 
ATOM     49  N   UNL A   1      40.571  32.388  31.990  1.00  0.00    -0.248 NA
ATOM     50  C   UNL A   1      38.997  34.077  32.337  1.00  0.00     0.031 C 
ATOM     51  C   UNL A   1      44.627  32.336  33.802  1.00  0.00     0.029 A 
ATOM     52  C   UNL A   1      43.351  32.369  33.261  1.00  0.00     0.049 A 
ATOM     53  H   UNL A   1      42.389  30.938  32.042  1.00  0.00     0.167 HD
ATOM     54  C   UNL A   1      41.120  33.358  32.816  1.00  0.00     0.074 A 
ATOM     55  C   UNL A   1      40.117  34.390  32.973  1.00  0.00     0.031 C 
ATOM     56  C   UNL A   1      42.345  33.390  33.395  1.00  0.00     0.037 A 
BRANCH  43  57
ATOM     57  C   UNL A   1      45.832  28.426  32.228  1.00  0.00     0.064 A 
ATOM     58  C   UNL A   1      45.937  27.400  33.178  1.00  0.00     0.173 A 
ATOM     59  C   UNL A   1      46.970  28.736  31.468  1.00  0.00     0.173 A 
ATOM     60  F   UNL A   1      44.880  27.074  33.938  1.00  0.00    -0.203 F 
ATOM     61  C   UNL A   1      47.139  26.728  33.377  1.00  0.00     0.198 A 
ATOM     62  C   UNL A   1      48.164  28.042  31.650  1.00  0.00     0.198 A 
ATOM     63  F   UNL A   1      46.923  29.707  30.544  1.00  0.00    -0.203 F 
ATOM     64  F   UNL A   1      47.227  25.782  34.323  1.00  0.00    -0.200 F 
ATOM     65  C   UNL A   1      48.250  27.044  32.609  1.00  0.00     0.200 A 
ATOM     66  F   UNL A   1      49.232  28.342  30.899  1.00  0.00    -0.200 F 
ATOM     67  F   UNL A   1      49.405  26.391  32.797  1.00  0.00    -0.200 F 
ENDBRANCH  43  57
BRANCH  44  68
ATOM     68  C   UNL A   1      37.002  32.810  30.608  1.00  0.00     0.064 A 
ATOM     69  C   UNL A   1      35.989  32.709  31.573  1.00  0.00     0.173 A 
ATOM     70  C   UNL A   1      36.722  33.533  29.440  1.00  0.00     0.173 A 
ATOM     71  F   UNL A   1      36.203  32.010  32.697  1.00  0.00    -0.203 F 
ATOM     72  C   UNL A   1      34.740  33.290  31.368  1.00  0.00     0.198 A 
ATOM     73  C   UNL A   1      35.481  34.136  29.248  1.00  0.00     0.198 A 
ATOM     74  F   UNL A   1      37.658  33.662  28.489  1.00  0.00    -0.203 F 
ATOM     75  F   UNL A   1      33.776  33.140  32.286  1.00  0.00    -0.200 F 
ATOM     76  C   UNL A   1      34.488  34.007  30.208  1.00  0.00     0.200 A 
ATOM     77  F   UNL A   1      35.245  34.840  28.132  1.00  0.00    -0.200 F 
ATOM     78  F   UNL A   1      33.286  34.568  30.012  1.00  0.00    -0.200 F 
ENDBRANCH  44  68
BRANCH  56  79
ATOM     79  C   UNL A   1      42.683  34.592  34.226  1.00  0.00     0.064 A 
ATOM     80  C   UNL A   1      43.122  35.788  33.639  1.00  0.00     0.173 A 
ATOM     81  C   UNL A   1      42.518  34.562  35.618  1.00  0.00     0.173 A 
ATOM     82  F   UNL A   1      43.310  35.861  32.313  1.00  0.00    -0.203 F 
ATOM     83  C   UNL A   1      43.400  36.906  34.421  1.00  0.00     0.198 A 
ATOM     84  C   UNL A   1      42.772  35.689  36.393  1.00  0.00     0.198 A 
ATOM     85  F   UNL A   1      42.096  33.443  36.225  1.00  0.00    -0.203 F 
ATOM     86  F   UNL A   1      43.857  38.027  33.845  1.00  0.00    -0.200 F 
ATOM     87  C   UNL A   1      43.217  36.859  35.795  1.00  0.00     0.200 A 
ATOM     88  F   UNL A   1      42.582  35.646  37.719  1.00  0.00    -0.200 F 
ATOM     89  F   UNL A   1      43.476  37.938  36.544  1.00  0.00    -0.200 F 
ENDBRANCH  56  79
ENDBRANCH  30  31
ENDBRANCH  22  25
ENDBRANCH  20  21
ENDBRANCH  19  20
ENDBRANCH  18  19
ENDBRANCH   1  18
TORSDOF 15
ENDMDL
