MODEL 1
REMARK VINA RESULT:     -11.1      0.000      0.000
REMARK SMILES CC[C@@](C)(NC(=O)N(C)[C@@H](C)C(C)C)C(=O)NCCCCNC(=O)c1ccc(-c2c3nc(c(-c4c(F)c(F)c(F)c(F)c4F)c4ccc([nH]4)c(-c4c(F)c(F)c(F)c(F)c4F)c4nc(c(-c5c(F)c(F)c(F)c(F)c5F)c5ccc2[nH]5)C=C4)C=C3)cc1
REMARK SMILES IDX 18 1 17 2 15 3 16 4 3 6 4 7 2 8 1 9 5 10 6 11 7 13 8 14 9 15
REMARK SMILES IDX 10 16 11 17 12 18 13 19 14 20 19 21 20 22 21 23 22 24 23 25
REMARK SMILES IDX 24 27 25 28 26 29 87 30 27 31 86 32 28 33 29 34 30 35 80 36
REMARK SMILES IDX 31 37 85 38 79 39 81 40 32 41 84 42 78 43 77 44 33 46 65 47
REMARK SMILES IDX 45 48 64 49 46 50 49 51 63 52 82 53 47 54 48 55 62 57 83 58
REMARK SMILES IDX 50 59 34 60 35 61 43 62 36 63 37 64 41 65 44 66 38 67 39 68
REMARK SMILES IDX 42 69 40 70 66 71 67 72 75 73 68 74 69 75 73 76 76 77 70 78
REMARK SMILES IDX 71 79 74 80 72 81 51 82 52 83 60 84 53 85 54 86 58 87 61 88
REMARK SMILES IDX 55 89 56 90 59 91 57 92
REMARK H PARENT 17 5 5 12 22 26 81 45 49 56
REMARK Flexibility Score: inf
ROOT
ATOM      1  C   UNL A   1      32.841  29.873  26.090  1.00  0.00     0.116 C 
ENDROOT
BRANCH   1   2
ATOM      2  N   UNL A   1      33.309  29.713  24.726  1.00  0.00    -0.354 N 
ATOM      3  C   UNL A   1      33.332  28.652  23.867  1.00  0.00     0.245 C 
ATOM      4  O   UNL A   1      33.724  28.921  22.726  1.00  0.00    -0.272 OA
ATOM      5  H   UNL A   1      33.685  30.536  24.341  1.00  0.00     0.163 HD
BRANCH   3   6
ATOM      6  C   UNL A   1      32.812  27.228  24.242  1.00  0.00     0.117 C 
ATOM      7  C   UNL A   1      33.641  26.793  25.488  1.00  0.00     0.045 C 
BRANCH   6   8
ATOM      8  C   UNL A   1      31.318  27.159  24.694  1.00  0.00     0.035 C 
ATOM      9  C   UNL A   1      31.037  26.706  26.125  1.00  0.00     0.007 C 
ENDBRANCH   6   8
BRANCH   6  10
ATOM     10  N   UNL A   1      33.015  26.213  23.163  1.00  0.00    -0.324 N 
ATOM     11  C   UNL A   1      33.281  24.892  23.020  1.00  0.00     0.318 C 
ATOM     12  H   UNL A   1      32.926  26.637  22.280  1.00  0.00     0.166 HD
ATOM     13  O   UNL A   1      33.657  24.577  21.887  1.00  0.00    -0.249 OA
BRANCH  11  14
ATOM     14  N   UNL A   1      33.015  23.946  23.975  1.00  0.00    -0.325 N 
ATOM     15  C   UNL A   1      31.696  23.591  24.476  1.00  0.00     0.149 C 
BRANCH  14  16
ATOM     16  C   UNL A   1      34.134  23.184  24.619  1.00  0.00     0.086 C 
ATOM     17  C   UNL A   1      34.204  21.685  24.251  1.00  0.00     0.031 C 
BRANCH  16  18
ATOM     18  C   UNL A   1      35.551  23.809  24.441  1.00  0.00     0.005 C 
ATOM     19  C   UNL A   1      36.326  24.009  25.744  1.00  0.00     0.009 C 
ATOM     20  C   UNL A   1      36.407  22.932  23.507  1.00  0.00     0.009 C 
ENDBRANCH  16  18
ENDBRANCH  14  16
ENDBRANCH  11  14
ENDBRANCH   6  10
ENDBRANCH   3   6
ENDBRANCH   1   2
BRANCH   1  21
ATOM     21  C   UNL A   1      31.447  30.462  26.203  1.00  0.00     0.023 C 
BRANCH  21  22
ATOM     22  C   UNL A   1      31.381  31.956  26.503  1.00  0.00     0.023 C 
BRANCH  22  23
ATOM     23  C   UNL A   1      32.617  32.499  27.191  1.00  0.00     0.116 C 
BRANCH  23  24
ATOM     24  N   UNL A   1      32.480  33.913  27.513  1.00  0.00    -0.352 N 
ATOM     25  C   UNL A   1      33.098  34.655  28.483  1.00  0.00     0.251 C 
ATOM     26  H   UNL A   1      31.847  34.411  26.947  1.00  0.00     0.163 HD
ATOM     27  O   UNL A   1      32.685  35.786  28.746  1.00  0.00    -0.269 OA
BRANCH  25  28
ATOM     28  C   UNL A   1      34.247  34.098  29.221  1.00  0.00     0.039 A 
ATOM     29  C   UNL A   1      34.017  33.213  30.277  1.00  0.00     0.014 A 
ATOM     30  C   UNL A   1      35.553  34.454  28.876  1.00  0.00     0.014 A 
ATOM     31  C   UNL A   1      35.100  32.646  30.948  1.00  0.00     0.010 A 
ATOM     32  C   UNL A   1      36.625  33.799  29.461  1.00  0.00     0.010 A 
ATOM     33  C   UNL A   1      36.412  32.909  30.522  1.00  0.00    -0.014 A 
BRANCH  33  34
ATOM     34  C   UNL A   1      37.586  32.300  31.191  1.00  0.00     0.031 A 
ATOM     35  C   UNL A   1      38.338  31.190  30.508  1.00  0.00     0.074 A 
ATOM     36  C   UNL A   1      37.922  32.690  32.436  1.00  0.00     0.049 A 
ATOM     37  N   UNL A   1      39.323  30.455  30.958  1.00  0.00    -0.248 NA
ATOM     38  C   UNL A   1      37.897  30.828  29.150  1.00  0.00     0.031 C 
ATOM     39  C   UNL A   1      37.231  33.717  33.218  1.00  0.00     0.029 A 
ATOM     40  N   UNL A   1      38.925  32.259  33.266  1.00  0.00    -0.354 N 
ATOM     41  C   UNL A   1      39.594  29.534  29.955  1.00  0.00     0.074 A 
ATOM     42  C   UNL A   1      38.631  29.757  28.900  1.00  0.00     0.031 C 
ATOM     43  C   UNL A   1      37.851  33.860  34.400  1.00  0.00     0.029 A 
ATOM     44  C   UNL A   1      38.952  32.906  34.477  1.00  0.00     0.049 A 
ATOM     45  H   UNL A   1      39.565  31.553  33.017  1.00  0.00     0.167 HD
ATOM     46  C   UNL A   1      40.578  28.606  29.905  1.00  0.00     0.037 A 
ATOM     47  C   UNL A   1      39.773  32.741  35.531  1.00  0.00     0.037 A 
ATOM     48  C   UNL A   1      41.558  28.425  30.942  1.00  0.00     0.049 A 
ATOM     49  C   UNL A   1      40.864  31.708  35.446  1.00  0.00     0.074 A 
ATOM     50  C   UNL A   1      42.644  27.568  30.961  1.00  0.00     0.029 A 
ATOM     51  N   UNL A   1      41.571  29.118  32.143  1.00  0.00    -0.354 N 
ATOM     52  N   UNL A   1      41.160  30.893  34.462  1.00  0.00    -0.248 NA
ATOM     53  C   UNL A   1      41.742  31.577  36.617  1.00  0.00     0.031 C 
ATOM     54  C   UNL A   1      43.285  27.706  32.197  1.00  0.00     0.029 A 
ATOM     55  C   UNL A   1      42.633  28.691  32.922  1.00  0.00     0.049 A 
ATOM     56  H   UNL A   1      40.922  29.812  32.403  1.00  0.00     0.167 HD
ATOM     57  C   UNL A   1      42.273  30.177  34.880  1.00  0.00     0.074 A 
ATOM     58  C   UNL A   1      42.609  30.665  36.201  1.00  0.00     0.031 C 
ATOM     59  C   UNL A   1      42.956  29.202  34.231  1.00  0.00     0.037 A 
BRANCH  46  60
ATOM     60  C   UNL A   1      40.645  27.722  28.692  1.00  0.00     0.064 A 
ATOM     61  C   UNL A   1      41.436  28.053  27.580  1.00  0.00     0.173 A 
ATOM     62  C   UNL A   1      39.934  26.514  28.653  1.00  0.00     0.173 A 
ATOM     63  F   UNL A   1      42.125  29.203  27.558  1.00  0.00    -0.203 F 
ATOM     64  C   UNL A   1      41.486  27.222  26.462  1.00  0.00     0.198 A 
ATOM     65  C   UNL A   1      40.014  25.669  27.548  1.00  0.00     0.198 A 
ATOM     66  F   UNL A   1      39.166  26.147  29.689  1.00  0.00    -0.203 F 
ATOM     67  F   UNL A   1      42.204  27.587  25.392  1.00  0.00    -0.200 F 
ATOM     68  C   UNL A   1      40.783  26.027  26.452  1.00  0.00     0.200 A 
ATOM     69  F   UNL A   1      39.344  24.508  27.545  1.00  0.00    -0.200 F 
ATOM     70  F   UNL A   1      40.839  25.225  25.380  1.00  0.00    -0.200 F 
ENDBRANCH  46  60
BRANCH  47  71
ATOM     71  C   UNL A   1      39.616  33.591  36.740  1.00  0.00     0.064 A 
ATOM     72  C   UNL A   1      38.801  33.179  37.805  1.00  0.00     0.173 A 
ATOM     73  C   UNL A   1      40.264  34.829  36.858  1.00  0.00     0.173 A 
ATOM     74  F   UNL A   1      38.146  32.011  37.733  1.00  0.00    -0.203 F 
ATOM     75  C   UNL A   1      38.620  33.984  38.928  1.00  0.00     0.198 A 
ATOM     76  C   UNL A   1      40.107  35.619  37.995  1.00  0.00     0.198 A 
ATOM     77  F   UNL A   1      41.060  35.266  35.872  1.00  0.00    -0.203 F 
ATOM     78  F   UNL A   1      37.796  33.588  39.906  1.00  0.00    -0.200 F 
ATOM     79  C   UNL A   1      39.277  35.201  39.024  1.00  0.00     0.200 A 
ATOM     80  F   UNL A   1      40.757  36.787  38.091  1.00  0.00    -0.200 F 
ATOM     81  F   UNL A   1      39.105  35.974  40.105  1.00  0.00    -0.200 F 
ENDBRANCH  47  71
BRANCH  59  82
ATOM     82  C   UNL A   1      44.159  28.629  34.922  1.00  0.00     0.064 A 
ATOM     83  C   UNL A   1      45.431  29.204  34.786  1.00  0.00     0.173 A 
ATOM     84  C   UNL A   1      44.026  27.515  35.764  1.00  0.00     0.173 A 
ATOM     85  F   UNL A   1      45.611  30.262  33.981  1.00  0.00    -0.203 F 
ATOM     86  C   UNL A   1      46.531  28.666  35.447  1.00  0.00     0.198 A 
ATOM     87  C   UNL A   1      45.122  27.001  36.450  1.00  0.00     0.198 A 
ATOM     88  F   UNL A   1      42.829  26.932  35.934  1.00  0.00    -0.203 F 
ATOM     89  F   UNL A   1      47.746  29.201  35.264  1.00  0.00    -0.200 F 
ATOM     90  C   UNL A   1      46.375  27.572  36.285  1.00  0.00     0.200 A 
ATOM     91  F   UNL A   1      44.966  25.954  37.272  1.00  0.00    -0.200 F 
ATOM     92  F   UNL A   1      47.434  27.062  36.929  1.00  0.00    -0.200 F 
ENDBRANCH  59  82
ENDBRANCH  33  34
ENDBRANCH  25  28
ENDBRANCH  23  24
ENDBRANCH  22  23
ENDBRANCH  21  22
ENDBRANCH   1  21
TORSDOF 16
ENDMDL
MODEL 2
REMARK VINA RESULT:     -11.0      5.313     10.872
REMARK SMILES CC[C@@](C)(NC(=O)N(C)[C@@H](C)C(C)C)C(=O)NCCCCNC(=O)c1ccc(-c2c3nc(c(-c4c(F)c(F)c(F)c(F)c4F)c4ccc([nH]4)c(-c4c(F)c(F)c(F)c(F)c4F)c4nc(c(-c5c(F)c(F)c(F)c(F)c5F)c5ccc2[nH]5)C=C4)C=C3)cc1
REMARK SMILES IDX 18 1 17 2 15 3 16 4 3 6 4 7 2 8 1 9 5 10 6 11 7 13 8 14 9 15
REMARK SMILES IDX 10 16 11 17 12 18 13 19 14 20 19 21 20 22 21 23 22 24 23 25
REMARK SMILES IDX 24 27 25 28 26 29 87 30 27 31 86 32 28 33 29 34 30 35 80 36
REMARK SMILES IDX 31 37 85 38 79 39 81 40 32 41 84 42 78 43 77 44 33 46 65 47
REMARK SMILES IDX 45 48 64 49 46 50 49 51 63 52 82 53 47 54 48 55 62 57 83 58
REMARK SMILES IDX 50 59 34 60 35 61 43 62 36 63 37 64 41 65 44 66 38 67 39 68
REMARK SMILES IDX 42 69 40 70 66 71 67 72 75 73 68 74 69 75 73 76 76 77 70 78
REMARK SMILES IDX 71 79 74 80 72 81 51 82 52 83 60 84 53 85 54 86 58 87 61 88
REMARK SMILES IDX 55 89 56 90 59 91 57 92
REMARK H PARENT 17 5 5 12 22 26 81 45 49 56
REMARK Flexibility Score: inf
ROOT
ATOM      1  C   UNL A   1      36.577  21.549  25.330  1.00  0.00     0.116 C 
ENDROOT
BRANCH   1   2
ATOM      2  N   UNL A   1      35.793  21.800  26.524  1.00  0.00    -0.354 N 
ATOM      3  C   UNL A   1      34.662  22.527  26.761  1.00  0.00     0.245 C 
ATOM      4  O   UNL A   1      34.216  22.428  27.910  1.00  0.00    -0.272 OA
ATOM      5  H   UNL A   1      36.148  21.357  27.327  1.00  0.00     0.163 HD
BRANCH   3   6
ATOM      6  C   UNL A   1      33.914  23.340  25.658  1.00  0.00     0.117 C 
ATOM      7  C   UNL A   1      34.781  24.610  25.411  1.00  0.00     0.045 C 
BRANCH   6   8
ATOM      8  C   UNL A   1      33.804  22.637  24.267  1.00  0.00     0.035 C 
ATOM      9  C   UNL A   1      32.861  21.441  24.156  1.00  0.00     0.007 C 
ENDBRANCH   6   8
BRANCH   6  10
ATOM     10  N   UNL A   1      32.542  23.777  26.062  1.00  0.00    -0.324 N 
ATOM     11  C   UNL A   1      31.700  24.826  25.903  1.00  0.00     0.318 C 
ATOM     12  H   UNL A   1      32.117  23.084  26.617  1.00  0.00     0.166 HD
ATOM     13  O   UNL A   1      30.761  24.841  26.705  1.00  0.00    -0.249 OA
BRANCH  11  14
ATOM     14  N   UNL A   1      31.767  25.714  24.861  1.00  0.00    -0.325 N 
ATOM     15  C   UNL A   1      31.461  25.418  23.470  1.00  0.00     0.149 C 
BRANCH  14  16
ATOM     16  C   UNL A   1      32.204  27.128  25.098  1.00  0.00     0.086 C 
ATOM     17  C   UNL A   1      31.171  28.210  24.709  1.00  0.00     0.031 C 
BRANCH  16  18
ATOM     18  C   UNL A   1      32.725  27.431  26.536  1.00  0.00     0.005 C 
ATOM     19  C   UNL A   1      34.035  28.217  26.586  1.00  0.00     0.009 C 
ATOM     20  C   UNL A   1      31.666  28.217  27.331  1.00  0.00     0.009 C 
ENDBRANCH  16  18
ENDBRANCH  14  16
ENDBRANCH  11  14
ENDBRANCH   6  10
ENDBRANCH   3   6
ENDBRANCH   1   2
BRANCH   1  21
ATOM     21  C   UNL A   1      36.536  20.109  24.852  1.00  0.00     0.023 C 
BRANCH  21  22
ATOM     22  C   UNL A   1      37.880  19.393  24.785  1.00  0.00     0.023 C 
BRANCH  22  23
ATOM     23  C   UNL A   1      38.912  19.935  25.754  1.00  0.00     0.116 C 
BRANCH  23  24
ATOM     24  N   UNL A   1      40.043  19.028  25.904  1.00  0.00    -0.352 N 
ATOM     25  C   UNL A   1      41.367  19.304  26.104  1.00  0.00     0.251 C 
ATOM     26  H   UNL A   1      39.819  18.071  25.855  1.00  0.00     0.163 HD
ATOM     27  O   UNL A   1      42.206  18.410  25.982  1.00  0.00    -0.269 OA
BRANCH  25  28
ATOM     28  C   UNL A   1      41.793  20.672  26.454  1.00  0.00     0.039 A 
ATOM     29  C   UNL A   1      42.179  20.953  27.767  1.00  0.00     0.014 A 
ATOM     30  C   UNL A   1      41.806  21.681  25.488  1.00  0.00     0.014 A 
ATOM     31  C   UNL A   1      42.628  22.233  28.094  1.00  0.00     0.010 A 
ATOM     32  C   UNL A   1      42.365  22.914  25.785  1.00  0.00     0.010 A 
ATOM     33  C   UNL A   1      42.757  23.212  27.097  1.00  0.00    -0.014 A 
BRANCH  33  34
ATOM     34  C   UNL A   1      43.260  24.573  27.401  1.00  0.00     0.031 A 
ATOM     35  C   UNL A   1      42.324  25.599  27.981  1.00  0.00     0.074 A 
ATOM     36  C   UNL A   1      44.526  24.903  27.082  1.00  0.00     0.049 A 
ATOM     37  N   UNL A   1      42.531  26.868  28.224  1.00  0.00    -0.248 NA
ATOM     38  C   UNL A   1      40.957  25.148  28.293  1.00  0.00     0.031 C 
ATOM     39  C   UNL A   1      45.506  24.008  26.465  1.00  0.00     0.029 A 
ATOM     40  N   UNL A   1      45.203  26.088  27.226  1.00  0.00    -0.354 N 
ATOM     41  C   UNL A   1      41.320  27.366  28.685  1.00  0.00     0.074 A 
ATOM     42  C   UNL A   1      40.365  26.282  28.629  1.00  0.00     0.031 C 
ATOM     43  C   UNL A   1      46.667  24.665  26.314  1.00  0.00     0.029 A 
ATOM     44  C   UNL A   1      46.501  26.037  26.781  1.00  0.00     0.049 A 
ATOM     45  H   UNL A   1      44.797  26.897  27.613  1.00  0.00     0.167 HD
ATOM     46  C   UNL A   1      41.038  28.608  29.144  1.00  0.00     0.037 A 
ATOM     47  C   UNL A   1      47.446  26.995  26.750  1.00  0.00     0.037 A 
ATOM     48  C   UNL A   1      42.009  29.664  29.238  1.00  0.00     0.049 A 
ATOM     49  C   UNL A   1      47.109  28.364  27.274  1.00  0.00     0.074 A 
ATOM     50  C   UNL A   1      41.851  30.936  29.759  1.00  0.00     0.029 A 
ATOM     51  N   UNL A   1      43.322  29.567  28.802  1.00  0.00    -0.354 N 
ATOM     52  N   UNL A   1      45.981  28.804  27.779  1.00  0.00    -0.248 NA
ATOM     53  C   UNL A   1      48.179  29.369  27.232  1.00  0.00     0.031 C 
ATOM     54  C   UNL A   1      43.056  31.626  29.591  1.00  0.00     0.029 A 
ATOM     55  C   UNL A   1      43.981  30.766  29.021  1.00  0.00     0.049 A 
ATOM     56  H   UNL A   1      43.727  28.765  28.399  1.00  0.00     0.167 HD
ATOM     57  C   UNL A   1      46.213  30.123  28.143  1.00  0.00     0.074 A 
ATOM     58  C   UNL A   1      47.596  30.407  27.815  1.00  0.00     0.031 C 
ATOM     59  C   UNL A   1      45.362  31.021  28.697  1.00  0.00     0.037 A 
BRANCH  46  60
ATOM     60  C   UNL A   1      39.629  28.887  29.583  1.00  0.00     0.064 A 
ATOM     61  C   UNL A   1      39.205  28.654  30.902  1.00  0.00     0.173 A 
ATOM     62  C   UNL A   1      38.697  29.425  28.682  1.00  0.00     0.173 A 
ATOM     63  F   UNL A   1      40.050  28.128  31.800  1.00  0.00    -0.203 F 
ATOM     64  C   UNL A   1      37.894  28.918  31.291  1.00  0.00     0.198 A 
ATOM     65  C   UNL A   1      37.397  29.721  29.085  1.00  0.00     0.198 A 
ATOM     66  F   UNL A   1      39.049  29.671  27.411  1.00  0.00    -0.203 F 
ATOM     67  F   UNL A   1      37.499  28.635  32.539  1.00  0.00    -0.200 F 
ATOM     68  C   UNL A   1      36.994  29.460  30.385  1.00  0.00     0.200 A 
ATOM     69  F   UNL A   1      36.533  30.257  28.211  1.00  0.00    -0.200 F 
ATOM     70  F   UNL A   1      35.736  29.723  30.764  1.00  0.00    -0.200 F 
ENDBRANCH  46  60
BRANCH  47  71
ATOM     71  C   UNL A   1      48.805  26.686  26.234  1.00  0.00     0.064 A 
ATOM     72  C   UNL A   1      49.762  26.074  27.056  1.00  0.00     0.173 A 
ATOM     73  C   UNL A   1      49.181  26.998  24.919  1.00  0.00     0.173 A 
ATOM     74  F   UNL A   1      49.457  25.772  28.327  1.00  0.00    -0.203 F 
ATOM     75  C   UNL A   1      51.050  25.811  26.593  1.00  0.00     0.198 A 
ATOM     76  C   UNL A   1      50.458  26.706  24.447  1.00  0.00     0.198 A 
ATOM     77  F   UNL A   1      48.301  27.576  24.089  1.00  0.00    -0.203 F 
ATOM     78  F   UNL A   1      51.958  25.272  27.416  1.00  0.00    -0.200 F 
ATOM     79  C   UNL A   1      51.395  26.122  25.287  1.00  0.00     0.200 A 
ATOM     80  F   UNL A   1      50.783  26.993  23.179  1.00  0.00    -0.200 F 
ATOM     81  F   UNL A   1      52.632  25.867  24.839  1.00  0.00    -0.200 F 
ENDBRANCH  47  71
BRANCH  59  82
ATOM     82  C   UNL A   1      45.911  32.379  29.023  1.00  0.00     0.064 A 
ATOM     83  C   UNL A   1      45.845  33.441  28.111  1.00  0.00     0.173 A 
ATOM     84  C   UNL A   1      46.473  32.629  30.285  1.00  0.00     0.173 A 
ATOM     85  F   UNL A   1      45.329  33.248  26.887  1.00  0.00    -0.203 F 
ATOM     86  C   UNL A   1      46.346  34.697  28.439  1.00  0.00     0.198 A 
ATOM     87  C   UNL A   1      46.943  33.895  30.622  1.00  0.00     0.198 A 
ATOM     88  F   UNL A   1      46.553  31.649  31.198  1.00  0.00    -0.203 F 
ATOM     89  F   UNL A   1      46.318  35.684  27.533  1.00  0.00    -0.200 F 
ATOM     90  C   UNL A   1      46.886  34.925  29.696  1.00  0.00     0.200 A 
ATOM     91  F   UNL A   1      47.449  34.118  31.843  1.00  0.00    -0.200 F 
ATOM     92  F   UNL A   1      47.359  36.138  30.013  1.00  0.00    -0.200 F 
ENDBRANCH  59  82
ENDBRANCH  33  34
ENDBRANCH  25  28
ENDBRANCH  23  24
ENDBRANCH  22  23
ENDBRANCH  21  22
ENDBRANCH   1  21
TORSDOF 16
ENDMDL
MODEL 3
REMARK VINA RESULT:     -10.9      0.759      2.261
REMARK SMILES CC[C@@](C)(NC(=O)N(C)[C@@H](C)C(C)C)C(=O)NCCCCNC(=O)c1ccc(-c2c3nc(c(-c4c(F)c(F)c(F)c(F)c4F)c4ccc([nH]4)c(-c4c(F)c(F)c(F)c(F)c4F)c4nc(c(-c5c(F)c(F)c(F)c(F)c5F)c5ccc2[nH]5)C=C4)C=C3)cc1
REMARK SMILES IDX 18 1 17 2 15 3 16 4 3 6 4 7 2 8 1 9 5 10 6 11 7 13 8 14 9 15
REMARK SMILES IDX 10 16 11 17 12 18 13 19 14 20 19 21 20 22 21 23 22 24 23 25
REMARK SMILES IDX 24 27 25 28 26 29 87 30 27 31 86 32 28 33 29 34 30 35 80 36
REMARK SMILES IDX 31 37 85 38 79 39 81 40 32 41 84 42 78 43 77 44 33 46 65 47
REMARK SMILES IDX 45 48 64 49 46 50 49 51 63 52 82 53 47 54 48 55 62 57 83 58
REMARK SMILES IDX 50 59 34 60 35 61 43 62 36 63 37 64 41 65 44 66 38 67 39 68
REMARK SMILES IDX 42 69 40 70 66 71 67 72 75 73 68 74 69 75 73 76 76 77 70 78
REMARK SMILES IDX 71 79 74 80 72 81 51 82 52 83 60 84 53 85 54 86 58 87 61 88
REMARK SMILES IDX 55 89 56 90 59 91 57 92
REMARK H PARENT 17 5 5 12 22 26 81 45 49 56
REMARK Flexibility Score: inf
ROOT
ATOM      1  C   UNL A   1      32.024  29.853  25.676  1.00  0.00     0.116 C 
ENDROOT
BRANCH   1   2
ATOM      2  N   UNL A   1      33.043  29.672  24.659  1.00  0.00    -0.354 N 
ATOM      3  C   UNL A   1      33.091  28.941  23.506  1.00  0.00     0.245 C 
ATOM      4  O   UNL A   1      34.110  29.114  22.828  1.00  0.00    -0.272 OA
ATOM      5  H   UNL A   1      33.867  30.179  24.834  1.00  0.00     0.163 HD
BRANCH   3   6
ATOM      6  C   UNL A   1      31.919  28.036  23.012  1.00  0.00     0.117 C 
ATOM      7  C   UNL A   1      31.422  27.267  24.272  1.00  0.00     0.045 C 
BRANCH   6   8
ATOM      8  C   UNL A   1      30.667  28.797  22.470  1.00  0.00     0.035 C 
ATOM      9  C   UNL A   1      29.307  28.415  23.050  1.00  0.00     0.007 C 
ENDBRANCH   6   8
BRANCH   6  10
ATOM     10  N   UNL A   1      32.330  27.034  21.980  1.00  0.00    -0.324 N 
ATOM     11  C   UNL A   1      32.796  25.765  21.896  1.00  0.00     0.318 C 
ATOM     12  H   UNL A   1      32.228  27.417  21.079  1.00  0.00     0.166 HD
ATOM     13  O   UNL A   1      33.278  25.480  20.795  1.00  0.00    -0.249 OA
BRANCH  11  14
ATOM     14  N   UNL A   1      32.621  24.816  22.868  1.00  0.00    -0.325 N 
ATOM     15  C   UNL A   1      31.383  24.103  23.149  1.00  0.00     0.149 C 
BRANCH  14  16
ATOM     16  C   UNL A   1      33.755  24.440  23.774  1.00  0.00     0.086 C 
ATOM     17  C   UNL A   1      33.380  24.284  25.266  1.00  0.00     0.031 C 
BRANCH  16  18
ATOM     18  C   UNL A   1      34.573  23.189  23.331  1.00  0.00     0.005 C 
ATOM     19  C   UNL A   1      36.082  23.308  23.543  1.00  0.00     0.009 C 
ATOM     20  C   UNL A   1      34.082  21.938  24.085  1.00  0.00     0.009 C 
ENDBRANCH  16  18
ENDBRANCH  14  16
ENDBRANCH  11  14
ENDBRANCH   6  10
ENDBRANCH   3   6
ENDBRANCH   1   2
BRANCH   1  21
ATOM     21  C   UNL A   1      31.089  31.020  25.417  1.00  0.00     0.023 C 
BRANCH  21  22
ATOM     22  C   UNL A   1      31.038  32.084  26.507  1.00  0.00     0.023 C 
BRANCH  22  23
ATOM     23  C   UNL A   1      32.401  32.595  26.929  1.00  0.00     0.116 C 
BRANCH  23  24
ATOM     24  N   UNL A   1      32.346  33.979  27.380  1.00  0.00    -0.352 N 
ATOM     25  C   UNL A   1      33.044  34.605  28.376  1.00  0.00     0.251 C 
ATOM     26  H   UNL A   1      31.708  34.551  26.894  1.00  0.00     0.163 HD
ATOM     27  O   UNL A   1      32.697  35.724  28.758  1.00  0.00    -0.269 OA
BRANCH  25  28
ATOM     28  C   UNL A   1      34.202  33.939  29.000  1.00  0.00     0.039 A 
ATOM     29  C   UNL A   1      35.487  34.427  28.751  1.00  0.00     0.014 A 
ATOM     30  C   UNL A   1      34.022  32.827  29.825  1.00  0.00     0.014 A 
ATOM     31  C   UNL A   1      36.583  33.831  29.374  1.00  0.00     0.010 A 
ATOM     32  C   UNL A   1      35.095  32.314  30.537  1.00  0.00     0.010 A 
ATOM     33  C   UNL A   1      36.391  32.792  30.299  1.00  0.00    -0.014 A 
BRANCH  33  34
ATOM     34  C   UNL A   1      37.529  32.156  31.005  1.00  0.00     0.031 A 
ATOM     35  C   UNL A   1      38.321  31.078  30.316  1.00  0.00     0.074 A 
ATOM     36  C   UNL A   1      37.793  32.491  32.282  1.00  0.00     0.049 A 
ATOM     37  N   UNL A   1      39.282  30.325  30.787  1.00  0.00    -0.248 NA
ATOM     38  C   UNL A   1      37.957  30.775  28.921  1.00  0.00     0.031 C 
ATOM     39  C   UNL A   1      37.057  33.482  33.069  1.00  0.00     0.029 A 
ATOM     40  N   UNL A   1      38.751  32.026  33.147  1.00  0.00    -0.354 N 
ATOM     41  C   UNL A   1      39.611  29.449  29.761  1.00  0.00     0.074 A 
ATOM     42  C   UNL A   1      38.707  29.717  28.666  1.00  0.00     0.031 C 
ATOM     43  C   UNL A   1      37.610  33.574  34.288  1.00  0.00     0.029 A 
ATOM     44  C   UNL A   1      38.709  32.619  34.384  1.00  0.00     0.049 A 
ATOM     45  H   UNL A   1      39.406  31.332  32.903  1.00  0.00     0.167 HD
ATOM     46  C   UNL A   1      40.600  28.525  29.726  1.00  0.00     0.037 A 
ATOM     47  C   UNL A   1      39.471  32.408  35.474  1.00  0.00     0.037 A 
ATOM     48  C   UNL A   1      41.522  28.300  30.806  1.00  0.00     0.049 A 
ATOM     49  C   UNL A   1      40.569  31.382  35.405  1.00  0.00     0.074 A 
ATOM     50  C   UNL A   1      42.608  27.445  30.848  1.00  0.00     0.029 A 
ATOM     51  N   UNL A   1      41.466  28.940  32.035  1.00  0.00    -0.354 N 
ATOM     52  N   UNL A   1      40.921  30.611  34.404  1.00  0.00    -0.248 NA
ATOM     53  C   UNL A   1      41.381  31.201  36.615  1.00  0.00     0.031 C 
ATOM     54  C   UNL A   1      43.179  27.529  32.122  1.00  0.00     0.029 A 
ATOM     55  C   UNL A   1      42.485  28.481  32.853  1.00  0.00     0.049 A 
ATOM     56  H   UNL A   1      40.801  29.621  32.289  1.00  0.00     0.167 HD
ATOM     57  C   UNL A   1      42.012  29.879  34.851  1.00  0.00     0.074 A 
ATOM     58  C   UNL A   1      42.273  30.309  36.209  1.00  0.00     0.031 C 
ATOM     59  C   UNL A   1      42.733  28.934  34.199  1.00  0.00     0.037 A 
BRANCH  46  60
ATOM     60  C   UNL A   1      40.738  27.696  28.481  1.00  0.00     0.064 A 
ATOM     61  C   UNL A   1      40.064  26.473  28.328  1.00  0.00     0.173 A 
ATOM     62  C   UNL A   1      41.530  28.145  27.413  1.00  0.00     0.173 A 
ATOM     63  F   UNL A   1      39.306  25.991  29.322  1.00  0.00    -0.203 F 
ATOM     64  C   UNL A   1      40.205  25.717  27.166  1.00  0.00     0.198 A 
ATOM     65  C   UNL A   1      41.640  27.403  26.240  1.00  0.00     0.198 A 
ATOM     66  F   UNL A   1      42.192  29.308  27.504  1.00  0.00    -0.203 F 
ATOM     67  F   UNL A   1      39.596  24.528  27.066  1.00  0.00    -0.200 F 
ATOM     68  C   UNL A   1      40.984  26.187  26.120  1.00  0.00     0.200 A 
ATOM     69  F   UNL A   1      42.383  27.865  25.225  1.00  0.00    -0.200 F 
ATOM     70  F   UNL A   1      41.111  25.463  25.000  1.00  0.00    -0.200 F 
ENDBRANCH  46  60
BRANCH  47  71
ATOM     71  C   UNL A   1      39.244  33.204  36.708  1.00  0.00     0.064 A 
ATOM     72  C   UNL A   1      39.862  34.451  36.882  1.00  0.00     0.173 A 
ATOM     73  C   UNL A   1      38.416  32.740  37.741  1.00  0.00     0.173 A 
ATOM     74  F   UNL A   1      40.676  34.932  35.931  1.00  0.00    -0.203 F 
ATOM     75  C   UNL A   1      39.682  35.190  38.050  1.00  0.00     0.198 A 
ATOM     76  C   UNL A   1      38.212  33.493  38.895  1.00  0.00     0.198 A 
ATOM     77  F   UNL A   1      37.795  31.557  37.623  1.00  0.00    -0.203 F 
ATOM     78  F   UNL A   1      40.325  36.353  38.208  1.00  0.00    -0.200 F 
ATOM     79  C   UNL A   1      38.853  34.713  39.053  1.00  0.00     0.200 A 
ATOM     80  F   UNL A   1      37.397  33.036  39.856  1.00  0.00    -0.200 F 
ATOM     81  F   UNL A   1      38.678  35.423  40.175  1.00  0.00    -0.200 F 
ENDBRANCH  47  71
BRANCH  59  82
ATOM     82  C   UNL A   1      43.898  28.333  34.929  1.00  0.00     0.064 A 
ATOM     83  C   UNL A   1      43.774  27.151  35.673  1.00  0.00     0.173 A 
ATOM     84  C   UNL A   1      45.167  28.927  34.845  1.00  0.00     0.173 A 
ATOM     85  F   UNL A   1      42.579  26.553  35.794  1.00  0.00    -0.203 F 
ATOM     86  C   UNL A   1      44.871  26.602  36.330  1.00  0.00     0.198 A 
ATOM     87  C   UNL A   1      46.268  28.357  35.475  1.00  0.00     0.198 A 
ATOM     88  F   UNL A   1      45.341  30.055  34.139  1.00  0.00    -0.203 F 
ATOM     89  F   UNL A   1      44.718  25.500  37.077  1.00  0.00    -0.200 F 
ATOM     90  C   UNL A   1      46.118  27.200  36.224  1.00  0.00     0.200 A 
ATOM     91  F   UNL A   1      47.476  28.927  35.358  1.00  0.00    -0.200 F 
ATOM     92  F   UNL A   1      47.175  26.663  36.849  1.00  0.00    -0.200 F 
ENDBRANCH  59  82
ENDBRANCH  33  34
ENDBRANCH  25  28
ENDBRANCH  23  24
ENDBRANCH  22  23
ENDBRANCH  21  22
ENDBRANCH   1  21
TORSDOF 16
ENDMDL
