MODEL 1
REMARK VINA RESULT:     -12.5      0.000      0.000
REMARK SMILES COc1ncccc1C[C@H](C(=O)NCCCCNC(=O)c1ccc(-c2c3nc(c(-c4c(F)c(F)c(F)c(F)c4F)c4ccc([nH]4)c(-c4c(F)c(F)c(F)c(F)c4F)c4nc(c(-c5c(F)c(F)c(F)c(F)c5F)c5ccc2[nH]5)C=C4)C=C3)cc1)c1ccc(F)cc1
REMARK SMILES IDX 15 1 14 2 13 3 11 4 12 5 10 7 9 8 8 9 3 10 4 11 5 12 7 13
REMARK SMILES IDX 6 14 2 15 1 16 84 17 85 18 90 19 86 20 89 21 87 22 88 23
REMARK SMILES IDX 16 24 17 25 18 26 19 27 20 29 21 30 22 31 83 32 23 33 82 34
REMARK SMILES IDX 24 35 25 36 26 37 76 38 27 39 81 40 75 41 77 42 28 43 80 44
REMARK SMILES IDX 74 45 73 46 29 48 61 49 41 50 60 51 42 52 45 53 59 54 78 55
REMARK SMILES IDX 43 56 44 57 58 59 79 60 46 61 30 62 31 63 39 64 32 65 33 66
REMARK SMILES IDX 37 67 40 68 34 69 35 70 38 71 36 72 62 73 63 74 71 75 64 76
REMARK SMILES IDX 65 77 69 78 72 79 66 80 67 81 70 82 68 83 47 84 48 85 56 86
REMARK SMILES IDX 49 87 50 88 54 89 57 90 51 91 52 92 55 93 53 94
REMARK H PARENT 13 6 18 28 77 47 45 58
REMARK Flexibility Score: inf
ROOT
ATOM      1  C   UNL A   1      32.085  30.349  26.931  1.00  0.00     0.023 C 
ENDROOT
BRANCH   1   2
ATOM      2  C   UNL A   1      33.519  29.893  26.640  1.00  0.00     0.116 C 
BRANCH   2   3
ATOM      3  N   UNL A   1      33.532  28.462  26.418  1.00  0.00    -0.356 N 
ATOM      4  C   UNL A   1      33.517  27.954  25.135  1.00  0.00     0.227 C 
ATOM      5  O   UNL A   1      34.155  28.525  24.251  1.00  0.00    -0.274 OA
ATOM      6  H   UNL A   1      33.551  27.847  27.187  1.00  0.00     0.163 HD
BRANCH   4   7
ATOM      7  C   UNL A   1      32.663  26.664  24.909  1.00  0.00     0.113 C 
BRANCH   7   8
ATOM      8  C   UNL A   1      32.605  25.769  26.190  1.00  0.00     0.059 C 
BRANCH   8   9
ATOM      9  C   UNL A   1      33.135  24.338  26.221  1.00  0.00     0.015 A 
ATOM     10  C   UNL A   1      32.521  23.228  26.814  1.00  0.00     0.216 A 
ATOM     11  N   UNL A   1      33.029  21.975  26.796  1.00  0.00    -0.222 NA
ATOM     12  C   UNL A   1      34.175  21.784  26.117  1.00  0.00     0.115 A 
ATOM     13  C   UNL A   1      34.344  24.088  25.551  1.00  0.00     0.011 A 
ATOM     14  C   UNL A   1      34.865  22.800  25.484  1.00  0.00     0.021 A 
BRANCH  10  15
ATOM     15  O   UNL A   1      31.362  23.418  27.515  1.00  0.00    -0.481 OA
ATOM     16  C   UNL A   1      30.177  23.024  26.839  1.00  0.00     0.280 C 
ENDBRANCH  10  15
ENDBRANCH   8   9
ENDBRANCH   7   8
BRANCH   7  17
ATOM     17  C   UNL A   1      31.278  26.945  24.273  1.00  0.00    -0.035 A 
ATOM     18  C   UNL A   1      30.210  26.026  24.331  1.00  0.00     0.007 A 
ATOM     19  C   UNL A   1      31.018  28.185  23.661  1.00  0.00     0.007 A 
ATOM     20  C   UNL A   1      28.911  26.393  23.967  1.00  0.00     0.039 A 
ATOM     21  C   UNL A   1      29.723  28.550  23.282  1.00  0.00     0.039 A 
ATOM     22  C   UNL A   1      28.676  27.663  23.469  1.00  0.00     0.123 A 
ATOM     23  F   UNL A   1      27.425  28.033  23.167  1.00  0.00    -0.207 F 
ENDBRANCH   7  17
ENDBRANCH   4   7
ENDBRANCH   2   3
ENDBRANCH   1   2
BRANCH   1  24
ATOM     24  C   UNL A   1      31.867  31.846  26.779  1.00  0.00     0.023 C 
BRANCH  24  25
ATOM     25  C   UNL A   1      32.912  32.725  27.452  1.00  0.00     0.116 C 
BRANCH  25  26
ATOM     26  N   UNL A   1      32.468  34.087  27.723  1.00  0.00    -0.352 N 
ATOM     27  C   UNL A   1      32.997  34.993  28.625  1.00  0.00     0.251 C 
ATOM     28  H   UNL A   1      31.694  34.400  27.199  1.00  0.00     0.163 HD
ATOM     29  O   UNL A   1      32.484  36.083  28.816  1.00  0.00    -0.269 OA
BRANCH  27  30
ATOM     30  C   UNL A   1      34.185  34.587  29.415  1.00  0.00     0.039 A 
ATOM     31  C   UNL A   1      33.998  34.038  30.685  1.00  0.00     0.014 A 
ATOM     32  C   UNL A   1      35.460  34.639  28.848  1.00  0.00     0.014 A 
ATOM     33  C   UNL A   1      35.075  33.430  31.338  1.00  0.00     0.010 A 
ATOM     34  C   UNL A   1      36.507  33.952  29.456  1.00  0.00     0.010 A 
ATOM     35  C   UNL A   1      36.324  33.324  30.700  1.00  0.00    -0.014 A 
BRANCH  35  36
ATOM     36  C   UNL A   1      37.437  32.538  31.295  1.00  0.00     0.031 A 
ATOM     37  C   UNL A   1      37.948  32.870  32.669  1.00  0.00     0.074 A 
ATOM     38  C   UNL A   1      38.052  31.584  30.567  1.00  0.00     0.049 A 
ATOM     39  N   UNL A   1      38.958  32.357  33.327  1.00  0.00    -0.248 NA
ATOM     40  C   UNL A   1      37.253  33.951  33.384  1.00  0.00     0.031 C 
ATOM     41  C   UNL A   1      37.703  31.206  29.197  1.00  0.00     0.029 A 
ATOM     42  N   UNL A   1      39.109  30.762  30.876  1.00  0.00    -0.354 N 
ATOM     43  C   UNL A   1      39.034  33.068  34.516  1.00  0.00     0.074 A 
ATOM     44  C   UNL A   1      38.008  34.089  34.463  1.00  0.00     0.031 C 
ATOM     45  C   UNL A   1      38.503  30.204  28.798  1.00  0.00     0.029 A 
ATOM     46  C   UNL A   1      39.446  29.892  29.868  1.00  0.00     0.049 A 
ATOM     47  H   UNL A   1      39.582  30.795  31.740  1.00  0.00     0.167 HD
ATOM     48  C   UNL A   1      39.861  32.873  35.571  1.00  0.00     0.037 A 
ATOM     49  C   UNL A   1      40.404  28.946  29.813  1.00  0.00     0.037 A 
ATOM     50  C   UNL A   1      40.857  31.837  35.640  1.00  0.00     0.049 A 
ATOM     51  C   UNL A   1      41.303  28.737  31.002  1.00  0.00     0.074 A 
ATOM     52  C   UNL A   1      41.692  31.509  36.692  1.00  0.00     0.029 A 
ATOM     53  N   UNL A   1      41.152  30.959  34.606  1.00  0.00    -0.354 N 
ATOM     54  N   UNL A   1      41.313  29.364  32.152  1.00  0.00    -0.248 NA
ATOM     55  C   UNL A   1      42.322  27.684  30.883  1.00  0.00     0.031 C 
ATOM     56  C   UNL A   1      42.520  30.457  36.283  1.00  0.00     0.029 A 
ATOM     57  C   UNL A   1      42.170  30.101  34.989  1.00  0.00     0.049 A 
ATOM     58  H   UNL A   1      40.703  30.948  33.729  1.00  0.00     0.167 HD
ATOM     59  C   UNL A   1      42.316  28.766  32.905  1.00  0.00     0.074 A 
ATOM     60  C   UNL A   1      42.886  27.719  32.082  1.00  0.00     0.031 C 
ATOM     61  C   UNL A   1      42.725  29.059  34.163  1.00  0.00     0.037 A 
BRANCH  48  62
ATOM     62  C   UNL A   1      39.712  33.808  36.737  1.00  0.00     0.064 A 
ATOM     63  C   UNL A   1      38.907  33.484  37.841  1.00  0.00     0.173 A 
ATOM     64  C   UNL A   1      40.374  35.045  36.750  1.00  0.00     0.173 A 
ATOM     65  F   UNL A   1      38.244  32.318  37.875  1.00  0.00    -0.203 F 
ATOM     66  C   UNL A   1      38.731  34.384  38.889  1.00  0.00     0.198 A 
ATOM     67  C   UNL A   1      40.222  35.927  37.817  1.00  0.00     0.198 A 
ATOM     68  F   UNL A   1      41.163  35.401  35.726  1.00  0.00    -0.203 F 
ATOM     69  F   UNL A   1      37.901  34.080  39.897  1.00  0.00    -0.200 F 
ATOM     70  C   UNL A   1      39.391  35.602  38.877  1.00  0.00     0.200 A 
ATOM     71  F   UNL A   1      40.871  37.100  37.811  1.00  0.00    -0.200 F 
ATOM     72  F   UNL A   1      39.216  36.469  39.885  1.00  0.00    -0.200 F 
ENDBRANCH  48  62
BRANCH  49  73
ATOM     73  C   UNL A   1      40.526  28.086  28.608  1.00  0.00     0.064 A 
ATOM     74  C   UNL A   1      39.867  26.850  28.546  1.00  0.00     0.173 A 
ATOM     75  C   UNL A   1      41.283  28.479  27.495  1.00  0.00     0.173 A 
ATOM     76  F   UNL A   1      39.149  26.422  29.595  1.00  0.00    -0.203 F 
ATOM     77  C   UNL A   1      39.971  26.033  27.423  1.00  0.00     0.198 A 
ATOM     78  C   UNL A   1      41.368  27.672  26.363  1.00  0.00     0.198 A 
ATOM     79  F   UNL A   1      41.929  29.654  27.504  1.00  0.00    -0.203 F 
ATOM     80  F   UNL A   1      39.359  24.842  27.405  1.00  0.00    -0.200 F 
ATOM     81  C   UNL A   1      40.716  26.448  26.329  1.00  0.00     0.200 A 
ATOM     82  F   UNL A   1      42.078  28.080  25.302  1.00  0.00    -0.200 F 
ATOM     83  F   UNL A   1      40.809  25.666  25.244  1.00  0.00    -0.200 F 
ENDBRANCH  49  73
BRANCH  61  84
ATOM     84  C   UNL A   1      43.821  28.215  34.745  1.00  0.00     0.064 A 
ATOM     85  C   UNL A   1      45.167  28.598  34.663  1.00  0.00     0.173 A 
ATOM     86  C   UNL A   1      43.514  27.030  35.433  1.00  0.00     0.173 A 
ATOM     87  F   UNL A   1      45.512  29.713  34.002  1.00  0.00    -0.203 F 
ATOM     88  C   UNL A   1      46.169  27.815  35.230  1.00  0.00     0.198 A 
ATOM     89  C   UNL A   1      44.516  26.265  36.022  1.00  0.00     0.198 A 
ATOM     90  F   UNL A   1      42.241  26.622  35.543  1.00  0.00    -0.203 F 
ATOM     91  F   UNL A   1      47.452  28.178  35.103  1.00  0.00    -0.200 F 
ATOM     92  C   UNL A   1      45.843  26.654  35.916  1.00  0.00     0.200 A 
ATOM     93  F   UNL A   1      44.197  25.149  36.694  1.00  0.00    -0.200 F 
ATOM     94  F   UNL A   1      46.808  25.907  36.469  1.00  0.00    -0.200 F 
ENDBRANCH  61  84
ENDBRANCH  35  36
ENDBRANCH  27  30
ENDBRANCH  25  26
ENDBRANCH  24  25
ENDBRANCH   1  24
TORSDOF 15
ENDMDL
MODEL 2
REMARK VINA RESULT:     -12.5      1.148      2.042
REMARK SMILES COc1ncccc1C[C@H](C(=O)NCCCCNC(=O)c1ccc(-c2c3nc(c(-c4c(F)c(F)c(F)c(F)c4F)c4ccc([nH]4)c(-c4c(F)c(F)c(F)c(F)c4F)c4nc(c(-c5c(F)c(F)c(F)c(F)c5F)c5ccc2[nH]5)C=C4)C=C3)cc1)c1ccc(F)cc1
REMARK SMILES IDX 15 1 14 2 13 3 11 4 12 5 10 7 9 8 8 9 3 10 4 11 5 12 7 13
REMARK SMILES IDX 6 14 2 15 1 16 84 17 85 18 90 19 86 20 89 21 87 22 88 23
REMARK SMILES IDX 16 24 17 25 18 26 19 27 20 29 21 30 22 31 83 32 23 33 82 34
REMARK SMILES IDX 24 35 25 36 26 37 76 38 27 39 81 40 75 41 77 42 28 43 80 44
REMARK SMILES IDX 74 45 73 46 29 48 61 49 41 50 60 51 42 52 45 53 59 54 78 55
REMARK SMILES IDX 43 56 44 57 58 59 79 60 46 61 30 62 31 63 39 64 32 65 33 66
REMARK SMILES IDX 37 67 40 68 34 69 35 70 38 71 36 72 62 73 63 74 71 75 64 76
REMARK SMILES IDX 65 77 69 78 72 79 66 80 67 81 70 82 68 83 47 84 48 85 56 86
REMARK SMILES IDX 49 87 50 88 54 89 57 90 51 91 52 92 55 93 53 94
REMARK H PARENT 13 6 18 28 77 47 45 58
REMARK Flexibility Score: inf
ROOT
ATOM      1  C   UNL A   1      32.242  30.459  26.307  1.00  0.00     0.023 C 
ENDROOT
BRANCH   1   2
ATOM      2  C   UNL A   1      32.233  29.372  27.386  1.00  0.00     0.116 C 
BRANCH   2   3
ATOM      3  N   UNL A   1      32.317  28.070  26.757  1.00  0.00    -0.356 N 
ATOM      4  C   UNL A   1      33.448  27.706  26.054  1.00  0.00     0.227 C 
ATOM      5  O   UNL A   1      34.555  28.048  26.469  1.00  0.00    -0.274 OA
ATOM      6  H   UNL A   1      31.564  27.440  26.831  1.00  0.00     0.163 HD
BRANCH   4   7
ATOM      7  C   UNL A   1      33.217  26.872  24.752  1.00  0.00     0.113 C 
BRANCH   7   8
ATOM      8  C   UNL A   1      33.314  25.334  25.017  1.00  0.00     0.059 C 
BRANCH   8   9
ATOM      9  C   UNL A   1      34.533  24.504  24.623  1.00  0.00     0.015 A 
ATOM     10  C   UNL A   1      34.806  23.959  23.363  1.00  0.00     0.216 A 
ATOM     11  N   UNL A   1      35.914  23.245  23.063  1.00  0.00    -0.222 NA
ATOM     12  C   UNL A   1      36.833  23.098  24.036  1.00  0.00     0.115 A 
ATOM     13  C   UNL A   1      35.512  24.297  25.609  1.00  0.00     0.011 A 
ATOM     14  C   UNL A   1      36.680  23.600  25.313  1.00  0.00     0.021 A 
BRANCH  10  15
ATOM     15  O   UNL A   1      33.869  24.095  22.375  1.00  0.00    -0.481 OA
ATOM     16  C   UNL A   1      32.961  23.010  22.253  1.00  0.00     0.280 C 
ENDBRANCH  10  15
ENDBRANCH   8   9
ENDBRANCH   7   8
BRANCH   7  17
ATOM     17  C   UNL A   1      31.950  27.296  23.965  1.00  0.00    -0.035 A 
ATOM     18  C   UNL A   1      30.735  26.587  24.034  1.00  0.00     0.007 A 
ATOM     19  C   UNL A   1      31.960  28.470  23.188  1.00  0.00     0.007 A 
ATOM     20  C   UNL A   1      29.550  27.116  23.512  1.00  0.00     0.039 A 
ATOM     21  C   UNL A   1      30.780  28.995  22.652  1.00  0.00     0.039 A 
ATOM     22  C   UNL A   1      29.581  28.330  22.849  1.00  0.00     0.123 A 
ATOM     23  F   UNL A   1      28.440  28.862  22.393  1.00  0.00    -0.207 F 
ENDBRANCH   7  17
ENDBRANCH   4   7
ENDBRANCH   2   3
ENDBRANCH   1   2
BRANCH   1  24
ATOM     24  C   UNL A   1      31.750  31.815  26.788  1.00  0.00     0.023 C 
BRANCH  24  25
ATOM     25  C   UNL A   1      32.811  32.698  27.433  1.00  0.00     0.116 C 
BRANCH  25  26
ATOM     26  N   UNL A   1      32.385  34.071  27.671  1.00  0.00    -0.352 N 
ATOM     27  C   UNL A   1      32.931  34.993  28.547  1.00  0.00     0.251 C 
ATOM     28  H   UNL A   1      31.612  34.380  27.145  1.00  0.00     0.163 HD
ATOM     29  O   UNL A   1      32.433  36.094  28.713  1.00  0.00    -0.269 OA
BRANCH  27  30
ATOM     30  C   UNL A   1      34.119  34.592  29.339  1.00  0.00     0.039 A 
ATOM     31  C   UNL A   1      33.932  34.052  30.614  1.00  0.00     0.014 A 
ATOM     32  C   UNL A   1      35.394  34.641  28.773  1.00  0.00     0.014 A 
ATOM     33  C   UNL A   1      35.009  33.449  31.270  1.00  0.00     0.010 A 
ATOM     34  C   UNL A   1      36.441  33.957  29.385  1.00  0.00     0.010 A 
ATOM     35  C   UNL A   1      36.257  33.339  30.633  1.00  0.00    -0.014 A 
BRANCH  35  36
ATOM     36  C   UNL A   1      37.371  32.557  31.233  1.00  0.00     0.031 A 
ATOM     37  C   UNL A   1      37.882  32.898  32.605  1.00  0.00     0.074 A 
ATOM     38  C   UNL A   1      37.987  31.598  30.512  1.00  0.00     0.049 A 
ATOM     39  N   UNL A   1      38.892  32.388  33.267  1.00  0.00    -0.248 NA
ATOM     40  C   UNL A   1      37.186  33.983  33.313  1.00  0.00     0.031 C 
ATOM     41  C   UNL A   1      37.638  31.211  29.144  1.00  0.00     0.029 A 
ATOM     42  N   UNL A   1      39.044  30.778  30.826  1.00  0.00    -0.354 N 
ATOM     43  C   UNL A   1      38.967  33.107  34.451  1.00  0.00     0.074 A 
ATOM     44  C   UNL A   1      37.941  34.128  34.391  1.00  0.00     0.031 C 
ATOM     45  C   UNL A   1      38.438  30.207  28.752  1.00  0.00     0.029 A 
ATOM     46  C   UNL A   1      39.381  29.902  29.824  1.00  0.00     0.049 A 
ATOM     47  H   UNL A   1      39.516  30.817  31.690  1.00  0.00     0.167 HD
ATOM     48  C   UNL A   1      39.794  32.920  35.508  1.00  0.00     0.037 A 
ATOM     49  C   UNL A   1      40.339  28.956  29.775  1.00  0.00     0.037 A 
ATOM     50  C   UNL A   1      40.790  31.884  35.583  1.00  0.00     0.049 A 
ATOM     51  C   UNL A   1      41.238  28.755  30.965  1.00  0.00     0.074 A 
ATOM     52  C   UNL A   1      41.625  31.562  36.638  1.00  0.00     0.029 A 
ATOM     53  N   UNL A   1      41.085  30.999  34.555  1.00  0.00    -0.354 N 
ATOM     54  N   UNL A   1      41.248  29.388  32.112  1.00  0.00    -0.248 NA
ATOM     55  C   UNL A   1      42.257  27.701  30.853  1.00  0.00     0.031 C 
ATOM     56  C   UNL A   1      42.453  30.508  36.235  1.00  0.00     0.029 A 
ATOM     57  C   UNL A   1      42.104  30.144  34.944  1.00  0.00     0.049 A 
ATOM     58  H   UNL A   1      40.637  30.982  33.678  1.00  0.00     0.167 HD
ATOM     59  C   UNL A   1      42.250  28.795  32.868  1.00  0.00     0.074 A 
ATOM     60  C   UNL A   1      42.821  27.743  32.053  1.00  0.00     0.031 C 
ATOM     61  C   UNL A   1      42.659  29.096  34.125  1.00  0.00     0.037 A 
BRANCH  48  62
ATOM     62  C   UNL A   1      39.645  33.861  36.668  1.00  0.00     0.064 A 
ATOM     63  C   UNL A   1      40.307  35.099  36.700  1.00  0.00     0.173 A 
ATOM     64  C   UNL A   1      38.839  33.521  37.764  1.00  0.00     0.173 A 
ATOM     65  F   UNL A   1      41.099  35.468  35.682  1.00  0.00    -0.203 F 
ATOM     66  C   UNL A   1      40.207  35.937  37.808  1.00  0.00     0.198 A 
ATOM     67  C   UNL A   1      38.714  34.378  38.855  1.00  0.00     0.198 A 
ATOM     68  F   UNL A   1      38.176  32.356  37.782  1.00  0.00    -0.203 F 
ATOM     69  F   UNL A   1      40.906  37.080  37.845  1.00  0.00    -0.200 F 
ATOM     70  C   UNL A   1      39.408  35.578  38.882  1.00  0.00     0.200 A 
ATOM     71  F   UNL A   1      37.931  34.037  39.888  1.00  0.00    -0.200 F 
ATOM     72  F   UNL A   1      39.318  36.384  39.949  1.00  0.00    -0.200 F 
ENDBRANCH  48  62
BRANCH  49  73
ATOM     73  C   UNL A   1      40.462  28.088  28.576  1.00  0.00     0.064 A 
ATOM     74  C   UNL A   1      41.253  28.485  27.488  1.00  0.00     0.173 A 
ATOM     75  C   UNL A   1      39.810  26.850  28.492  1.00  0.00     0.173 A 
ATOM     76  F   UNL A   1      41.878  29.671  27.513  1.00  0.00    -0.203 F 
ATOM     77  C   UNL A   1      41.379  27.682  26.357  1.00  0.00     0.198 A 
ATOM     78  C   UNL A   1      39.955  26.036  27.370  1.00  0.00     0.198 A 
ATOM     79  F   UNL A   1      39.045  26.424  29.507  1.00  0.00    -0.203 F 
ATOM     80  F   UNL A   1      42.113  28.100  25.318  1.00  0.00    -0.200 F 
ATOM     81  C   UNL A   1      40.735  26.454  26.302  1.00  0.00     0.200 A 
ATOM     82  F   UNL A   1      39.341  24.846  27.323  1.00  0.00    -0.200 F 
ATOM     83  F   UNL A   1      40.862  25.678  25.217  1.00  0.00    -0.200 F 
ENDBRANCH  49  73
BRANCH  61  84
ATOM     84  C   UNL A   1      43.755  28.256  34.712  1.00  0.00     0.064 A 
ATOM     85  C   UNL A   1      45.097  28.658  34.661  1.00  0.00     0.173 A 
ATOM     86  C   UNL A   1      43.451  27.057  35.375  1.00  0.00     0.173 A 
ATOM     87  F   UNL A   1      45.440  29.787  34.024  1.00  0.00    -0.203 F 
ATOM     88  C   UNL A   1      46.099  27.877  35.233  1.00  0.00     0.198 A 
ATOM     89  C   UNL A   1      44.451  26.294  35.970  1.00  0.00     0.198 A 
ATOM     90  F   UNL A   1      42.181  26.632  35.456  1.00  0.00    -0.203 F 
ATOM     91  F   UNL A   1      47.380  28.259  35.135  1.00  0.00    -0.200 F 
ATOM     92  C   UNL A   1      45.775  26.702  35.893  1.00  0.00     0.200 A 
ATOM     93  F   UNL A   1      44.135  25.164  36.617  1.00  0.00    -0.200 F 
ATOM     94  F   UNL A   1      46.739  25.957  36.451  1.00  0.00    -0.200 F 
ENDBRANCH  61  84
ENDBRANCH  35  36
ENDBRANCH  27  30
ENDBRANCH  25  26
ENDBRANCH  24  25
ENDBRANCH   1  24
TORSDOF 15
ENDMDL
MODEL 3
REMARK VINA RESULT:     -12.5      1.375      2.228
REMARK SMILES COc1ncccc1C[C@H](C(=O)NCCCCNC(=O)c1ccc(-c2c3nc(c(-c4c(F)c(F)c(F)c(F)c4F)c4ccc([nH]4)c(-c4c(F)c(F)c(F)c(F)c4F)c4nc(c(-c5c(F)c(F)c(F)c(F)c5F)c5ccc2[nH]5)C=C4)C=C3)cc1)c1ccc(F)cc1
REMARK SMILES IDX 15 1 14 2 13 3 11 4 12 5 10 7 9 8 8 9 3 10 4 11 5 12 7 13
REMARK SMILES IDX 6 14 2 15 1 16 84 17 85 18 90 19 86 20 89 21 87 22 88 23
REMARK SMILES IDX 16 24 17 25 18 26 19 27 20 29 21 30 22 31 83 32 23 33 82 34
REMARK SMILES IDX 24 35 25 36 26 37 76 38 27 39 81 40 75 41 77 42 28 43 80 44
REMARK SMILES IDX 74 45 73 46 29 48 61 49 41 50 60 51 42 52 45 53 59 54 78 55
REMARK SMILES IDX 43 56 44 57 58 59 79 60 46 61 30 62 31 63 39 64 32 65 33 66
REMARK SMILES IDX 37 67 40 68 34 69 35 70 38 71 36 72 62 73 63 74 71 75 64 76
REMARK SMILES IDX 65 77 69 78 72 79 66 80 67 81 70 82 68 83 47 84 48 85 56 86
REMARK SMILES IDX 49 87 50 88 54 89 57 90 51 91 52 92 55 93 53 94
REMARK H PARENT 13 6 18 28 77 47 45 58
REMARK Flexibility Score: inf
ROOT
ATOM      1  C   UNL A   1      32.176  30.172  26.936  1.00  0.00     0.023 C 
ENDROOT
BRANCH   1   2
ATOM      2  C   UNL A   1      33.120  29.699  25.825  1.00  0.00     0.116 C 
BRANCH   2   3
ATOM      3  N   UNL A   1      32.437  28.725  24.998  1.00  0.00    -0.356 N 
ATOM      4  C   UNL A   1      32.563  28.767  23.624  1.00  0.00     0.227 C 
ATOM      5  O   UNL A   1      33.648  29.060  23.124  1.00  0.00    -0.274 OA
ATOM      6  H   UNL A   1      31.880  28.030  25.417  1.00  0.00     0.163 HD
BRANCH   4   7
ATOM      7  C   UNL A   1      31.278  28.431  22.799  1.00  0.00     0.113 C 
BRANCH   7   8
ATOM      8  C   UNL A   1      31.001  26.892  22.747  1.00  0.00     0.059 C 
BRANCH   8   9
ATOM      9  C   UNL A   1      32.082  25.850  23.020  1.00  0.00     0.015 A 
ATOM     10  C   UNL A   1      33.161  25.522  22.190  1.00  0.00     0.216 A 
ATOM     11  N   UNL A   1      34.104  24.600  22.492  1.00  0.00    -0.222 NA
ATOM     12  C   UNL A   1      34.016  24.000  23.693  1.00  0.00     0.115 A 
ATOM     13  C   UNL A   1      32.023  25.174  24.250  1.00  0.00     0.011 A 
ATOM     14  C   UNL A   1      33.004  24.251  24.599  1.00  0.00     0.021 A 
BRANCH  10  15
ATOM     15  O   UNL A   1      33.248  26.119  20.963  1.00  0.00    -0.481 OA
ATOM     16  C   UNL A   1      32.571  25.441  19.913  1.00  0.00     0.280 C 
ENDBRANCH  10  15
ENDBRANCH   8   9
ENDBRANCH   7   8
BRANCH   7  17
ATOM     17  C   UNL A   1      30.045  29.278  23.206  1.00  0.00    -0.035 A 
ATOM     18  C   UNL A   1      30.156  30.544  23.816  1.00  0.00     0.007 A 
ATOM     19  C   UNL A   1      28.746  28.825  22.912  1.00  0.00     0.007 A 
ATOM     20  C   UNL A   1      29.050  31.387  23.954  1.00  0.00     0.039 A 
ATOM     21  C   UNL A   1      27.635  29.659  23.062  1.00  0.00     0.039 A 
ATOM     22  C   UNL A   1      27.802  30.945  23.550  1.00  0.00     0.123 A 
ATOM     23  F   UNL A   1      26.750  31.769  23.635  1.00  0.00    -0.207 F 
ENDBRANCH   7  17
ENDBRANCH   4   7
ENDBRANCH   2   3
ENDBRANCH   1   2
BRANCH   1  24
ATOM     24  C   UNL A   1      31.845  31.655  26.879  1.00  0.00     0.023 C 
BRANCH  24  25
ATOM     25  C   UNL A   1      32.928  32.582  27.414  1.00  0.00     0.116 C 
BRANCH  25  26
ATOM     26  N   UNL A   1      32.479  33.944  27.672  1.00  0.00    -0.352 N 
ATOM     27  C   UNL A   1      32.998  34.856  28.575  1.00  0.00     0.251 C 
ATOM     28  H   UNL A   1      31.711  34.253  27.138  1.00  0.00     0.163 HD
ATOM     29  O   UNL A   1      32.482  35.947  28.754  1.00  0.00    -0.269 OA
BRANCH  27  30
ATOM     30  C   UNL A   1      34.177  34.456  29.380  1.00  0.00     0.039 A 
ATOM     31  C   UNL A   1      33.975  33.827  30.611  1.00  0.00     0.014 A 
ATOM     32  C   UNL A   1      35.465  34.594  28.861  1.00  0.00     0.014 A 
ATOM     33  C   UNL A   1      35.057  33.229  31.265  1.00  0.00     0.010 A 
ATOM     34  C   UNL A   1      36.522  33.917  29.464  1.00  0.00     0.010 A 
ATOM     35  C   UNL A   1      36.328  33.213  30.664  1.00  0.00    -0.014 A 
BRANCH  35  36
ATOM     36  C   UNL A   1      37.455  32.441  31.251  1.00  0.00     0.031 A 
ATOM     37  C   UNL A   1      37.967  32.776  32.624  1.00  0.00     0.074 A 
ATOM     38  C   UNL A   1      38.082  31.499  30.517  1.00  0.00     0.049 A 
ATOM     39  N   UNL A   1      38.988  32.275  33.276  1.00  0.00    -0.248 NA
ATOM     40  C   UNL A   1      37.259  33.843  33.347  1.00  0.00     0.031 C 
ATOM     41  C   UNL A   1      37.733  31.121  29.147  1.00  0.00     0.029 A 
ATOM     42  N   UNL A   1      39.153  30.693  30.818  1.00  0.00    -0.354 N 
ATOM     43  C   UNL A   1      39.058  32.983  34.468  1.00  0.00     0.074 A 
ATOM     44  C   UNL A   1      38.017  33.988  34.423  1.00  0.00     0.031 C 
ATOM     45  C   UNL A   1      38.547  30.134  28.740  1.00  0.00     0.029 A 
ATOM     46  C   UNL A   1      39.499  29.832  29.805  1.00  0.00     0.049 A 
ATOM     47  H   UNL A   1      39.629  30.729  31.680  1.00  0.00     0.167 HD
ATOM     48  C   UNL A   1      39.892  32.797  35.519  1.00  0.00     0.037 A 
ATOM     49  C   UNL A   1      40.471  28.901  29.742  1.00  0.00     0.037 A 
ATOM     50  C   UNL A   1      40.904  31.775  35.579  1.00  0.00     0.049 A 
ATOM     51  C   UNL A   1      41.378  28.701  30.926  1.00  0.00     0.074 A 
ATOM     52  C   UNL A   1      41.749  31.455  36.626  1.00  0.00     0.029 A 
ATOM     53  N   UNL A   1      41.208  30.906  34.540  1.00  0.00    -0.354 N 
ATOM     54  N   UNL A   1      41.384  29.323  32.079  1.00  0.00    -0.248 NA
ATOM     55  C   UNL A   1      42.413  27.664  30.799  1.00  0.00     0.031 C 
ATOM     56  C   UNL A   1      42.591  30.418  36.209  1.00  0.00     0.029 A 
ATOM     57  C   UNL A   1      42.241  30.062  34.916  1.00  0.00     0.049 A 
ATOM     58  H   UNL A   1      40.756  30.891  33.665  1.00  0.00     0.167 HD
ATOM     59  C   UNL A   1      42.398  28.737  32.825  1.00  0.00     0.074 A 
ATOM     60  C   UNL A   1      42.981  27.702  31.996  1.00  0.00     0.031 C 
ATOM     61  C   UNL A   1      42.808  29.031  34.083  1.00  0.00     0.037 A 
BRANCH  48  62
ATOM     62  C   UNL A   1      39.734  33.724  36.689  1.00  0.00     0.064 A 
ATOM     63  C   UNL A   1      38.920  33.394  37.784  1.00  0.00     0.173 A 
ATOM     64  C   UNL A   1      40.397  34.960  36.715  1.00  0.00     0.173 A 
ATOM     65  F   UNL A   1      38.256  32.228  37.805  1.00  0.00    -0.203 F 
ATOM     66  C   UNL A   1      38.736  34.287  38.836  1.00  0.00     0.198 A 
ATOM     67  C   UNL A   1      40.236  35.836  37.785  1.00  0.00     0.198 A 
ATOM     68  F   UNL A   1      41.195  35.322  35.700  1.00  0.00    -0.203 F 
ATOM     69  F   UNL A   1      37.897  33.979  39.835  1.00  0.00    -0.200 F 
ATOM     70  C   UNL A   1      39.396  35.506  38.837  1.00  0.00     0.200 A 
ATOM     71  F   UNL A   1      40.886  37.009  37.793  1.00  0.00    -0.200 F 
ATOM     72  F   UNL A   1      39.213  36.366  39.848  1.00  0.00    -0.200 F 
ENDBRANCH  48  62
BRANCH  49  73
ATOM     73  C   UNL A   1      40.601  28.048  28.534  1.00  0.00     0.064 A 
ATOM     74  C   UNL A   1      41.382  28.467  27.447  1.00  0.00     0.173 A 
ATOM     75  C   UNL A   1      39.968  26.801  28.439  1.00  0.00     0.173 A 
ATOM     76  F   UNL A   1      41.989  29.663  27.482  1.00  0.00    -0.203 F 
ATOM     77  C   UNL A   1      41.514  27.678  26.306  1.00  0.00     0.198 A 
ATOM     78  C   UNL A   1      40.119  26.001  27.309  1.00  0.00     0.198 A 
ATOM     79  F   UNL A   1      39.213  26.353  29.453  1.00  0.00    -0.203 F 
ATOM     80  F   UNL A   1      42.238  28.119  25.269  1.00  0.00    -0.200 F 
ATOM     81  C   UNL A   1      40.888  26.442  26.241  1.00  0.00     0.200 A 
ATOM     82  F   UNL A   1      39.523  24.802  27.252  1.00  0.00    -0.200 F 
ATOM     83  F   UNL A   1      41.022  25.679  25.148  1.00  0.00    -0.200 F 
ENDBRANCH  49  73
BRANCH  61  84
ATOM     84  C   UNL A   1      43.919  28.202  34.657  1.00  0.00     0.064 A 
ATOM     85  C   UNL A   1      45.258  28.613  34.584  1.00  0.00     0.173 A 
ATOM     86  C   UNL A   1      43.635  27.003  35.329  1.00  0.00     0.173 A 
ATOM     87  F   UNL A   1      45.582  29.743  33.938  1.00  0.00    -0.203 F 
ATOM     88  C   UNL A   1      46.274  27.843  35.143  1.00  0.00     0.198 A 
ATOM     89  C   UNL A   1      44.650  26.250  35.911  1.00  0.00     0.198 A 
ATOM     90  F   UNL A   1      42.370  26.569  35.430  1.00  0.00    -0.203 F 
ATOM     91  F   UNL A   1      47.550  28.233  35.025  1.00  0.00    -0.200 F 
ATOM     92  C   UNL A   1      45.969  26.667  35.813  1.00  0.00     0.200 A 
ATOM     93  F   UNL A   1      44.352  25.120  36.567  1.00  0.00    -0.200 F 
ATOM     94  F   UNL A   1      46.947  25.932  36.359  1.00  0.00    -0.200 F 
ENDBRANCH  61  84
ENDBRANCH  35  36
ENDBRANCH  27  30
ENDBRANCH  25  26
ENDBRANCH  24  25
ENDBRANCH   1  24
TORSDOF 15
ENDMDL
