MODEL 1
REMARK VINA RESULT:      -8.9      0.000      0.000
REMARK SMILES C[C@H](NS(=O)(=O)c1ccc(-c2cc(-c3ccccc3)c3cc([N+](=O)[O-])ccc3n2)cc1)C(=O)NCCCCNC(=O)c1ccc(-c2c3nc(c(-c4c(F)c(F)c(F)c(F)c4F)c4ccc([nH]4)c(-c4c(F)c(F)c(F)c(F)c4F)c4nc(c(-c5c(F)c(F)c(F)c(F)c5F)c5ccc2[nH]5)C=C4)C=C3)cc1
REMARK SMILES IDX 35 1 34 2 32 3 33 4 2 6 1 7 3 8 4 10 5 11 6 12 7 13 8 14
REMARK SMILES IDX 31 15 9 16 30 17 10 18 11 19 12 20 29 21 13 22 28 23 20 24
REMARK SMILES IDX 27 25 21 26 26 27 22 28 14 29 15 30 19 31 16 32 18 33 17 34
REMARK SMILES IDX 23 35 24 36 25 37 36 38 37 39 38 40 39 41 40 42 41 44 42 45
REMARK SMILES IDX 43 46 104 47 44 48 103 49 45 50 46 51 47 52 97 53 48 54
REMARK SMILES IDX 102 55 96 56 98 57 49 58 101 59 95 60 94 61 50 63 82 64
REMARK SMILES IDX 62 65 81 66 63 67 66 68 80 69 99 70 64 71 65 72 79 74 100 75
REMARK SMILES IDX 67 76 51 77 52 78 60 79 53 80 54 81 58 82 61 83 55 84 56 85
REMARK SMILES IDX 59 86 57 87 83 88 84 89 92 90 85 91 86 92 90 93 93 94 87 95
REMARK SMILES IDX 88 96 91 97 89 98 68 99 69 100 77 101 70 102 71 103 75 104
REMARK SMILES IDX 78 105 72 106 73 107 76 108 74 109
REMARK H PARENT 34 5 3 9 39 43 98 62 66 73
REMARK Flexibility Score: inf
ROOT
ATOM      1  C   UNL A   1      44.086  24.090  24.939  1.00  0.00     0.116 C 
ENDROOT
BRANCH   1   2
ATOM      2  N   UNL A   1      45.481  23.910  25.281  1.00  0.00    -0.355 N 
ATOM      3  C   UNL A   1      46.260  24.551  26.192  1.00  0.00     0.237 C 
ATOM      4  O   UNL A   1      47.483  24.410  26.060  1.00  0.00    -0.273 OA
ATOM      5  H   UNL A   1      45.943  23.209  24.766  1.00  0.00     0.163 HD
BRANCH   3   6
ATOM      6  C   UNL A   1      45.723  25.373  27.371  1.00  0.00     0.155 C 
ATOM      7  C   UNL A   1      45.020  24.597  28.468  1.00  0.00     0.036 C 
BRANCH   6   8
ATOM      8  N   UNL A   1      45.160  26.706  27.074  1.00  0.00    -0.199 NA
ATOM      9  H   UNL A   1      45.135  27.187  27.973  1.00  0.00     0.142 HD
BRANCH   8  10
ATOM     10  S   UNL A   1      45.760  27.835  25.999  1.00  0.00     0.241 S 
ATOM     11  O   UNL A   1      47.179  27.894  26.235  1.00  0.00    -0.207 OA
ATOM     12  O   UNL A   1      45.221  27.521  24.692  1.00  0.00    -0.207 OA
BRANCH  10  13
ATOM     13  C   UNL A   1      45.095  29.417  26.493  1.00  0.00     0.082 A 
ATOM     14  C   UNL A   1      45.901  30.556  26.533  1.00  0.00     0.022 A 
ATOM     15  C   UNL A   1      43.833  29.433  27.088  1.00  0.00     0.022 A 
ATOM     16  C   UNL A   1      45.571  31.600  27.413  1.00  0.00     0.012 A 
ATOM     17  C   UNL A   1      43.469  30.516  27.892  1.00  0.00     0.012 A 
ATOM     18  C   UNL A   1      44.414  31.524  28.210  1.00  0.00     0.000 A 
BRANCH  18  19
ATOM     19  C   UNL A   1      44.470  31.980  29.649  1.00  0.00     0.072 A 
ATOM     20  C   UNL A   1      45.570  32.663  30.163  1.00  0.00     0.038 A 
ATOM     21  N   UNL A   1      43.227  32.426  29.970  1.00  0.00    -0.248 NA
ATOM     22  C   UNL A   1      45.381  34.004  30.517  1.00  0.00    -0.007 A 
ATOM     23  C   UNL A   1      43.087  33.744  29.900  1.00  0.00     0.072 A 
ATOM     24  C   UNL A   1      44.200  34.582  30.024  1.00  0.00     0.015 A 
ATOM     25  C   UNL A   1      41.898  34.258  29.429  1.00  0.00     0.036 A 
ATOM     26  C   UNL A   1      44.182  35.861  29.436  1.00  0.00     0.096 A 
ATOM     27  C   UNL A   1      41.906  35.469  28.742  1.00  0.00     0.088 A 
ATOM     28  C   UNL A   1      43.083  36.214  28.662  1.00  0.00     0.270 A 
BRANCH  22  29
ATOM     29  C   UNL A   1      46.329  34.842  31.275  1.00  0.00    -0.018 A 
ATOM     30  C   UNL A   1      47.526  35.244  30.630  1.00  0.00     0.009 A 
ATOM     31  C   UNL A   1      46.148  35.231  32.603  1.00  0.00     0.009 A 
ATOM     32  C   UNL A   1      48.528  35.945  31.299  1.00  0.00     0.001 A 
ATOM     33  C   UNL A   1      47.149  35.947  33.274  1.00  0.00     0.001 A 
ATOM     34  C   UNL A   1      48.339  36.291  32.628  1.00  0.00     0.000 A 
ENDBRANCH  22  29
BRANCH  28  35
ATOM     35  N   UNL A   1      43.279  37.147  27.542  1.00  0.00     0.062 N 
ATOM     36  O   UNL A   1      42.647  36.935  26.498  1.00  0.00    -0.258 OA
ATOM     37  O   UNL A   1      43.966  38.158  27.772  1.00  0.00    -0.258 OA
ENDBRANCH  28  35
ENDBRANCH  18  19
ENDBRANCH  10  13
ENDBRANCH   8  10
ENDBRANCH   6   8
ENDBRANCH   3   6
ENDBRANCH   1   2
BRANCH   1  38
ATOM     38  C   UNL A   1      43.338  22.753  24.954  1.00  0.00     0.023 C 
BRANCH  38  39
ATOM     39  C   UNL A   1      43.067  22.185  26.350  1.00  0.00     0.023 C 
BRANCH  39  40
ATOM     40  C   UNL A   1      41.942  22.861  27.131  1.00  0.00     0.116 C 
BRANCH  40  41
ATOM     41  N   UNL A   1      40.611  22.650  26.581  1.00  0.00    -0.352 N 
ATOM     42  C   UNL A   1      39.583  23.552  26.449  1.00  0.00     0.251 C 
ATOM     43  H   UNL A   1      40.422  21.738  26.261  1.00  0.00     0.163 HD
ATOM     44  O   UNL A   1      38.549  23.277  25.853  1.00  0.00    -0.269 OA
BRANCH  42  45
ATOM     45  C   UNL A   1      39.664  24.856  27.108  1.00  0.00     0.039 A 
ATOM     46  C   UNL A   1      39.087  24.950  28.379  1.00  0.00     0.014 A 
ATOM     47  C   UNL A   1      40.335  25.933  26.533  1.00  0.00     0.014 A 
ATOM     48  C   UNL A   1      39.283  26.098  29.130  1.00  0.00     0.010 A 
ATOM     49  C   UNL A   1      40.583  27.057  27.307  1.00  0.00     0.010 A 
ATOM     50  C   UNL A   1      40.084  27.126  28.618  1.00  0.00    -0.014 A 
BRANCH  50  51
ATOM     51  C   UNL A   1      40.462  28.264  29.476  1.00  0.00     0.031 A 
ATOM     52  C   UNL A   1      41.798  28.281  30.145  1.00  0.00     0.074 A 
ATOM     53  C   UNL A   1      39.555  29.236  29.691  1.00  0.00     0.049 A 
ATOM     54  N   UNL A   1      42.282  29.148  30.992  1.00  0.00    -0.248 NA
ATOM     55  C   UNL A   1      42.698  27.158  29.842  1.00  0.00     0.031 C 
ATOM     56  C   UNL A   1      38.207  29.275  29.117  1.00  0.00     0.029 A 
ATOM     57  N   UNL A   1      39.626  30.371  30.452  1.00  0.00    -0.354 N 
ATOM     58  C   UNL A   1      43.534  28.667  31.340  1.00  0.00     0.074 A 
ATOM     59  C   UNL A   1      43.721  27.413  30.644  1.00  0.00     0.031 C 
ATOM     60  C   UNL A   1      37.587  30.391  29.531  1.00  0.00     0.029 A 
ATOM     61  C   UNL A   1      38.480  31.125  30.420  1.00  0.00     0.049 A 
ATOM     62  H   UNL A   1      40.423  30.623  30.972  1.00  0.00     0.167 HD
ATOM     63  C   UNL A   1      44.450  29.237  32.158  1.00  0.00     0.037 A 
ATOM     64  C   UNL A   1      38.189  32.279  31.045  1.00  0.00     0.037 A 
ATOM     65  C   UNL A   1      44.255  30.500  32.820  1.00  0.00     0.049 A 
ATOM     66  C   UNL A   1      39.238  32.908  31.917  1.00  0.00     0.074 A 
ATOM     67  C   UNL A   1      45.130  31.192  33.636  1.00  0.00     0.029 A 
ATOM     68  N   UNL A   1      43.097  31.260  32.732  1.00  0.00    -0.354 N 
ATOM     69  N   UNL A   1      40.441  32.472  32.204  1.00  0.00    -0.248 NA
ATOM     70  C   UNL A   1      38.894  34.189  32.545  1.00  0.00     0.031 C 
ATOM     71  C   UNL A   1      44.492  32.363  34.061  1.00  0.00     0.029 A 
ATOM     72  C   UNL A   1      43.232  32.415  33.485  1.00  0.00     0.049 A 
ATOM     73  H   UNL A   1      42.298  31.016  32.211  1.00  0.00     0.167 HD
ATOM     74  C   UNL A   1      41.006  33.431  33.029  1.00  0.00     0.074 A 
ATOM     75  C   UNL A   1      40.019  34.480  33.186  1.00  0.00     0.031 C 
ATOM     76  C   UNL A   1      42.231  33.442  33.612  1.00  0.00     0.037 A 
BRANCH  63  77
ATOM     77  C   UNL A   1      45.731  28.494  32.374  1.00  0.00     0.064 A 
ATOM     78  C   UNL A   1      45.888  27.597  33.442  1.00  0.00     0.173 A 
ATOM     79  C   UNL A   1      46.817  28.679  31.505  1.00  0.00     0.173 A 
ATOM     80  F   UNL A   1      44.886  27.402  34.312  1.00  0.00    -0.203 F 
ATOM     81  C   UNL A   1      47.096  26.935  33.649  1.00  0.00     0.198 A 
ATOM     82  C   UNL A   1      48.014  27.995  31.700  1.00  0.00     0.198 A 
ATOM     83  F   UNL A   1      46.719  29.527  30.471  1.00  0.00    -0.203 F 
ATOM     84  F   UNL A   1      47.239  26.124  34.706  1.00  0.00    -0.200 F 
ATOM     85  C   UNL A   1      48.155  27.130  32.776  1.00  0.00     0.200 A 
ATOM     86  F   UNL A   1      49.036  28.182  30.855  1.00  0.00    -0.200 F 
ATOM     87  F   UNL A   1      49.317  26.495  32.978  1.00  0.00    -0.200 F 
ENDBRANCH  63  77
BRANCH  64  88
ATOM     88  C   UNL A   1      36.868  32.922  30.835  1.00  0.00     0.064 A 
ATOM     89  C   UNL A   1      36.605  33.655  29.669  1.00  0.00     0.173 A 
ATOM     90  C   UNL A   1      35.839  32.804  31.780  1.00  0.00     0.173 A 
ATOM     91  F   UNL A   1      37.564  33.806  28.744  1.00  0.00    -0.203 F 
ATOM     92  C   UNL A   1      35.367  34.260  29.464  1.00  0.00     0.198 A 
ATOM     93  C   UNL A   1      34.594  33.390  31.564  1.00  0.00     0.198 A 
ATOM     94  F   UNL A   1      36.040  32.104  32.907  1.00  0.00    -0.203 F 
ATOM     95  F   UNL A   1      35.153  34.983  28.357  1.00  0.00    -0.200 F 
ATOM     96  C   UNL A   1      34.360  34.123  30.409  1.00  0.00     0.200 A 
ATOM     97  F   UNL A   1      33.621  33.246  32.473  1.00  0.00    -0.200 F 
ATOM     98  F   UNL A   1      33.169  34.701  30.210  1.00  0.00    -0.200 F 
ENDBRANCH  64  88
BRANCH  76  99
ATOM     99  C   UNL A   1      42.571  34.638  34.446  1.00  0.00     0.064 A 
ATOM    100  C   UNL A   1      42.913  35.863  33.859  1.00  0.00     0.173 A 
ATOM    101  C   UNL A   1      42.513  34.565  35.846  1.00  0.00     0.173 A 
ATOM    102  F   UNL A   1      42.999  35.972  32.525  1.00  0.00    -0.203 F 
ATOM    103  C   UNL A   1      43.203  36.974  34.646  1.00  0.00     0.198 A 
ATOM    104  C   UNL A   1      42.780  35.683  36.628  1.00  0.00     0.198 A 
ATOM    105  F   UNL A   1      42.186  33.413  36.450  1.00  0.00    -0.203 F 
ATOM    106  F   UNL A   1      43.563  38.127  34.067  1.00  0.00    -0.200 F 
ATOM    107  C   UNL A   1      43.129  36.885  36.028  1.00  0.00     0.200 A 
ATOM    108  F   UNL A   1      42.701  35.599  37.963  1.00  0.00    -0.200 F 
ATOM    109  F   UNL A   1      43.402  37.957  36.784  1.00  0.00    -0.200 F 
ENDBRANCH  76  99
ENDBRANCH  50  51
ENDBRANCH  42  45
ENDBRANCH  40  41
ENDBRANCH  39  40
ENDBRANCH  38  39
ENDBRANCH   1  38
TORSDOF 17
ENDMDL
MODEL 2
REMARK VINA RESULT:      -8.8      6.360     11.601
REMARK SMILES C[C@H](NS(=O)(=O)c1ccc(-c2cc(-c3ccccc3)c3cc([N+](=O)[O-])ccc3n2)cc1)C(=O)NCCCCNC(=O)c1ccc(-c2c3nc(c(-c4c(F)c(F)c(F)c(F)c4F)c4ccc([nH]4)c(-c4c(F)c(F)c(F)c(F)c4F)c4nc(c(-c5c(F)c(F)c(F)c(F)c5F)c5ccc2[nH]5)C=C4)C=C3)cc1
REMARK SMILES IDX 35 1 34 2 32 3 33 4 2 6 1 7 3 8 4 10 5 11 6 12 7 13 8 14
REMARK SMILES IDX 31 15 9 16 30 17 10 18 11 19 12 20 29 21 13 22 28 23 20 24
REMARK SMILES IDX 27 25 21 26 26 27 22 28 14 29 15 30 19 31 16 32 18 33 17 34
REMARK SMILES IDX 23 35 24 36 25 37 36 38 37 39 38 40 39 41 40 42 41 44 42 45
REMARK SMILES IDX 43 46 104 47 44 48 103 49 45 50 46 51 47 52 97 53 48 54
REMARK SMILES IDX 102 55 96 56 98 57 49 58 101 59 95 60 94 61 50 63 82 64
REMARK SMILES IDX 62 65 81 66 63 67 66 68 80 69 99 70 64 71 65 72 79 74 100 75
REMARK SMILES IDX 67 76 51 77 52 78 60 79 53 80 54 81 58 82 61 83 55 84 56 85
REMARK SMILES IDX 59 86 57 87 83 88 84 89 92 90 85 91 86 92 90 93 93 94 87 95
REMARK SMILES IDX 88 96 91 97 89 98 68 99 69 100 77 101 70 102 71 103 75 104
REMARK SMILES IDX 78 105 72 106 73 107 76 108 74 109
REMARK H PARENT 34 5 3 9 39 43 98 62 66 73
REMARK Flexibility Score: inf
ROOT
ATOM      1  C   UNL A   1      38.228  24.085  26.387  1.00  0.00     0.116 C 
ENDROOT
BRANCH   1   2
ATOM      2  N   UNL A   1      38.349  22.817  25.700  1.00  0.00    -0.355 N 
ATOM      3  C   UNL A   1      37.396  21.953  25.258  1.00  0.00     0.237 C 
ATOM      4  O   UNL A   1      37.781  20.809  24.984  1.00  0.00    -0.273 OA
ATOM      5  H   UNL A   1      39.275  22.531  25.524  1.00  0.00     0.163 HD
BRANCH   3   6
ATOM      6  C   UNL A   1      35.922  22.322  25.039  1.00  0.00     0.155 C 
ATOM      7  C   UNL A   1      35.592  23.035  23.743  1.00  0.00     0.036 C 
BRANCH   6   8
ATOM      8  N   UNL A   1      35.144  22.752  26.218  1.00  0.00    -0.199 NA
ATOM      9  H   UNL A   1      34.836  23.699  25.998  1.00  0.00     0.142 HD
BRANCH   8  10
ATOM     10  S   UNL A   1      33.799  22.003  26.865  1.00  0.00     0.241 S 
ATOM     11  O   UNL A   1      33.921  20.608  26.531  1.00  0.00    -0.207 OA
ATOM     12  O   UNL A   1      33.673  22.446  28.239  1.00  0.00    -0.207 OA
BRANCH  10  13
ATOM     13  C   UNL A   1      32.385  22.622  25.966  1.00  0.00     0.082 A 
ATOM     14  C   UNL A   1      31.986  22.038  24.763  1.00  0.00     0.022 A 
ATOM     15  C   UNL A   1      31.859  23.855  26.353  1.00  0.00     0.022 A 
ATOM     16  C   UNL A   1      31.296  22.817  23.819  1.00  0.00     0.012 A 
ATOM     17  C   UNL A   1      31.095  24.590  25.443  1.00  0.00     0.012 A 
ATOM     18  C   UNL A   1      30.965  24.155  24.100  1.00  0.00     0.000 A 
BRANCH  18  19
ATOM     19  C   UNL A   1      31.122  25.203  23.023  1.00  0.00     0.072 A 
ATOM     20  C   UNL A   1      30.133  26.151  22.770  1.00  0.00     0.038 A 
ATOM     21  N   UNL A   1      32.416  25.615  23.059  1.00  0.00    -0.248 NA
ATOM     22  C   UNL A   1      30.431  27.484  23.079  1.00  0.00    -0.007 A 
ATOM     23  C   UNL A   1      32.609  26.745  23.729  1.00  0.00     0.072 A 
ATOM     24  C   UNL A   1      31.564  27.660  23.890  1.00  0.00     0.015 A 
ATOM     25  C   UNL A   1      33.748  26.874  24.493  1.00  0.00     0.036 A 
ATOM     26  C   UNL A   1      31.566  28.538  24.991  1.00  0.00     0.096 A 
ATOM     27  C   UNL A   1      33.708  27.650  25.648  1.00  0.00     0.088 A 
ATOM     28  C   UNL A   1      32.569  28.399  25.942  1.00  0.00     0.270 A 
BRANCH  22  29
ATOM     29  C   UNL A   1      29.632  28.662  22.693  1.00  0.00    -0.018 A 
ATOM     30  C   UNL A   1      28.298  28.747  23.167  1.00  0.00     0.009 A 
ATOM     31  C   UNL A   1      30.087  29.681  21.854  1.00  0.00     0.009 A 
ATOM     32  C   UNL A   1      27.436  29.766  22.770  1.00  0.00     0.001 A 
ATOM     33  C   UNL A   1      29.224  30.715  21.464  1.00  0.00     0.001 A 
ATOM     34  C   UNL A   1      27.900  30.749  21.909  1.00  0.00     0.000 A 
ENDBRANCH  22  29
BRANCH  28  35
ATOM     35  N   UNL A   1      32.272  28.755  27.338  1.00  0.00     0.062 N 
ATOM     36  O   UNL A   1      31.611  27.951  28.009  1.00  0.00    -0.258 OA
ATOM     37  O   UNL A   1      32.822  29.779  27.781  1.00  0.00    -0.258 OA
ENDBRANCH  28  35
ENDBRANCH  18  19
ENDBRANCH  10  13
ENDBRANCH   8  10
ENDBRANCH   6   8
ENDBRANCH   3   6
ENDBRANCH   1   2
BRANCH   1  38
ATOM     38  C   UNL A   1      39.601  24.732  26.595  1.00  0.00     0.023 C 
BRANCH  38  39
ATOM     39  C   UNL A   1      40.224  24.487  27.972  1.00  0.00     0.023 C 
BRANCH  39  40
ATOM     40  C   UNL A   1      41.410  23.524  27.997  1.00  0.00     0.116 C 
BRANCH  40  41
ATOM     41  N   UNL A   1      41.781  22.984  26.698  1.00  0.00    -0.352 N 
ATOM     42  C   UNL A   1      42.734  23.438  25.818  1.00  0.00     0.251 C 
ATOM     43  H   UNL A   1      41.282  22.185  26.411  1.00  0.00     0.163 HD
ATOM     44  O   UNL A   1      43.034  22.816  24.807  1.00  0.00    -0.269 OA
BRANCH  42  45
ATOM     45  C   UNL A   1      43.358  24.745  26.026  1.00  0.00     0.039 A 
ATOM     46  C   UNL A   1      44.172  24.875  27.156  1.00  0.00     0.014 A 
ATOM     47  C   UNL A   1      43.206  25.789  25.116  1.00  0.00     0.014 A 
ATOM     48  C   UNL A   1      44.931  26.023  27.318  1.00  0.00     0.010 A 
ATOM     49  C   UNL A   1      44.011  26.911  25.245  1.00  0.00     0.010 A 
ATOM     50  C   UNL A   1      44.898  27.014  26.328  1.00  0.00    -0.014 A 
BRANCH  50  51
ATOM     51  C   UNL A   1      45.841  28.145  26.386  1.00  0.00     0.031 A 
ATOM     52  C   UNL A   1      47.301  27.910  26.172  1.00  0.00     0.074 A 
ATOM     53  C   UNL A   1      45.364  29.365  26.700  1.00  0.00     0.049 A 
ATOM     54  N   UNL A   1      48.292  28.755  26.258  1.00  0.00    -0.248 NA
ATOM     55  C   UNL A   1      47.703  26.533  25.847  1.00  0.00     0.031 C 
ATOM     56  C   UNL A   1      43.958  29.677  26.973  1.00  0.00     0.029 A 
ATOM     57  N   UNL A   1      46.007  30.564  26.849  1.00  0.00    -0.354 N 
ATOM     58  C   UNL A   1      49.436  28.011  26.018  1.00  0.00     0.074 A 
ATOM     59  C   UNL A   1      49.023  26.639  25.821  1.00  0.00     0.031 C 
ATOM     60  C   UNL A   1      43.844  30.988  27.236  1.00  0.00     0.029 A 
ATOM     61  C   UNL A   1      45.167  31.598  27.180  1.00  0.00     0.049 A 
ATOM     62  H   UNL A   1      46.978  30.674  26.730  1.00  0.00     0.167 HD
ATOM     63  C   UNL A   1      50.716  28.447  25.952  1.00  0.00     0.037 A 
ATOM     64  C   UNL A   1      45.444  32.893  27.413  1.00  0.00     0.037 A 
ATOM     65  C   UNL A   1      51.103  29.822  26.124  1.00  0.00     0.049 A 
ATOM     66  C   UNL A   1      46.869  33.354  27.297  1.00  0.00     0.074 A 
ATOM     67  C   UNL A   1      52.363  30.383  26.036  1.00  0.00     0.029 A 
ATOM     68  N   UNL A   1      50.221  30.854  26.415  1.00  0.00    -0.354 N 
ATOM     69  N   UNL A   1      47.943  32.655  27.021  1.00  0.00    -0.248 NA
ATOM     70  C   UNL A   1      47.120  34.784  27.517  1.00  0.00     0.031 C 
ATOM     71  C   UNL A   1      52.248  31.753  26.298  1.00  0.00     0.029 A 
ATOM     72  C   UNL A   1      50.912  32.050  26.518  1.00  0.00     0.049 A 
ATOM     73  H   UNL A   1      49.250  30.751  26.533  1.00  0.00     0.167 HD
ATOM     74  C   UNL A   1      48.994  33.557  27.014  1.00  0.00     0.074 A 
ATOM     75  C   UNL A   1      48.426  34.860  27.300  1.00  0.00     0.031 C 
ATOM     76  C   UNL A   1      50.313  33.330  26.796  1.00  0.00     0.037 A 
BRANCH  63  77
ATOM     77  C   UNL A   1      51.775  27.422  25.686  1.00  0.00     0.064 A 
ATOM     78  C   UNL A   1      52.096  27.023  24.379  1.00  0.00     0.173 A 
ATOM     79  C   UNL A   1      52.477  26.832  26.746  1.00  0.00     0.173 A 
ATOM     80  F   UNL A   1      51.437  27.544  23.333  1.00  0.00    -0.203 F 
ATOM     81  C   UNL A   1      53.062  26.047  24.146  1.00  0.00     0.198 A 
ATOM     82  C   UNL A   1      53.461  25.875  26.508  1.00  0.00     0.198 A 
ATOM     83  F   UNL A   1      52.205  27.176  28.013  1.00  0.00    -0.203 F 
ATOM     84  F   UNL A   1      53.314  25.644  22.894  1.00  0.00    -0.200 F 
ATOM     85  C   UNL A   1      53.747  25.478  25.210  1.00  0.00     0.200 A 
ATOM     86  F   UNL A   1      54.124  25.328  27.535  1.00  0.00    -0.200 F 
ATOM     87  F   UNL A   1      54.673  24.538  24.984  1.00  0.00    -0.200 F 
ENDBRANCH  63  77
BRANCH  64  88
ATOM     88  C   UNL A   1      44.347  33.837  27.740  1.00  0.00     0.064 A 
ATOM     89  C   UNL A   1      43.769  34.636  26.744  1.00  0.00     0.173 A 
ATOM     90  C   UNL A   1      43.842  33.948  29.043  1.00  0.00     0.173 A 
ATOM     91  F   UNL A   1      44.230  34.574  25.486  1.00  0.00    -0.203 F 
ATOM     92  C   UNL A   1      42.738  35.524  27.043  1.00  0.00     0.198 A 
ATOM     93  C   UNL A   1      42.796  34.819  29.337  1.00  0.00     0.198 A 
ATOM     94  F   UNL A   1      44.356  33.196  30.028  1.00  0.00    -0.203 F 
ATOM     95  F   UNL A   1      42.226  36.302  26.079  1.00  0.00    -0.200 F 
ATOM     96  C   UNL A   1      42.248  35.611  28.338  1.00  0.00     0.200 A 
ATOM     97  F   UNL A   1      42.317  34.892  30.586  1.00  0.00    -0.200 F 
ATOM     98  F   UNL A   1      41.254  36.462  28.624  1.00  0.00    -0.200 F 
ENDBRANCH  64  88
BRANCH  76  99
ATOM     99  C   UNL A   1      51.219  34.522  26.835  1.00  0.00     0.064 A 
ATOM    100  C   UNL A   1      51.929  34.859  27.995  1.00  0.00     0.173 A 
ATOM    101  C   UNL A   1      51.409  35.306  25.688  1.00  0.00     0.173 A 
ATOM    102  F   UNL A   1      51.763  34.148  29.120  1.00  0.00    -0.203 F 
ATOM    103  C   UNL A   1      52.788  35.955  28.011  1.00  0.00     0.198 A 
ATOM    104  C   UNL A   1      52.286  36.385  25.701  1.00  0.00     0.198 A 
ATOM    105  F   UNL A   1      50.752  35.016  24.555  1.00  0.00    -0.203 F 
ATOM    106  F   UNL A   1      53.430  36.284  29.139  1.00  0.00    -0.200 F 
ATOM    107  C   UNL A   1      52.971  36.711  26.862  1.00  0.00     0.200 A 
ATOM    108  F   UNL A   1      52.468  37.110  24.589  1.00  0.00    -0.200 F 
ATOM    109  F   UNL A   1      53.803  37.761  26.877  1.00  0.00    -0.200 F 
ENDBRANCH  76  99
ENDBRANCH  50  51
ENDBRANCH  42  45
ENDBRANCH  40  41
ENDBRANCH  39  40
ENDBRANCH  38  39
ENDBRANCH   1  38
TORSDOF 17
ENDMDL
MODEL 3
REMARK VINA RESULT:      -8.6      4.086     10.335
REMARK SMILES C[C@H](NS(=O)(=O)c1ccc(-c2cc(-c3ccccc3)c3cc([N+](=O)[O-])ccc3n2)cc1)C(=O)NCCCCNC(=O)c1ccc(-c2c3nc(c(-c4c(F)c(F)c(F)c(F)c4F)c4ccc([nH]4)c(-c4c(F)c(F)c(F)c(F)c4F)c4nc(c(-c5c(F)c(F)c(F)c(F)c5F)c5ccc2[nH]5)C=C4)C=C3)cc1
REMARK SMILES IDX 35 1 34 2 32 3 33 4 2 6 1 7 3 8 4 10 5 11 6 12 7 13 8 14
REMARK SMILES IDX 31 15 9 16 30 17 10 18 11 19 12 20 29 21 13 22 28 23 20 24
REMARK SMILES IDX 27 25 21 26 26 27 22 28 14 29 15 30 19 31 16 32 18 33 17 34
REMARK SMILES IDX 23 35 24 36 25 37 36 38 37 39 38 40 39 41 40 42 41 44 42 45
REMARK SMILES IDX 43 46 104 47 44 48 103 49 45 50 46 51 47 52 97 53 48 54
REMARK SMILES IDX 102 55 96 56 98 57 49 58 101 59 95 60 94 61 50 63 82 64
REMARK SMILES IDX 62 65 81 66 63 67 66 68 80 69 99 70 64 71 65 72 79 74 100 75
REMARK SMILES IDX 67 76 51 77 52 78 60 79 53 80 54 81 58 82 61 83 55 84 56 85
REMARK SMILES IDX 59 86 57 87 83 88 84 89 92 90 85 91 86 92 90 93 93 94 87 95
REMARK SMILES IDX 88 96 91 97 89 98 68 99 69 100 77 101 70 102 71 103 75 104
REMARK SMILES IDX 78 105 72 106 73 107 76 108 74 109
REMARK H PARENT 34 5 3 9 39 43 98 62 66 73
REMARK Flexibility Score: inf
ROOT
ATOM      1  C   UNL A   1      36.958  33.483  33.546  1.00  0.00     0.116 C 
ENDROOT
BRANCH   1   2
ATOM      2  N   UNL A   1      35.677  32.888  33.226  1.00  0.00    -0.355 N 
ATOM      3  C   UNL A   1      34.813  33.139  32.207  1.00  0.00     0.237 C 
ATOM      4  O   UNL A   1      33.662  32.706  32.348  1.00  0.00    -0.273 OA
ATOM      5  H   UNL A   1      35.384  32.186  33.850  1.00  0.00     0.163 HD
BRANCH   3   6
ATOM      6  C   UNL A   1      35.187  33.865  30.907  1.00  0.00     0.155 C 
ATOM      7  C   UNL A   1      34.059  34.574  30.183  1.00  0.00     0.036 C 
BRANCH   6   8
ATOM      8  N   UNL A   1      36.202  33.233  30.041  1.00  0.00    -0.199 NA
ATOM      9  H   UNL A   1      36.942  32.937  30.677  1.00  0.00     0.142 HD
BRANCH   8  10
ATOM     10  S   UNL A   1      35.980  31.940  29.009  1.00  0.00     0.241 S 
ATOM     11  O   UNL A   1      35.161  30.996  29.723  1.00  0.00    -0.207 OA
ATOM     12  O   UNL A   1      35.578  32.473  27.723  1.00  0.00    -0.207 OA
BRANCH  10  13
ATOM     13  C   UNL A   1      37.579  31.171  28.798  1.00  0.00     0.082 A 
ATOM     14  C   UNL A   1      37.852  30.372  27.687  1.00  0.00     0.022 A 
ATOM     15  C   UNL A   1      38.447  31.169  29.890  1.00  0.00     0.022 A 
ATOM     16  C   UNL A   1      38.822  29.361  27.791  1.00  0.00     0.012 A 
ATOM     17  C   UNL A   1      39.470  30.220  29.950  1.00  0.00     0.012 A 
ATOM     18  C   UNL A   1      39.548  29.186  28.983  1.00  0.00     0.000 A 
BRANCH  18  19
ATOM     19  C   UNL A   1      39.816  27.790  29.494  1.00  0.00     0.072 A 
ATOM     20  C   UNL A   1      39.315  26.661  28.849  1.00  0.00     0.038 A 
ATOM     21  N   UNL A   1      41.105  27.768  29.923  1.00  0.00    -0.248 NA
ATOM     22  C   UNL A   1      40.242  25.816  28.227  1.00  0.00    -0.007 A 
ATOM     23  C   UNL A   1      41.962  27.259  29.046  1.00  0.00     0.072 A 
ATOM     24  C   UNL A   1      41.523  26.368  28.062  1.00  0.00     0.015 A 
ATOM     25  C   UNL A   1      43.214  27.825  28.940  1.00  0.00     0.036 A 
ATOM     26  C   UNL A   1      42.236  26.253  26.853  1.00  0.00     0.096 A 
ATOM     27  C   UNL A   1      43.864  27.813  27.708  1.00  0.00     0.088 A 
ATOM     28  C   UNL A   1      43.311  27.107  26.640  1.00  0.00     0.270 A 
BRANCH  22  29
ATOM     29  C   UNL A   1      39.963  24.472  27.687  1.00  0.00    -0.018 A 
ATOM     30  C   UNL A   1      40.831  23.413  28.054  1.00  0.00     0.009 A 
ATOM     31  C   UNL A   1      38.925  24.180  26.800  1.00  0.00     0.009 A 
ATOM     32  C   UNL A   1      40.711  22.136  27.511  1.00  0.00     0.001 A 
ATOM     33  C   UNL A   1      38.795  22.892  26.263  1.00  0.00     0.001 A 
ATOM     34  C   UNL A   1      39.692  21.878  26.606  1.00  0.00     0.000 A 
ENDBRANCH  22  29
BRANCH  28  35
ATOM     35  N   UNL A   1      43.631  27.507  25.260  1.00  0.00     0.062 N 
ATOM     36  O   UNL A   1      42.696  27.863  24.532  1.00  0.00    -0.258 OA
ATOM     37  O   UNL A   1      44.838  27.584  24.969  1.00  0.00    -0.258 OA
ENDBRANCH  28  35
ENDBRANCH  18  19
ENDBRANCH  10  13
ENDBRANCH   8  10
ENDBRANCH   6   8
ENDBRANCH   3   6
ENDBRANCH   1   2
BRANCH   1  38
ATOM     38  C   UNL A   1      36.933  34.131  34.933  1.00  0.00     0.023 C 
BRANCH  38  39
ATOM     39  C   UNL A   1      38.312  34.369  35.555  1.00  0.00     0.023 C 
BRANCH  39  40
ATOM     40  C   UNL A   1      38.519  33.778  36.948  1.00  0.00     0.116 C 
BRANCH  40  41
ATOM     41  N   UNL A   1      37.856  32.502  37.171  1.00  0.00    -0.352 N 
ATOM     42  C   UNL A   1      38.192  31.262  36.683  1.00  0.00     0.251 C 
ATOM     43  H   UNL A   1      37.059  32.531  37.749  1.00  0.00     0.163 HD
ATOM     44  O   UNL A   1      37.620  30.243  37.049  1.00  0.00    -0.269 OA
BRANCH  42  45
ATOM     45  C   UNL A   1      39.198  31.139  35.628  1.00  0.00     0.039 A 
ATOM     46  C   UNL A   1      40.504  31.512  35.965  1.00  0.00     0.014 A 
ATOM     47  C   UNL A   1      38.892  30.618  34.373  1.00  0.00     0.014 A 
ATOM     48  C   UNL A   1      41.534  31.255  35.075  1.00  0.00     0.010 A 
ATOM     49  C   UNL A   1      39.930  30.304  33.508  1.00  0.00     0.010 A 
ATOM     50  C   UNL A   1      41.255  30.593  33.872  1.00  0.00    -0.014 A 
BRANCH  50  51
ATOM     51  C   UNL A   1      42.358  30.138  33.007  1.00  0.00     0.031 A 
ATOM     52  C   UNL A   1      43.031  28.833  33.281  1.00  0.00     0.074 A 
ATOM     53  C   UNL A   1      42.781  30.953  32.022  1.00  0.00     0.049 A 
ATOM     54  N   UNL A   1      44.063  28.298  32.687  1.00  0.00    -0.248 NA
ATOM     55  C   UNL A   1      42.488  28.035  34.392  1.00  0.00     0.031 C 
ATOM     56  C   UNL A   1      42.213  32.270  31.713  1.00  0.00     0.029 A 
ATOM     57  N   UNL A   1      43.785  30.801  31.105  1.00  0.00    -0.354 N 
ATOM     58  C   UNL A   1      44.306  27.112  33.361  1.00  0.00     0.074 A 
ATOM     59  C   UNL A   1      43.340  27.023  34.435  1.00  0.00     0.031 C 
ATOM     60  C   UNL A   1      42.867  32.793  30.664  1.00  0.00     0.029 A 
ATOM     61  C   UNL A   1      43.914  31.866  30.251  1.00  0.00     0.049 A 
ATOM     62  H   UNL A   1      44.360  30.002  31.063  1.00  0.00     0.167 HD
ATOM     63  C   UNL A   1      45.246  26.177  33.091  1.00  0.00     0.037 A 
ATOM     64  C   UNL A   1      44.785  32.066  29.246  1.00  0.00     0.037 A 
ATOM     65  C   UNL A   1      46.180  26.272  32.001  1.00  0.00     0.049 A 
ATOM     66  C   UNL A   1      45.793  30.994  28.946  1.00  0.00     0.074 A 
ATOM     67  C   UNL A   1      47.146  25.364  31.608  1.00  0.00     0.029 A 
ATOM     68  N   UNL A   1      46.255  27.346  31.125  1.00  0.00    -0.354 N 
ATOM     69  N   UNL A   1      45.988  29.851  29.558  1.00  0.00    -0.248 NA
ATOM     70  C   UNL A   1      46.697  31.235  27.814  1.00  0.00     0.031 C 
ATOM     71  C   UNL A   1      47.823  25.901  30.506  1.00  0.00     0.029 A 
ATOM     72  C   UNL A   1      47.257  27.128  30.195  1.00  0.00     0.049 A 
ATOM     73  H   UNL A   1      45.682  28.145  31.160  1.00  0.00     0.167 HD
ATOM     74  C   UNL A   1      47.020  29.226  28.877  1.00  0.00     0.074 A 
ATOM     75  C   UNL A   1      47.402  30.112  27.795  1.00  0.00     0.031 C 
ATOM     76  C   UNL A   1      47.605  28.028  29.126  1.00  0.00     0.037 A 
BRANCH  63  77
ATOM     77  C   UNL A   1      45.300  24.982  33.992  1.00  0.00     0.064 A 
ATOM     78  C   UNL A   1      44.592  23.807  33.695  1.00  0.00     0.173 A 
ATOM     79  C   UNL A   1      46.069  25.009  35.165  1.00  0.00     0.173 A 
ATOM     80  F   UNL A   1      43.827  23.740  32.595  1.00  0.00    -0.203 F 
ATOM     81  C   UNL A   1      44.627  22.713  34.556  1.00  0.00     0.198 A 
ATOM     82  C   UNL A   1      46.122  23.903  36.011  1.00  0.00     0.198 A 
ATOM     83  F   UNL A   1      46.761  26.109  35.495  1.00  0.00    -0.203 F 
ATOM     84  F   UNL A   1      43.901  21.622  34.280  1.00  0.00    -0.200 F 
ATOM     85  C   UNL A   1      45.396  22.760  35.710  1.00  0.00     0.200 A 
ATOM     86  F   UNL A   1      46.867  23.948  37.123  1.00  0.00    -0.200 F 
ATOM     87  F   UNL A   1      45.426  21.709  36.539  1.00  0.00    -0.200 F 
ENDBRANCH  63  77
BRANCH  64  88
ATOM     88  C   UNL A   1      44.713  33.310  28.440  1.00  0.00     0.064 A 
ATOM     89  C   UNL A   1      45.230  34.515  28.935  1.00  0.00     0.173 A 
ATOM     90  C   UNL A   1      44.147  33.319  27.157  1.00  0.00     0.173 A 
ATOM     91  F   UNL A   1      45.768  34.557  30.162  1.00  0.00    -0.203 F 
ATOM     92  C   UNL A   1      45.168  35.687  28.184  1.00  0.00     0.198 A 
ATOM     93  C   UNL A   1      44.106  34.486  26.398  1.00  0.00     0.198 A 
ATOM     94  F   UNL A   1      43.648  32.188  26.636  1.00  0.00    -0.203 F 
ATOM     95  F   UNL A   1      45.639  36.833  28.694  1.00  0.00    -0.200 F 
ATOM     96  C   UNL A   1      44.611  35.670  26.913  1.00  0.00     0.200 A 
ATOM     97  F   UNL A   1      43.578  34.463  25.167  1.00  0.00    -0.200 F 
ATOM     98  F   UNL A   1      44.555  36.796  26.190  1.00  0.00    -0.200 F 
ENDBRANCH  64  88
BRANCH  76  99
ATOM     99  C   UNL A   1      48.699  27.604  28.195  1.00  0.00     0.064 A 
ATOM    100  C   UNL A   1      50.035  27.950  28.435  1.00  0.00     0.173 A 
ATOM    101  C   UNL A   1      48.409  26.808  27.077  1.00  0.00     0.173 A 
ATOM    102  F   UNL A   1      50.355  28.725  29.482  1.00  0.00    -0.203 F 
ATOM    103  C   UNL A   1      51.045  27.528  27.576  1.00  0.00     0.198 A 
ATOM    104  C   UNL A   1      49.424  26.369  26.234  1.00  0.00     0.198 A 
ATOM    105  F   UNL A   1      47.144  26.450  26.811  1.00  0.00    -0.203 F 
ATOM    106  F   UNL A   1      52.313  27.899  27.801  1.00  0.00    -0.200 F 
ATOM    107  C   UNL A   1      50.740  26.732  26.481  1.00  0.00     0.200 A 
ATOM    108  F   UNL A   1      49.130  25.594  25.181  1.00  0.00    -0.200 F 
ATOM    109  F   UNL A   1      51.715  26.322  25.659  1.00  0.00    -0.200 F 
ENDBRANCH  76  99
ENDBRANCH  50  51
ENDBRANCH  42  45
ENDBRANCH  40  41
ENDBRANCH  39  40
ENDBRANCH  38  39
ENDBRANCH   1  38
TORSDOF 17
ENDMDL
