MODEL 1
REMARK VINA RESULT:     -12.4      0.000      0.000
REMARK SMILES CC(C)(C)OC(=O)N[C@@H](C(=O)NCCCCNC(=O)c1ccc(-c2c3nc(c(-c4c(F)c(F)c(F)c(F)c4F)c4ccc([nH]4)c(-c4c(F)c(F)c(F)c(F)c4F)c4nc(c(-c5c(F)c(F)c(F)c(F)c5F)c5ccc2[nH]5)C=C4)C=C3)cc1)c1ccc([N+](=O)[O-])cc1
REMARK SMILES IDX 14 1 13 2 12 3 10 4 11 5 9 7 8 8 6 9 7 10 5 12 2 13 1 14
REMARK SMILES IDX 3 15 4 16 83 17 84 18 91 19 85 20 90 21 86 22 87 23 88 24
REMARK SMILES IDX 89 25 15 26 16 27 17 28 18 29 19 31 20 32 21 33 82 34 22 35
REMARK SMILES IDX 81 36 23 37 24 38 25 39 75 40 26 41 80 42 74 43 76 44 27 45
REMARK SMILES IDX 79 46 73 47 72 48 28 50 60 51 40 52 59 53 41 54 44 55 58 56
REMARK SMILES IDX 77 57 42 58 43 59 57 61 78 62 45 63 29 64 30 65 38 66 31 67
REMARK SMILES IDX 32 68 36 69 39 70 33 71 34 72 37 73 35 74 61 75 62 76 70 77
REMARK SMILES IDX 63 78 64 79 68 80 71 81 65 82 66 83 69 84 67 85 46 86 47 87
REMARK SMILES IDX 55 88 48 89 49 90 53 91 56 92 50 93 51 94 54 95 52 96
REMARK H PARENT 12 6 8 11 17 30 76 49 44 60
REMARK Flexibility Score: inf
ROOT
ATOM      1  C   UNL A   1      31.817  30.465  25.804  1.00  0.00     0.023 C 
ENDROOT
BRANCH   1   2
ATOM      2  C   UNL A   1      32.839  29.375  26.111  1.00  0.00     0.116 C 
BRANCH   2   3
ATOM      3  N   UNL A   1      33.826  29.266  25.065  1.00  0.00    -0.354 N 
ATOM      4  C   UNL A   1      33.872  28.427  23.989  1.00  0.00     0.247 C 
ATOM      5  O   UNL A   1      34.789  28.650  23.192  1.00  0.00    -0.272 OA
ATOM      6  H   UNL A   1      34.582  29.891  25.138  1.00  0.00     0.163 HD
BRANCH   4   7
ATOM      7  C   UNL A   1      32.753  27.358  23.738  1.00  0.00     0.205 C 
BRANCH   7   8
ATOM      8  N   UNL A   1      33.156  26.320  22.795  1.00  0.00    -0.306 N 
ATOM      9  C   UNL A   1      33.230  24.977  23.013  1.00  0.00     0.408 C 
ATOM     10  O   UNL A   1      33.637  24.223  22.140  1.00  0.00    -0.225 OA
ATOM     11  H   UNL A   1      33.405  26.627  21.893  1.00  0.00     0.168 HD
BRANCH   9  12
ATOM     12  O   UNL A   1      32.873  24.613  24.268  1.00  0.00    -0.444 OA
BRANCH  12  13
ATOM     13  C   UNL A   1      31.692  23.798  24.510  1.00  0.00     0.106 C 
ATOM     14  C   UNL A   1      31.108  24.333  25.828  1.00  0.00     0.056 C 
ATOM     15  C   UNL A   1      32.048  22.320  24.717  1.00  0.00     0.056 C 
ATOM     16  C   UNL A   1      30.653  23.978  23.400  1.00  0.00     0.056 C 
ENDBRANCH  12  13
ENDBRANCH   9  12
ENDBRANCH   7   8
BRANCH   7  17
ATOM     17  C   UNL A   1      31.443  27.987  23.263  1.00  0.00    -0.016 A 
ATOM     18  C   UNL A   1      31.429  29.061  22.352  1.00  0.00     0.013 A 
ATOM     19  C   UNL A   1      30.218  27.507  23.754  1.00  0.00     0.013 A 
ATOM     20  C   UNL A   1      30.235  29.703  22.015  1.00  0.00     0.086 A 
ATOM     21  C   UNL A   1      29.015  28.133  23.412  1.00  0.00     0.086 A 
ATOM     22  C   UNL A   1      29.033  29.247  22.562  1.00  0.00     0.269 A 
BRANCH  22  23
ATOM     23  N   UNL A   1      27.783  29.956  22.263  1.00  0.00     0.062 N 
ATOM     24  O   UNL A   1      27.689  30.527  21.166  1.00  0.00    -0.258 OA
ATOM     25  O   UNL A   1      26.895  29.950  23.129  1.00  0.00    -0.258 OA
ENDBRANCH  22  23
ENDBRANCH   7  17
ENDBRANCH   4   7
ENDBRANCH   2   3
ENDBRANCH   1   2
BRANCH   1  26
ATOM     26  C   UNL A   1      31.693  31.522  26.905  1.00  0.00     0.023 C 
BRANCH  26  27
ATOM     27  C   UNL A   1      32.892  32.451  27.043  1.00  0.00     0.116 C 
BRANCH  27  28
ATOM     28  N   UNL A   1      32.521  33.811  27.406  1.00  0.00    -0.352 N 
ATOM     29  C   UNL A   1      33.033  34.597  28.408  1.00  0.00     0.251 C 
ATOM     30  H   UNL A   1      31.810  34.219  26.862  1.00  0.00     0.163 HD
ATOM     31  O   UNL A   1      32.525  35.682  28.674  1.00  0.00    -0.269 OA
BRANCH  29  32
ATOM     32  C   UNL A   1      34.185  34.105  29.188  1.00  0.00     0.039 A 
ATOM     33  C   UNL A   1      33.953  33.291  30.298  1.00  0.00     0.014 A 
ATOM     34  C   UNL A   1      35.491  34.411  28.793  1.00  0.00     0.014 A 
ATOM     35  C   UNL A   1      35.035  32.726  30.975  1.00  0.00     0.010 A 
ATOM     36  C   UNL A   1      36.563  33.784  29.417  1.00  0.00     0.010 A 
ATOM     37  C   UNL A   1      36.346  32.938  30.516  1.00  0.00    -0.014 A 
BRANCH  37  38
ATOM     38  C   UNL A   1      37.507  32.289  31.174  1.00  0.00     0.031 A 
ATOM     39  C   UNL A   1      38.260  31.198  30.467  1.00  0.00     0.074 A 
ATOM     40  C   UNL A   1      37.842  32.635  32.431  1.00  0.00     0.049 A 
ATOM     41  N   UNL A   1      39.261  30.470  30.892  1.00  0.00    -0.248 NA
ATOM     42  C   UNL A   1      37.808  30.862  29.109  1.00  0.00     0.031 C 
ATOM     43  C   UNL A   1      37.166  33.651  33.237  1.00  0.00     0.029 A 
ATOM     44  N   UNL A   1      38.836  32.166  33.253  1.00  0.00    -0.354 N 
ATOM     45  C   UNL A   1      39.550  29.587  29.860  1.00  0.00     0.074 A 
ATOM     46  C   UNL A   1      38.573  29.822  28.819  1.00  0.00     0.031 C 
ATOM     47  C   UNL A   1      37.786  33.755  34.424  1.00  0.00     0.029 A 
ATOM     48  C   UNL A   1      38.874  32.784  34.478  1.00  0.00     0.049 A 
ATOM     49  H   UNL A   1      39.461  31.452  32.990  1.00  0.00     0.167 HD
ATOM     50  C   UNL A   1      40.555  28.683  29.775  1.00  0.00     0.037 A 
ATOM     51  C   UNL A   1      39.695  32.587  35.527  1.00  0.00     0.037 A 
ATOM     52  C   UNL A   1      41.527  28.457  30.813  1.00  0.00     0.049 A 
ATOM     53  C   UNL A   1      40.775  31.544  35.429  1.00  0.00     0.074 A 
ATOM     54  C   UNL A   1      42.609  27.596  30.811  1.00  0.00     0.029 A 
ATOM     55  N   UNL A   1      41.524  29.092  32.048  1.00  0.00    -0.354 N 
ATOM     56  N   UNL A   1      41.082  30.760  34.424  1.00  0.00    -0.248 NA
ATOM     57  C   UNL A   1      41.624  31.361  36.615  1.00  0.00     0.031 C 
ATOM     58  C   UNL A   1      43.227  27.666  32.066  1.00  0.00     0.029 A 
ATOM     59  C   UNL A   1      42.568  28.620  32.827  1.00  0.00     0.049 A 
ATOM     60  H   UNL A   1      40.875  29.777  32.329  1.00  0.00     0.167 HD
ATOM     61  C   UNL A   1      42.179  30.018  34.840  1.00  0.00     0.074 A 
ATOM     62  C   UNL A   1      42.489  30.452  36.187  1.00  0.00     0.031 C 
ATOM     63  C   UNL A   1      42.870  29.065  34.165  1.00  0.00     0.037 A 
BRANCH  50  64
ATOM     64  C   UNL A   1      40.639  27.870  28.513  1.00  0.00     0.064 A 
ATOM     65  C   UNL A   1      39.991  26.630  28.389  1.00  0.00     0.173 A 
ATOM     66  C   UNL A   1      41.384  28.328  27.416  1.00  0.00     0.173 A 
ATOM     67  F   UNL A   1      39.273  26.138  29.411  1.00  0.00    -0.203 F 
ATOM     68  C   UNL A   1      40.129  25.858  27.238  1.00  0.00     0.198 A 
ATOM     69  C   UNL A   1      41.488  27.572  26.252  1.00  0.00     0.198 A 
ATOM     70  F   UNL A   1      42.019  29.509  27.473  1.00  0.00    -0.203 F 
ATOM     71  F   UNL A   1      39.565  24.644  27.176  1.00  0.00    -0.200 F 
ATOM     72  C   UNL A   1      40.874  26.331  26.169  1.00  0.00     0.200 A 
ATOM     73  F   UNL A   1      42.195  28.037  25.213  1.00  0.00    -0.200 F 
ATOM     74  F   UNL A   1      41.011  25.585  25.063  1.00  0.00    -0.200 F 
ENDBRANCH  50  64
BRANCH  51  75
ATOM     75  C   UNL A   1      39.557  33.431  36.743  1.00  0.00     0.064 A 
ATOM     76  C   UNL A   1      40.265  34.636  36.859  1.00  0.00     0.173 A 
ATOM     77  C   UNL A   1      38.713  33.066  37.802  1.00  0.00     0.173 A 
ATOM     78  F   UNL A   1      41.099  35.018  35.881  1.00  0.00    -0.203 F 
ATOM     79  C   UNL A   1      40.146  35.435  37.994  1.00  0.00     0.198 A 
ATOM     80  C   UNL A   1      38.574  33.879  38.924  1.00  0.00     0.198 A 
ATOM     81  F   UNL A   1      38.010  31.926  37.738  1.00  0.00    -0.203 F 
ATOM     82  F   UNL A   1      40.864  36.562  38.095  1.00  0.00    -0.200 F 
ATOM     83  C   UNL A   1      39.295  35.061  39.023  1.00  0.00     0.200 A 
ATOM     84  F   UNL A   1      37.738  33.522  39.909  1.00  0.00    -0.200 F 
ATOM     85  F   UNL A   1      39.173  35.834  40.110  1.00  0.00    -0.200 F 
ENDBRANCH  51  75
BRANCH  63  86
ATOM     86  C   UNL A   1      44.059  28.457  34.853  1.00  0.00     0.064 A 
ATOM     87  C   UNL A   1      43.980  27.226  35.521  1.00  0.00     0.173 A 
ATOM     88  C   UNL A   1      45.306  29.099  34.809  1.00  0.00     0.173 A 
ATOM     89  F   UNL A   1      42.808  26.579  35.606  1.00  0.00    -0.203 F 
ATOM     90  C   UNL A   1      45.098  26.674  36.141  1.00  0.00     0.198 A 
ATOM     91  C   UNL A   1      46.430  28.528  35.399  1.00  0.00     0.198 A 
ATOM     92  F   UNL A   1      45.440  30.276  34.179  1.00  0.00    -0.203 F 
ATOM     93  F   UNL A   1      44.987  25.523  36.818  1.00  0.00    -0.200 F 
ATOM     94  C   UNL A   1      46.323  27.321  36.073  1.00  0.00     0.200 A 
ATOM     95  F   UNL A   1      47.616  29.147  35.318  1.00  0.00    -0.200 F 
ATOM     96  F   UNL A   1      47.401  26.784  36.662  1.00  0.00    -0.200 F 
ENDBRANCH  63  86
ENDBRANCH  37  38
ENDBRANCH  29  32
ENDBRANCH  27  28
ENDBRANCH  26  27
ENDBRANCH   1  26
TORSDOF 16
ENDMDL
MODEL 2
REMARK VINA RESULT:     -12.4      5.172      9.091
REMARK SMILES CC(C)(C)OC(=O)N[C@@H](C(=O)NCCCCNC(=O)c1ccc(-c2c3nc(c(-c4c(F)c(F)c(F)c(F)c4F)c4ccc([nH]4)c(-c4c(F)c(F)c(F)c(F)c4F)c4nc(c(-c5c(F)c(F)c(F)c(F)c5F)c5ccc2[nH]5)C=C4)C=C3)cc1)c1ccc([N+](=O)[O-])cc1
REMARK SMILES IDX 14 1 13 2 12 3 10 4 11 5 9 7 8 8 6 9 7 10 5 12 2 13 1 14
REMARK SMILES IDX 3 15 4 16 83 17 84 18 91 19 85 20 90 21 86 22 87 23 88 24
REMARK SMILES IDX 89 25 15 26 16 27 17 28 18 29 19 31 20 32 21 33 82 34 22 35
REMARK SMILES IDX 81 36 23 37 24 38 25 39 75 40 26 41 80 42 74 43 76 44 27 45
REMARK SMILES IDX 79 46 73 47 72 48 28 50 60 51 40 52 59 53 41 54 44 55 58 56
REMARK SMILES IDX 77 57 42 58 43 59 57 61 78 62 45 63 29 64 30 65 38 66 31 67
REMARK SMILES IDX 32 68 36 69 39 70 33 71 34 72 37 73 35 74 61 75 62 76 70 77
REMARK SMILES IDX 63 78 64 79 68 80 71 81 65 82 66 83 69 84 67 85 46 86 47 87
REMARK SMILES IDX 55 88 48 89 49 90 53 91 56 92 50 93 51 94 54 95 52 96
REMARK H PARENT 12 6 8 11 17 30 76 49 44 60
REMARK Flexibility Score: inf
ROOT
ATOM      1  C   UNL A   1      36.129  21.736  24.366  1.00  0.00     0.023 C 
ENDROOT
BRANCH   1   2
ATOM      2  C   UNL A   1      35.879  22.979  25.214  1.00  0.00     0.116 C 
BRANCH   2   3
ATOM      3  N   UNL A   1      35.466  22.632  26.552  1.00  0.00    -0.354 N 
ATOM      4  C   UNL A   1      34.222  22.360  27.041  1.00  0.00     0.247 C 
ATOM      5  O   UNL A   1      34.194  21.974  28.214  1.00  0.00    -0.272 OA
ATOM      6  H   UNL A   1      36.193  22.585  27.213  1.00  0.00     0.163 HD
BRANCH   4   7
ATOM      7  C   UNL A   1      32.953  22.411  26.121  1.00  0.00     0.205 C 
BRANCH   7   8
ATOM      8  N   UNL A   1      31.718  22.640  26.863  1.00  0.00    -0.306 N 
ATOM      9  C   UNL A   1      30.660  23.419  26.502  1.00  0.00     0.408 C 
ATOM     10  O   UNL A   1      29.704  23.563  27.250  1.00  0.00    -0.225 OA
ATOM     11  H   UNL A   1      31.640  22.178  27.728  1.00  0.00     0.168 HD
BRANCH   9  12
ATOM     12  O   UNL A   1      30.822  24.027  25.302  1.00  0.00    -0.444 OA
BRANCH  12  13
ATOM     13  C   UNL A   1      31.136  25.445  25.211  1.00  0.00     0.106 C 
ATOM     14  C   UNL A   1      32.175  25.547  24.081  1.00  0.00     0.056 C 
ATOM     15  C   UNL A   1      31.786  25.971  26.498  1.00  0.00     0.056 C 
ATOM     16  C   UNL A   1      29.904  26.267  24.824  1.00  0.00     0.056 C 
ENDBRANCH  12  13
ENDBRANCH   9  12
ENDBRANCH   7   8
BRANCH   7  17
ATOM     17  C   UNL A   1      32.801  21.148  25.270  1.00  0.00    -0.016 A 
ATOM     18  C   UNL A   1      33.112  19.873  25.781  1.00  0.00     0.013 A 
ATOM     19  C   UNL A   1      32.361  21.251  23.941  1.00  0.00     0.013 A 
ATOM     20  C   UNL A   1      33.081  18.743  24.961  1.00  0.00     0.086 A 
ATOM     21  C   UNL A   1      32.311  20.123  23.115  1.00  0.00     0.086 A 
ATOM     22  C   UNL A   1      32.697  18.876  23.624  1.00  0.00     0.269 A 
BRANCH  22  23
ATOM     23  N   UNL A   1      32.723  17.704  22.740  1.00  0.00     0.062 N 
ATOM     24  O   UNL A   1      33.318  16.692  23.139  1.00  0.00    -0.258 OA
ATOM     25  O   UNL A   1      32.155  17.797  21.643  1.00  0.00    -0.258 OA
ENDBRANCH  22  23
ENDBRANCH   7  17
ENDBRANCH   4   7
ENDBRANCH   2   3
ENDBRANCH   1   2
BRANCH   1  26
ATOM     26  C   UNL A   1      37.125  20.754  24.990  1.00  0.00     0.023 C 
BRANCH  26  27
ATOM     27  C   UNL A   1      38.466  21.360  25.383  1.00  0.00     0.116 C 
BRANCH  27  28
ATOM     28  N   UNL A   1      39.324  20.429  26.101  1.00  0.00    -0.352 N 
ATOM     29  C   UNL A   1      40.401  20.709  26.907  1.00  0.00     0.251 C 
ATOM     30  H   UNL A   1      39.105  19.477  25.995  1.00  0.00     0.163 HD
ATOM     31  O   UNL A   1      41.108  19.806  27.341  1.00  0.00    -0.269 OA
BRANCH  29  32
ATOM     32  C   UNL A   1      40.719  22.116  27.216  1.00  0.00     0.039 A 
ATOM     33  C   UNL A   1      41.669  22.394  28.201  1.00  0.00     0.014 A 
ATOM     34  C   UNL A   1      40.113  23.153  26.502  1.00  0.00     0.014 A 
ATOM     35  C   UNL A   1      42.063  23.715  28.423  1.00  0.00     0.010 A 
ATOM     36  C   UNL A   1      40.564  24.458  26.668  1.00  0.00     0.010 A 
ATOM     37  C   UNL A   1      41.541  24.752  27.633  1.00  0.00    -0.014 A 
BRANCH  37  38
ATOM     38  C   UNL A   1      41.998  26.154  27.800  1.00  0.00     0.031 A 
ATOM     39  C   UNL A   1      43.326  26.583  27.247  1.00  0.00     0.074 A 
ATOM     40  C   UNL A   1      41.248  27.021  28.506  1.00  0.00     0.049 A 
ATOM     41  N   UNL A   1      43.928  27.742  27.339  1.00  0.00    -0.248 NA
ATOM     42  C   UNL A   1      44.094  25.565  26.516  1.00  0.00     0.031 C 
ATOM     43  C   UNL A   1      39.959  26.714  29.126  1.00  0.00     0.029 A 
ATOM     44  N   UNL A   1      41.465  28.338  28.824  1.00  0.00    -0.354 N 
ATOM     45  C   UNL A   1      45.145  27.587  26.687  1.00  0.00     0.074 A 
ATOM     46  C   UNL A   1      45.226  26.204  26.269  1.00  0.00     0.031 C 
ATOM     47  C   UNL A   1      39.482  27.821  29.718  1.00  0.00     0.029 A 
ATOM     48  C   UNL A   1      40.450  28.901  29.558  1.00  0.00     0.049 A 
ATOM     49  H   UNL A   1      42.273  28.832  28.554  1.00  0.00     0.167 HD
ATOM     50  C   UNL A   1      46.095  28.519  26.434  1.00  0.00     0.037 A 
ATOM     51  C   UNL A   1      40.319  30.149  30.046  1.00  0.00     0.037 A 
ATOM     52  C   UNL A   1      46.007  29.895  26.849  1.00  0.00     0.049 A 
ATOM     53  C   UNL A   1      41.409  31.155  29.795  1.00  0.00     0.074 A 
ATOM     54  C   UNL A   1      46.893  30.929  26.608  1.00  0.00     0.029 A 
ATOM     55  N   UNL A   1      44.970  30.426  27.605  1.00  0.00    -0.354 N 
ATOM     56  N   UNL A   1      42.525  31.017  29.122  1.00  0.00    -0.248 NA
ATOM     57  C   UNL A   1      41.217  32.493  30.373  1.00  0.00     0.031 C 
ATOM     58  C   UNL A   1      46.422  32.071  27.268  1.00  0.00     0.029 A 
ATOM     59  C   UNL A   1      45.209  31.765  27.865  1.00  0.00     0.049 A 
ATOM     60  H   UNL A   1      44.180  29.923  27.912  1.00  0.00     0.167 HD
ATOM     61  C   UNL A   1      43.151  32.256  29.162  1.00  0.00     0.074 A 
ATOM     62  C   UNL A   1      42.285  33.135  29.921  1.00  0.00     0.031 C 
ATOM     63  C   UNL A   1      44.335  32.632  28.617  1.00  0.00     0.037 A 
BRANCH  50  64
ATOM     64  C   UNL A   1      47.314  28.066  25.678  1.00  0.00     0.064 A 
ATOM     65  C   UNL A   1      47.307  27.929  24.281  1.00  0.00     0.173 A 
ATOM     66  C   UNL A   1      48.501  27.756  26.359  1.00  0.00     0.173 A 
ATOM     67  F   UNL A   1      46.196  28.201  23.580  1.00  0.00    -0.203 F 
ATOM     68  C   UNL A   1      48.423  27.447  23.600  1.00  0.00     0.198 A 
ATOM     69  C   UNL A   1      49.627  27.313  25.671  1.00  0.00     0.198 A 
ATOM     70  F   UNL A   1      48.569  27.877  27.693  1.00  0.00    -0.203 F 
ATOM     71  F   UNL A   1      48.365  27.250  22.276  1.00  0.00    -0.200 F 
ATOM     72  C   UNL A   1      49.584  27.144  24.295  1.00  0.00     0.200 A 
ATOM     73  F   UNL A   1      50.754  27.035  26.342  1.00  0.00    -0.200 F 
ATOM     74  F   UNL A   1      50.656  26.675  23.640  1.00  0.00    -0.200 F 
ENDBRANCH  50  64
BRANCH  51  75
ATOM     75  C   UNL A   1      39.084  30.529  30.782  1.00  0.00     0.064 A 
ATOM     76  C   UNL A   1      39.017  30.402  32.176  1.00  0.00     0.173 A 
ATOM     77  C   UNL A   1      37.957  31.036  30.118  1.00  0.00     0.173 A 
ATOM     78  F   UNL A   1      40.062  29.904  32.853  1.00  0.00    -0.203 F 
ATOM     79  C   UNL A   1      37.866  30.752  32.878  1.00  0.00     0.198 A 
ATOM     80  C   UNL A   1      36.816  31.412  30.823  1.00  0.00     0.198 A 
ATOM     81  F   UNL A   1      37.971  31.182  28.785  1.00  0.00    -0.203 F 
ATOM     82  F   UNL A   1      37.815  30.583  34.206  1.00  0.00    -0.200 F 
ATOM     83  C   UNL A   1      36.768  31.264  32.202  1.00  0.00     0.200 A 
ATOM     84  F   UNL A   1      35.763  31.921  30.168  1.00  0.00    -0.200 F 
ATOM     85  F   UNL A   1      35.664  31.610  32.877  1.00  0.00    -0.200 F 
ENDBRANCH  51  75
BRANCH  63  86
ATOM     86  C   UNL A   1      44.745  34.068  28.781  1.00  0.00     0.064 A 
ATOM     87  C   UNL A   1      44.347  35.061  27.875  1.00  0.00     0.173 A 
ATOM     88  C   UNL A   1      45.517  34.461  29.886  1.00  0.00     0.173 A 
ATOM     89  F   UNL A   1      43.623  34.737  26.793  1.00  0.00    -0.203 F 
ATOM     90  C   UNL A   1      44.728  36.389  28.053  1.00  0.00     0.198 A 
ATOM     91  C   UNL A   1      45.867  35.794  30.081  1.00  0.00     0.198 A 
ATOM     92  F   UNL A   1      45.920  33.552  30.787  1.00  0.00    -0.203 F 
ATOM     93  F   UNL A   1      44.381  37.312  27.146  1.00  0.00    -0.200 F 
ATOM     94  C   UNL A   1      45.480  36.755  29.159  1.00  0.00     0.200 A 
ATOM     95  F   UNL A   1      46.579  36.148  31.160  1.00  0.00    -0.200 F 
ATOM     96  F   UNL A   1      45.838  38.035  29.335  1.00  0.00    -0.200 F 
ENDBRANCH  63  86
ENDBRANCH  37  38
ENDBRANCH  29  32
ENDBRANCH  27  28
ENDBRANCH  26  27
ENDBRANCH   1  26
TORSDOF 16
ENDMDL
MODEL 3
REMARK VINA RESULT:     -12.3      5.725     11.271
REMARK SMILES CC(C)(C)OC(=O)N[C@@H](C(=O)NCCCCNC(=O)c1ccc(-c2c3nc(c(-c4c(F)c(F)c(F)c(F)c4F)c4ccc([nH]4)c(-c4c(F)c(F)c(F)c(F)c4F)c4nc(c(-c5c(F)c(F)c(F)c(F)c5F)c5ccc2[nH]5)C=C4)C=C3)cc1)c1ccc([N+](=O)[O-])cc1
REMARK SMILES IDX 14 1 13 2 12 3 10 4 11 5 9 7 8 8 6 9 7 10 5 12 2 13 1 14
REMARK SMILES IDX 3 15 4 16 83 17 84 18 91 19 85 20 90 21 86 22 87 23 88 24
REMARK SMILES IDX 89 25 15 26 16 27 17 28 18 29 19 31 20 32 21 33 82 34 22 35
REMARK SMILES IDX 81 36 23 37 24 38 25 39 75 40 26 41 80 42 74 43 76 44 27 45
REMARK SMILES IDX 79 46 73 47 72 48 28 50 60 51 40 52 59 53 41 54 44 55 58 56
REMARK SMILES IDX 77 57 42 58 43 59 57 61 78 62 45 63 29 64 30 65 38 66 31 67
REMARK SMILES IDX 32 68 36 69 39 70 33 71 34 72 37 73 35 74 61 75 62 76 70 77
REMARK SMILES IDX 63 78 64 79 68 80 71 81 65 82 66 83 69 84 67 85 46 86 47 87
REMARK SMILES IDX 55 88 48 89 49 90 53 91 56 92 50 93 51 94 54 95 52 96
REMARK H PARENT 12 6 8 11 17 30 76 49 44 60
REMARK Flexibility Score: inf
ROOT
ATOM      1  C   UNL A   1      36.503  20.338  25.056  1.00  0.00     0.023 C 
ENDROOT
BRANCH   1   2
ATOM      2  C   UNL A   1      35.936  21.749  25.171  1.00  0.00     0.116 C 
BRANCH   2   3
ATOM      3  N   UNL A   1      35.413  22.003  26.491  1.00  0.00    -0.354 N 
ATOM      4  C   UNL A   1      34.123  21.998  26.937  1.00  0.00     0.247 C 
ATOM      5  O   UNL A   1      33.991  22.136  28.158  1.00  0.00    -0.272 OA
ATOM      6  H   UNL A   1      36.089  22.212  27.174  1.00  0.00     0.163 HD
BRANCH   4   7
ATOM      7  C   UNL A   1      32.925  21.701  25.970  1.00  0.00     0.205 C 
BRANCH   7   8
ATOM      8  N   UNL A   1      31.623  21.957  26.577  1.00  0.00    -0.306 N 
ATOM      9  C   UNL A   1      31.021  23.161  26.782  1.00  0.00     0.408 C 
ATOM     10  O   UNL A   1      29.942  23.232  27.354  1.00  0.00    -0.225 OA
ATOM     11  H   UNL A   1      31.121  21.165  26.874  1.00  0.00     0.168 HD
BRANCH   9  12
ATOM     12  O   UNL A   1      31.756  24.214  26.350  1.00  0.00    -0.444 OA
BRANCH  12  13
ATOM     13  C   UNL A   1      31.372  24.967  25.166  1.00  0.00     0.106 C 
ATOM     14  C   UNL A   1      32.666  25.653  24.698  1.00  0.00     0.056 C 
ATOM     15  C   UNL A   1      30.348  26.064  25.492  1.00  0.00     0.056 C 
ATOM     16  C   UNL A   1      30.872  24.042  24.054  1.00  0.00     0.056 C 
ENDBRANCH  12  13
ENDBRANCH   9  12
ENDBRANCH   7   8
BRANCH   7  17
ATOM     17  C   UNL A   1      32.955  20.270  25.430  1.00  0.00    -0.016 A 
ATOM     18  C   UNL A   1      32.946  19.156  26.292  1.00  0.00     0.013 A 
ATOM     19  C   UNL A   1      33.013  20.047  24.045  1.00  0.00     0.013 A 
ATOM     20  C   UNL A   1      33.090  17.859  25.794  1.00  0.00     0.086 A 
ATOM     21  C   UNL A   1      33.143  18.751  23.534  1.00  0.00     0.086 A 
ATOM     22  C   UNL A   1      33.207  17.664  24.415  1.00  0.00     0.269 A 
BRANCH  22  23
ATOM     23  N   UNL A   1      33.423  16.310  23.888  1.00  0.00     0.062 N 
ATOM     24  O   UNL A   1      33.045  15.353  24.580  1.00  0.00    -0.258 OA
ATOM     25  O   UNL A   1      33.980  16.202  22.786  1.00  0.00    -0.258 OA
ENDBRANCH  22  23
ENDBRANCH   7  17
ENDBRANCH   4   7
ENDBRANCH   2   3
ENDBRANCH   1   2
BRANCH   1  26
ATOM     26  C   UNL A   1      37.975  20.295  24.639  1.00  0.00     0.023 C 
BRANCH  26  27
ATOM     27  C   UNL A   1      38.972  20.450  25.779  1.00  0.00     0.116 C 
BRANCH  27  28
ATOM     28  N   UNL A   1      39.896  19.330  25.885  1.00  0.00    -0.352 N 
ATOM     29  C   UNL A   1      41.250  19.359  26.114  1.00  0.00     0.251 C 
ATOM     30  H   UNL A   1      39.499  18.437  25.778  1.00  0.00     0.163 HD
ATOM     31  O   UNL A   1      41.917  18.332  26.048  1.00  0.00    -0.269 OA
BRANCH  29  32
ATOM     32  C   UNL A   1      41.900  20.650  26.409  1.00  0.00     0.039 A 
ATOM     33  C   UNL A   1      42.248  21.490  25.349  1.00  0.00     0.014 A 
ATOM     34  C   UNL A   1      42.122  21.047  27.731  1.00  0.00     0.014 A 
ATOM     35  C   UNL A   1      42.758  22.761  25.618  1.00  0.00     0.010 A 
ATOM     36  C   UNL A   1      42.553  22.342  27.997  1.00  0.00     0.010 A 
ATOM     37  C   UNL A   1      42.878  23.210  26.944  1.00  0.00    -0.014 A 
BRANCH  37  38
ATOM     38  C   UNL A   1      43.348  24.584  27.253  1.00  0.00     0.031 A 
ATOM     39  C   UNL A   1      42.394  25.594  27.823  1.00  0.00     0.074 A 
ATOM     40  C   UNL A   1      44.613  24.938  26.960  1.00  0.00     0.049 A 
ATOM     41  N   UNL A   1      42.594  26.857  28.105  1.00  0.00    -0.248 NA
ATOM     42  C   UNL A   1      41.023  25.131  28.083  1.00  0.00     0.031 C 
ATOM     43  C   UNL A   1      45.623  24.060  26.370  1.00  0.00     0.029 A 
ATOM     44  N   UNL A   1      45.265  26.136  27.117  1.00  0.00    -0.354 N 
ATOM     45  C   UNL A   1      41.375  27.337  28.566  1.00  0.00     0.074 A 
ATOM     46  C   UNL A   1      40.425  26.251  28.456  1.00  0.00     0.031 C 
ATOM     47  C   UNL A   1      46.776  24.736  26.249  1.00  0.00     0.029 A 
ATOM     48  C   UNL A   1      46.576  26.106  26.710  1.00  0.00     0.049 A 
ATOM     49  H   UNL A   1      44.833  26.941  27.485  1.00  0.00     0.167 HD
ATOM     50  C   UNL A   1      41.080  28.563  29.063  1.00  0.00     0.037 A 
ATOM     51  C   UNL A   1      47.509  27.077  26.710  1.00  0.00     0.037 A 
ATOM     52  C   UNL A   1      42.031  29.638  29.173  1.00  0.00     0.049 A 
ATOM     53  C   UNL A   1      47.146  28.445  27.221  1.00  0.00     0.074 A 
ATOM     54  C   UNL A   1      41.847  30.904  29.700  1.00  0.00     0.029 A 
ATOM     55  N   UNL A   1      43.347  29.576  28.736  1.00  0.00    -0.354 N 
ATOM     56  N   UNL A   1      46.010  28.870  27.716  1.00  0.00    -0.248 NA
ATOM     57  C   UNL A   1      48.201  29.467  27.173  1.00  0.00     0.031 C 
ATOM     58  C   UNL A   1      43.034  31.627  29.528  1.00  0.00     0.029 A 
ATOM     59  C   UNL A   1      43.978  30.790  28.953  1.00  0.00     0.049 A 
ATOM     60  H   UNL A   1      43.770  28.784  28.330  1.00  0.00     0.167 HD
ATOM     61  C   UNL A   1      46.221  30.195  28.073  1.00  0.00     0.074 A 
ATOM     62  C   UNL A   1      47.599  30.500  27.744  1.00  0.00     0.031 C 
ATOM     63  C   UNL A   1      45.353  31.079  28.626  1.00  0.00     0.037 A 
BRANCH  50  64
ATOM     64  C   UNL A   1      39.665  28.796  29.514  1.00  0.00     0.064 A 
ATOM     65  C   UNL A   1      38.696  29.337  28.654  1.00  0.00     0.173 A 
ATOM     66  C   UNL A   1      39.273  28.484  30.825  1.00  0.00     0.173 A 
ATOM     67  F   UNL A   1      39.018  29.664  27.393  1.00  0.00    -0.203 F 
ATOM     68  C   UNL A   1      37.406  29.608  29.104  1.00  0.00     0.198 A 
ATOM     69  C   UNL A   1      37.971  28.719  31.259  1.00  0.00     0.198 A 
ATOM     70  F   UNL A   1      40.154  27.957  31.689  1.00  0.00    -0.203 F 
ATOM     71  F   UNL A   1      36.522  30.198  28.286  1.00  0.00    -0.200 F 
ATOM     72  C   UNL A   1      37.043  29.294  30.405  1.00  0.00     0.200 A 
ATOM     73  F   UNL A   1      37.617  28.401  32.513  1.00  0.00    -0.200 F 
ATOM     74  F   UNL A   1      35.802  29.559  30.838  1.00  0.00    -0.200 F 
ENDBRANCH  50  64
BRANCH  51  75
ATOM     75  C   UNL A   1      48.891  26.774  26.252  1.00  0.00     0.064 A 
ATOM     76  C   UNL A   1      49.831  26.227  27.137  1.00  0.00     0.173 A 
ATOM     77  C   UNL A   1      49.297  27.008  24.931  1.00  0.00     0.173 A 
ATOM     78  F   UNL A   1      49.495  26.003  28.415  1.00  0.00    -0.203 F 
ATOM     79  C   UNL A   1      51.129  25.940  26.722  1.00  0.00     0.198 A 
ATOM     80  C   UNL A   1      50.588  26.695  24.509  1.00  0.00     0.198 A 
ATOM     81  F   UNL A   1      48.435  27.525  24.044  1.00  0.00    -0.203 F 
ATOM     82  F   UNL A   1      52.019  25.455  27.599  1.00  0.00    -0.200 F 
ATOM     83  C   UNL A   1      51.505  26.167  25.407  1.00  0.00     0.200 A 
ATOM     84  F   UNL A   1      50.943  26.901  23.233  1.00  0.00    -0.200 F 
ATOM     85  F   UNL A   1      52.751  25.883  25.005  1.00  0.00    -0.200 F 
ENDBRANCH  51  75
BRANCH  63  86
ATOM     86  C   UNL A   1      45.877  32.448  28.955  1.00  0.00     0.064 A 
ATOM     87  C   UNL A   1      45.780  33.516  28.052  1.00  0.00     0.173 A 
ATOM     88  C   UNL A   1      46.450  32.703  30.211  1.00  0.00     0.173 A 
ATOM     89  F   UNL A   1      45.255  33.323  26.832  1.00  0.00    -0.203 F 
ATOM     90  C   UNL A   1      46.260  34.781  28.382  1.00  0.00     0.198 A 
ATOM     91  C   UNL A   1      46.898  33.976  30.552  1.00  0.00     0.198 A 
ATOM     92  F   UNL A   1      46.563  31.718  31.116  1.00  0.00    -0.203 F 
ATOM     93  F   UNL A   1      46.205  35.773  27.483  1.00  0.00    -0.200 F 
ATOM     94  C   UNL A   1      46.811  35.012  29.634  1.00  0.00     0.200 A 
ATOM     95  F   UNL A   1      47.414  34.200  31.769  1.00  0.00    -0.200 F 
ATOM     96  F   UNL A   1      47.264  36.231  29.954  1.00  0.00    -0.200 F 
ENDBRANCH  63  86
ENDBRANCH  37  38
ENDBRANCH  29  32
ENDBRANCH  27  28
ENDBRANCH  26  27
ENDBRANCH   1  26
TORSDOF 16
ENDMDL
