MODEL 1
REMARK VINA RESULT:     -14.6      0.000      0.000
REMARK SMILES O=C(CCNc1cc(N2CCC3(CC2)OCCO3)c2noc3c2c1C(=O)c1ccccc1-3)NCCCCNC(=O)c1ccc(-c2c3nc(c(-c4c(F)c(F)c(F)c(F)c4F)c4ccc([nH]4)c(-c4c(F)c(F)c(F)c(F)c4F)c4nc(c(-c5c(F)c(F)c(F)c(F)c5F)c5ccc2[nH]5)C=C4)C=C3)cc1
REMARK SMILES IDX 34 1 33 2 1 3 2 4 3 6 4 7 5 8 6 10 7 11 24 12 8 13 23 14
REMARK SMILES IDX 25 15 19 16 22 17 26 18 27 19 20 20 21 21 32 22 28 23 31 24
REMARK SMILES IDX 29 25 30 26 9 27 10 28 14 29 11 30 13 31 12 32 15 33 18 34
REMARK SMILES IDX 16 35 17 36 35 37 36 38 37 39 38 40 39 41 40 43 41 44 42 45
REMARK SMILES IDX 103 46 43 47 102 48 44 49 45 50 46 51 96 52 47 53 101 54
REMARK SMILES IDX 95 55 97 56 48 57 100 58 94 59 93 60 49 62 81 63 61 64 80 65
REMARK SMILES IDX 62 66 65 67 79 68 98 69 63 70 64 71 78 73 99 74 66 75 50 76
REMARK SMILES IDX 51 77 59 78 52 79 53 80 57 81 60 82 54 83 55 84 58 85 56 86
REMARK SMILES IDX 82 87 83 88 91 89 84 90 85 91 89 92 92 93 86 94 87 95 90 96
REMARK SMILES IDX 88 97 67 98 68 99 76 100 69 101 70 102 74 103 77 104 71 105
REMARK SMILES IDX 72 106 75 107 73 108
REMARK H PARENT 33 5 5 9 38 42 97 61 65 72
REMARK Flexibility Score: inf
ROOT
ATOM      1  C   UNL A   1      41.047  27.422  27.519  1.00  0.00     0.116 C 
ENDROOT
BRANCH   1   2
ATOM      2  N   UNL A   1      40.525  26.266  26.819  1.00  0.00    -0.356 N 
ATOM      3  O   UNL A   1      39.262  25.447  28.556  1.00  0.00    -0.275 OA
ATOM      4  C   UNL A   1      39.662  25.365  27.401  1.00  0.00     0.221 C 
ATOM      5  H   UNL A   1      40.799  26.118  25.885  1.00  0.00     0.163 HD
BRANCH   4   6
ATOM      6  C   UNL A   1      39.262  24.230  26.486  1.00  0.00     0.121 C 
BRANCH   6   7
ATOM      7  C   UNL A   1      37.750  24.083  26.378  1.00  0.00     0.123 C 
BRANCH   7   8
ATOM      8  N   UNL A   1      37.360  23.376  25.147  1.00  0.00    -0.384 N 
ATOM      9  H   UNL A   1      38.047  22.980  24.563  1.00  0.00     0.160 HD
BRANCH   8  10
ATOM     10  C   UNL A   1      35.997  23.272  24.814  1.00  0.00     0.048 A 
ATOM     11  C   UNL A   1      35.302  24.541  24.677  1.00  0.00     0.054 A 
ATOM     12  C   UNL A   1      35.280  22.057  24.733  1.00  0.00     0.059 A 
ATOM     13  C   UNL A   1      33.908  24.735  24.395  1.00  0.00     0.069 A 
ATOM     14  C   UNL A   1      33.947  22.296  24.452  1.00  0.00     0.065 A 
ATOM     15  C   UNL A   1      35.706  20.640  24.913  1.00  0.00     0.196 C 
ATOM     16  C   UNL A   1      33.231  23.502  24.283  1.00  0.00     0.138 A 
ATOM     17  C   UNL A   1      33.080  21.281  24.245  1.00  0.00     0.176 A 
ATOM     18  O   UNL A   1      36.817  20.349  25.335  1.00  0.00    -0.288 OA
ATOM     19  C   UNL A   1      34.714  19.547  24.586  1.00  0.00     0.034 A 
ATOM     20  N   UNL A   1      31.941  23.193  24.009  1.00  0.00    -0.077 NA
ATOM     21  O   UNL A   1      31.859  21.793  23.976  1.00  0.00    -0.355 OA
ATOM     22  C   UNL A   1      33.378  19.879  24.257  1.00  0.00     0.032 A 
ATOM     23  C   UNL A   1      35.115  18.212  24.600  1.00  0.00     0.013 A 
ATOM     24  C   UNL A   1      32.458  18.881  23.946  1.00  0.00     0.013 A 
ATOM     25  C   UNL A   1      34.190  17.216  24.282  1.00  0.00     0.001 A 
ATOM     26  C   UNL A   1      32.870  17.548  23.958  1.00  0.00     0.001 A 
BRANCH  13  27
ATOM     27  N   UNL A   1      33.318  25.959  24.196  1.00  0.00    -0.369 N 
ATOM     28  C   UNL A   1      33.026  26.413  22.853  1.00  0.00     0.122 C 
ATOM     29  C   UNL A   1      32.533  26.548  25.249  1.00  0.00     0.122 C 
ATOM     30  C   UNL A   1      31.557  26.109  22.497  1.00  0.00     0.087 C 
ATOM     31  C   UNL A   1      31.082  26.291  24.951  1.00  0.00     0.087 C 
ATOM     32  C   UNL A   1      30.581  26.779  23.506  1.00  0.00     0.171 C 
ATOM     33  O   UNL A   1      30.779  28.627  22.955  1.00  0.00    -0.347 OA
ATOM     34  O   UNL A   1      28.656  26.447  23.646  1.00  0.00    -0.347 OA
ATOM     35  C   UNL A   1      29.076  29.569  22.993  1.00  0.00     0.192 C 
ATOM     36  C   UNL A   1      27.645  28.143  23.388  1.00  0.00     0.192 C 
ENDBRANCH  13  27
ENDBRANCH   8  10
ENDBRANCH   7   8
ENDBRANCH   6   7
ENDBRANCH   4   6
ENDBRANCH   1   2
BRANCH   1  37
ATOM     37  C   UNL A   1      42.310  27.982  26.863  1.00  0.00     0.023 C 
BRANCH  37  38
ATOM     38  C   UNL A   1      42.227  29.449  26.430  1.00  0.00     0.023 C 
BRANCH  38  39
ATOM     39  C   UNL A   1      43.123  30.402  27.218  1.00  0.00     0.116 C 
BRANCH  39  40
ATOM     40  N   UNL A   1      44.344  30.776  26.515  1.00  0.00    -0.352 N 
ATOM     41  C   UNL A   1      44.980  31.998  26.467  1.00  0.00     0.251 C 
ATOM     42  H   UNL A   1      44.775  30.054  26.002  1.00  0.00     0.163 HD
ATOM     43  O   UNL A   1      45.979  32.173  25.780  1.00  0.00    -0.269 OA
BRANCH  41  44
ATOM     44  C   UNL A   1      44.370  33.126  27.183  1.00  0.00     0.039 A 
ATOM     45  C   UNL A   1      43.981  34.291  26.538  1.00  0.00     0.014 A 
ATOM     46  C   UNL A   1      44.301  33.054  28.559  1.00  0.00     0.014 A 
ATOM     47  C   UNL A   1      43.816  35.463  27.286  1.00  0.00     0.010 A 
ATOM     48  C   UNL A   1      44.158  34.235  29.280  1.00  0.00     0.010 A 
ATOM     49  C   UNL A   1      44.147  35.507  28.651  1.00  0.00    -0.014 A 
BRANCH  49  50
ATOM     50  C   UNL A   1      44.483  37.029  29.523  1.00  0.00     0.031 A 
ATOM     51  C   UNL A   1      46.152  36.711  29.188  1.00  0.00     0.074 A 
ATOM     52  C   UNL A   1      43.525  38.640  29.752  1.00  0.00     0.049 A 
ATOM     53  N   UNL A   1      46.630  37.214  28.080  1.00  0.00    -0.248 NA
ATOM     54  C   UNL A   1      47.152  35.918  29.900  1.00  0.00     0.031 C 
ATOM     55  C   UNL A   1      42.319  39.430  28.874  1.00  0.00     0.029 A 
ATOM     56  N   UNL A   1      43.549  39.753  30.765  1.00  0.00    -0.354 N 
ATOM     57  C   UNL A   1      47.960  36.984  27.995  1.00  0.00     0.074 A 
ATOM     58  C   UNL A   1      48.245  36.109  29.117  1.00  0.00     0.031 C 
ATOM     59  C   UNL A   1      42.292  40.739  29.183  1.00  0.00     0.029 A 
ATOM     60  C   UNL A   1      43.116  40.991  30.336  1.00  0.00     0.049 A 
ATOM     61  H   UNL A   1      43.859  39.605  31.688  1.00  0.00     0.167 HD
ATOM     62  C   UNL A   1      48.656  37.649  27.037  1.00  0.00     0.037 A 
ATOM     63  C   UNL A   1      43.685  42.167  30.710  1.00  0.00     0.037 A 
ATOM     64  C   UNL A   1      47.903  38.591  26.210  1.00  0.00     0.049 A 
ATOM     65  C   UNL A   1      44.752  42.369  29.631  1.00  0.00     0.074 A 
ATOM     66  C   UNL A   1      47.670  38.762  24.862  1.00  0.00     0.029 A 
ATOM     67  N   UNL A   1      47.218  39.611  26.845  1.00  0.00    -0.354 N 
ATOM     68  N   UNL A   1      44.493  42.447  28.343  1.00  0.00    -0.248 NA
ATOM     69  C   UNL A   1      46.188  42.162  29.895  1.00  0.00     0.031 C 
ATOM     70  C   UNL A   1      46.807  39.891  24.712  1.00  0.00     0.029 A 
ATOM     71  C   UNL A   1      46.527  40.420  25.966  1.00  0.00     0.049 A 
ATOM     72  H   UNL A   1      47.224  39.745  27.821  1.00  0.00     0.167 HD
ATOM     73  C   UNL A   1      45.626  41.966  27.690  1.00  0.00     0.074 A 
ATOM     74  C   UNL A   1      46.671  41.919  28.676  1.00  0.00     0.031 C 
ATOM     75  C   UNL A   1      45.591  41.429  26.438  1.00  0.00     0.037 A 
BRANCH  62  76
ATOM     76  C   UNL A   1      50.125  37.626  26.901  1.00  0.00     0.064 A 
ATOM     77  C   UNL A   1      50.874  38.527  27.676  1.00  0.00     0.173 A 
ATOM     78  C   UNL A   1      50.790  36.893  25.916  1.00  0.00     0.173 A 
ATOM     79  F   UNL A   1      50.273  39.248  28.638  1.00  0.00    -0.203 F 
ATOM     80  C   UNL A   1      52.233  38.710  27.458  1.00  0.00     0.198 A 
ATOM     81  C   UNL A   1      52.159  37.072  25.705  1.00  0.00     0.198 A 
ATOM     82  F   UNL A   1      50.114  36.039  25.134  1.00  0.00    -0.203 F 
ATOM     83  F   UNL A   1      52.913  39.599  28.195  1.00  0.00    -0.200 F 
ATOM     84  C   UNL A   1      52.876  37.985  26.468  1.00  0.00     0.200 A 
ATOM     85  F   UNL A   1      52.783  36.376  24.745  1.00  0.00    -0.200 F 
ATOM     86  F   UNL A   1      54.184  38.171  26.247  1.00  0.00    -0.200 F 
ENDBRANCH  62  76
BRANCH  63  87
ATOM     87  C   UNL A   1      43.819  42.258  32.207  1.00  0.00     0.064 A 
ATOM     88  C   UNL A   1      42.884  43.084  32.890  1.00  0.00     0.173 A 
ATOM     89  C   UNL A   1      44.721  41.581  33.028  1.00  0.00     0.173 A 
ATOM     90  F   UNL A   1      42.065  43.895  32.199  1.00  0.00    -0.203 F 
ATOM     91  C   UNL A   1      42.733  43.063  34.275  1.00  0.00     0.198 A 
ATOM     92  C   UNL A   1      44.560  41.541  34.419  1.00  0.00     0.198 A 
ATOM     93  F   UNL A   1      45.789  40.956  32.523  1.00  0.00    -0.203 F 
ATOM     94  F   UNL A   1      41.776  43.800  34.854  1.00  0.00    -0.200 F 
ATOM     95  C   UNL A   1      43.547  42.253  35.039  1.00  0.00     0.200 A 
ATOM     96  F   UNL A   1      45.386  40.787  35.157  1.00  0.00    -0.200 F 
ATOM     97  F   UNL A   1      43.371  42.172  36.364  1.00  0.00    -0.200 F 
ENDBRANCH  63  87
BRANCH  75  98
ATOM     98  C   UNL A   1      44.432  41.880  25.602  1.00  0.00     0.064 A 
ATOM     99  C   UNL A   1      44.518  43.094  24.895  1.00  0.00     0.173 A 
ATOM    100  C   UNL A   1      43.256  41.132  25.461  1.00  0.00     0.173 A 
ATOM    101  F   UNL A   1      45.638  43.833  24.951  1.00  0.00    -0.203 F 
ATOM    102  C   UNL A   1      43.466  43.551  24.107  1.00  0.00     0.198 A 
ATOM    103  C   UNL A   1      42.213  41.582  24.650  1.00  0.00     0.198 A 
ATOM    104  F   UNL A   1      43.107  39.961  26.099  1.00  0.00    -0.203 F 
ATOM    105  F   UNL A   1      43.576  44.720  23.459  1.00  0.00    -0.200 F 
ATOM    106  C   UNL A   1      42.317  42.792  23.980  1.00  0.00     0.200 A 
ATOM    107  F   UNL A   1      41.106  40.838  24.509  1.00  0.00    -0.200 F 
ATOM    108  F   UNL A   1      41.314  43.219  23.199  1.00  0.00    -0.200 F 
ENDBRANCH  75  98
ENDBRANCH  49  50
ENDBRANCH  41  44
ENDBRANCH  39  40
ENDBRANCH  38  39
ENDBRANCH  37  38
ENDBRANCH   1  37
TORSDOF 15
ENDMDL
MODEL 2
REMARK VINA RESULT:     -14.5      4.674      5.703
REMARK SMILES O=C(CCNc1cc(N2CCC3(CC2)OCCO3)c2noc3c2c1C(=O)c1ccccc1-3)NCCCCNC(=O)c1ccc(-c2c3nc(c(-c4c(F)c(F)c(F)c(F)c4F)c4ccc([nH]4)c(-c4c(F)c(F)c(F)c(F)c4F)c4nc(c(-c5c(F)c(F)c(F)c(F)c5F)c5ccc2[nH]5)C=C4)C=C3)cc1
REMARK SMILES IDX 34 1 33 2 1 3 2 4 3 6 4 7 5 8 6 10 7 11 24 12 8 13 23 14
REMARK SMILES IDX 25 15 19 16 22 17 26 18 27 19 20 20 21 21 32 22 28 23 31 24
REMARK SMILES IDX 29 25 30 26 9 27 10 28 14 29 11 30 13 31 12 32 15 33 18 34
REMARK SMILES IDX 16 35 17 36 35 37 36 38 37 39 38 40 39 41 40 43 41 44 42 45
REMARK SMILES IDX 103 46 43 47 102 48 44 49 45 50 46 51 96 52 47 53 101 54
REMARK SMILES IDX 95 55 97 56 48 57 100 58 94 59 93 60 49 62 81 63 61 64 80 65
REMARK SMILES IDX 62 66 65 67 79 68 98 69 63 70 64 71 78 73 99 74 66 75 50 76
REMARK SMILES IDX 51 77 59 78 52 79 53 80 57 81 60 82 54 83 55 84 58 85 56 86
REMARK SMILES IDX 82 87 83 88 91 89 84 90 85 91 89 92 92 93 86 94 87 95 90 96
REMARK SMILES IDX 88 97 67 98 68 99 76 100 69 101 70 102 74 103 77 104 71 105
REMARK SMILES IDX 72 106 75 107 73 108
REMARK H PARENT 33 5 5 9 38 42 97 61 65 72
REMARK Flexibility Score: inf
ROOT
ATOM      1  C   UNL A   1      48.256  30.401  27.248  1.00  0.00     0.116 C 
ENDROOT
BRANCH   1   2
ATOM      2  N   UNL A   1      47.217  29.393  27.203  1.00  0.00    -0.356 N 
ATOM      3  O   UNL A   1      46.565  29.775  25.032  1.00  0.00    -0.275 OA
ATOM      4  C   UNL A   1      46.450  29.157  26.084  1.00  0.00     0.221 C 
ATOM      5  H   UNL A   1      47.052  28.851  28.008  1.00  0.00     0.163 HD
BRANCH   4   6
ATOM      6  C   UNL A   1      45.418  28.069  26.273  1.00  0.00     0.121 C 
BRANCH   6   7
ATOM      7  C   UNL A   1      45.738  26.824  25.457  1.00  0.00     0.123 C 
BRANCH   7   8
ATOM      8  N   UNL A   1      44.520  26.219  24.892  1.00  0.00    -0.384 N 
ATOM      9  H   UNL A   1      44.225  26.454  23.983  1.00  0.00     0.160 HD
BRANCH   8  10
ATOM     10  C   UNL A   1      43.783  25.302  25.665  1.00  0.00     0.048 A 
ATOM     11  C   UNL A   1      42.946  25.902  26.690  1.00  0.00     0.054 A 
ATOM     12  C   UNL A   1      43.906  23.897  25.579  1.00  0.00     0.059 A 
ATOM     13  C   UNL A   1      42.132  25.212  27.650  1.00  0.00     0.069 A 
ATOM     14  C   UNL A   1      43.098  23.280  26.516  1.00  0.00     0.065 A 
ATOM     15  C   UNL A   1      44.738  23.026  24.701  1.00  0.00     0.196 C 
ATOM     16  C   UNL A   1      42.249  23.812  27.512  1.00  0.00     0.138 A 
ATOM     17  C   UNL A   1      42.985  21.935  26.568  1.00  0.00     0.176 A 
ATOM     18  O   UNL A   1      45.607  23.486  23.972  1.00  0.00    -0.288 OA
ATOM     19  C   UNL A   1      44.506  21.533  24.748  1.00  0.00     0.034 A 
ATOM     20  N   UNL A   1      41.665  22.780  28.165  1.00  0.00    -0.077 NA
ATOM     21  O   UNL A   1      42.125  21.603  27.557  1.00  0.00    -0.355 OA
ATOM     22  C   UNL A   1      43.621  20.984  25.706  1.00  0.00     0.032 A 
ATOM     23  C   UNL A   1      45.156  20.696  23.842  1.00  0.00     0.013 A 
ATOM     24  C   UNL A   1      43.393  19.611  25.752  1.00  0.00     0.013 A 
ATOM     25  C   UNL A   1      44.920  19.321  23.889  1.00  0.00     0.001 A 
ATOM     26  C   UNL A   1      44.045  18.781  24.838  1.00  0.00     0.001 A 
BRANCH  13  27
ATOM     27  N   UNL A   1      41.296  25.831  28.548  1.00  0.00    -0.369 N 
ATOM     28  C   UNL A   1      41.756  26.985  29.290  1.00  0.00     0.122 C 
ATOM     29  C   UNL A   1      39.871  25.703  28.394  1.00  0.00     0.122 C 
ATOM     30  C   UNL A   1      41.294  28.282  28.597  1.00  0.00     0.087 C 
ATOM     31  C   UNL A   1      39.358  26.949  27.728  1.00  0.00     0.087 C 
ATOM     32  C   UNL A   1      39.746  28.326  28.455  1.00  0.00     0.171 C 
ATOM     33  O   UNL A   1      39.270  28.641  30.308  1.00  0.00    -0.347 OA
ATOM     34  O   UNL A   1      38.719  29.612  27.394  1.00  0.00    -0.347 OA
ATOM     35  C   UNL A   1      37.786  29.892  30.460  1.00  0.00     0.192 C 
ATOM     36  C   UNL A   1      37.438  30.597  28.558  1.00  0.00     0.192 C 
ENDBRANCH  13  27
ENDBRANCH   8  10
ENDBRANCH   7   8
ENDBRANCH   6   7
ENDBRANCH   4   6
ENDBRANCH   1   2
BRANCH   1  37
ATOM     37  C   UNL A   1      47.750  31.738  27.794  1.00  0.00     0.023 C 
BRANCH  37  38
ATOM     38  C   UNL A   1      48.009  32.952  26.896  1.00  0.00     0.023 C 
BRANCH  38  39
ATOM     39  C   UNL A   1      46.781  33.470  26.150  1.00  0.00     0.116 C 
BRANCH  39  40
ATOM     40  N   UNL A   1      45.789  32.440  25.864  1.00  0.00    -0.352 N 
ATOM     41  C   UNL A   1      44.456  32.396  26.212  1.00  0.00     0.251 C 
ATOM     42  H   UNL A   1      46.119  31.666  25.352  1.00  0.00     0.163 HD
ATOM     43  O   UNL A   1      43.757  31.426  25.946  1.00  0.00    -0.269 OA
BRANCH  41  44
ATOM     44  C   UNL A   1      43.910  33.504  27.007  1.00  0.00     0.039 A 
ATOM     45  C   UNL A   1      43.501  34.699  26.432  1.00  0.00     0.014 A 
ATOM     46  C   UNL A   1      43.927  33.382  28.381  1.00  0.00     0.014 A 
ATOM     47  C   UNL A   1      43.402  35.843  27.231  1.00  0.00     0.010 A 
ATOM     48  C   UNL A   1      43.849  34.536  29.152  1.00  0.00     0.010 A 
ATOM     49  C   UNL A   1      43.820  35.831  28.573  1.00  0.00    -0.014 A 
BRANCH  49  50
ATOM     50  C   UNL A   1      44.234  37.314  29.478  1.00  0.00     0.031 A 
ATOM     51  C   UNL A   1      45.887  36.875  29.201  1.00  0.00     0.074 A 
ATOM     52  C   UNL A   1      43.391  38.990  29.693  1.00  0.00     0.049 A 
ATOM     53  N   UNL A   1      46.442  37.354  28.118  1.00  0.00    -0.248 NA
ATOM     54  C   UNL A   1      46.797  36.002  29.938  1.00  0.00     0.031 C 
ATOM     55  C   UNL A   1      42.281  39.878  28.781  1.00  0.00     0.029 A 
ATOM     56  N   UNL A   1      43.459  40.087  30.721  1.00  0.00    -0.354 N 
ATOM     57  C   UNL A   1      47.754  37.025  28.079  1.00  0.00     0.074 A 
ATOM     58  C   UNL A   1      47.930  36.120  29.199  1.00  0.00     0.031 C 
ATOM     59  C   UNL A   1      42.340  41.181  29.107  1.00  0.00     0.029 A 
ATOM     60  C   UNL A   1      43.136  41.359  30.293  1.00  0.00     0.049 A 
ATOM     61  H   UNL A   1      43.722  39.906  31.653  1.00  0.00     0.167 HD
ATOM     62  C   UNL A   1      48.533  37.647  27.157  1.00  0.00     0.037 A 
ATOM     63  C   UNL A   1      43.776  42.485  30.704  1.00  0.00     0.037 A 
ATOM     64  C   UNL A   1      47.885  38.651  26.315  1.00  0.00     0.049 A 
ATOM     65  C   UNL A   1      44.896  42.618  29.669  1.00  0.00     0.074 A 
ATOM     66  C   UNL A   1      47.716  38.854  24.962  1.00  0.00     0.029 A 
ATOM     67  N   UNL A   1      47.253  39.713  26.938  1.00  0.00    -0.354 N 
ATOM     68  N   UNL A   1      44.692  42.729  28.373  1.00  0.00    -0.248 NA
ATOM     69  C   UNL A   1      46.301  42.300  29.982  1.00  0.00     0.031 C 
ATOM     70  C   UNL A   1      46.945  40.046  24.795  1.00  0.00     0.029 A 
ATOM     71  C   UNL A   1      46.658  40.581  26.045  1.00  0.00     0.049 A 
ATOM     72  H   UNL A   1      47.232  39.836  27.915  1.00  0.00     0.167 HD
ATOM     73  C   UNL A   1      45.810  42.172  27.756  1.00  0.00     0.074 A 
ATOM     74  C   UNL A   1      46.811  42.035  28.779  1.00  0.00     0.031 C 
ATOM     75  C   UNL A   1      45.782  41.651  26.496  1.00  0.00     0.037 A 
BRANCH  62  76
ATOM     76  C   UNL A   1      50.001  37.515  27.074  1.00  0.00     0.064 A 
ATOM     77  C   UNL A   1      50.787  38.554  27.601  1.00  0.00     0.173 A 
ATOM     78  C   UNL A   1      50.639  36.512  26.343  1.00  0.00     0.173 A 
ATOM     79  F   UNL A   1      50.212  39.536  28.316  1.00  0.00    -0.203 F 
ATOM     80  C   UNL A   1      52.157  38.604  27.382  1.00  0.00     0.198 A 
ATOM     81  C   UNL A   1      52.018  36.559  26.131  1.00  0.00     0.198 A 
ATOM     82  F   UNL A   1      49.928  35.514  25.799  1.00  0.00    -0.203 F 
ATOM     83  F   UNL A   1      52.874  39.624  27.873  1.00  0.00    -0.200 F 
ATOM     84  C   UNL A   1      52.773  37.608  26.642  1.00  0.00     0.200 A 
ATOM     85  F   UNL A   1      52.617  35.601  25.412  1.00  0.00    -0.200 F 
ATOM     86  F   UNL A   1      54.093  37.663  26.417  1.00  0.00    -0.200 F 
ENDBRANCH  62  76
BRANCH  63  87
ATOM     87  C   UNL A   1      43.860  42.549  32.206  1.00  0.00     0.064 A 
ATOM     88  C   UNL A   1      42.899  43.358  32.872  1.00  0.00     0.173 A 
ATOM     89  C   UNL A   1      44.737  41.860  33.045  1.00  0.00     0.173 A 
ATOM     90  F   UNL A   1      42.100  44.179  32.169  1.00  0.00    -0.203 F 
ATOM     91  C   UNL A   1      42.702  43.312  34.251  1.00  0.00     0.198 A 
ATOM     92  C   UNL A   1      44.530  41.795  34.429  1.00  0.00     0.198 A 
ATOM     93  F   UNL A   1      45.824  41.249  32.564  1.00  0.00    -0.203 F 
ATOM     94  F   UNL A   1      41.723  44.034  34.810  1.00  0.00    -0.200 F 
ATOM     95  C   UNL A   1      43.494  42.492  35.026  1.00  0.00     0.200 A 
ATOM     96  F   UNL A   1      45.334  41.030  35.180  1.00  0.00    -0.200 F 
ATOM     97  F   UNL A   1      43.274  42.386  36.343  1.00  0.00    -0.200 F 
ENDBRANCH  63  87
BRANCH  75  98
ATOM     98  C   UNL A   1      44.694  42.197  25.624  1.00  0.00     0.064 A 
ATOM     99  C   UNL A   1      44.834  43.478  25.058  1.00  0.00     0.173 A 
ATOM    100  C   UNL A   1      43.532  41.477  25.312  1.00  0.00     0.173 A 
ATOM    101  F   UNL A   1      45.945  44.199  25.279  1.00  0.00    -0.203 F 
ATOM    102  C   UNL A   1      43.848  44.024  24.242  1.00  0.00     0.198 A 
ATOM    103  C   UNL A   1      42.556  42.019  24.474  1.00  0.00     0.198 A 
ATOM    104  F   UNL A   1      43.334  40.247  25.810  1.00  0.00    -0.203 F 
ATOM    105  F   UNL A   1      44.007  45.254  23.732  1.00  0.00    -0.200 F 
ATOM    106  C   UNL A   1      42.712  43.292  23.946  1.00  0.00     0.200 A 
ATOM    107  F   UNL A   1      41.464  41.302  24.169  1.00  0.00    -0.200 F 
ATOM    108  F   UNL A   1      41.773  43.806  23.138  1.00  0.00    -0.200 F 
ENDBRANCH  75  98
ENDBRANCH  49  50
ENDBRANCH  41  44
ENDBRANCH  39  40
ENDBRANCH  38  39
ENDBRANCH  37  38
ENDBRANCH   1  37
TORSDOF 15
ENDMDL
MODEL 3
REMARK VINA RESULT:     -14.1      5.296     10.147
REMARK SMILES O=C(CCNc1cc(N2CCC3(CC2)OCCO3)c2noc3c2c1C(=O)c1ccccc1-3)NCCCCNC(=O)c1ccc(-c2c3nc(c(-c4c(F)c(F)c(F)c(F)c4F)c4ccc([nH]4)c(-c4c(F)c(F)c(F)c(F)c4F)c4nc(c(-c5c(F)c(F)c(F)c(F)c5F)c5ccc2[nH]5)C=C4)C=C3)cc1
REMARK SMILES IDX 34 1 33 2 1 3 2 4 3 6 4 7 5 8 6 10 7 11 24 12 8 13 23 14
REMARK SMILES IDX 25 15 19 16 22 17 26 18 27 19 20 20 21 21 32 22 28 23 31 24
REMARK SMILES IDX 29 25 30 26 9 27 10 28 14 29 11 30 13 31 12 32 15 33 18 34
REMARK SMILES IDX 16 35 17 36 35 37 36 38 37 39 38 40 39 41 40 43 41 44 42 45
REMARK SMILES IDX 103 46 43 47 102 48 44 49 45 50 46 51 96 52 47 53 101 54
REMARK SMILES IDX 95 55 97 56 48 57 100 58 94 59 93 60 49 62 81 63 61 64 80 65
REMARK SMILES IDX 62 66 65 67 79 68 98 69 63 70 64 71 78 73 99 74 66 75 50 76
REMARK SMILES IDX 51 77 59 78 52 79 53 80 57 81 60 82 54 83 55 84 58 85 56 86
REMARK SMILES IDX 82 87 83 88 91 89 84 90 85 91 89 92 92 93 86 94 87 95 90 96
REMARK SMILES IDX 88 97 67 98 68 99 76 100 69 101 70 102 74 103 77 104 71 105
REMARK SMILES IDX 72 106 75 107 73 108
REMARK H PARENT 33 5 5 9 38 42 97 61 65 72
REMARK Flexibility Score: inf
ROOT
ATOM      1  C   UNL A   1      41.753  23.525  28.374  1.00  0.00     0.116 C 
ENDROOT
BRANCH   1   2
ATOM      2  N   UNL A   1      40.805  22.931  27.453  1.00  0.00    -0.356 N 
ATOM      3  O   UNL A   1      39.248  24.620  27.544  1.00  0.00    -0.275 OA
ATOM      4  C   UNL A   1      39.618  23.536  27.106  1.00  0.00     0.221 C 
ATOM      5  H   UNL A   1      41.019  22.056  27.056  1.00  0.00     0.163 HD
BRANCH   4   6
ATOM      6  C   UNL A   1      38.782  22.725  26.143  1.00  0.00     0.121 C 
BRANCH   6   7
ATOM      7  C   UNL A   1      37.784  23.587  25.380  1.00  0.00     0.123 C 
BRANCH   7   8
ATOM      8  N   UNL A   1      36.524  23.744  26.125  1.00  0.00    -0.384 N 
ATOM      9  H   UNL A   1      36.536  23.878  27.100  1.00  0.00     0.160 HD
BRANCH   8  10
ATOM     10  C   UNL A   1      35.302  23.702  25.428  1.00  0.00     0.048 A 
ATOM     11  C   UNL A   1      34.665  24.994  25.233  1.00  0.00     0.054 A 
ATOM     12  C   UNL A   1      34.639  22.517  25.039  1.00  0.00     0.059 A 
ATOM     13  C   UNL A   1      33.398  25.244  24.606  1.00  0.00     0.069 A 
ATOM     14  C   UNL A   1      33.431  22.811  24.434  1.00  0.00     0.065 A 
ATOM     15  C   UNL A   1      35.006  21.080  25.188  1.00  0.00     0.196 C 
ATOM     16  C   UNL A   1      32.781  24.043  24.196  1.00  0.00     0.138 A 
ATOM     17  C   UNL A   1      32.656  21.839  23.903  1.00  0.00     0.176 A 
ATOM     18  O   UNL A   1      35.963  20.725  25.864  1.00  0.00    -0.288 OA
ATOM     19  C   UNL A   1      34.144  20.045  24.502  1.00  0.00     0.034 A 
ATOM     20  N   UNL A   1      31.615  23.790  23.556  1.00  0.00    -0.077 NA
ATOM     21  O   UNL A   1      31.551  22.402  23.366  1.00  0.00    -0.355 OA
ATOM     22  C   UNL A   1      32.946  20.437  23.859  1.00  0.00     0.032 A 
ATOM     23  C   UNL A   1      34.533  18.706  24.493  1.00  0.00     0.013 A 
ATOM     24  C   UNL A   1      32.148  19.493  23.216  1.00  0.00     0.013 A 
ATOM     25  C   UNL A   1      33.732  17.765  23.842  1.00  0.00     0.001 A 
ATOM     26  C   UNL A   1      32.547  18.156  23.208  1.00  0.00     0.001 A 
BRANCH  13  27
ATOM     27  N   UNL A   1      32.878  26.495  24.375  1.00  0.00    -0.369 N 
ATOM     28  C   UNL A   1      32.720  26.975  23.019  1.00  0.00     0.122 C 
ATOM     29  C   UNL A   1      32.032  27.105  25.366  1.00  0.00     0.122 C 
ATOM     30  C   UNL A   1      31.275  26.738  22.536  1.00  0.00     0.087 C 
ATOM     31  C   UNL A   1      30.602  26.914  24.944  1.00  0.00     0.087 C 
ATOM     32  C   UNL A   1      30.246  27.438  23.469  1.00  0.00     0.171 C 
ATOM     33  O   UNL A   1      30.567  29.281  22.963  1.00  0.00    -0.347 OA
ATOM     34  O   UNL A   1      28.304  27.187  23.441  1.00  0.00    -0.347 OA
ATOM     35  C   UNL A   1      28.908  30.295  22.870  1.00  0.00     0.192 C 
ATOM     36  C   UNL A   1      27.391  28.928  23.123  1.00  0.00     0.192 C 
ENDBRANCH  13  27
ENDBRANCH   8  10
ENDBRANCH   7   8
ENDBRANCH   6   7
ENDBRANCH   4   6
ENDBRANCH   1   2
BRANCH   1  37
ATOM     37  C   UNL A   1      43.034  22.700  28.507  1.00  0.00     0.023 C 
BRANCH  37  38
ATOM     38  C   UNL A   1      44.338  23.503  28.444  1.00  0.00     0.023 C 
BRANCH  38  39
ATOM     39  C   UNL A   1      45.251  23.150  27.272  1.00  0.00     0.116 C 
BRANCH  39  40
ATOM     40  N   UNL A   1      44.550  22.564  26.136  1.00  0.00    -0.352 N 
ATOM     41  C   UNL A   1      43.937  23.194  25.074  1.00  0.00     0.251 C 
ATOM     42  H   UNL A   1      44.507  21.581  26.127  1.00  0.00     0.163 HD
ATOM     43  O   UNL A   1      43.333  22.560  24.216  1.00  0.00    -0.269 OA
BRANCH  41  44
ATOM     44  C   UNL A   1      43.935  24.663  25.045  1.00  0.00     0.039 A 
ATOM     45  C   UNL A   1      45.107  25.405  25.037  1.00  0.00     0.014 A 
ATOM     46  C   UNL A   1      42.721  25.308  25.154  1.00  0.00     0.014 A 
ATOM     47  C   UNL A   1      45.068  26.746  25.437  1.00  0.00     0.010 A 
ATOM     48  C   UNL A   1      42.709  26.634  25.574  1.00  0.00     0.010 A 
ATOM     49  C   UNL A   1      43.892  27.317  25.954  1.00  0.00    -0.014 A 
BRANCH  49  50
ATOM     50  C   UNL A   1      43.886  28.791  26.962  1.00  0.00     0.031 A 
ATOM     51  C   UNL A   1      43.399  27.754  28.261  1.00  0.00     0.074 A 
ATOM     52  C   UNL A   1      44.881  30.396  26.932  1.00  0.00     0.049 A 
ATOM     53  N   UNL A   1      44.358  27.236  28.984  1.00  0.00    -0.248 NA
ATOM     54  C   UNL A   1      42.083  27.287  28.689  1.00  0.00     0.031 C 
ATOM     55  C   UNL A   1      46.398  30.833  26.333  1.00  0.00     0.029 A 
ATOM     56  N   UNL A   1      44.662  31.789  27.458  1.00  0.00    -0.354 N 
ATOM     57  C   UNL A   1      43.839  26.540  30.021  1.00  0.00     0.074 A 
ATOM     58  C   UNL A   1      42.410  26.532  29.769  1.00  0.00     0.031 C 
ATOM     59  C   UNL A   1      46.847  31.940  26.951  1.00  0.00     0.029 A 
ATOM     60  C   UNL A   1      45.792  32.534  27.729  1.00  0.00     0.049 A 
ATOM     61  H   UNL A   1      43.758  32.150  27.604  1.00  0.00     0.167 HD
ATOM     62  C   UNL A   1      44.688  26.148  31.006  1.00  0.00     0.037 A 
ATOM     63  C   UNL A   1      45.913  33.373  28.791  1.00  0.00     0.037 A 
ATOM     64  C   UNL A   1      46.086  26.556  30.872  1.00  0.00     0.049 A 
ATOM     65  C   UNL A   1      46.486  32.451  29.869  1.00  0.00     0.074 A 
ATOM     66  C   UNL A   1      47.307  25.918  30.827  1.00  0.00     0.029 A 
ATOM     67  N   UNL A   1      46.361  27.907  30.759  1.00  0.00    -0.354 N 
ATOM     68  N   UNL A   1      47.621  31.795  29.752  1.00  0.00    -0.248 NA
ATOM     69  C   UNL A   1      45.671  31.949  30.991  1.00  0.00     0.031 C 
ATOM     70  C   UNL A   1      48.313  26.918  30.656  1.00  0.00     0.029 A 
ATOM     71  C   UNL A   1      47.709  28.169  30.615  1.00  0.00     0.049 A 
ATOM     72  H   UNL A   1      45.669  28.607  30.781  1.00  0.00     0.167 HD
ATOM     73  C   UNL A   1      47.484  30.643  30.523  1.00  0.00     0.074 A 
ATOM     74  C   UNL A   1      46.326  30.845  31.350  1.00  0.00     0.031 C 
ATOM     75  C   UNL A   1      48.192  29.502  30.288  1.00  0.00     0.037 A 
BRANCH  62  76
ATOM     76  C   UNL A   1      44.270  25.512  32.270  1.00  0.00     0.064 A 
ATOM     77  C   UNL A   1      43.982  26.345  33.364  1.00  0.00     0.173 A 
ATOM     78  C   UNL A   1      44.323  24.134  32.487  1.00  0.00     0.173 A 
ATOM     79  F   UNL A   1      43.917  27.677  33.196  1.00  0.00    -0.203 F 
ATOM     80  C   UNL A   1      43.783  25.823  34.635  1.00  0.00     0.198 A 
ATOM     81  C   UNL A   1      44.112  23.610  33.764  1.00  0.00     0.198 A 
ATOM     82  F   UNL A   1      44.618  23.300  31.479  1.00  0.00    -0.203 F 
ATOM     83  F   UNL A   1      43.540  26.647  35.664  1.00  0.00    -0.200 F 
ATOM     84  C   UNL A   1      43.852  24.454  34.836  1.00  0.00     0.200 A 
ATOM     85  F   UNL A   1      44.183  22.287  33.964  1.00  0.00    -0.200 F 
ATOM     86  F   UNL A   1      43.674  23.950  36.065  1.00  0.00    -0.200 F 
ENDBRANCH  62  76
BRANCH  63  87
ATOM     87  C   UNL A   1      44.747  34.322  28.874  1.00  0.00     0.064 A 
ATOM     88  C   UNL A   1      44.940  35.631  28.351  1.00  0.00     0.173 A 
ATOM     89  C   UNL A   1      43.463  34.060  29.354  1.00  0.00     0.173 A 
ATOM     90  F   UNL A   1      46.169  36.044  27.997  1.00  0.00    -0.203 F 
ATOM     91  C   UNL A   1      43.887  36.518  28.135  1.00  0.00     0.198 A 
ATOM     92  C   UNL A   1      42.399  34.941  29.121  1.00  0.00     0.198 A 
ATOM     93  F   UNL A   1      43.199  32.966  30.074  1.00  0.00    -0.203 F 
ATOM     94  F   UNL A   1      44.122  37.704  27.560  1.00  0.00    -0.200 F 
ATOM     95  C   UNL A   1      42.604  36.152  28.482  1.00  0.00     0.200 A 
ATOM     96  F   UNL A   1      41.162  34.595  29.503  1.00  0.00    -0.200 F 
ATOM     97  F   UNL A   1      41.573  36.966  28.220  1.00  0.00    -0.200 F 
ENDBRANCH  63  87
BRANCH  75  98
ATOM     98  C   UNL A   1      49.483  29.713  29.558  1.00  0.00     0.064 A 
ATOM     99  C   UNL A   1      49.580  29.354  28.200  1.00  0.00     0.173 A 
ATOM    100  C   UNL A   1      50.613  30.286  30.156  1.00  0.00     0.173 A 
ATOM    101  F   UNL A   1      48.517  28.845  27.557  1.00  0.00    -0.203 F 
ATOM    102  C   UNL A   1      50.759  29.532  27.484  1.00  0.00     0.198 A 
ATOM    103  C   UNL A   1      51.787  30.486  29.427  1.00  0.00     0.198 A 
ATOM    104  F   UNL A   1      50.592  30.660  31.444  1.00  0.00    -0.203 F 
ATOM    105  F   UNL A   1      50.822  29.164  26.196  1.00  0.00    -0.200 F 
ATOM    106  C   UNL A   1      51.860  30.104  28.096  1.00  0.00     0.200 A 
ATOM    107  F   UNL A   1      52.849  31.059  30.014  1.00  0.00    -0.200 F 
ATOM    108  F   UNL A   1      52.989  30.302  27.399  1.00  0.00    -0.200 F 
ENDBRANCH  75  98
ENDBRANCH  49  50
ENDBRANCH  41  44
ENDBRANCH  39  40
ENDBRANCH  38  39
ENDBRANCH  37  38
ENDBRANCH   1  37
TORSDOF 15
ENDMDL
