MODEL 1
REMARK VINA RESULT:     -12.4      0.000      0.000
REMARK SMILES CCCOC(=O)c1c(NC(=O)[C@@H]2CC=CC[C@H]2C(=O)NCCCCNC(=O)c2ccc(-c3c4nc(c(-c5c(F)c(F)c(F)c(F)c5F)c5ccc([nH]5)c(-c5c(F)c(F)c(F)c(F)c5F)c5nc(c(-c6c(F)c(F)c(F)c(F)c6F)c6ccc3[nH]6)C=C5)C=C4)cc2)sc2c1CCCC2
REMARK SMILES IDX 18 1 19 2 20 3 17 5 12 6 13 7 14 8 16 9 15 10 10 11 9 12
REMARK SMILES IDX 11 14 8 15 7 16 93 17 91 18 92 19 94 20 97 21 95 22 96 23
REMARK SMILES IDX 5 24 6 25 4 26 3 27 2 28 1 29 21 30 22 31 23 32 24 33 25 34
REMARK SMILES IDX 26 35 27 37 28 38 29 39 90 40 30 41 89 42 31 43 32 44 33 45
REMARK SMILES IDX 83 46 34 47 88 48 82 49 84 50 35 51 87 52 81 53 80 54 36 56
REMARK SMILES IDX 68 57 48 58 67 59 49 60 52 61 66 62 85 63 50 64 51 65 65 67
REMARK SMILES IDX 86 68 53 69 37 70 38 71 46 72 39 73 40 74 44 75 47 76 41 77
REMARK SMILES IDX 42 78 45 79 43 80 69 81 70 82 78 83 71 84 72 85 76 86 79 87
REMARK SMILES IDX 73 88 74 89 77 90 75 91 54 92 55 93 63 94 56 95 57 96 61 97
REMARK SMILES IDX 64 98 58 99 59 100 62 101 60 102
REMARK H PARENT 20 4 9 13 25 36 84 55 52 66
REMARK Flexibility Score: inf
ROOT
ATOM      1  C   UNL A   1      33.570  26.917  25.635  1.00  0.00     0.224 C 
ATOM      2  O   UNL A   1      34.369  25.977  25.735  1.00  0.00    -0.275 OA
ATOM      3  N   UNL A   1      34.030  28.113  26.094  1.00  0.00    -0.356 N 
ATOM      4  H   UNL A   1      34.848  28.039  26.638  1.00  0.00     0.163 HD
ENDROOT
BRANCH   1   5
ATOM      5  C   UNL A   1      32.210  26.661  24.958  1.00  0.00     0.095 C 
ATOM      6  C   UNL A   1      32.100  25.527  23.954  1.00  0.00     0.095 C 
ATOM      7  C   UNL A   1      30.825  25.655  23.115  1.00  0.00     0.041 C 
ATOM      8  C   UNL A   1      29.653  25.602  24.032  1.00  0.00    -0.030 C 
ATOM      9  C   UNL A   1      31.057  26.466  25.958  1.00  0.00     0.041 C 
ATOM     10  C   UNL A   1      29.769  25.953  25.322  1.00  0.00    -0.030 C 
BRANCH   6  11
ATOM     11  C   UNL A   1      33.215  25.339  23.008  1.00  0.00     0.229 C 
ATOM     12  N   UNL A   1      33.611  24.067  22.758  1.00  0.00    -0.317 N 
ATOM     13  H   UNL A   1      34.049  23.962  21.882  1.00  0.00     0.170 HD
ATOM     14  O   UNL A   1      33.704  26.271  22.371  1.00  0.00    -0.274 OA
BRANCH  12  15
ATOM     15  C   UNL A   1      33.531  22.885  23.470  1.00  0.00     0.110 A 
ATOM     16  C   UNL A   1      34.102  22.111  24.497  1.00  0.00     0.098 A 
ATOM     17  C   UNL A   1      33.655  20.722  24.312  1.00  0.00    -0.017 A 
ATOM     18  S   UNL A   1      32.244  22.067  22.676  1.00  0.00    -0.122 S 
ATOM     19  C   UNL A   1      32.721  20.593  23.303  1.00  0.00     0.011 A 
ATOM     20  C   UNL A   1      34.103  19.505  25.075  1.00  0.00     0.038 C 
ATOM     21  C   UNL A   1      32.153  19.327  22.750  1.00  0.00     0.047 C 
ATOM     22  C   UNL A   1      33.819  18.221  24.274  1.00  0.00     0.005 C 
ATOM     23  C   UNL A   1      32.394  18.169  23.714  1.00  0.00     0.006 C 
BRANCH  16  24
ATOM     24  C   UNL A   1      34.945  22.494  25.674  1.00  0.00     0.341 C 
ATOM     25  O   UNL A   1      36.161  22.353  25.638  1.00  0.00    -0.246 OA
BRANCH  24  26
ATOM     26  O   UNL A   1      34.296  23.161  26.713  1.00  0.00    -0.462 OA
BRANCH  26  27
ATOM     27  C   UNL A   1      33.161  22.463  27.323  1.00  0.00     0.233 C 
BRANCH  27  28
ATOM     28  C   UNL A   1      31.780  23.167  27.188  1.00  0.00     0.038 C 
ATOM     29  C   UNL A   1      30.834  22.578  26.128  1.00  0.00     0.007 C 
ENDBRANCH  27  28
ENDBRANCH  26  27
ENDBRANCH  24  26
ENDBRANCH  16  24
ENDBRANCH  12  15
ENDBRANCH   6  11
ENDBRANCH   1   5
BRANCH   3  30
ATOM     30  C   UNL A   1      33.558  29.471  25.941  1.00  0.00     0.116 C 
BRANCH  30  31
ATOM     31  C   UNL A   1      32.406  29.847  26.877  1.00  0.00     0.023 C 
BRANCH  31  32
ATOM     32  C   UNL A   1      31.971  31.308  26.876  1.00  0.00     0.023 C 
BRANCH  32  33
ATOM     33  C   UNL A   1      33.047  32.299  27.313  1.00  0.00     0.116 C 
BRANCH  33  34
ATOM     34  N   UNL A   1      32.555  33.642  27.623  1.00  0.00    -0.352 N 
ATOM     35  C   UNL A   1      33.033  34.580  28.522  1.00  0.00     0.251 C 
ATOM     36  H   UNL A   1      31.760  33.921  27.114  1.00  0.00     0.163 HD
ATOM     37  O   UNL A   1      32.528  35.679  28.646  1.00  0.00    -0.269 OA
BRANCH  35  38
ATOM     38  C   UNL A   1      34.189  34.229  29.356  1.00  0.00     0.039 A 
ATOM     39  C   UNL A   1      34.013  33.483  30.526  1.00  0.00     0.014 A 
ATOM     40  C   UNL A   1      35.454  34.613  28.928  1.00  0.00     0.014 A 
ATOM     41  C   UNL A   1      35.136  33.030  31.219  1.00  0.00     0.010 A 
ATOM     42  C   UNL A   1      36.560  34.068  29.547  1.00  0.00     0.010 A 
ATOM     43  C   UNL A   1      36.415  33.279  30.703  1.00  0.00    -0.014 A 
BRANCH  43  44
ATOM     44  C   UNL A   1      37.665  32.800  31.338  1.00  0.00     0.031 A 
ATOM     45  C   UNL A   1      38.406  31.681  30.664  1.00  0.00     0.074 A 
ATOM     46  C   UNL A   1      38.013  33.222  32.568  1.00  0.00     0.049 A 
ATOM     47  N   UNL A   1      39.269  30.836  31.160  1.00  0.00    -0.248 NA
ATOM     48  C   UNL A   1      38.056  31.433  29.254  1.00  0.00     0.031 C 
ATOM     49  C   UNL A   1      37.350  34.281  33.330  1.00  0.00     0.029 A 
ATOM     50  N   UNL A   1      38.994  32.769  33.413  1.00  0.00    -0.354 N 
ATOM     51  C   UNL A   1      39.508  29.917  30.146  1.00  0.00     0.074 A 
ATOM     52  C   UNL A   1      38.663  30.278  29.030  1.00  0.00     0.031 C 
ATOM     53  C   UNL A   1      37.947  34.399  34.528  1.00  0.00     0.029 A 
ATOM     54  C   UNL A   1      38.992  33.388  34.639  1.00  0.00     0.049 A 
ATOM     55  H   UNL A   1      39.639  32.068  33.164  1.00  0.00     0.167 HD
ATOM     56  C   UNL A   1      40.370  28.874  30.147  1.00  0.00     0.037 A 
ATOM     57  C   UNL A   1      39.736  33.140  35.734  1.00  0.00     0.037 A 
ATOM     58  C   UNL A   1      41.254  28.580  31.242  1.00  0.00     0.049 A 
ATOM     59  C   UNL A   1      40.733  32.011  35.689  1.00  0.00     0.074 A 
ATOM     60  C   UNL A   1      42.218  27.596  31.337  1.00  0.00     0.029 A 
ATOM     61  N   UNL A   1      41.291  29.300  32.429  1.00  0.00    -0.354 N 
ATOM     62  N   UNL A   1      40.971  31.154  34.725  1.00  0.00    -0.248 NA
ATOM     63  C   UNL A   1      41.566  31.815  36.884  1.00  0.00     0.031 C 
ATOM     64  C   UNL A   1      42.829  27.707  32.590  1.00  0.00     0.029 A 
ATOM     65  C   UNL A   1      42.273  28.787  33.258  1.00  0.00     0.049 A 
ATOM     66  H   UNL A   1      40.707  30.061  32.648  1.00  0.00     0.167 HD
ATOM     67  C   UNL A   1      42.006  30.348  35.177  1.00  0.00     0.074 A 
ATOM     68  C   UNL A   1      42.352  30.818  36.503  1.00  0.00     0.031 C 
ATOM     69  C   UNL A   1      42.618  29.311  34.555  1.00  0.00     0.037 A 
BRANCH  56  70
ATOM     70  C   UNL A   1      40.408  28.000  28.928  1.00  0.00     0.064 A 
ATOM     71  C   UNL A   1      41.186  28.328  27.808  1.00  0.00     0.173 A 
ATOM     72  C   UNL A   1      39.663  26.810  28.879  1.00  0.00     0.173 A 
ATOM     73  F   UNL A   1      41.904  29.462  27.793  1.00  0.00    -0.203 F 
ATOM     74  C   UNL A   1      41.187  27.523  26.671  1.00  0.00     0.198 A 
ATOM     75  C   UNL A   1      39.697  25.988  27.756  1.00  0.00     0.198 A 
ATOM     76  F   UNL A   1      38.903  26.444  29.922  1.00  0.00    -0.203 F 
ATOM     77  F   UNL A   1      41.887  27.896  25.591  1.00  0.00    -0.200 F 
ATOM     78  C   UNL A   1      40.449  26.351  26.649  1.00  0.00     0.200 A 
ATOM     79  F   UNL A   1      38.993  24.848  27.740  1.00  0.00    -0.200 F 
ATOM     80  F   UNL A   1      40.456  25.575  25.557  1.00  0.00    -0.200 F 
ENDBRANCH  56  70
BRANCH  57  81
ATOM     81  C   UNL A   1      39.595  33.989  36.945  1.00  0.00     0.064 A 
ATOM     82  C   UNL A   1      38.803  33.564  38.022  1.00  0.00     0.173 A 
ATOM     83  C   UNL A   1      40.233  35.233  37.058  1.00  0.00     0.173 A 
ATOM     84  F   UNL A   1      38.159  32.390  37.955  1.00  0.00    -0.203 F 
ATOM     85  C   UNL A   1      38.635  34.360  39.153  1.00  0.00     0.198 A 
ATOM     86  C   UNL A   1      40.086  36.017  38.202  1.00  0.00     0.198 A 
ATOM     87  F   UNL A   1      41.009  35.683  36.061  1.00  0.00    -0.203 F 
ATOM     88  F   UNL A   1      37.833  33.948  40.145  1.00  0.00    -0.200 F 
ATOM     89  C   UNL A   1      39.278  35.584  39.244  1.00  0.00     0.200 A 
ATOM     90  F   UNL A   1      40.722  37.192  38.294  1.00  0.00    -0.200 F 
ATOM     91  F   UNL A   1      39.117  36.349  40.333  1.00  0.00    -0.200 F 
ENDBRANCH  57  81
BRANCH  69  92
ATOM     92  C   UNL A   1      43.775  28.671  35.259  1.00  0.00     0.064 A 
ATOM     93  C   UNL A   1      45.093  29.105  35.060  1.00  0.00     0.173 A 
ATOM     94  C   UNL A   1      43.548  27.655  36.200  1.00  0.00     0.173 A 
ATOM     95  F   UNL A   1      45.360  30.063  34.162  1.00  0.00    -0.203 F 
ATOM     96  C   UNL A   1      46.145  28.533  35.770  1.00  0.00     0.198 A 
ATOM     97  C   UNL A   1      44.598  27.106  36.927  1.00  0.00     0.198 A 
ATOM     98  F   UNL A   1      42.301  27.214  36.430  1.00  0.00    -0.203 F 
ATOM     99  F   UNL A   1      47.402  28.936  35.541  1.00  0.00    -0.200 F 
ATOM    100  C   UNL A   1      45.896  27.541  36.708  1.00  0.00     0.200 A 
ATOM    101  F   UNL A   1      44.353  26.160  37.844  1.00  0.00    -0.200 F 
ATOM    102  F   UNL A   1      46.909  27.003  37.401  1.00  0.00    -0.200 F 
ENDBRANCH  69  92
ENDBRANCH  43  44
ENDBRANCH  35  38
ENDBRANCH  33  34
ENDBRANCH  32  33
ENDBRANCH  31  32
ENDBRANCH  30  31
ENDBRANCH   3  30
TORSDOF 17
ENDMDL
MODEL 2
REMARK VINA RESULT:     -12.1      5.219     10.486
REMARK SMILES CCCOC(=O)c1c(NC(=O)[C@@H]2CC=CC[C@H]2C(=O)NCCCCNC(=O)c2ccc(-c3c4nc(c(-c5c(F)c(F)c(F)c(F)c5F)c5ccc([nH]5)c(-c5c(F)c(F)c(F)c(F)c5F)c5nc(c(-c6c(F)c(F)c(F)c(F)c6F)c6ccc3[nH]6)C=C5)C=C4)cc2)sc2c1CCCC2
REMARK SMILES IDX 18 1 19 2 20 3 17 5 12 6 13 7 14 8 16 9 15 10 10 11 9 12
REMARK SMILES IDX 11 14 8 15 7 16 93 17 91 18 92 19 94 20 97 21 95 22 96 23
REMARK SMILES IDX 5 24 6 25 4 26 3 27 2 28 1 29 21 30 22 31 23 32 24 33 25 34
REMARK SMILES IDX 26 35 27 37 28 38 29 39 90 40 30 41 89 42 31 43 32 44 33 45
REMARK SMILES IDX 83 46 34 47 88 48 82 49 84 50 35 51 87 52 81 53 80 54 36 56
REMARK SMILES IDX 68 57 48 58 67 59 49 60 52 61 66 62 85 63 50 64 51 65 65 67
REMARK SMILES IDX 86 68 53 69 37 70 38 71 46 72 39 73 40 74 44 75 47 76 41 77
REMARK SMILES IDX 42 78 45 79 43 80 69 81 70 82 78 83 71 84 72 85 76 86 79 87
REMARK SMILES IDX 73 88 74 89 77 90 75 91 54 92 55 93 63 94 56 95 57 96 61 97
REMARK SMILES IDX 64 98 58 99 59 100 62 101 60 102
REMARK H PARENT 20 4 9 13 25 36 84 55 52 66
REMARK Flexibility Score: inf
ROOT
ATOM      1  C   UNL A   1      34.641  23.825  25.590  1.00  0.00     0.224 C 
ATOM      2  O   UNL A   1      34.661  25.053  25.744  1.00  0.00    -0.275 OA
ATOM      3  N   UNL A   1      35.648  23.152  26.210  1.00  0.00    -0.356 N 
ATOM      4  H   UNL A   1      36.380  23.734  26.520  1.00  0.00     0.163 HD
ENDROOT
BRANCH   1   5
ATOM      5  C   UNL A   1      33.477  23.199  24.798  1.00  0.00     0.095 C 
ATOM      6  C   UNL A   1      32.128  23.896  24.819  1.00  0.00     0.095 C 
ATOM      7  C   UNL A   1      31.019  22.965  24.319  1.00  0.00     0.041 C 
ATOM      8  C   UNL A   1      31.335  22.568  22.919  1.00  0.00    -0.030 C 
ATOM      9  C   UNL A   1      33.810  22.946  23.318  1.00  0.00     0.041 C 
ATOM     10  C   UNL A   1      32.599  22.579  22.467  1.00  0.00    -0.030 C 
BRANCH   6  11
ATOM     11  C   UNL A   1      31.665  24.456  26.102  1.00  0.00     0.229 C 
ATOM     12  N   UNL A   1      30.920  25.588  26.053  1.00  0.00    -0.317 N 
ATOM     13  H   UNL A   1      30.331  25.698  26.835  1.00  0.00     0.170 HD
ATOM     14  O   UNL A   1      31.836  23.879  27.174  1.00  0.00    -0.274 OA
BRANCH  12  15
ATOM     15  C   UNL A   1      30.809  26.619  25.140  1.00  0.00     0.110 A 
ATOM     16  C   UNL A   1      31.360  27.836  24.695  1.00  0.00     0.098 A 
ATOM     17  C   UNL A   1      30.324  28.539  23.922  1.00  0.00    -0.017 A 
ATOM     18  S   UNL A   1      29.362  26.214  24.305  1.00  0.00    -0.122 S 
ATOM     19  C   UNL A   1      29.189  27.776  23.735  1.00  0.00     0.011 A 
ATOM     20  C   UNL A   1      30.389  29.932  23.357  1.00  0.00     0.038 C 
ATOM     21  C   UNL A   1      27.897  28.208  23.122  1.00  0.00     0.047 C 
ATOM     22  C   UNL A   1      28.976  30.478  23.084  1.00  0.00     0.005 C 
ATOM     23  C   UNL A   1      28.091  29.490  22.318  1.00  0.00     0.006 C 
BRANCH  16  24
ATOM     24  C   UNL A   1      32.739  28.405  24.822  1.00  0.00     0.341 C 
ATOM     25  O   UNL A   1      32.983  29.258  25.665  1.00  0.00    -0.246 OA
BRANCH  24  26
ATOM     26  O   UNL A   1      33.736  27.794  24.061  1.00  0.00    -0.462 OA
BRANCH  26  27
ATOM     27  C   UNL A   1      33.501  27.731  22.616  1.00  0.00     0.233 C 
BRANCH  27  28
ATOM     28  C   UNL A   1      33.271  26.310  22.026  1.00  0.00     0.038 C 
ATOM     29  C   UNL A   1      31.874  26.052  21.437  1.00  0.00     0.007 C 
ENDBRANCH  27  28
ENDBRANCH  26  27
ENDBRANCH  24  26
ENDBRANCH  16  24
ENDBRANCH  12  15
ENDBRANCH   6  11
ENDBRANCH   1   5
BRANCH   3  30
ATOM     30  C   UNL A   1      35.859  21.753  26.505  1.00  0.00     0.116 C 
BRANCH  30  31
ATOM     31  C   UNL A   1      36.347  20.923  25.314  1.00  0.00     0.023 C 
BRANCH  31  32
ATOM     32  C   UNL A   1      37.774  21.175  24.841  1.00  0.00     0.023 C 
BRANCH  32  33
ATOM     33  C   UNL A   1      38.843  21.025  25.921  1.00  0.00     0.116 C 
BRANCH  33  34
ATOM     34  N   UNL A   1      39.735  19.878  25.746  1.00  0.00    -0.352 N 
ATOM     35  C   UNL A   1      41.101  19.772  25.947  1.00  0.00     0.251 C 
ATOM     36  H   UNL A   1      39.295  19.054  25.437  1.00  0.00     0.163 HD
ATOM     37  O   UNL A   1      41.704  18.729  25.787  1.00  0.00    -0.269 OA
BRANCH  35  38
ATOM     38  C   UNL A   1      41.844  20.968  26.366  1.00  0.00     0.039 A 
ATOM     39  C   UNL A   1      42.232  21.922  25.420  1.00  0.00     0.014 A 
ATOM     40  C   UNL A   1      42.103  21.144  27.718  1.00  0.00     0.014 A 
ATOM     41  C   UNL A   1      42.799  23.120  25.856  1.00  0.00     0.010 A 
ATOM     42  C   UNL A   1      42.555  22.373  28.154  1.00  0.00     0.010 A 
ATOM     43  C   UNL A   1      42.916  23.371  27.230  1.00  0.00    -0.014 A 
BRANCH  43  44
ATOM     44  C   UNL A   1      43.459  24.629  27.792  1.00  0.00     0.031 A 
ATOM     45  C   UNL A   1      42.479  25.686  28.214  1.00  0.00     0.074 A 
ATOM     46  C   UNL A   1      44.780  24.886  27.745  1.00  0.00     0.049 A 
ATOM     47  N   UNL A   1      42.653  26.971  28.368  1.00  0.00    -0.248 NA
ATOM     48  C   UNL A   1      41.088  25.236  28.405  1.00  0.00     0.031 C 
ATOM     49  C   UNL A   1      45.821  23.947  27.327  1.00  0.00     0.029 A 
ATOM     50  N   UNL A   1      45.464  26.044  28.013  1.00  0.00    -0.354 N 
ATOM     51  C   UNL A   1      41.386  27.489  28.601  1.00  0.00     0.074 A 
ATOM     52  C   UNL A   1      40.450  26.391  28.518  1.00  0.00     0.031 C 
ATOM     53  C   UNL A   1      47.013  24.564  27.371  1.00  0.00     0.029 A 
ATOM     54  C   UNL A   1      46.812  25.955  27.764  1.00  0.00     0.049 A 
ATOM     55  H   UNL A   1      45.033  26.860  28.354  1.00  0.00     0.167 HD
ATOM     56  C   UNL A   1      41.043  28.768  28.877  1.00  0.00     0.037 A 
ATOM     57  C   UNL A   1      47.766  26.903  27.820  1.00  0.00     0.037 A 
ATOM     58  C   UNL A   1      42.000  29.829  29.028  1.00  0.00     0.049 A 
ATOM     59  C   UNL A   1      47.367  28.309  28.188  1.00  0.00     0.074 A 
ATOM     60  C   UNL A   1      41.784  31.149  29.372  1.00  0.00     0.029 A 
ATOM     61  N   UNL A   1      43.370  29.672  28.867  1.00  0.00    -0.354 N 
ATOM     62  N   UNL A   1      46.172  28.795  28.426  1.00  0.00    -0.248 NA
ATOM     63  C   UNL A   1      48.448  29.298  28.298  1.00  0.00     0.031 C 
ATOM     64  C   UNL A   1      43.023  31.798  29.402  1.00  0.00     0.029 A 
ATOM     65  C   UNL A   1      44.014  30.871  29.118  1.00  0.00     0.049 A 
ATOM     66  H   UNL A   1      43.818  28.832  28.613  1.00  0.00     0.167 HD
ATOM     67  C   UNL A   1      46.360  30.130  28.754  1.00  0.00     0.074 A 
ATOM     68  C   UNL A   1      47.785  30.379  28.686  1.00  0.00     0.031 C 
ATOM     69  C   UNL A   1      45.440  31.068  29.083  1.00  0.00     0.037 A 
BRANCH  56  70
ATOM     70  C   UNL A   1      39.583  29.076  29.048  1.00  0.00     0.064 A 
ATOM     71  C   UNL A   1      38.967  29.049  30.308  1.00  0.00     0.173 A 
ATOM     72  C   UNL A   1      38.789  29.412  27.940  1.00  0.00     0.173 A 
ATOM     73  F   UNL A   1      39.674  28.717  31.399  1.00  0.00    -0.203 F 
ATOM     74  C   UNL A   1      37.605  29.307  30.449  1.00  0.00     0.198 A 
ATOM     75  C   UNL A   1      37.436  29.707  28.090  1.00  0.00     0.198 A 
ATOM     76  F   UNL A   1      39.326  29.456  26.712  1.00  0.00    -0.203 F 
ATOM     77  F   UNL A   1      37.029  29.209  31.654  1.00  0.00    -0.200 F 
ATOM     78  C   UNL A   1      36.844  29.643  29.341  1.00  0.00     0.200 A 
ATOM     79  F   UNL A   1      36.704  30.044  27.019  1.00  0.00    -0.200 F 
ATOM     80  F   UNL A   1      35.535  29.896  29.479  1.00  0.00    -0.200 F 
ENDBRANCH  56  70
BRANCH  57  81
ATOM     81  C   UNL A   1      49.187  26.556  27.557  1.00  0.00     0.064 A 
ATOM     82  C   UNL A   1      49.666  26.470  26.241  1.00  0.00     0.173 A 
ATOM     83  C   UNL A   1      50.093  26.298  28.596  1.00  0.00     0.173 A 
ATOM     84  F   UNL A   1      48.835  26.692  25.212  1.00  0.00    -0.203 F 
ATOM     85  C   UNL A   1      50.986  26.116  25.974  1.00  0.00     0.198 A 
ATOM     86  C   UNL A   1      51.422  25.970  28.328  1.00  0.00     0.198 A 
ATOM     87  F   UNL A   1      49.690  26.374  29.873  1.00  0.00    -0.203 F 
ATOM     88  F   UNL A   1      51.401  25.996  24.705  1.00  0.00    -0.200 F 
ATOM     89  C   UNL A   1      51.864  25.869  27.017  1.00  0.00     0.200 A 
ATOM     90  F   UNL A   1      52.272  25.748  29.339  1.00  0.00    -0.200 F 
ATOM     91  F   UNL A   1      53.135  25.529  26.760  1.00  0.00    -0.200 F 
ENDBRANCH  57  81
BRANCH  69  92
ATOM     92  C   UNL A   1      45.947  32.423  29.476  1.00  0.00     0.064 A 
ATOM     93  C   UNL A   1      46.069  33.463  28.545  1.00  0.00     0.173 A 
ATOM     94  C   UNL A   1      46.243  32.697  30.820  1.00  0.00     0.173 A 
ATOM     95  F   UNL A   1      45.810  33.245  27.249  1.00  0.00    -0.203 F 
ATOM     96  C   UNL A   1      46.487  34.730  28.946  1.00  0.00     0.198 A 
ATOM     97  C   UNL A   1      46.634  33.970  31.220  1.00  0.00     0.198 A 
ATOM     98  F   UNL A   1      46.131  31.733  31.747  1.00  0.00    -0.203 F 
ATOM     99  F   UNL A   1      46.633  35.702  28.037  1.00  0.00    -0.200 F 
ATOM    100  C   UNL A   1      46.760  34.985  30.283  1.00  0.00     0.200 A 
ATOM    101  F   UNL A   1      46.881  34.218  32.514  1.00  0.00    -0.200 F 
ATOM    102  F   UNL A   1      47.147  36.208  30.668  1.00  0.00    -0.200 F 
ENDBRANCH  69  92
ENDBRANCH  43  44
ENDBRANCH  35  38
ENDBRANCH  33  34
ENDBRANCH  32  33
ENDBRANCH  31  32
ENDBRANCH  30  31
ENDBRANCH   3  30
TORSDOF 17
ENDMDL
MODEL 3
REMARK VINA RESULT:     -12.0      5.166     10.370
REMARK SMILES CCCOC(=O)c1c(NC(=O)[C@@H]2CC=CC[C@H]2C(=O)NCCCCNC(=O)c2ccc(-c3c4nc(c(-c5c(F)c(F)c(F)c(F)c5F)c5ccc([nH]5)c(-c5c(F)c(F)c(F)c(F)c5F)c5nc(c(-c6c(F)c(F)c(F)c(F)c6F)c6ccc3[nH]6)C=C5)C=C4)cc2)sc2c1CCCC2
REMARK SMILES IDX 18 1 19 2 20 3 17 5 12 6 13 7 14 8 16 9 15 10 10 11 9 12
REMARK SMILES IDX 11 14 8 15 7 16 93 17 91 18 92 19 94 20 97 21 95 22 96 23
REMARK SMILES IDX 5 24 6 25 4 26 3 27 2 28 1 29 21 30 22 31 23 32 24 33 25 34
REMARK SMILES IDX 26 35 27 37 28 38 29 39 90 40 30 41 89 42 31 43 32 44 33 45
REMARK SMILES IDX 83 46 34 47 88 48 82 49 84 50 35 51 87 52 81 53 80 54 36 56
REMARK SMILES IDX 68 57 48 58 67 59 49 60 52 61 66 62 85 63 50 64 51 65 65 67
REMARK SMILES IDX 86 68 53 69 37 70 38 71 46 72 39 73 40 74 44 75 47 76 41 77
REMARK SMILES IDX 42 78 45 79 43 80 69 81 70 82 78 83 71 84 72 85 76 86 79 87
REMARK SMILES IDX 73 88 74 89 77 90 75 91 54 92 55 93 63 94 56 95 57 96 61 97
REMARK SMILES IDX 64 98 58 99 59 100 62 101 60 102
REMARK H PARENT 20 4 9 13 25 36 84 55 52 66
REMARK Flexibility Score: inf
ROOT
ATOM      1  C   UNL A   1      34.856  24.330  25.058  1.00  0.00     0.224 C 
ATOM      2  O   UNL A   1      34.779  25.561  24.953  1.00  0.00    -0.275 OA
ATOM      3  N   UNL A   1      35.930  23.880  25.764  1.00  0.00    -0.356 N 
ATOM      4  H   UNL A   1      36.618  24.568  25.916  1.00  0.00     0.163 HD
ENDROOT
BRANCH   1   5
ATOM      5  C   UNL A   1      33.729  23.465  24.462  1.00  0.00     0.095 C 
ATOM      6  C   UNL A   1      32.315  24.017  24.460  1.00  0.00     0.095 C 
ATOM      7  C   UNL A   1      31.291  22.908  24.196  1.00  0.00     0.041 C 
ATOM      8  C   UNL A   1      31.578  22.313  22.862  1.00  0.00    -0.030 C 
ATOM      9  C   UNL A   1      34.013  22.998  23.023  1.00  0.00     0.041 C 
ATOM     10  C   UNL A   1      32.808  22.372  22.329  1.00  0.00    -0.030 C 
BRANCH   6  11
ATOM     11  C   UNL A   1      31.859  24.739  25.661  1.00  0.00     0.229 C 
ATOM     12  N   UNL A   1      31.046  25.808  25.474  1.00  0.00    -0.317 N 
ATOM     13  H   UNL A   1      30.476  26.003  26.253  1.00  0.00     0.170 HD
ATOM     14  O   UNL A   1      32.096  24.340  26.800  1.00  0.00    -0.274 OA
BRANCH  12  15
ATOM     15  C   UNL A   1      30.847  26.682  24.423  1.00  0.00     0.110 A 
ATOM     16  C   UNL A   1      31.446  27.641  23.584  1.00  0.00     0.098 A 
ATOM     17  C   UNL A   1      30.370  28.452  22.993  1.00  0.00    -0.017 A 
ATOM     18  S   UNL A   1      29.160  26.525  24.132  1.00  0.00    -0.122 S 
ATOM     19  C   UNL A   1      29.111  27.975  23.302  1.00  0.00     0.011 A 
ATOM     20  C   UNL A   1      30.513  29.682  22.137  1.00  0.00     0.038 C 
ATOM     21  C   UNL A   1      27.798  28.614  22.991  1.00  0.00     0.047 C 
ATOM     22  C   UNL A   1      29.217  30.512  22.153  1.00  0.00     0.005 C 
ATOM     23  C   UNL A   1      27.963  29.669  21.901  1.00  0.00     0.006 C 
BRANCH  16  24
ATOM     24  C   UNL A   1      32.874  27.863  23.195  1.00  0.00     0.341 C 
ATOM     25  O   UNL A   1      33.369  27.236  22.267  1.00  0.00    -0.246 OA
BRANCH  24  26
ATOM     26  O   UNL A   1      33.533  28.920  23.823  1.00  0.00    -0.462 OA
BRANCH  26  27
ATOM     27  C   UNL A   1      33.712  28.803  25.273  1.00  0.00     0.233 C 
BRANCH  27  28
ATOM     28  C   UNL A   1      32.926  29.828  26.139  1.00  0.00     0.038 C 
ATOM     29  C   UNL A   1      31.869  29.228  27.083  1.00  0.00     0.007 C 
ENDBRANCH  27  28
ENDBRANCH  26  27
ENDBRANCH  24  26
ENDBRANCH  16  24
ENDBRANCH  12  15
ENDBRANCH   6  11
ENDBRANCH   1   5
BRANCH   3  30
ATOM     30  C   UNL A   1      36.262  22.594  26.335  1.00  0.00     0.116 C 
BRANCH  30  31
ATOM     31  C   UNL A   1      36.359  21.457  25.313  1.00  0.00     0.023 C 
BRANCH  31  32
ATOM     32  C   UNL A   1      37.751  21.125  24.788  1.00  0.00     0.023 C 
BRANCH  32  33
ATOM     33  C   UNL A   1      38.837  21.037  25.858  1.00  0.00     0.116 C 
BRANCH  33  34
ATOM     34  N   UNL A   1      39.728  19.883  25.734  1.00  0.00    -0.352 N 
ATOM     35  C   UNL A   1      41.082  19.770  25.999  1.00  0.00     0.251 C 
ATOM     36  H   UNL A   1      39.298  19.059  25.412  1.00  0.00     0.163 HD
ATOM     37  O   UNL A   1      41.685  18.722  25.876  1.00  0.00    -0.269 OA
BRANCH  35  38
ATOM     38  C   UNL A   1      41.814  20.965  26.441  1.00  0.00     0.039 A 
ATOM     39  C   UNL A   1      42.213  21.930  25.511  1.00  0.00     0.014 A 
ATOM     40  C   UNL A   1      42.050  21.129  27.800  1.00  0.00     0.014 A 
ATOM     41  C   UNL A   1      42.768  23.126  25.967  1.00  0.00     0.010 A 
ATOM     42  C   UNL A   1      42.490  22.356  28.254  1.00  0.00     0.010 A 
ATOM     43  C   UNL A   1      42.862  23.364  27.346  1.00  0.00    -0.014 A 
BRANCH  43  44
ATOM     44  C   UNL A   1      43.390  24.618  27.929  1.00  0.00     0.031 A 
ATOM     45  C   UNL A   1      42.400  25.678  28.320  1.00  0.00     0.074 A 
ATOM     46  C   UNL A   1      44.713  24.871  27.926  1.00  0.00     0.049 A 
ATOM     47  N   UNL A   1      42.574  26.962  28.482  1.00  0.00    -0.248 NA
ATOM     48  C   UNL A   1      41.002  25.233  28.463  1.00  0.00     0.031 C 
ATOM     49  C   UNL A   1      45.763  23.929  27.540  1.00  0.00     0.029 A 
ATOM     50  N   UNL A   1      45.392  26.025  28.220  1.00  0.00    -0.354 N 
ATOM     51  C   UNL A   1      41.302  27.484  28.674  1.00  0.00     0.074 A 
ATOM     52  C   UNL A   1      40.365  26.390  28.557  1.00  0.00     0.031 C 
ATOM     53  C   UNL A   1      46.956  24.541  27.626  1.00  0.00     0.029 A 
ATOM     54  C   UNL A   1      46.747  25.932  28.015  1.00  0.00     0.049 A 
ATOM     55  H   UNL A   1      44.952  26.842  28.547  1.00  0.00     0.167 HD
ATOM     56  C   UNL A   1      40.954  28.764  28.941  1.00  0.00     0.037 A 
ATOM     57  C   UNL A   1      47.702  26.877  28.105  1.00  0.00     0.037 A 
ATOM     58  C   UNL A   1      41.910  29.821  29.127  1.00  0.00     0.049 A 
ATOM     59  C   UNL A   1      47.296  28.283  28.463  1.00  0.00     0.074 A 
ATOM     60  C   UNL A   1      41.687  31.142  29.467  1.00  0.00     0.029 A 
ATOM     61  N   UNL A   1      43.284  29.659  29.012  1.00  0.00    -0.354 N 
ATOM     62  N   UNL A   1      46.095  28.773  28.662  1.00  0.00    -0.248 NA
ATOM     63  C   UNL A   1      48.376  29.268  28.611  1.00  0.00     0.031 C 
ATOM     64  C   UNL A   1      42.926  31.785  29.539  1.00  0.00     0.029 A 
ATOM     65  C   UNL A   1      43.923  30.855  29.286  1.00  0.00     0.049 A 
ATOM     66  H   UNL A   1      43.736  28.819  28.771  1.00  0.00     0.167 HD
ATOM     67  C   UNL A   1      46.277  30.107  29.000  1.00  0.00     0.074 A 
ATOM     68  C   UNL A   1      47.705  30.350  28.979  1.00  0.00     0.031 C 
ATOM     69  C   UNL A   1      45.350  31.048  29.300  1.00  0.00     0.037 A 
BRANCH  56  70
ATOM     70  C   UNL A   1      39.491  29.077  29.065  1.00  0.00     0.064 A 
ATOM     71  C   UNL A   1      38.713  29.419  27.948  1.00  0.00     0.173 A 
ATOM     72  C   UNL A   1      38.853  29.027  30.314  1.00  0.00     0.173 A 
ATOM     73  F   UNL A   1      39.275  29.499  26.733  1.00  0.00    -0.203 F 
ATOM     74  C   UNL A   1      37.363  29.737  28.081  1.00  0.00     0.198 A 
ATOM     75  C   UNL A   1      37.494  29.308  30.438  1.00  0.00     0.198 A 
ATOM     76  F   UNL A   1      39.547  28.703  31.416  1.00  0.00    -0.203 F 
ATOM     77  F   UNL A   1      36.661  30.124  27.009  1.00  0.00    -0.200 F 
ATOM     78  C   UNL A   1      36.754  29.674  29.325  1.00  0.00     0.200 A 
ATOM     79  F   UNL A   1      36.903  29.234  31.639  1.00  0.00    -0.200 F 
ATOM     80  F   UNL A   1      35.454  29.975  29.451  1.00  0.00    -0.200 F 
ENDBRANCH  56  70
BRANCH  57  81
ATOM     81  C   UNL A   1      49.130  26.525  27.889  1.00  0.00     0.064 A 
ATOM     82  C   UNL A   1      49.983  26.317  28.983  1.00  0.00     0.173 A 
ATOM     83  C   UNL A   1      49.676  26.393  26.604  1.00  0.00     0.173 A 
ATOM     84  F   UNL A   1      49.512  26.447  30.231  1.00  0.00    -0.203 F 
ATOM     85  C   UNL A   1      51.331  26.016  28.801  1.00  0.00     0.198 A 
ATOM     86  C   UNL A   1      51.020  26.065  26.423  1.00  0.00     0.198 A 
ATOM     87  F   UNL A   1      48.903  26.573  25.524  1.00  0.00    -0.203 F 
ATOM     88  F   UNL A   1      52.131  25.870  29.866  1.00  0.00    -0.200 F 
ATOM     89  C   UNL A   1      51.848  25.887  27.521  1.00  0.00     0.200 A 
ATOM     90  F   UNL A   1      51.512  25.926  25.185  1.00  0.00    -0.200 F 
ATOM     91  F   UNL A   1      53.145  25.597  27.347  1.00  0.00    -0.200 F 
ENDBRANCH  57  81
BRANCH  69  92
ATOM     92  C   UNL A   1      45.848  32.399  29.712  1.00  0.00     0.064 A 
ATOM     93  C   UNL A   1      46.162  32.696  31.045  1.00  0.00     0.173 A 
ATOM     94  C   UNL A   1      46.081  33.386  28.742  1.00  0.00     0.173 A 
ATOM     95  F   UNL A   1      45.944  31.789  32.008  1.00  0.00    -0.203 F 
ATOM     96  C   UNL A   1      46.679  33.940  31.394  1.00  0.00     0.198 A 
ATOM     97  C   UNL A   1      46.623  34.618  29.091  1.00  0.00     0.198 A 
ATOM     98  F   UNL A   1      45.804  33.144  27.451  1.00  0.00    -0.203 F 
ATOM     99  F   UNL A   1      46.940  34.218  32.679  1.00  0.00    -0.200 F 
ATOM    100  C   UNL A   1      46.917  34.896  30.417  1.00  0.00     0.200 A 
ATOM    101  F   UNL A   1      46.868  35.533  28.143  1.00  0.00    -0.200 F 
ATOM    102  F   UNL A   1      47.429  36.088  30.754  1.00  0.00    -0.200 F 
ENDBRANCH  69  92
ENDBRANCH  43  44
ENDBRANCH  35  38
ENDBRANCH  33  34
ENDBRANCH  32  33
ENDBRANCH  31  32
ENDBRANCH  30  31
ENDBRANCH   3  30
TORSDOF 17
ENDMDL
