MODEL 1
REMARK VINA RESULT:     -11.3      0.000      0.000
REMARK SMILES CCc1cc(C[NH+]2CCC(CC(=O)NCCCCNC(=O)c3ccc(-c4c5nc(c(-c6c(F)c(F)c(F)c(F)c6F)c6ccc([nH]6)c(-c6c(F)c(F)c(F)c(F)c6F)c6nc(c(-c7c(F)c(F)c(F)c(F)c7F)c7ccc4[nH]7)C=C6)C=C5)cc3)CC2)n(C)n1
REMARK SMILES IDX 15 1 14 2 12 3 13 4 11 6 10 7 7 8 8 9 86 10 9 12 85 13 6 14
REMARK SMILES IDX 5 15 3 16 4 17 89 18 87 19 88 20 2 21 1 22 16 23 17 24 18 25
REMARK SMILES IDX 19 26 20 27 21 29 22 30 23 31 84 32 24 33 83 34 25 35 26 36
REMARK SMILES IDX 27 37 77 38 28 39 82 40 76 41 78 42 29 43 81 44 75 45 74 46
REMARK SMILES IDX 30 48 62 49 42 50 61 51 43 52 46 53 60 54 79 55 44 56 45 57
REMARK SMILES IDX 59 59 80 60 47 61 31 62 32 63 40 64 33 65 34 66 38 67 41 68
REMARK SMILES IDX 35 69 36 70 39 71 37 72 63 73 64 74 72 75 65 76 66 77 70 78
REMARK SMILES IDX 73 79 67 80 68 81 71 82 69 83 48 84 49 85 57 86 50 87 51 88
REMARK SMILES IDX 55 89 58 90 52 91 53 92 56 93 54 94
REMARK H PARENT 14 5 7 11 19 28 78 47 46 58
REMARK Flexibility Score: inf
ROOT
ATOM      1  C   UNL A   1      31.538  29.703  25.054  1.00  0.00     0.116 C 
ENDROOT
BRANCH   1   2
ATOM      2  N   UNL A   1      30.898  29.609  23.752  1.00  0.00    -0.356 N 
ATOM      3  C   UNL A   1      30.261  28.567  23.138  1.00  0.00     0.220 C 
ATOM      4  O   UNL A   1      29.820  28.750  22.002  1.00  0.00    -0.275 OA
ATOM      5  H   UNL A   1      30.928  30.439  23.221  1.00  0.00     0.163 HD
BRANCH   3   6
ATOM      6  C   UNL A   1      30.117  27.206  23.815  1.00  0.00     0.104 C 
BRANCH   6   7
ATOM      7  C   UNL A   1      30.822  26.067  23.047  1.00  0.00     0.009 C 
ATOM      8  N   UNL A   1      32.939  24.005  23.176  1.00  0.00    -0.330 N 
ATOM      9  C   UNL A   1      33.173  25.244  22.436  1.00  0.00     0.262 C 
ATOM     10  C   UNL A   1      31.525  23.617  23.080  1.00  0.00     0.262 C 
ATOM     11  H   UNL A   1      33.132  24.167  24.164  1.00  0.00     0.348 HD
ATOM     12  C   UNL A   1      32.307  26.363  22.954  1.00  0.00     0.066 C 
ATOM     13  C   UNL A   1      30.614  24.695  23.699  1.00  0.00     0.066 C 
BRANCH   8  14
ATOM     14  C   UNL A   1      33.881  22.939  22.774  1.00  0.00     0.319 C 
BRANCH  14  15
ATOM     15  C   UNL A   1      34.964  22.695  23.772  1.00  0.00     0.093 A 
ATOM     16  C   UNL A   1      36.642  22.980  25.198  1.00  0.00     0.063 A 
ATOM     17  C   UNL A   1      36.181  23.332  23.912  1.00  0.00     0.055 A 
ATOM     18  N   UNL A   1      35.859  22.051  25.756  1.00  0.00    -0.178 NA
ATOM     19  N   UNL A   1      34.865  21.864  24.865  1.00  0.00    -0.267 N 
ATOM     20  C   UNL A   1      33.802  20.960  25.240  1.00  0.00     0.174 C 
BRANCH  16  21
ATOM     21  C   UNL A   1      37.780  23.613  25.927  1.00  0.00     0.055 C 
ATOM     22  C   UNL A   1      38.929  22.680  26.275  1.00  0.00     0.011 C 
ENDBRANCH  16  21
ENDBRANCH  14  15
ENDBRANCH   8  14
ENDBRANCH   6   7
ENDBRANCH   3   6
ENDBRANCH   1   2
BRANCH   1  23
ATOM     23  C   UNL A   1      33.060  29.514  24.972  1.00  0.00     0.023 C 
BRANCH  23  24
ATOM     24  C   UNL A   1      33.631  28.366  25.780  1.00  0.00     0.023 C 
BRANCH  24  25
ATOM     25  C   UNL A   1      33.583  28.584  27.275  1.00  0.00     0.116 C 
BRANCH  25  26
ATOM     26  N   UNL A   1      33.625  29.989  27.667  1.00  0.00    -0.352 N 
ATOM     27  C   UNL A   1      34.689  30.702  28.174  1.00  0.00     0.251 C 
ATOM     28  H   UNL A   1      32.786  30.492  27.554  1.00  0.00     0.163 HD
ATOM     29  O   UNL A   1      34.562  31.861  28.538  1.00  0.00    -0.269 OA
BRANCH  27  30
ATOM     30  C   UNL A   1      35.983  30.006  28.316  1.00  0.00     0.039 A 
ATOM     31  C   UNL A   1      36.945  30.146  27.315  1.00  0.00     0.014 A 
ATOM     32  C   UNL A   1      36.280  29.341  29.507  1.00  0.00     0.014 A 
ATOM     33  C   UNL A   1      38.245  29.702  27.553  1.00  0.00     0.010 A 
ATOM     34  C   UNL A   1      37.595  29.006  29.783  1.00  0.00     0.010 A 
ATOM     35  C   UNL A   1      38.591  29.181  28.809  1.00  0.00    -0.014 A 
BRANCH  35  36
ATOM     36  C   UNL A   1      39.978  28.773  29.141  1.00  0.00     0.031 A 
ATOM     37  C   UNL A   1      40.860  29.734  29.886  1.00  0.00     0.074 A 
ATOM     38  C   UNL A   1      40.473  27.607  28.681  1.00  0.00     0.049 A 
ATOM     39  N   UNL A   1      42.145  29.673  30.121  1.00  0.00    -0.248 NA
ATOM     40  C   UNL A   1      40.215  30.958  30.393  1.00  0.00     0.031 C 
ATOM     41  C   UNL A   1      39.733  26.616  27.899  1.00  0.00     0.029 A 
ATOM     42  N   UNL A   1      41.730  27.067  28.795  1.00  0.00    -0.354 N 
ATOM     43  C   UNL A   1      42.464  30.862  30.760  1.00  0.00     0.074 A 
ATOM     44  C   UNL A   1      41.254  31.652  30.826  1.00  0.00     0.031 C 
ATOM     45  C   UNL A   1      40.541  25.579  27.623  1.00  0.00     0.029 A 
ATOM     46  C   UNL A   1      41.866  25.850  28.173  1.00  0.00     0.049 A 
ATOM     47  H   UNL A   1      42.466  27.511  29.275  1.00  0.00     0.167 HD
ATOM     48  C   UNL A   1      43.655  31.251  31.272  1.00  0.00     0.037 A 
ATOM     49  C   UNL A   1      42.943  25.051  28.056  1.00  0.00     0.037 A 
ATOM     50  C   UNL A   1      44.836  30.434  31.262  1.00  0.00     0.049 A 
ATOM     51  C   UNL A   1      44.245  25.486  28.672  1.00  0.00     0.074 A 
ATOM     52  C   UNL A   1      46.075  30.700  31.818  1.00  0.00     0.029 A 
ATOM     53  N   UNL A   1      44.917  29.180  30.675  1.00  0.00    -0.354 N 
ATOM     54  N   UNL A   1      44.526  26.592  29.318  1.00  0.00    -0.248 NA
ATOM     55  C   UNL A   1      45.381  24.562  28.542  1.00  0.00     0.031 C 
ATOM     56  C   UNL A   1      46.913  29.613  31.547  1.00  0.00     0.029 A 
ATOM     57  C   UNL A   1      46.188  28.659  30.852  1.00  0.00     0.049 A 
ATOM     58  H   UNL A   1      44.181  28.728  30.202  1.00  0.00     0.167 HD
ATOM     59  C   UNL A   1      45.856  26.485  29.698  1.00  0.00     0.074 A 
ATOM     60  C   UNL A   1      46.328  25.203  29.216  1.00  0.00     0.031 C 
ATOM     61  C   UNL A   1      46.621  27.369  30.383  1.00  0.00     0.037 A 
BRANCH  48  62
ATOM     62  C   UNL A   1      43.724  32.609  31.902  1.00  0.00     0.064 A 
ATOM     63  C   UNL A   1      44.056  33.750  31.155  1.00  0.00     0.173 A 
ATOM     64  C   UNL A   1      43.446  32.776  33.268  1.00  0.00     0.173 A 
ATOM     65  F   UNL A   1      44.350  33.640  29.851  1.00  0.00    -0.203 F 
ATOM     66  C   UNL A   1      44.143  35.002  31.758  1.00  0.00     0.198 A 
ATOM     67  C   UNL A   1      43.502  34.034  33.861  1.00  0.00     0.198 A 
ATOM     68  F   UNL A   1      43.122  31.719  34.026  1.00  0.00    -0.203 F 
ATOM     69  F   UNL A   1      44.520  36.066  31.036  1.00  0.00    -0.200 F 
ATOM     70  C   UNL A   1      43.859  35.144  33.108  1.00  0.00     0.200 A 
ATOM     71  F   UNL A   1      43.220  34.174  35.163  1.00  0.00    -0.200 F 
ATOM     72  F   UNL A   1      43.940  36.350  33.687  1.00  0.00    -0.200 F 
ENDBRANCH  48  62
BRANCH  49  73
ATOM     73  C   UNL A   1      42.830  23.743  27.360  1.00  0.00     0.064 A 
ATOM     74  C   UNL A   1      43.205  23.616  26.014  1.00  0.00     0.173 A 
ATOM     75  C   UNL A   1      42.348  22.601  28.014  1.00  0.00     0.173 A 
ATOM     76  F   UNL A   1      43.653  24.686  25.342  1.00  0.00    -0.203 F 
ATOM     77  C   UNL A   1      43.081  22.401  25.344  1.00  0.00     0.198 A 
ATOM     78  C   UNL A   1      42.247  21.381  27.349  1.00  0.00     0.198 A 
ATOM     79  F   UNL A   1      41.981  22.668  29.302  1.00  0.00    -0.203 F 
ATOM     80  F   UNL A   1      43.406  22.319  24.047  1.00  0.00    -0.200 F 
ATOM     81  C   UNL A   1      42.606  21.283  26.012  1.00  0.00     0.200 A 
ATOM     82  F   UNL A   1      41.798  20.298  28.001  1.00  0.00    -0.200 F 
ATOM     83  F   UNL A   1      42.489  20.114  25.367  1.00  0.00    -0.200 F 
ENDBRANCH  49  73
BRANCH  61  84
ATOM     84  C   UNL A   1      48.031  26.965  30.693  1.00  0.00     0.064 A 
ATOM     85  C   UNL A   1      48.336  26.166  31.803  1.00  0.00     0.173 A 
ATOM     86  C   UNL A   1      49.075  27.330  29.830  1.00  0.00     0.173 A 
ATOM     87  F   UNL A   1      47.371  25.805  32.661  1.00  0.00    -0.203 F 
ATOM     88  C   UNL A   1      49.643  25.755  32.045  1.00  0.00     0.198 A 
ATOM     89  C   UNL A   1      50.376  26.897  30.063  1.00  0.00     0.198 A 
ATOM     90  F   UNL A   1      48.827  28.089  28.752  1.00  0.00    -0.203 F 
ATOM     91  F   UNL A   1      49.921  25.017  33.129  1.00  0.00    -0.200 F 
ATOM     92  C   UNL A   1      50.661  26.113  31.172  1.00  0.00     0.200 A 
ATOM     93  F   UNL A   1      51.355  27.234  29.213  1.00  0.00    -0.200 F 
ATOM     94  F   UNL A   1      51.916  25.706  31.400  1.00  0.00    -0.200 F 
ENDBRANCH  61  84
ENDBRANCH  35  36
ENDBRANCH  27  30
ENDBRANCH  25  26
ENDBRANCH  24  25
ENDBRANCH  23  24
ENDBRANCH   1  23
TORSDOF 15
ENDMDL
MODEL 2
REMARK VINA RESULT:     -11.2      4.384      6.307
REMARK SMILES CCc1cc(C[NH+]2CCC(CC(=O)NCCCCNC(=O)c3ccc(-c4c5nc(c(-c6c(F)c(F)c(F)c(F)c6F)c6ccc([nH]6)c(-c6c(F)c(F)c(F)c(F)c6F)c6nc(c(-c7c(F)c(F)c(F)c(F)c7F)c7ccc4[nH]7)C=C6)C=C5)cc3)CC2)n(C)n1
REMARK SMILES IDX 15 1 14 2 12 3 13 4 11 6 10 7 7 8 8 9 86 10 9 12 85 13 6 14
REMARK SMILES IDX 5 15 3 16 4 17 89 18 87 19 88 20 2 21 1 22 16 23 17 24 18 25
REMARK SMILES IDX 19 26 20 27 21 29 22 30 23 31 84 32 24 33 83 34 25 35 26 36
REMARK SMILES IDX 27 37 77 38 28 39 82 40 76 41 78 42 29 43 81 44 75 45 74 46
REMARK SMILES IDX 30 48 62 49 42 50 61 51 43 52 46 53 60 54 79 55 44 56 45 57
REMARK SMILES IDX 59 59 80 60 47 61 31 62 32 63 40 64 33 65 34 66 38 67 41 68
REMARK SMILES IDX 35 69 36 70 39 71 37 72 63 73 64 74 72 75 65 76 66 77 70 78
REMARK SMILES IDX 73 79 67 80 68 81 71 82 69 83 48 84 49 85 57 86 50 87 51 88
REMARK SMILES IDX 55 89 58 90 52 91 53 92 56 93 54 94
REMARK H PARENT 14 5 7 11 19 28 78 47 46 58
REMARK Flexibility Score: inf
ROOT
ATOM      1  C   UNL A   1      34.736  31.596  28.252  1.00  0.00     0.116 C 
ENDROOT
BRANCH   1   2
ATOM      2  N   UNL A   1      33.412  31.112  27.893  1.00  0.00    -0.356 N 
ATOM      3  C   UNL A   1      33.020  30.122  27.036  1.00  0.00     0.220 C 
ATOM      4  O   UNL A   1      31.811  29.928  26.895  1.00  0.00    -0.275 OA
ATOM      5  H   UNL A   1      32.671  31.579  28.344  1.00  0.00     0.163 HD
BRANCH   3   6
ATOM      6  C   UNL A   1      34.035  29.292  26.254  1.00  0.00     0.104 C 
BRANCH   6   7
ATOM      7  C   UNL A   1      33.394  28.123  25.476  1.00  0.00     0.009 C 
ATOM      8  N   UNL A   1      33.929  25.669  23.912  1.00  0.00    -0.330 N 
ATOM      9  C   UNL A   1      33.566  26.908  23.223  1.00  0.00     0.262 C 
ATOM     10  C   UNL A   1      33.244  25.592  25.209  1.00  0.00     0.262 C 
ATOM     11  H   UNL A   1      34.930  25.680  24.108  1.00  0.00     0.348 HD
ATOM     12  C   UNL A   1      33.916  28.117  24.051  1.00  0.00     0.066 C 
ATOM     13  C   UNL A   1      33.663  26.760  26.124  1.00  0.00     0.066 C 
BRANCH   8  14
ATOM     14  C   UNL A   1      33.722  24.484  23.054  1.00  0.00     0.319 C 
BRANCH  14  15
ATOM     15  C   UNL A   1      34.506  23.290  23.490  1.00  0.00     0.093 A 
ATOM     16  C   UNL A   1      36.069  21.981  24.368  1.00  0.00     0.063 A 
ATOM     17  C   UNL A   1      35.875  23.127  23.567  1.00  0.00     0.055 A 
ATOM     18  N   UNL A   1      34.910  21.368  24.628  1.00  0.00    -0.178 NA
ATOM     19  N   UNL A   1      33.975  22.156  24.060  1.00  0.00    -0.267 N 
ATOM     20  C   UNL A   1      32.591  21.785  24.255  1.00  0.00     0.174 C 
BRANCH  16  21
ATOM     21  C   UNL A   1      37.364  21.535  24.963  1.00  0.00     0.055 C 
ATOM     22  C   UNL A   1      37.669  20.053  24.819  1.00  0.00     0.011 C 
ENDBRANCH  16  21
ENDBRANCH  14  15
ENDBRANCH   8  14
ENDBRANCH   6   7
ENDBRANCH   3   6
ENDBRANCH   1   2
BRANCH   1  23
ATOM     23  C   UNL A   1      34.680  32.885  29.085  1.00  0.00     0.023 C 
BRANCH  23  24
ATOM     24  C   UNL A   1      33.565  33.852  28.739  1.00  0.00     0.023 C 
BRANCH  24  25
ATOM     25  C   UNL A   1      33.850  35.284  29.132  1.00  0.00     0.116 C 
BRANCH  25  26
ATOM     26  N   UNL A   1      32.839  35.865  30.009  1.00  0.00    -0.352 N 
ATOM     27  C   UNL A   1      32.759  35.797  31.383  1.00  0.00     0.251 C 
ATOM     28  H   UNL A   1      32.121  36.370  29.562  1.00  0.00     0.163 HD
ATOM     29  O   UNL A   1      31.806  36.263  31.988  1.00  0.00    -0.269 OA
BRANCH  27  30
ATOM     30  C   UNL A   1      33.837  35.092  32.104  1.00  0.00     0.039 A 
ATOM     31  C   UNL A   1      33.602  33.805  32.591  1.00  0.00     0.014 A 
ATOM     32  C   UNL A   1      35.112  35.658  32.162  1.00  0.00     0.014 A 
ATOM     33  C   UNL A   1      34.676  33.043  33.049  1.00  0.00     0.010 A 
ATOM     34  C   UNL A   1      36.189  34.860  32.509  1.00  0.00     0.010 A 
ATOM     35  C   UNL A   1      35.984  33.546  32.958  1.00  0.00    -0.014 A 
BRANCH  35  36
ATOM     36  C   UNL A   1      37.167  32.744  33.352  1.00  0.00     0.031 A 
ATOM     37  C   UNL A   1      37.850  33.048  34.655  1.00  0.00     0.074 A 
ATOM     38  C   UNL A   1      37.688  31.836  32.504  1.00  0.00     0.049 A 
ATOM     39  N   UNL A   1      38.993  32.613  35.117  1.00  0.00    -0.248 NA
ATOM     40  C   UNL A   1      37.178  34.017  35.538  1.00  0.00     0.031 C 
ATOM     41  C   UNL A   1      37.148  31.491  31.188  1.00  0.00     0.029 A 
ATOM     42  N   UNL A   1      38.804  31.046  32.620  1.00  0.00    -0.354 N 
ATOM     43  C   UNL A   1      39.193  33.284  36.314  1.00  0.00     0.074 A 
ATOM     44  C   UNL A   1      38.085  34.198  36.483  1.00  0.00     0.031 C 
ATOM     45  C   UNL A   1      37.920  30.544  30.629  1.00  0.00     0.029 A 
ATOM     46  C   UNL A   1      39.030  30.244  31.528  1.00  0.00     0.049 A 
ATOM     47  H   UNL A   1      39.390  31.055  33.412  1.00  0.00     0.167 HD
ATOM     48  C   UNL A   1      40.196  33.132  37.210  1.00  0.00     0.037 A 
ATOM     49  C   UNL A   1      40.026  29.373  31.282  1.00  0.00     0.037 A 
ATOM     50  C   UNL A   1      41.258  32.175  37.068  1.00  0.00     0.049 A 
ATOM     51  C   UNL A   1      41.108  29.191  32.312  1.00  0.00     0.074 A 
ATOM     52  C   UNL A   1      42.284  31.886  37.950  1.00  0.00     0.029 A 
ATOM     53  N   UNL A   1      41.417  31.338  35.974  1.00  0.00    -0.354 N 
ATOM     54  N   UNL A   1      41.262  29.795  33.466  1.00  0.00    -0.248 NA
ATOM     55  C   UNL A   1      42.155  28.204  32.008  1.00  0.00     0.031 C 
ATOM     56  C   UNL A   1      43.079  30.888  37.377  1.00  0.00     0.029 A 
ATOM     57  C   UNL A   1      42.529  30.533  36.156  1.00  0.00     0.049 A 
ATOM     58  H   UNL A   1      40.828  31.319  35.185  1.00  0.00     0.167 HD
ATOM     59  C   UNL A   1      42.400  29.244  34.037  1.00  0.00     0.074 A 
ATOM     60  C   UNL A   1      42.896  28.251  33.107  1.00  0.00     0.031 C 
ATOM     61  C   UNL A   1      42.985  29.535  35.224  1.00  0.00     0.037 A 
BRANCH  48  62
ATOM     62  C   UNL A   1      40.173  34.008  38.426  1.00  0.00     0.064 A 
ATOM     63  C   UNL A   1      39.447  33.654  39.573  1.00  0.00     0.173 A 
ATOM     64  C   UNL A   1      40.892  35.213  38.449  1.00  0.00     0.173 A 
ATOM     65  F   UNL A   1      38.728  32.521  39.594  1.00  0.00    -0.203 F 
ATOM     66  C   UNL A   1      39.413  34.489  40.686  1.00  0.00     0.198 A 
ATOM     67  C   UNL A   1      40.882  36.030  39.576  1.00  0.00     0.198 A 
ATOM     68  F   UNL A   1      41.604  35.597  37.379  1.00  0.00    -0.203 F 
ATOM     69  F   UNL A   1      38.665  34.157  41.748  1.00  0.00    -0.200 F 
ATOM     70  C   UNL A   1      40.136  35.673  40.689  1.00  0.00     0.200 A 
ATOM     71  F   UNL A   1      41.586  37.171  39.582  1.00  0.00    -0.200 F 
ATOM     72  F   UNL A   1      40.104  36.475  41.763  1.00  0.00    -0.200 F 
ENDBRANCH  48  62
BRANCH  49  73
ATOM     73  C   UNL A   1      40.032  28.581  30.026  1.00  0.00     0.064 A 
ATOM     74  C   UNL A   1      40.642  29.083  28.867  1.00  0.00     0.173 A 
ATOM     75  C   UNL A   1      39.431  27.317  29.951  1.00  0.00     0.173 A 
ATOM     76  F   UNL A   1      41.213  30.296  28.885  1.00  0.00    -0.203 F 
ATOM     77  C   UNL A   1      40.633  28.359  27.676  1.00  0.00     0.198 A 
ATOM     78  C   UNL A   1      39.442  26.584  28.765  1.00  0.00     0.198 A 
ATOM     79  F   UNL A   1      38.838  26.790  31.032  1.00  0.00    -0.203 F 
ATOM     80  F   UNL A   1      41.186  28.882  26.574  1.00  0.00    -0.200 F 
ATOM     81  C   UNL A   1      40.037  27.109  27.627  1.00  0.00     0.200 A 
ATOM     82  F   UNL A   1      38.875  25.370  28.724  1.00  0.00    -0.200 F 
ATOM     83  F   UNL A   1      40.029  26.413  26.481  1.00  0.00    -0.200 F 
ENDBRANCH  49  73
BRANCH  61  84
ATOM     84  C   UNL A   1      44.197  28.741  35.607  1.00  0.00     0.064 A 
ATOM     85  C   UNL A   1      44.088  27.531  36.306  1.00  0.00     0.173 A 
ATOM     86  C   UNL A   1      45.473  29.167  35.212  1.00  0.00     0.173 A 
ATOM     87  F   UNL A   1      42.890  27.092  36.716  1.00  0.00    -0.203 F 
ATOM     88  C   UNL A   1      45.221  26.780  36.606  1.00  0.00     0.198 A 
ATOM     89  C   UNL A   1      46.600  28.402  35.493  1.00  0.00     0.198 A 
ATOM     90  F   UNL A   1      45.623  30.316  34.536  1.00  0.00    -0.203 F 
ATOM     91  F   UNL A   1      45.101  25.640  37.302  1.00  0.00    -0.200 F 
ATOM     92  C   UNL A   1      46.474  27.210  36.194  1.00  0.00     0.200 A 
ATOM     93  F   UNL A   1      47.808  28.813  35.084  1.00  0.00    -0.200 F 
ATOM     94  F   UNL A   1      47.561  26.479  36.473  1.00  0.00    -0.200 F 
ENDBRANCH  61  84
ENDBRANCH  35  36
ENDBRANCH  27  30
ENDBRANCH  25  26
ENDBRANCH  24  25
ENDBRANCH  23  24
ENDBRANCH   1  23
TORSDOF 15
ENDMDL
MODEL 3
REMARK VINA RESULT:     -11.2      3.668      5.364
REMARK SMILES CCc1cc(C[NH+]2CCC(CC(=O)NCCCCNC(=O)c3ccc(-c4c5nc(c(-c6c(F)c(F)c(F)c(F)c6F)c6ccc([nH]6)c(-c6c(F)c(F)c(F)c(F)c6F)c6nc(c(-c7c(F)c(F)c(F)c(F)c7F)c7ccc4[nH]7)C=C6)C=C5)cc3)CC2)n(C)n1
REMARK SMILES IDX 15 1 14 2 12 3 13 4 11 6 10 7 7 8 8 9 86 10 9 12 85 13 6 14
REMARK SMILES IDX 5 15 3 16 4 17 89 18 87 19 88 20 2 21 1 22 16 23 17 24 18 25
REMARK SMILES IDX 19 26 20 27 21 29 22 30 23 31 84 32 24 33 83 34 25 35 26 36
REMARK SMILES IDX 27 37 77 38 28 39 82 40 76 41 78 42 29 43 81 44 75 45 74 46
REMARK SMILES IDX 30 48 62 49 42 50 61 51 43 52 46 53 60 54 79 55 44 56 45 57
REMARK SMILES IDX 59 59 80 60 47 61 31 62 32 63 40 64 33 65 34 66 38 67 41 68
REMARK SMILES IDX 35 69 36 70 39 71 37 72 63 73 64 74 72 75 65 76 66 77 70 78
REMARK SMILES IDX 73 79 67 80 68 81 71 82 69 83 48 84 49 85 57 86 50 87 51 88
REMARK SMILES IDX 55 89 58 90 52 91 53 92 56 93 54 94
REMARK H PARENT 14 5 7 11 19 28 78 47 46 58
REMARK Flexibility Score: inf
ROOT
ATOM      1  C   UNL A   1      32.468  29.902  25.524  1.00  0.00     0.116 C 
ENDROOT
BRANCH   1   2
ATOM      2  N   UNL A   1      31.508  29.981  24.435  1.00  0.00    -0.356 N 
ATOM      3  C   UNL A   1      30.665  29.041  23.912  1.00  0.00     0.220 C 
ATOM      4  O   UNL A   1      29.958  29.369  22.957  1.00  0.00    -0.275 OA
ATOM      5  H   UNL A   1      31.456  30.863  23.999  1.00  0.00     0.163 HD
BRANCH   3   6
ATOM      6  C   UNL A   1      30.608  27.620  24.467  1.00  0.00     0.104 C 
BRANCH   6   7
ATOM      7  C   UNL A   1      31.706  26.699  23.894  1.00  0.00     0.009 C 
ATOM      8  N   UNL A   1      33.008  24.051  24.114  1.00  0.00    -0.330 N 
ATOM      9  C   UNL A   1      33.669  25.236  24.660  1.00  0.00     0.262 C 
ATOM     10  C   UNL A   1      32.242  24.408  22.911  1.00  0.00     0.262 C 
ATOM     11  H   UNL A   1      32.336  23.702  24.796  1.00  0.00     0.348 HD
ATOM     12  C   UNL A   1      32.671  26.313  24.999  1.00  0.00     0.066 C 
ATOM     13  C   UNL A   1      31.139  25.432  23.245  1.00  0.00     0.066 C 
BRANCH   8  14
ATOM     14  C   UNL A   1      33.958  22.939  23.909  1.00  0.00     0.319 C 
BRANCH  14  15
ATOM     15  C   UNL A   1      33.402  21.604  24.285  1.00  0.00     0.093 A 
ATOM     16  C   UNL A   1      32.753  19.482  24.229  1.00  0.00     0.063 A 
ATOM     17  C   UNL A   1      32.722  20.692  23.503  1.00  0.00     0.055 A 
ATOM     18  N   UNL A   1      33.260  19.663  25.452  1.00  0.00    -0.178 NA
ATOM     19  N   UNL A   1      33.617  20.963  25.483  1.00  0.00    -0.267 N 
ATOM     20  C   UNL A   1      34.286  21.436  26.674  1.00  0.00     0.174 C 
BRANCH  16  21
ATOM     21  C   UNL A   1      32.384  18.134  23.705  1.00  0.00     0.055 C 
ATOM     22  C   UNL A   1      33.551  17.265  23.266  1.00  0.00     0.011 C 
ENDBRANCH  16  21
ENDBRANCH  14  15
ENDBRANCH   8  14
ENDBRANCH   6   7
ENDBRANCH   3   6
ENDBRANCH   1   2
BRANCH   1  23
ATOM     23  C   UNL A   1      31.915  30.487  26.833  1.00  0.00     0.023 C 
BRANCH  23  24
ATOM     24  C   UNL A   1      31.654  31.980  26.835  1.00  0.00     0.023 C 
BRANCH  24  25
ATOM     25  C   UNL A   1      32.802  32.803  27.375  1.00  0.00     0.116 C 
BRANCH  25  26
ATOM     26  N   UNL A   1      32.444  34.185  27.677  1.00  0.00    -0.352 N 
ATOM     27  C   UNL A   1      32.996  35.024  28.620  1.00  0.00     0.251 C 
ATOM     28  H   UNL A   1      31.714  34.568  27.137  1.00  0.00     0.163 HD
ATOM     29  O   UNL A   1      32.542  36.139  28.823  1.00  0.00    -0.269 OA
BRANCH  27  30
ATOM     30  C   UNL A   1      34.126  34.514  29.421  1.00  0.00     0.039 A 
ATOM     31  C   UNL A   1      33.864  33.828  30.608  1.00  0.00     0.014 A 
ATOM     32  C   UNL A   1      35.424  34.599  28.915  1.00  0.00     0.014 A 
ATOM     33  C   UNL A   1      34.898  33.135  31.237  1.00  0.00     0.010 A 
ATOM     34  C   UNL A   1      36.420  33.818  29.477  1.00  0.00     0.010 A 
ATOM     35  C   UNL A   1      36.169  33.080  30.644  1.00  0.00    -0.014 A 
BRANCH  35  36
ATOM     36  C   UNL A   1      37.280  32.289  31.228  1.00  0.00     0.031 A 
ATOM     37  C   UNL A   1      37.781  32.641  32.600  1.00  0.00     0.074 A 
ATOM     38  C   UNL A   1      37.902  31.345  30.495  1.00  0.00     0.049 A 
ATOM     39  N   UNL A   1      38.845  32.219  33.230  1.00  0.00    -0.248 NA
ATOM     40  C   UNL A   1      37.004  33.648  33.343  1.00  0.00     0.031 C 
ATOM     41  C   UNL A   1      37.544  30.951  29.132  1.00  0.00     0.029 A 
ATOM     42  N   UNL A   1      38.984  30.555  30.794  1.00  0.00    -0.354 N 
ATOM     43  C   UNL A   1      38.886  32.936  34.417  1.00  0.00     0.074 A 
ATOM     44  C   UNL A   1      37.775  33.862  34.396  1.00  0.00     0.031 C 
ATOM     45  C   UNL A   1      38.375  29.978  28.722  1.00  0.00     0.029 A 
ATOM     46  C   UNL A   1      39.349  29.709  29.775  1.00  0.00     0.049 A 
ATOM     47  H   UNL A   1      39.456  30.592  31.658  1.00  0.00     0.167 HD
ATOM     48  C   UNL A   1      39.755  32.815  35.447  1.00  0.00     0.037 A 
ATOM     49  C   UNL A   1      40.360  28.824  29.703  1.00  0.00     0.037 A 
ATOM     50  C   UNL A   1      40.816  31.848  35.489  1.00  0.00     0.049 A 
ATOM     51  C   UNL A   1      41.288  28.677  30.878  1.00  0.00     0.074 A 
ATOM     52  C   UNL A   1      41.709  31.590  36.514  1.00  0.00     0.029 A 
ATOM     53  N   UNL A   1      41.116  30.967  34.461  1.00  0.00    -0.354 N 
ATOM     54  N   UNL A   1      41.289  29.326  32.017  1.00  0.00    -0.248 NA
ATOM     55  C   UNL A   1      42.356  27.674  30.758  1.00  0.00     0.031 C 
ATOM     56  C   UNL A   1      42.564  30.565  36.095  1.00  0.00     0.029 A 
ATOM     57  C   UNL A   1      42.184  30.164  34.825  1.00  0.00     0.049 A 
ATOM     58  H   UNL A   1      40.640  30.920  33.600  1.00  0.00     0.167 HD
ATOM     59  C   UNL A   1      42.332  28.793  32.760  1.00  0.00     0.074 A 
ATOM     60  C   UNL A   1      42.940  27.761  31.946  1.00  0.00     0.031 C 
ATOM     61  C   UNL A   1      42.752  29.128  34.004  1.00  0.00     0.037 A 
BRANCH  48  62
ATOM     62  C   UNL A   1      39.576  33.739  36.613  1.00  0.00     0.064 A 
ATOM     63  C   UNL A   1      40.161  35.014  36.638  1.00  0.00     0.173 A 
ATOM     64  C   UNL A   1      38.802  33.350  37.718  1.00  0.00     0.173 A 
ATOM     65  F   UNL A   1      40.926  35.426  35.615  1.00  0.00    -0.203 F 
ATOM     66  C   UNL A   1      40.008  35.852  37.739  1.00  0.00     0.198 A 
ATOM     67  C   UNL A   1      38.625  34.203  38.803  1.00  0.00     0.198 A 
ATOM     68  F   UNL A   1      38.220  32.142  37.744  1.00  0.00    -0.203 F 
ATOM     69  F   UNL A   1      40.625  37.042  37.764  1.00  0.00    -0.200 F 
ATOM     70  C   UNL A   1      39.235  35.449  38.817  1.00  0.00     0.200 A 
ATOM     71  F   UNL A   1      37.871  33.817  39.842  1.00  0.00    -0.200 F 
ATOM     72  F   UNL A   1      39.086  36.258  39.876  1.00  0.00    -0.200 F 
ENDBRANCH  48  62
BRANCH  49  73
ATOM     73  C   UNL A   1      40.529  27.982  28.490  1.00  0.00     0.064 A 
ATOM     74  C   UNL A   1      39.930  26.716  28.412  1.00  0.00     0.173 A 
ATOM     75  C   UNL A   1      41.287  28.415  27.394  1.00  0.00     0.173 A 
ATOM     76  F   UNL A   1      39.212  26.250  29.444  1.00  0.00    -0.203 F 
ATOM     77  C   UNL A   1      40.102  25.906  27.290  1.00  0.00     0.198 A 
ATOM     78  C   UNL A   1      41.438  27.614  26.263  1.00  0.00     0.198 A 
ATOM     79  F   UNL A   1      41.875  29.619  27.418  1.00  0.00    -0.203 F 
ATOM     80  F   UNL A   1      39.554  24.684  27.260  1.00  0.00    -0.200 F 
ATOM     81  C   UNL A   1      40.852  26.358  26.215  1.00  0.00     0.200 A 
ATOM     82  F   UNL A   1      42.154  28.058  25.220  1.00  0.00    -0.200 F 
ATOM     83  F   UNL A   1      41.015  25.579  25.136  1.00  0.00    -0.200 F 
ENDBRANCH  49  73
BRANCH  61  84
ATOM     84  C   UNL A   1      43.892  28.344  34.581  1.00  0.00     0.064 A 
ATOM     85  C   UNL A   1      43.679  27.144  35.273  1.00  0.00     0.173 A 
ATOM     86  C   UNL A   1      45.213  28.768  34.379  1.00  0.00     0.173 A 
ATOM     87  F   UNL A   1      42.432  26.707  35.501  1.00  0.00    -0.203 F 
ATOM     88  C   UNL A   1      44.752  26.401  35.755  1.00  0.00     0.198 A 
ATOM     89  C   UNL A   1      46.284  28.011  34.841  1.00  0.00     0.198 A 
ATOM     90  F   UNL A   1      45.464  29.907  33.716  1.00  0.00    -0.203 F 
ATOM     91  F   UNL A   1      44.528  25.272  36.442  1.00  0.00    -0.200 F 
ATOM     92  C   UNL A   1      46.054  26.829  35.532  1.00  0.00     0.200 A 
ATOM     93  F   UNL A   1      47.540  28.419  34.615  1.00  0.00    -0.200 F 
ATOM     94  F   UNL A   1      47.086  26.106  35.986  1.00  0.00    -0.200 F 
ENDBRANCH  61  84
ENDBRANCH  35  36
ENDBRANCH  27  30
ENDBRANCH  25  26
ENDBRANCH  24  25
ENDBRANCH  23  24
ENDBRANCH   1  23
TORSDOF 15
ENDMDL
