MODEL 1
REMARK VINA RESULT:     -11.4      0.000      0.000
REMARK SMILES CCOc1ccccc1[C@@H](O)[C@@H](C)[C@@H](C)C(=O)NCCCCNC(=O)c1ccc(-c2c3nc(c(-c4c(F)c(F)c(F)c(F)c4F)c4ccc([nH]4)c(-c4c(F)c(F)c(F)c(F)c4F)c4nc(c(-c5c(F)c(F)c(F)c(F)c5F)c5ccc2[nH]5)C=C4)C=C3)cc1
REMARK SMILES IDX 19 1 18 2 16 3 17 4 14 6 15 7 12 8 13 9 10 10 9 11 4 12 5 13
REMARK SMILES IDX 6 14 8 15 7 16 3 17 2 18 1 19 11 20 20 22 21 23 22 24 23 25
REMARK SMILES IDX 24 26 25 28 26 29 27 30 88 31 28 32 87 33 29 34 30 35 31 36
REMARK SMILES IDX 81 37 32 38 86 39 80 40 82 41 33 42 85 43 79 44 78 45 34 47
REMARK SMILES IDX 66 48 46 49 65 50 47 51 50 52 64 53 83 54 48 55 49 56 63 58
REMARK SMILES IDX 84 59 51 60 35 61 36 62 44 63 37 64 38 65 42 66 45 67 39 68
REMARK SMILES IDX 40 69 43 70 41 71 67 72 68 73 76 74 69 75 70 76 74 77 77 78
REMARK SMILES IDX 71 79 72 80 75 81 73 82 52 83 53 84 61 85 54 86 55 87 59 88
REMARK SMILES IDX 62 89 56 90 57 91 60 92 58 93
REMARK H PARENT 18 5 11 21 23 27 82 46 50 57
REMARK Flexibility Score: inf
ROOT
ATOM      1  C   UNL A   1      32.706  26.844  24.579  1.00  0.00     0.116 C 
ENDROOT
BRANCH   1   2
ATOM      2  N   UNL A   1      33.329  25.874  25.457  1.00  0.00    -0.356 N 
ATOM      3  C   UNL A   1      33.148  24.528  25.548  1.00  0.00     0.223 C 
ATOM      4  O   UNL A   1      33.750  23.928  26.442  1.00  0.00    -0.275 OA
ATOM      5  H   UNL A   1      33.987  26.247  26.087  1.00  0.00     0.163 HD
BRANCH   3   6
ATOM      6  C   UNL A   1      32.254  23.769  24.570  1.00  0.00     0.081 C 
ATOM      7  C   UNL A   1      30.829  23.727  25.124  1.00  0.00     0.018 C 
BRANCH   6   8
ATOM      8  C   UNL A   1      32.893  22.432  24.093  1.00  0.00     0.031 C 
ATOM      9  C   UNL A   1      32.930  22.427  22.550  1.00  0.00     0.011 C 
BRANCH   8  10
ATOM     10  C   UNL A   1      32.278  21.171  24.745  1.00  0.00     0.152 C 
BRANCH  10  11
ATOM     11  C   UNL A   1      32.931  19.889  24.279  1.00  0.00     0.023 A 
ATOM     12  C   UNL A   1      34.198  19.508  24.741  1.00  0.00     0.125 A 
ATOM     13  C   UNL A   1      34.752  18.284  24.366  1.00  0.00     0.047 A 
ATOM     14  C   UNL A   1      34.044  17.426  23.520  1.00  0.00     0.004 A 
ATOM     15  C   UNL A   1      32.242  19.022  23.408  1.00  0.00     0.010 A 
ATOM     16  C   UNL A   1      32.795  17.801  23.029  1.00  0.00     0.001 A 
BRANCH  12  17
ATOM     17  O   UNL A   1      34.971  20.403  25.429  1.00  0.00    -0.493 OA
BRANCH  17  18
ATOM     18  C   UNL A   1      36.336  20.439  25.002  1.00  0.00     0.226 C 
ATOM     19  C   UNL A   1      36.639  21.837  24.477  1.00  0.00     0.049 C 
ENDBRANCH  17  18
ENDBRANCH  12  17
ENDBRANCH  10  11
BRANCH  10  20
ATOM     20  O   UNL A   1      32.465  21.252  26.166  1.00  0.00    -0.388 OA
ATOM     21  H   UNL A   1      32.450  20.359  26.546  1.00  0.00     0.211 HD
ENDBRANCH  10  20
ENDBRANCH   8  10
ENDBRANCH   6   8
ENDBRANCH   3   6
ENDBRANCH   1   2
BRANCH   1  22
ATOM     22  C   UNL A   1      31.502  27.510  25.253  1.00  0.00     0.023 C 
BRANCH  22  23
ATOM     23  C   UNL A   1      31.867  28.515  26.340  1.00  0.00     0.023 C 
BRANCH  23  24
ATOM     24  C   UNL A   1      32.966  29.491  25.949  1.00  0.00     0.116 C 
BRANCH  24  25
ATOM     25  N   UNL A   1      32.665  30.861  26.337  1.00  0.00    -0.352 N 
ATOM     26  C   UNL A   1      33.341  31.676  27.206  1.00  0.00     0.251 C 
ATOM     27  H   UNL A   1      31.866  31.257  25.917  1.00  0.00     0.163 HD
ATOM     28  O   UNL A   1      32.869  32.760  27.536  1.00  0.00    -0.269 OA
BRANCH  26  29
ATOM     29  C   UNL A   1      34.623  31.220  27.773  1.00  0.00     0.039 A 
ATOM     30  C   UNL A   1      35.656  32.146  27.913  1.00  0.00     0.014 A 
ATOM     31  C   UNL A   1      34.793  29.898  28.195  1.00  0.00     0.014 A 
ATOM     32  C   UNL A   1      36.844  31.758  28.529  1.00  0.00     0.010 A 
ATOM     33  C   UNL A   1      35.941  29.537  28.891  1.00  0.00     0.010 A 
ATOM     34  C   UNL A   1      36.981  30.461  29.058  1.00  0.00    -0.014 A 
BRANCH  34  35
ATOM     35  C   UNL A   1      38.209  30.080  29.796  1.00  0.00     0.031 A 
ATOM     36  C   UNL A   1      38.444  30.578  31.194  1.00  0.00     0.074 A 
ATOM     37  C   UNL A   1      39.122  29.298  29.189  1.00  0.00     0.049 A 
ATOM     38  N   UNL A   1      39.434  30.312  32.010  1.00  0.00    -0.248 NA
ATOM     39  C   UNL A   1      37.454  31.517  31.744  1.00  0.00     0.031 C 
ATOM     40  C   UNL A   1      39.033  28.808  27.812  1.00  0.00     0.029 A 
ATOM     41  N   UNL A   1      40.300  28.768  29.653  1.00  0.00    -0.354 N 
ATOM     42  C   UNL A   1      39.189  31.052  33.158  1.00  0.00     0.074 A 
ATOM     43  C   UNL A   1      37.992  31.826  32.915  1.00  0.00     0.031 C 
ATOM     44  C   UNL A   1      40.081  28.009  27.560  1.00  0.00     0.029 A 
ATOM     45  C   UNL A   1      40.936  27.962  28.742  1.00  0.00     0.049 A 
ATOM     46  H   UNL A   1      40.654  28.949  30.554  1.00  0.00     0.167 HD
ATOM     47  C   UNL A   1      39.886  31.064  34.319  1.00  0.00     0.037 A 
ATOM     48  C   UNL A   1      42.077  27.257  28.853  1.00  0.00     0.037 A 
ATOM     49  C   UNL A   1      41.065  30.274  34.560  1.00  0.00     0.049 A 
ATOM     50  C   UNL A   1      42.830  27.291  30.156  1.00  0.00     0.074 A 
ATOM     51  C   UNL A   1      41.802  30.157  35.724  1.00  0.00     0.029 A 
ATOM     52  N   UNL A   1      41.687  29.473  33.611  1.00  0.00    -0.354 N 
ATOM     53  N   UNL A   1      42.533  27.915  31.270  1.00  0.00    -0.248 NA
ATOM     54  C   UNL A   1      44.074  26.512  30.218  1.00  0.00     0.031 C 
ATOM     55  C   UNL A   1      42.905  29.337  35.464  1.00  0.00     0.029 A 
ATOM     56  C   UNL A   1      42.820  28.888  34.155  1.00  0.00     0.049 A 
ATOM     57  H   UNL A   1      41.371  29.341  32.688  1.00  0.00     0.167 HD
ATOM     58  C   UNL A   1      43.535  27.582  32.172  1.00  0.00     0.074 A 
ATOM     59  C   UNL A   1      44.432  26.679  31.481  1.00  0.00     0.031 C 
ATOM     60  C   UNL A   1      43.702  27.991  33.454  1.00  0.00     0.037 A 
BRANCH  47  61
ATOM     61  C   UNL A   1      39.393  31.957  35.421  1.00  0.00     0.064 A 
ATOM     62  C   UNL A   1      38.521  31.492  36.418  1.00  0.00     0.173 A 
ATOM     63  C   UNL A   1      39.839  33.285  35.511  1.00  0.00     0.173 A 
ATOM     64  F   UNL A   1      38.054  30.235  36.375  1.00  0.00    -0.203 F 
ATOM     65  C   UNL A   1      38.094  32.329  37.447  1.00  0.00     0.198 A 
ATOM     66  C   UNL A   1      39.437  34.108  36.559  1.00  0.00     0.198 A 
ATOM     67  F   UNL A   1      40.677  33.782  34.588  1.00  0.00    -0.203 F 
ATOM     68  F   UNL A   1      37.224  31.875  38.359  1.00  0.00    -0.200 F 
ATOM     69  C   UNL A   1      38.560  33.633  37.522  1.00  0.00     0.200 A 
ATOM     70  F   UNL A   1      39.900  35.363  36.638  1.00  0.00    -0.200 F 
ATOM     71  F   UNL A   1      38.160  34.433  38.520  1.00  0.00    -0.200 F 
ENDBRANCH  47  61
BRANCH  48  72
ATOM     72  C   UNL A   1      42.563  26.431  27.715  1.00  0.00     0.064 A 
ATOM     73  C   UNL A   1      43.508  26.936  26.810  1.00  0.00     0.173 A 
ATOM     74  C   UNL A   1      42.076  25.135  27.491  1.00  0.00     0.173 A 
ATOM     75  F   UNL A   1      43.992  28.176  26.969  1.00  0.00    -0.203 F 
ATOM     76  C   UNL A   1      43.923  26.189  25.710  1.00  0.00     0.198 A 
ATOM     77  C   UNL A   1      42.518  24.376  26.410  1.00  0.00     0.198 A 
ATOM     78  F   UNL A   1      41.176  24.601  28.330  1.00  0.00    -0.203 F 
ATOM     79  F   UNL A   1      44.783  26.720  24.829  1.00  0.00    -0.200 F 
ATOM     80  C   UNL A   1      43.432  24.907  25.513  1.00  0.00     0.200 A 
ATOM     81  F   UNL A   1      42.053  23.131  26.233  1.00  0.00    -0.200 F 
ATOM     82  F   UNL A   1      43.830  24.190  24.454  1.00  0.00    -0.200 F 
ENDBRANCH  48  72
BRANCH  60  83
ATOM     83  C   UNL A   1      44.884  27.436  34.199  1.00  0.00     0.064 A 
ATOM     84  C   UNL A   1      44.795  26.253  34.950  1.00  0.00     0.173 A 
ATOM     85  C   UNL A   1      46.124  28.092  34.153  1.00  0.00     0.173 A 
ATOM     86  F   UNL A   1      43.630  25.596  35.038  1.00  0.00    -0.203 F 
ATOM     87  C   UNL A   1      45.890  25.776  35.665  1.00  0.00     0.198 A 
ATOM     88  C   UNL A   1      47.228  27.588  34.837  1.00  0.00     0.198 A 
ATOM     89  F   UNL A   1      46.268  29.220  33.442  1.00  0.00    -0.203 F 
ATOM     90  F   UNL A   1      45.761  24.684  36.433  1.00  0.00    -0.200 F 
ATOM     91  C   UNL A   1      47.106  26.439  35.603  1.00  0.00     0.200 A 
ATOM     92  F   UNL A   1      48.406  28.221  34.762  1.00  0.00    -0.200 F 
ATOM     93  F   UNL A   1      48.159  25.977  36.291  1.00  0.00    -0.200 F 
ENDBRANCH  60  83
ENDBRANCH  34  35
ENDBRANCH  26  29
ENDBRANCH  24  25
ENDBRANCH  23  24
ENDBRANCH  22  23
ENDBRANCH   1  22
TORSDOF 17
ENDMDL
MODEL 2
REMARK VINA RESULT:     -11.0      2.099      2.952
REMARK SMILES CCOc1ccccc1[C@@H](O)[C@@H](C)[C@@H](C)C(=O)NCCCCNC(=O)c1ccc(-c2c3nc(c(-c4c(F)c(F)c(F)c(F)c4F)c4ccc([nH]4)c(-c4c(F)c(F)c(F)c(F)c4F)c4nc(c(-c5c(F)c(F)c(F)c(F)c5F)c5ccc2[nH]5)C=C4)C=C3)cc1
REMARK SMILES IDX 19 1 18 2 16 3 17 4 14 6 15 7 12 8 13 9 10 10 9 11 4 12 5 13
REMARK SMILES IDX 6 14 8 15 7 16 3 17 2 18 1 19 11 20 20 22 21 23 22 24 23 25
REMARK SMILES IDX 24 26 25 28 26 29 27 30 88 31 28 32 87 33 29 34 30 35 31 36
REMARK SMILES IDX 81 37 32 38 86 39 80 40 82 41 33 42 85 43 79 44 78 45 34 47
REMARK SMILES IDX 66 48 46 49 65 50 47 51 50 52 64 53 83 54 48 55 49 56 63 58
REMARK SMILES IDX 84 59 51 60 35 61 36 62 44 63 37 64 38 65 42 66 45 67 39 68
REMARK SMILES IDX 40 69 43 70 41 71 67 72 68 73 76 74 69 75 70 76 74 77 77 78
REMARK SMILES IDX 71 79 72 80 75 81 73 82 52 83 53 84 61 85 54 86 55 87 59 88
REMARK SMILES IDX 62 89 56 90 57 91 60 92 58 93
REMARK H PARENT 18 5 11 21 23 27 82 46 50 57
REMARK Flexibility Score: inf
ROOT
ATOM      1  C   UNL A   1      32.875  25.963  24.818  1.00  0.00     0.116 C 
ENDROOT
BRANCH   1   2
ATOM      2  N   UNL A   1      33.486  25.092  25.801  1.00  0.00    -0.356 N 
ATOM      3  C   UNL A   1      33.225  23.792  26.106  1.00  0.00     0.223 C 
ATOM      4  O   UNL A   1      33.840  23.289  27.050  1.00  0.00    -0.275 OA
ATOM      5  H   UNL A   1      34.203  25.506  26.334  1.00  0.00     0.163 HD
BRANCH   3   6
ATOM      6  C   UNL A   1      32.228  22.962  25.299  1.00  0.00     0.081 C 
ATOM      7  C   UNL A   1      30.946  22.792  26.115  1.00  0.00     0.018 C 
BRANCH   6   8
ATOM      8  C   UNL A   1      32.875  21.689  24.679  1.00  0.00     0.031 C 
ATOM      9  C   UNL A   1      32.487  21.617  23.187  1.00  0.00     0.011 C 
BRANCH   8  10
ATOM     10  C   UNL A   1      32.626  20.396  25.492  1.00  0.00     0.152 C 
BRANCH  10  11
ATOM     11  C   UNL A   1      33.192  19.163  24.822  1.00  0.00     0.023 A 
ATOM     12  C   UNL A   1      34.574  18.979  24.687  1.00  0.00     0.125 A 
ATOM     13  C   UNL A   1      35.083  17.799  24.141  1.00  0.00     0.047 A 
ATOM     14  C   UNL A   1      34.212  16.790  23.722  1.00  0.00     0.004 A 
ATOM     15  C   UNL A   1      32.328  18.145  24.373  1.00  0.00     0.010 A 
ATOM     16  C   UNL A   1      32.834  16.968  23.824  1.00  0.00     0.001 A 
BRANCH  12  17
ATOM     17  O   UNL A   1      35.430  20.018  24.934  1.00  0.00    -0.493 OA
BRANCH  17  18
ATOM     18  C   UNL A   1      36.812  19.650  24.908  1.00  0.00     0.226 C 
ATOM     19  C   UNL A   1      37.646  20.921  24.797  1.00  0.00     0.049 C 
ENDBRANCH  17  18
ENDBRANCH  12  17
ENDBRANCH  10  11
BRANCH  10  20
ATOM     20  O   UNL A   1      33.274  20.523  26.766  1.00  0.00    -0.388 OA
ATOM     21  H   UNL A   1      32.640  20.857  27.420  1.00  0.00     0.211 HD
ENDBRANCH  10  20
ENDBRANCH   8  10
ENDBRANCH   6   8
ENDBRANCH   3   6
ENDBRANCH   1   2
BRANCH   1  22
ATOM     22  C   UNL A   1      32.134  27.124  25.488  1.00  0.00     0.023 C 
BRANCH  22  23
ATOM     23  C   UNL A   1      32.919  27.815  26.597  1.00  0.00     0.023 C 
BRANCH  23  24
ATOM     24  C   UNL A   1      33.965  28.802  26.103  1.00  0.00     0.116 C 
BRANCH  24  25
ATOM     25  N   UNL A   1      33.788  30.135  26.663  1.00  0.00    -0.352 N 
ATOM     26  C   UNL A   1      34.565  30.790  27.581  1.00  0.00     0.251 C 
ATOM     27  H   UNL A   1      33.003  30.633  26.336  1.00  0.00     0.163 HD
ATOM     28  O   UNL A   1      34.193  31.858  28.059  1.00  0.00    -0.269 OA
BRANCH  26  29
ATOM     29  C   UNL A   1      35.832  30.181  28.020  1.00  0.00     0.039 A 
ATOM     30  C   UNL A   1      36.947  30.289  27.189  1.00  0.00     0.014 A 
ATOM     31  C   UNL A   1      35.930  29.536  29.257  1.00  0.00     0.014 A 
ATOM     32  C   UNL A   1      38.176  29.799  27.625  1.00  0.00     0.010 A 
ATOM     33  C   UNL A   1      37.174  29.131  29.729  1.00  0.00     0.010 A 
ATOM     34  C   UNL A   1      38.308  29.251  28.914  1.00  0.00    -0.014 A 
BRANCH  34  35
ATOM     35  C   UNL A   1      39.635  28.818  29.412  1.00  0.00     0.031 A 
ATOM     36  C   UNL A   1      40.353  29.614  30.464  1.00  0.00     0.074 A 
ATOM     37  C   UNL A   1      40.200  27.711  28.892  1.00  0.00     0.049 A 
ATOM     38  N   UNL A   1      41.496  29.364  31.052  1.00  0.00    -0.248 NA
ATOM     39  C   UNL A   1      39.721  30.870  30.898  1.00  0.00     0.031 C 
ATOM     40  C   UNL A   1      39.627  26.894  27.821  1.00  0.00     0.029 A 
ATOM     41  N   UNL A   1      41.375  27.075  29.201  1.00  0.00    -0.354 N 
ATOM     42  C   UNL A   1      41.720  30.429  31.915  1.00  0.00     0.074 A 
ATOM     43  C   UNL A   1      40.628  31.359  31.732  1.00  0.00     0.031 C 
ATOM     44  C   UNL A   1      40.425  25.838  27.597  1.00  0.00     0.029 A 
ATOM     45  C   UNL A   1      41.584  25.925  28.480  1.00  0.00     0.049 A 
ATOM     46  H   UNL A   1      42.009  27.411  29.875  1.00  0.00     0.167 HD
ATOM     47  C   UNL A   1      42.732  30.600  32.798  1.00  0.00     0.037 A 
ATOM     48  C   UNL A   1      42.592  25.036  28.534  1.00  0.00     0.037 A 
ATOM     49  C   UNL A   1      43.805  29.659  32.989  1.00  0.00     0.049 A 
ATOM     50  C   UNL A   1      43.703  25.255  29.525  1.00  0.00     0.074 A 
ATOM     51  C   UNL A   1      44.837  29.702  33.908  1.00  0.00     0.029 A 
ATOM     52  N   UNL A   1      43.988  28.507  32.235  1.00  0.00    -0.354 N 
ATOM     53  N   UNL A   1      43.852  26.212  30.407  1.00  0.00    -0.248 NA
ATOM     54  C   UNL A   1      44.784  24.259  29.533  1.00  0.00     0.031 C 
ATOM     55  C   UNL A   1      45.681  28.612  33.670  1.00  0.00     0.029 A 
ATOM     56  C   UNL A   1      45.138  27.851  32.646  1.00  0.00     0.049 A 
ATOM     57  H   UNL A   1      43.390  28.201  31.515  1.00  0.00     0.167 HD
ATOM     58  C   UNL A   1      45.023  25.922  31.094  1.00  0.00     0.074 A 
ATOM     59  C   UNL A   1      45.530  24.682  30.542  1.00  0.00     0.031 C 
ATOM     60  C   UNL A   1      45.629  26.619  32.086  1.00  0.00     0.037 A 
BRANCH  47  61
ATOM     61  C   UNL A   1      42.730  31.851  33.629  1.00  0.00     0.064 A 
ATOM     62  C   UNL A   1      42.105  31.906  34.885  1.00  0.00     0.173 A 
ATOM     63  C   UNL A   1      43.405  32.998  33.185  1.00  0.00     0.173 A 
ATOM     64  F   UNL A   1      41.435  30.842  35.353  1.00  0.00    -0.203 F 
ATOM     65  C   UNL A   1      42.135  33.067  35.653  1.00  0.00     0.198 A 
ATOM     66  C   UNL A   1      43.461  34.148  33.970  1.00  0.00     0.198 A 
ATOM     67  F   UNL A   1      44.023  33.002  31.994  1.00  0.00    -0.203 F 
ATOM     68  F   UNL A   1      41.491  33.109  36.827  1.00  0.00    -0.200 F 
ATOM     69  C   UNL A   1      42.821  34.184  35.199  1.00  0.00     0.200 A 
ATOM     70  F   UNL A   1      44.138  35.220  33.536  1.00  0.00    -0.200 F 
ATOM     71  F   UNL A   1      42.861  35.297  35.944  1.00  0.00    -0.200 F 
ENDBRANCH  47  61
BRANCH  48  72
ATOM     72  C   UNL A   1      42.587  23.839  27.649  1.00  0.00     0.064 A 
ATOM     73  C   UNL A   1      42.129  22.599  28.116  1.00  0.00     0.173 A 
ATOM     74  C   UNL A   1      43.062  23.903  26.331  1.00  0.00     0.173 A 
ATOM     75  F   UNL A   1      41.682  22.482  29.374  1.00  0.00    -0.203 F 
ATOM     76  C   UNL A   1      42.175  21.464  27.310  1.00  0.00     0.198 A 
ATOM     77  C   UNL A   1      43.075  22.774  25.515  1.00  0.00     0.198 A 
ATOM     78  F   UNL A   1      43.505  25.066  25.831  1.00  0.00    -0.203 F 
ATOM     79  F   UNL A   1      41.786  20.280  27.804  1.00  0.00    -0.200 F 
ATOM     80  C   UNL A   1      42.643  21.553  26.008  1.00  0.00     0.200 A 
ATOM     81  F   UNL A   1      43.513  22.868  24.251  1.00  0.00    -0.200 F 
ATOM     82  F   UNL A   1      42.689  20.460  25.234  1.00  0.00    -0.200 F 
ENDBRANCH  48  72
BRANCH  60  83
ATOM     83  C   UNL A   1      46.891  26.035  32.658  1.00  0.00     0.064 A 
ATOM     84  C   UNL A   1      46.871  25.173  33.766  1.00  0.00     0.173 A 
ATOM     85  C   UNL A   1      48.136  26.336  32.085  1.00  0.00     0.173 A 
ATOM     86  F   UNL A   1      45.708  24.865  34.360  1.00  0.00    -0.203 F 
ATOM     87  C   UNL A   1      48.053  24.674  34.306  1.00  0.00     0.198 A 
ATOM     88  C   UNL A   1      49.313  25.802  32.602  1.00  0.00     0.198 A 
ATOM     89  F   UNL A   1      48.212  27.146  31.018  1.00  0.00    -0.203 F 
ATOM     90  F   UNL A   1      48.013  23.911  35.407  1.00  0.00    -0.200 F 
ATOM     91  C   UNL A   1      49.271  24.983  33.721  1.00  0.00     0.200 A 
ATOM     92  F   UNL A   1      50.487  26.087  32.026  1.00  0.00    -0.200 F 
ATOM     93  F   UNL A   1      50.407  24.500  34.241  1.00  0.00    -0.200 F 
ENDBRANCH  60  83
ENDBRANCH  34  35
ENDBRANCH  26  29
ENDBRANCH  24  25
ENDBRANCH  23  24
ENDBRANCH  22  23
ENDBRANCH   1  22
TORSDOF 17
ENDMDL
MODEL 3
REMARK VINA RESULT:     -10.8      2.261      3.607
REMARK SMILES CCOc1ccccc1[C@@H](O)[C@@H](C)[C@@H](C)C(=O)NCCCCNC(=O)c1ccc(-c2c3nc(c(-c4c(F)c(F)c(F)c(F)c4F)c4ccc([nH]4)c(-c4c(F)c(F)c(F)c(F)c4F)c4nc(c(-c5c(F)c(F)c(F)c(F)c5F)c5ccc2[nH]5)C=C4)C=C3)cc1
REMARK SMILES IDX 19 1 18 2 16 3 17 4 14 6 15 7 12 8 13 9 10 10 9 11 4 12 5 13
REMARK SMILES IDX 6 14 8 15 7 16 3 17 2 18 1 19 11 20 20 22 21 23 22 24 23 25
REMARK SMILES IDX 24 26 25 28 26 29 27 30 88 31 28 32 87 33 29 34 30 35 31 36
REMARK SMILES IDX 81 37 32 38 86 39 80 40 82 41 33 42 85 43 79 44 78 45 34 47
REMARK SMILES IDX 66 48 46 49 65 50 47 51 50 52 64 53 83 54 48 55 49 56 63 58
REMARK SMILES IDX 84 59 51 60 35 61 36 62 44 63 37 64 38 65 42 66 45 67 39 68
REMARK SMILES IDX 40 69 43 70 41 71 67 72 68 73 76 74 69 75 70 76 74 77 77 78
REMARK SMILES IDX 71 79 72 80 75 81 73 82 52 83 53 84 61 85 54 86 55 87 59 88
REMARK SMILES IDX 62 89 56 90 57 91 60 92 58 93
REMARK H PARENT 18 5 11 21 23 27 82 46 50 57
REMARK Flexibility Score: inf
ROOT
ATOM      1  C   UNL A   1      31.263  29.961  25.148  1.00  0.00     0.116 C 
ENDROOT
BRANCH   1   2
ATOM      2  N   UNL A   1      32.330  29.766  24.188  1.00  0.00    -0.356 N 
ATOM      3  C   UNL A   1      32.876  28.619  23.700  1.00  0.00     0.223 C 
ATOM      4  O   UNL A   1      33.841  28.721  22.939  1.00  0.00    -0.275 OA
ATOM      5  H   UNL A   1      32.724  30.596  23.832  1.00  0.00     0.163 HD
BRANCH   3   6
ATOM      6  C   UNL A   1      32.308  27.246  24.054  1.00  0.00     0.081 C 
ATOM      7  C   UNL A   1      30.802  27.374  24.290  1.00  0.00     0.018 C 
BRANCH   6   8
ATOM      8  C   UNL A   1      33.157  26.510  25.132  1.00  0.00     0.031 C 
ATOM      9  C   UNL A   1      33.938  27.563  25.946  1.00  0.00     0.011 C 
BRANCH   8  10
ATOM     10  C   UNL A   1      34.003  25.339  24.577  1.00  0.00     0.152 C 
BRANCH  10  11
ATOM     11  C   UNL A   1      33.960  24.112  25.459  1.00  0.00     0.023 A 
ATOM     12  C   UNL A   1      35.135  23.528  25.951  1.00  0.00     0.125 A 
ATOM     13  C   UNL A   1      35.076  22.446  26.830  1.00  0.00     0.047 A 
ATOM     14  C   UNL A   1      33.838  21.935  27.227  1.00  0.00     0.004 A 
ATOM     15  C   UNL A   1      32.721  23.569  25.853  1.00  0.00     0.010 A 
ATOM     16  C   UNL A   1      32.660  22.486  26.728  1.00  0.00     0.001 A 
BRANCH  12  17
ATOM     17  O   UNL A   1      36.349  23.905  25.444  1.00  0.00    -0.493 OA
BRANCH  17  18
ATOM     18  C   UNL A   1      37.072  22.840  24.817  1.00  0.00     0.226 C 
ATOM     19  C   UNL A   1      36.606  22.729  23.371  1.00  0.00     0.049 C 
ENDBRANCH  17  18
ENDBRANCH  12  17
ENDBRANCH  10  11
BRANCH  10  20
ATOM     20  O   UNL A   1      33.479  24.962  23.296  1.00  0.00    -0.388 OA
ATOM     21  H   UNL A   1      32.710  25.516  23.084  1.00  0.00     0.211 HD
ENDBRANCH  10  20
ENDBRANCH   8  10
ENDBRANCH   6   8
ENDBRANCH   3   6
ENDBRANCH   1   2
BRANCH   1  22
ATOM     22  C   UNL A   1      31.803  30.484  26.482  1.00  0.00     0.023 C 
BRANCH  22  23
ATOM     23  C   UNL A   1      31.550  31.968  26.723  1.00  0.00     0.023 C 
BRANCH  23  24
ATOM     24  C   UNL A   1      32.778  32.751  27.160  1.00  0.00     0.116 C 
BRANCH  24  25
ATOM     25  N   UNL A   1      32.457  34.102  27.598  1.00  0.00    -0.352 N 
ATOM     26  C   UNL A   1      33.042  34.845  28.589  1.00  0.00     0.251 C 
ATOM     27  H   UNL A   1      31.718  34.541  27.117  1.00  0.00     0.163 HD
ATOM     28  O   UNL A   1      32.553  35.918  28.931  1.00  0.00    -0.269 OA
BRANCH  26  29
ATOM     29  C   UNL A   1      34.243  34.325  29.268  1.00  0.00     0.039 A 
ATOM     30  C   UNL A   1      34.075  33.515  30.391  1.00  0.00     0.014 A 
ATOM     31  C   UNL A   1      35.523  34.606  28.782  1.00  0.00     0.014 A 
ATOM     32  C   UNL A   1      35.192  32.941  30.994  1.00  0.00     0.010 A 
ATOM     33  C   UNL A   1      36.627  33.960  29.327  1.00  0.00     0.010 A 
ATOM     34  C   UNL A   1      36.473  33.127  30.443  1.00  0.00    -0.014 A 
BRANCH  34  35
ATOM     35  C   UNL A   1      37.648  32.438  31.029  1.00  0.00     0.031 A 
ATOM     36  C   UNL A   1      38.137  32.799  32.402  1.00  0.00     0.074 A 
ATOM     37  C   UNL A   1      38.285  31.499  30.304  1.00  0.00     0.049 A 
ATOM     38  N   UNL A   1      39.117  32.273  33.094  1.00  0.00    -0.248 NA
ATOM     39  C   UNL A   1      37.457  33.912  33.083  1.00  0.00     0.031 C 
ATOM     40  C   UNL A   1      37.941  31.111  28.934  1.00  0.00     0.029 A 
ATOM     41  N   UNL A   1      39.348  30.691  30.619  1.00  0.00    -0.354 N 
ATOM     42  C   UNL A   1      39.173  32.992  34.280  1.00  0.00     0.074 A 
ATOM     43  C   UNL A   1      38.170  34.031  34.193  1.00  0.00     0.031 C 
ATOM     44  C   UNL A   1      38.742  30.107  28.546  1.00  0.00     0.029 A 
ATOM     45  C   UNL A   1      39.681  29.807  29.623  1.00  0.00     0.049 A 
ATOM     46  H   UNL A   1      39.827  30.741  31.478  1.00  0.00     0.167 HD
ATOM     47  C   UNL A   1      39.970  32.786  35.355  1.00  0.00     0.037 A 
ATOM     48  C   UNL A   1      40.631  28.854  29.587  1.00  0.00     0.037 A 
ATOM     49  C   UNL A   1      40.952  31.736  35.442  1.00  0.00     0.049 A 
ATOM     50  C   UNL A   1      41.502  28.651  30.796  1.00  0.00     0.074 A 
ATOM     51  C   UNL A   1      41.758  31.396  36.513  1.00  0.00     0.029 A 
ATOM     52  N   UNL A   1      41.267  30.863  34.410  1.00  0.00    -0.354 N 
ATOM     53  N   UNL A   1      41.478  29.270  31.951  1.00  0.00    -0.248 NA
ATOM     54  C   UNL A   1      42.530  27.605  30.698  1.00  0.00     0.031 C 
ATOM     55  C   UNL A   1      42.606  30.359  36.109  1.00  0.00     0.029 A 
ATOM     56  C   UNL A   1      42.283  30.007  34.809  1.00  0.00     0.049 A 
ATOM     57  H   UNL A   1      40.834  30.852  33.526  1.00  0.00     0.167 HD
ATOM     58  C   UNL A   1      42.463  28.672  32.727  1.00  0.00     0.074 A 
ATOM     59  C   UNL A   1      43.047  27.623  31.917  1.00  0.00     0.031 C 
ATOM     60  C   UNL A   1      42.853  28.968  33.991  1.00  0.00     0.037 A 
BRANCH  47  61
ATOM     61  C   UNL A   1      39.818  33.713  36.527  1.00  0.00     0.064 A 
ATOM     62  C   UNL A   1      40.491  34.943  36.591  1.00  0.00     0.173 A 
ATOM     63  C   UNL A   1      38.949  33.388  37.580  1.00  0.00     0.173 A 
ATOM     64  F   UNL A   1      41.343  35.299  35.618  1.00  0.00    -0.203 F 
ATOM     65  C   UNL A   1      40.318  35.801  37.675  1.00  0.00     0.198 A 
ATOM     66  C   UNL A   1      38.753  34.263  38.646  1.00  0.00     0.198 A 
ATOM     67  F   UNL A   1      38.277  32.227  37.570  1.00  0.00    -0.203 F 
ATOM     68  F   UNL A   1      41.007  36.949  37.735  1.00  0.00    -0.200 F 
ATOM     69  C   UNL A   1      39.443  35.465  38.696  1.00  0.00     0.200 A 
ATOM     70  F   UNL A   1      37.895  33.943  39.624  1.00  0.00    -0.200 F 
ATOM     71  F   UNL A   1      39.267  36.297  39.732  1.00  0.00    -0.200 F 
ENDBRANCH  47  61
BRANCH  48  72
ATOM     72  C   UNL A   1      40.789  27.997  28.381  1.00  0.00     0.064 A 
ATOM     73  C   UNL A   1      40.163  26.746  28.299  1.00  0.00     0.173 A 
ATOM     74  C   UNL A   1      41.589  28.396  27.301  1.00  0.00     0.173 A 
ATOM     75  F   UNL A   1      39.402  26.310  29.313  1.00  0.00    -0.203 F 
ATOM     76  C   UNL A   1      40.354  25.915  27.197  1.00  0.00     0.198 A 
ATOM     77  C   UNL A   1      41.752  27.578  26.184  1.00  0.00     0.198 A 
ATOM     78  F   UNL A   1      42.207  29.587  27.324  1.00  0.00    -0.203 F 
ATOM     79  F   UNL A   1      39.790  24.699  27.173  1.00  0.00    -0.200 F 
ATOM     80  C   UNL A   1      41.145  26.334  26.139  1.00  0.00     0.200 A 
ATOM     81  F   UNL A   1      42.504  27.995  25.156  1.00  0.00    -0.200 F 
ATOM     82  F   UNL A   1      41.330  25.533  25.080  1.00  0.00    -0.200 F 
ENDBRANCH  48  72
BRANCH  60  83
ATOM     83  C   UNL A   1      43.944  28.120  34.584  1.00  0.00     0.064 A 
ATOM     84  C   UNL A   1      45.295  28.498  34.514  1.00  0.00     0.173 A 
ATOM     85  C   UNL A   1      43.634  26.917  35.237  1.00  0.00     0.173 A 
ATOM     86  F   UNL A   1      45.646  29.631  33.889  1.00  0.00    -0.203 F 
ATOM     87  C   UNL A   1      46.294  27.681  35.034  1.00  0.00     0.198 A 
ATOM     88  C   UNL A   1      44.633  26.123  35.792  1.00  0.00     0.198 A 
ATOM     89  F   UNL A   1      42.359  26.513  35.341  1.00  0.00    -0.203 F 
ATOM     90  F   UNL A   1      47.581  28.029  34.892  1.00  0.00    -0.200 F 
ATOM     91  C   UNL A   1      45.963  26.498  35.678  1.00  0.00     0.200 A 
ATOM     92  F   UNL A   1      44.310  24.990  36.428  1.00  0.00    -0.200 F 
ATOM     93  F   UNL A   1      46.927  25.714  36.179  1.00  0.00    -0.200 F 
ENDBRANCH  60  83
ENDBRANCH  34  35
ENDBRANCH  26  29
ENDBRANCH  24  25
ENDBRANCH  23  24
ENDBRANCH  22  23
ENDBRANCH   1  22
TORSDOF 17
ENDMDL
