MODEL 1
REMARK VINA RESULT:     -14.0      0.000      0.000
REMARK SMILES O=C(Cn1cc(/C=C2\SC(N3CCOCC3)=[NH+]C2=O)c2ccccc21)NCCCCNC(=O)c1ccc(-c2c3nc(c(-c4c(F)c(F)c(F)c(F)c4F)c4ccc([nH]4)c(-c4c(F)c(F)c(F)c(F)c4F)c4nc(c(-c5c(F)c(F)c(F)c(F)c5F)c5ccc2[nH]5)C=C4)C=C3)cc1
REMARK SMILES IDX 28 1 27 2 26 3 1 4 2 5 3 7 4 8 5 9 25 10 6 11 20 12 24 13
REMARK SMILES IDX 21 14 23 15 22 16 7 17 8 18 9 19 18 20 10 21 17 22 19 23
REMARK SMILES IDX 11 24 12 26 16 27 13 28 15 29 14 30 29 31 30 32 31 33 32 34
REMARK SMILES IDX 33 36 34 37 35 38 96 39 36 40 95 41 37 42 38 43 39 44 89 45
REMARK SMILES IDX 40 46 94 47 88 48 90 49 41 50 93 51 87 52 86 53 42 55 74 56
REMARK SMILES IDX 54 57 73 58 55 59 58 60 72 61 91 62 56 63 57 64 71 66 92 67
REMARK SMILES IDX 59 68 43 69 44 70 52 71 45 72 46 73 50 74 53 75 47 76 48 77
REMARK SMILES IDX 51 78 49 79 75 80 76 81 84 82 77 83 78 84 82 85 85 86 79 87
REMARK SMILES IDX 80 88 83 89 81 90 60 91 61 92 69 93 62 94 63 95 67 96 70 97
REMARK SMILES IDX 64 98 65 99 68 100 66 101
REMARK H PARENT 26 6 17 25 31 35 90 54 58 65
REMARK Flexibility Score: inf
ROOT
ATOM      1  C   UNL A   1      41.644  20.773  27.096  1.00  0.00     0.023 C 
ENDROOT
BRANCH   1   2
ATOM      2  C   UNL A   1      40.381  21.616  26.950  1.00  0.00     0.116 C 
BRANCH   2   3
ATOM      3  N   UNL A   1      39.375  20.978  26.123  1.00  0.00    -0.355 N 
ATOM      4  O   UNL A   1      37.965  22.790  26.045  1.00  0.00    -0.273 OA
ATOM      5  C   UNL A   1      38.255  21.655  25.675  1.00  0.00     0.239 C 
ATOM      6  H   UNL A   1      39.491  20.032  25.874  1.00  0.00     0.163 HD
BRANCH   5   7
ATOM      7  C   UNL A   1      37.377  20.881  24.710  1.00  0.00     0.222 C 
BRANCH   7   8
ATOM      8  N   UNL A   1      36.147  21.565  24.308  1.00  0.00    -0.337 N 
ATOM      9  C   UNL A   1      36.058  22.712  23.565  1.00  0.00     0.095 A 
ATOM     10  C   UNL A   1      34.876  21.126  24.641  1.00  0.00     0.049 A 
ATOM     11  C   UNL A   1      34.726  22.964  23.326  1.00  0.00     0.001 A 
ATOM     12  C   UNL A   1      33.964  22.001  24.036  1.00  0.00     0.007 A 
ATOM     13  C   UNL A   1      34.452  20.038  25.422  1.00  0.00     0.027 A 
ATOM     14  C   UNL A   1      32.583  21.777  24.219  1.00  0.00     0.011 A 
ATOM     15  C   UNL A   1      33.079  19.843  25.592  1.00  0.00     0.002 A 
ATOM     16  C   UNL A   1      32.155  20.699  25.000  1.00  0.00     0.001 A 
BRANCH  11  17
ATOM     17  C   UNL A   1      34.269  24.052  22.526  1.00  0.00     0.034 C 
ATOM     18  C   UNL A   1      33.961  25.276  22.979  1.00  0.00     0.110 C 
ATOM     19  S   UNL A   1      34.160  25.887  24.573  1.00  0.00     0.006 SA
ATOM     20  C   UNL A   1      33.343  26.327  22.130  1.00  0.00     0.346 C 
ATOM     21  C   UNL A   1      33.354  27.369  24.094  1.00  0.00     0.319 C 
ATOM     22  N   UNL A   1      32.969  27.430  22.860  1.00  0.00    -0.200 N 
ATOM     23  O   UNL A   1      33.178  26.199  20.915  1.00  0.00    -0.240 OA
ATOM     24  N   UNL A   1      33.130  28.307  25.058  1.00  0.00    -0.251 N 
ATOM     25  H   UNL A   1      32.464  28.187  22.484  1.00  0.00     0.316 HD
ATOM     26  C   UNL A   1      34.194  28.894  25.875  1.00  0.00     0.265 C 
ATOM     27  C   UNL A   1      31.840  28.984  25.206  1.00  0.00     0.265 C 
ATOM     28  C   UNL A   1      33.749  28.922  27.340  1.00  0.00     0.206 C 
ATOM     29  C   UNL A   1      31.468  28.988  26.698  1.00  0.00     0.206 C 
ATOM     30  O   UNL A   1      32.496  29.603  27.499  1.00  0.00    -0.373 OA
ENDBRANCH  11  17
ENDBRANCH   7   8
ENDBRANCH   5   7
ENDBRANCH   2   3
ENDBRANCH   1   2
BRANCH   1  31
ATOM     31  C   UNL A   1      41.801  19.641  26.074  1.00  0.00     0.023 C 
BRANCH  31  32
ATOM     32  C   UNL A   1      43.124  18.882  26.148  1.00  0.00     0.116 C 
BRANCH  32  33
ATOM     33  N   UNL A   1      44.027  19.183  25.057  1.00  0.00    -0.352 N 
ATOM     34  C   UNL A   1      44.785  20.265  24.700  1.00  0.00     0.251 C 
ATOM     35  H   UNL A   1      44.118  18.435  24.424  1.00  0.00     0.163 HD
ATOM     36  O   UNL A   1      45.625  20.063  23.819  1.00  0.00    -0.269 OA
BRANCH  34  37
ATOM     37  C   UNL A   1      44.635  21.645  25.240  1.00  0.00     0.039 A 
ATOM     38  C   UNL A   1      45.270  22.135  26.378  1.00  0.00     0.014 A 
ATOM     39  C   UNL A   1      43.687  22.466  24.594  1.00  0.00     0.014 A 
ATOM     40  C   UNL A   1      44.912  23.375  26.900  1.00  0.00     0.010 A 
ATOM     41  C   UNL A   1      43.321  23.705  25.115  1.00  0.00     0.010 A 
ATOM     42  C   UNL A   1      43.907  24.140  26.295  1.00  0.00    -0.014 A 
BRANCH  42  43
ATOM     43  C   UNL A   1      43.582  25.420  26.918  1.00  0.00     0.031 A 
ATOM     44  C   UNL A   1      44.554  26.508  26.639  1.00  0.00     0.074 A 
ATOM     45  C   UNL A   1      42.487  25.656  27.672  1.00  0.00     0.049 A 
ATOM     46  N   UNL A   1      45.353  27.085  27.474  1.00  0.00    -0.248 NA
ATOM     47  C   UNL A   1      44.725  26.943  25.246  1.00  0.00     0.031 C 
ATOM     48  C   UNL A   1      41.290  24.824  27.796  1.00  0.00     0.029 A 
ATOM     49  N   UNL A   1      42.190  26.748  28.446  1.00  0.00    -0.354 N 
ATOM     50  C   UNL A   1      46.002  28.085  26.755  1.00  0.00     0.074 A 
ATOM     51  C   UNL A   1      45.677  27.872  25.369  1.00  0.00     0.031 C 
ATOM     52  C   UNL A   1      40.318  25.528  28.422  1.00  0.00     0.029 A 
ATOM     53  C   UNL A   1      40.875  26.788  28.887  1.00  0.00     0.049 A 
ATOM     54  H   UNL A   1      42.851  27.442  28.669  1.00  0.00     0.167 HD
ATOM     55  C   UNL A   1      46.560  29.151  27.393  1.00  0.00     0.037 A 
ATOM     56  C   UNL A   1      40.278  27.796  29.568  1.00  0.00     0.037 A 
ATOM     57  C   UNL A   1      46.706  28.907  28.803  1.00  0.00     0.049 A 
ATOM     58  C   UNL A   1      41.324  28.573  30.269  1.00  0.00     0.074 A 
ATOM     59  C   UNL A   1      47.627  28.325  29.643  1.00  0.00     0.029 A 
ATOM     60  N   UNL A   1      45.550  29.063  29.512  1.00  0.00    -0.354 N 
ATOM     61  N   UNL A   1      42.033  28.109  31.259  1.00  0.00    -0.248 NA
ATOM     62  C   UNL A   1      41.784  29.838  29.702  1.00  0.00     0.031 C 
ATOM     63  C   UNL A   1      46.941  28.033  30.861  1.00  0.00     0.029 A 
ATOM     64  C   UNL A   1      45.623  28.458  30.738  1.00  0.00     0.049 A 
ATOM     65  H   UNL A   1      44.761  29.550  29.182  1.00  0.00     0.167 HD
ATOM     66  C   UNL A   1      43.226  28.790  31.162  1.00  0.00     0.074 A 
ATOM     67  C   UNL A   1      42.956  29.952  30.329  1.00  0.00     0.031 C 
ATOM     68  C   UNL A   1      44.405  28.175  31.454  1.00  0.00     0.037 A 
BRANCH  55  69
ATOM     69  C   UNL A   1      46.555  30.568  26.863  1.00  0.00     0.064 A 
ATOM     70  C   UNL A   1      47.747  31.324  26.893  1.00  0.00     0.173 A 
ATOM     71  C   UNL A   1      45.375  31.309  26.634  1.00  0.00     0.173 A 
ATOM     72  F   UNL A   1      48.927  30.731  27.134  1.00  0.00    -0.203 F 
ATOM     73  C   UNL A   1      47.746  32.716  26.756  1.00  0.00     0.198 A 
ATOM     74  C   UNL A   1      45.384  32.690  26.447  1.00  0.00     0.198 A 
ATOM     75  F   UNL A   1      44.163  30.745  26.698  1.00  0.00    -0.203 F 
ATOM     76  F   UNL A   1      48.889  33.401  26.901  1.00  0.00    -0.200 F 
ATOM     77  C   UNL A   1      46.564  33.398  26.534  1.00  0.00     0.200 A 
ATOM     78  F   UNL A   1      44.224  33.338  26.261  1.00  0.00    -0.200 F 
ATOM     79  F   UNL A   1      46.554  34.736  26.452  1.00  0.00    -0.200 F 
ENDBRANCH  55  69
BRANCH  56  80
ATOM     80  C   UNL A   1      38.887  28.301  29.480  1.00  0.00     0.064 A 
ATOM     81  C   UNL A   1      38.117  28.482  30.643  1.00  0.00     0.173 A 
ATOM     82  C   UNL A   1      38.422  28.934  28.312  1.00  0.00     0.173 A 
ATOM     83  F   UNL A   1      38.504  27.929  31.802  1.00  0.00    -0.203 F 
ATOM     84  C   UNL A   1      36.993  29.310  30.655  1.00  0.00     0.198 A 
ATOM     85  C   UNL A   1      37.292  29.755  28.325  1.00  0.00     0.198 A 
ATOM     86  F   UNL A   1      39.115  28.858  27.168  1.00  0.00    -0.203 F 
ATOM     87  F   UNL A   1      36.341  29.535  31.806  1.00  0.00    -0.200 F 
ATOM     88  C   UNL A   1      36.594  29.963  29.501  1.00  0.00     0.200 A 
ATOM     89  F   UNL A   1      36.933  30.405  27.210  1.00  0.00    -0.200 F 
ATOM     90  F   UNL A   1      35.570  30.826  29.532  1.00  0.00    -0.200 F 
ENDBRANCH  56  80
BRANCH  68  91
ATOM     91  C   UNL A   1      44.370  27.032  32.412  1.00  0.00     0.064 A 
ATOM     92  C   UNL A   1      44.299  27.169  33.806  1.00  0.00     0.173 A 
ATOM     93  C   UNL A   1      44.354  25.736  31.881  1.00  0.00     0.173 A 
ATOM     94  F   UNL A   1      44.242  28.381  34.377  1.00  0.00    -0.203 F 
ATOM     95  C   UNL A   1      44.246  26.048  34.633  1.00  0.00     0.198 A 
ATOM     96  C   UNL A   1      44.270  24.620  32.706  1.00  0.00     0.198 A 
ATOM     97  F   UNL A   1      44.388  25.554  30.551  1.00  0.00    -0.203 F 
ATOM     98  F   UNL A   1      44.193  26.197  35.965  1.00  0.00    -0.200 F 
ATOM     99  C   UNL A   1      44.225  24.777  34.082  1.00  0.00     0.200 A 
ATOM    100  F   UNL A   1      44.210  23.396  32.166  1.00  0.00    -0.200 F 
ATOM    101  F   UNL A   1      44.138  23.699  34.875  1.00  0.00    -0.200 F 
ENDBRANCH  68  91
ENDBRANCH  42  43
ENDBRANCH  34  37
ENDBRANCH  32  33
ENDBRANCH  31  32
ENDBRANCH   1  31
TORSDOF 13
ENDMDL
MODEL 2
REMARK VINA RESULT:     -13.9      1.228      1.691
REMARK SMILES O=C(Cn1cc(/C=C2\SC(N3CCOCC3)=[NH+]C2=O)c2ccccc21)NCCCCNC(=O)c1ccc(-c2c3nc(c(-c4c(F)c(F)c(F)c(F)c4F)c4ccc([nH]4)c(-c4c(F)c(F)c(F)c(F)c4F)c4nc(c(-c5c(F)c(F)c(F)c(F)c5F)c5ccc2[nH]5)C=C4)C=C3)cc1
REMARK SMILES IDX 28 1 27 2 26 3 1 4 2 5 3 7 4 8 5 9 25 10 6 11 20 12 24 13
REMARK SMILES IDX 21 14 23 15 22 16 7 17 8 18 9 19 18 20 10 21 17 22 19 23
REMARK SMILES IDX 11 24 12 26 16 27 13 28 15 29 14 30 29 31 30 32 31 33 32 34
REMARK SMILES IDX 33 36 34 37 35 38 96 39 36 40 95 41 37 42 38 43 39 44 89 45
REMARK SMILES IDX 40 46 94 47 88 48 90 49 41 50 93 51 87 52 86 53 42 55 74 56
REMARK SMILES IDX 54 57 73 58 55 59 58 60 72 61 91 62 56 63 57 64 71 66 92 67
REMARK SMILES IDX 59 68 43 69 44 70 52 71 45 72 46 73 50 74 53 75 47 76 48 77
REMARK SMILES IDX 51 78 49 79 75 80 76 81 84 82 77 83 78 84 82 85 85 86 79 87
REMARK SMILES IDX 80 88 83 89 81 90 60 91 61 92 69 93 62 94 63 95 67 96 70 97
REMARK SMILES IDX 64 98 65 99 68 100 66 101
REMARK H PARENT 26 6 17 25 31 35 90 54 58 65
REMARK Flexibility Score: inf
ROOT
ATOM      1  C   UNL A   1      41.061  20.764  27.182  1.00  0.00     0.023 C 
ENDROOT
BRANCH   1   2
ATOM      2  C   UNL A   1      40.010  21.811  26.825  1.00  0.00     0.116 C 
BRANCH   2   3
ATOM      3  N   UNL A   1      38.986  21.296  25.938  1.00  0.00    -0.355 N 
ATOM      4  O   UNL A   1      37.657  23.168  26.017  1.00  0.00    -0.273 OA
ATOM      5  C   UNL A   1      37.901  22.060  25.546  1.00  0.00     0.239 C 
ATOM      6  H   UNL A   1      39.064  20.372  25.604  1.00  0.00     0.163 HD
BRANCH   5   7
ATOM      7  C   UNL A   1      37.000  21.417  24.509  1.00  0.00     0.222 C 
BRANCH   7   8
ATOM      8  N   UNL A   1      35.633  21.152  24.957  1.00  0.00    -0.337 N 
ATOM      9  C   UNL A   1      34.765  22.058  25.508  1.00  0.00     0.095 A 
ATOM     10  C   UNL A   1      35.022  19.910  24.880  1.00  0.00     0.049 A 
ATOM     11  C   UNL A   1      33.554  21.432  25.696  1.00  0.00     0.001 A 
ATOM     12  C   UNL A   1      33.710  20.065  25.350  1.00  0.00     0.007 A 
ATOM     13  C   UNL A   1      35.511  18.669  24.441  1.00  0.00     0.027 A 
ATOM     14  C   UNL A   1      32.862  18.938  25.378  1.00  0.00     0.011 A 
ATOM     15  C   UNL A   1      34.651  17.568  24.485  1.00  0.00     0.002 A 
ATOM     16  C   UNL A   1      33.345  17.698  24.947  1.00  0.00     0.001 A 
BRANCH  11  17
ATOM     17  C   UNL A   1      32.399  22.100  26.197  1.00  0.00     0.034 C 
ATOM     18  C   UNL A   1      32.058  23.369  25.930  1.00  0.00     0.110 C 
ATOM     19  S   UNL A   1      32.819  24.455  24.837  1.00  0.00     0.006 SA
ATOM     20  C   UNL A   1      30.928  24.066  26.599  1.00  0.00     0.346 C 
ATOM     21  C   UNL A   1      31.746  25.734  25.377  1.00  0.00     0.319 C 
ATOM     22  N   UNL A   1      30.884  25.403  26.282  1.00  0.00    -0.200 N 
ATOM     23  O   UNL A   1      30.142  23.496  27.359  1.00  0.00    -0.240 OA
ATOM     24  N   UNL A   1      31.941  26.981  24.862  1.00  0.00    -0.251 N 
ATOM     25  H   UNL A   1      30.261  26.041  26.700  1.00  0.00     0.316 HD
ATOM     26  C   UNL A   1      31.923  27.275  23.428  1.00  0.00     0.265 C 
ATOM     27  C   UNL A   1      31.953  28.180  25.703  1.00  0.00     0.265 C 
ATOM     28  C   UNL A   1      33.109  28.180  23.083  1.00  0.00     0.206 C 
ATOM     29  C   UNL A   1      33.156  29.044  25.290  1.00  0.00     0.206 C 
ATOM     30  O   UNL A   1      33.118  29.369  23.886  1.00  0.00    -0.373 OA
ENDBRANCH  11  17
ENDBRANCH   7   8
ENDBRANCH   5   7
ENDBRANCH   2   3
ENDBRANCH   1   2
BRANCH   1  31
ATOM     31  C   UNL A   1      41.381  19.751  26.076  1.00  0.00     0.023 C 
BRANCH  31  32
ATOM     32  C   UNL A   1      42.717  19.026  26.231  1.00  0.00     0.116 C 
BRANCH  32  33
ATOM     33  N   UNL A   1      43.651  19.297  25.157  1.00  0.00    -0.352 N 
ATOM     34  C   UNL A   1      44.445  20.356  24.812  1.00  0.00     0.251 C 
ATOM     35  H   UNL A   1      43.735  18.543  24.530  1.00  0.00     0.163 HD
ATOM     36  O   UNL A   1      45.298  20.127  23.950  1.00  0.00    -0.269 OA
BRANCH  34  37
ATOM     37  C   UNL A   1      44.322  21.743  25.342  1.00  0.00     0.039 A 
ATOM     38  C   UNL A   1      44.989  22.237  26.460  1.00  0.00     0.014 A 
ATOM     39  C   UNL A   1      43.366  22.567  24.711  1.00  0.00     0.014 A 
ATOM     40  C   UNL A   1      44.655  23.485  26.978  1.00  0.00     0.010 A 
ATOM     41  C   UNL A   1      43.024  23.814  25.229  1.00  0.00     0.010 A 
ATOM     42  C   UNL A   1      43.643  24.255  26.390  1.00  0.00    -0.014 A 
BRANCH  42  43
ATOM     43  C   UNL A   1      43.344  25.544  27.008  1.00  0.00     0.031 A 
ATOM     44  C   UNL A   1      44.327  26.616  26.706  1.00  0.00     0.074 A 
ATOM     45  C   UNL A   1      42.265  25.800  27.778  1.00  0.00     0.049 A 
ATOM     46  N   UNL A   1      45.146  27.187  27.524  1.00  0.00    -0.248 NA
ATOM     47  C   UNL A   1      44.482  27.038  25.307  1.00  0.00     0.031 C 
ATOM     48  C   UNL A   1      41.059  24.985  27.926  1.00  0.00     0.029 A 
ATOM     49  N   UNL A   1      41.994  26.901  28.548  1.00  0.00    -0.354 N 
ATOM     50  C   UNL A   1      45.798  28.174  26.788  1.00  0.00     0.074 A 
ATOM     51  C   UNL A   1      45.449  27.954  25.409  1.00  0.00     0.031 C 
ATOM     52  C   UNL A   1      40.106  25.707  28.561  1.00  0.00     0.029 A 
ATOM     53  C   UNL A   1      40.687  26.963  29.009  1.00  0.00     0.049 A 
ATOM     54  H   UNL A   1      42.668  27.588  28.755  1.00  0.00     0.167 HD
ATOM     55  C   UNL A   1      46.380  29.236  27.410  1.00  0.00     0.037 A 
ATOM     56  C   UNL A   1      40.114  27.984  29.691  1.00  0.00     0.037 A 
ATOM     57  C   UNL A   1      46.544  29.000  28.819  1.00  0.00     0.049 A 
ATOM     58  C   UNL A   1      41.182  28.752  30.369  1.00  0.00     0.074 A 
ATOM     59  C   UNL A   1      47.471  28.413  29.649  1.00  0.00     0.029 A 
ATOM     60  N   UNL A   1      45.402  29.178  29.545  1.00  0.00    -0.354 N 
ATOM     61  N   UNL A   1      41.900  28.286  31.352  1.00  0.00    -0.248 NA
ATOM     62  C   UNL A   1      41.650  30.006  29.786  1.00  0.00     0.031 C 
ATOM     63  C   UNL A   1      46.800  28.139  30.880  1.00  0.00     0.029 A 
ATOM     64  C   UNL A   1      45.486  28.581  30.774  1.00  0.00     0.049 A 
ATOM     65  H   UNL A   1      44.615  29.673  29.223  1.00  0.00     0.167 HD
ATOM     66  C   UNL A   1      43.100  28.949  31.232  1.00  0.00     0.074 A 
ATOM     67  C   UNL A   1      42.834  30.108  30.394  1.00  0.00     0.031 C 
ATOM     68  C   UNL A   1      44.275  28.320  31.511  1.00  0.00     0.037 A 
BRANCH  55  69
ATOM     69  C   UNL A   1      46.387  30.649  26.869  1.00  0.00     0.064 A 
ATOM     70  C   UNL A   1      47.594  31.380  26.853  1.00  0.00     0.173 A 
ATOM     71  C   UNL A   1      45.215  31.413  26.674  1.00  0.00     0.173 A 
ATOM     72  F   UNL A   1      48.769  30.765  27.059  1.00  0.00    -0.203 F 
ATOM     73  C   UNL A   1      47.617  32.771  26.706  1.00  0.00     0.198 A 
ATOM     74  C   UNL A   1      45.246  32.793  26.476  1.00  0.00     0.198 A 
ATOM     75  F   UNL A   1      43.994  30.875  26.783  1.00  0.00    -0.203 F 
ATOM     76  F   UNL A   1      48.778  33.434  26.807  1.00  0.00    -0.200 F 
ATOM     77  C   UNL A   1      46.443  33.477  26.518  1.00  0.00     0.200 A 
ATOM     78  F   UNL A   1      44.094  33.463  26.324  1.00  0.00    -0.200 F 
ATOM     79  F   UNL A   1      46.457  34.813  26.426  1.00  0.00    -0.200 F 
ENDBRANCH  55  69
BRANCH  56  80
ATOM     80  C   UNL A   1      38.730  28.508  29.620  1.00  0.00     0.064 A 
ATOM     81  C   UNL A   1      37.977  28.700  30.793  1.00  0.00     0.173 A 
ATOM     82  C   UNL A   1      38.258  29.145  28.458  1.00  0.00     0.173 A 
ATOM     83  F   UNL A   1      38.372  28.144  31.947  1.00  0.00    -0.203 F 
ATOM     84  C   UNL A   1      36.865  29.543  30.819  1.00  0.00     0.198 A 
ATOM     85  C   UNL A   1      37.140  29.981  28.485  1.00  0.00     0.198 A 
ATOM     86  F   UNL A   1      38.935  29.058  27.305  1.00  0.00    -0.203 F 
ATOM     87  F   UNL A   1      36.231  29.778  31.978  1.00  0.00    -0.200 F 
ATOM     88  C   UNL A   1      36.459  30.200  29.669  1.00  0.00     0.200 A 
ATOM     89  F   UNL A   1      36.774  30.635  27.373  1.00  0.00    -0.200 F 
ATOM     90  F   UNL A   1      35.448  31.077  29.712  1.00  0.00    -0.200 F 
ENDBRANCH  56  80
BRANCH  68  91
ATOM     91  C   UNL A   1      44.239  27.185  32.477  1.00  0.00     0.064 A 
ATOM     92  C   UNL A   1      44.145  27.333  33.869  1.00  0.00     0.173 A 
ATOM     93  C   UNL A   1      44.247  25.884  31.957  1.00  0.00     0.173 A 
ATOM     94  F   UNL A   1      44.064  28.548  34.429  1.00  0.00    -0.203 F 
ATOM     95  C   UNL A   1      44.093  26.218  34.704  1.00  0.00     0.198 A 
ATOM     96  C   UNL A   1      44.164  24.774  32.790  1.00  0.00     0.198 A 
ATOM     97  F   UNL A   1      44.304  25.692  30.629  1.00  0.00    -0.203 F 
ATOM     98  F   UNL A   1      44.017  26.377  36.034  1.00  0.00    -0.200 F 
ATOM     99  C   UNL A   1      44.096  24.941  34.164  1.00  0.00     0.200 A 
ATOM    100  F   UNL A   1      44.128  23.545  32.260  1.00  0.00    -0.200 F 
ATOM    101  F   UNL A   1      44.010  23.869  34.965  1.00  0.00    -0.200 F 
ENDBRANCH  68  91
ENDBRANCH  42  43
ENDBRANCH  34  37
ENDBRANCH  32  33
ENDBRANCH  31  32
ENDBRANCH   1  31
TORSDOF 13
ENDMDL
MODEL 3
REMARK VINA RESULT:     -13.5      3.621      9.921
REMARK SMILES O=C(Cn1cc(/C=C2\SC(N3CCOCC3)=[NH+]C2=O)c2ccccc21)NCCCCNC(=O)c1ccc(-c2c3nc(c(-c4c(F)c(F)c(F)c(F)c4F)c4ccc([nH]4)c(-c4c(F)c(F)c(F)c(F)c4F)c4nc(c(-c5c(F)c(F)c(F)c(F)c5F)c5ccc2[nH]5)C=C4)C=C3)cc1
REMARK SMILES IDX 28 1 27 2 26 3 1 4 2 5 3 7 4 8 5 9 25 10 6 11 20 12 24 13
REMARK SMILES IDX 21 14 23 15 22 16 7 17 8 18 9 19 18 20 10 21 17 22 19 23
REMARK SMILES IDX 11 24 12 26 16 27 13 28 15 29 14 30 29 31 30 32 31 33 32 34
REMARK SMILES IDX 33 36 34 37 35 38 96 39 36 40 95 41 37 42 38 43 39 44 89 45
REMARK SMILES IDX 40 46 94 47 88 48 90 49 41 50 93 51 87 52 86 53 42 55 74 56
REMARK SMILES IDX 54 57 73 58 55 59 58 60 72 61 91 62 56 63 57 64 71 66 92 67
REMARK SMILES IDX 59 68 43 69 44 70 52 71 45 72 46 73 50 74 53 75 47 76 48 77
REMARK SMILES IDX 51 78 49 79 75 80 76 81 84 82 77 83 78 84 82 85 85 86 79 87
REMARK SMILES IDX 80 88 83 89 81 90 60 91 61 92 69 93 62 94 63 95 67 96 70 97
REMARK SMILES IDX 64 98 65 99 68 100 66 101
REMARK H PARENT 26 6 17 25 31 35 90 54 58 65
REMARK Flexibility Score: inf
ROOT
ATOM      1  C   UNL A   1      34.487  33.312  28.003  1.00  0.00     0.023 C 
ENDROOT
BRANCH   1   2
ATOM      2  C   UNL A   1      34.517  31.840  28.404  1.00  0.00     0.116 C 
BRANCH   2   3
ATOM      3  N   UNL A   1      34.454  30.948  27.263  1.00  0.00    -0.355 N 
ATOM      4  O   UNL A   1      32.180  30.630  27.350  1.00  0.00    -0.273 OA
ATOM      5  C   UNL A   1      33.254  30.457  26.779  1.00  0.00     0.239 C 
ATOM      6  H   UNL A   1      35.292  30.682  26.818  1.00  0.00     0.163 HD
BRANCH   5   7
ATOM      7  C   UNL A   1      33.357  29.650  25.499  1.00  0.00     0.222 C 
BRANCH   7   8
ATOM      8  N   UNL A   1      32.328  28.625  25.329  1.00  0.00    -0.337 N 
ATOM      9  C   UNL A   1      32.146  27.514  26.110  1.00  0.00     0.095 A 
ATOM     10  C   UNL A   1      31.376  28.646  24.322  1.00  0.00     0.049 A 
ATOM     11  C   UNL A   1      31.013  26.866  25.676  1.00  0.00     0.001 A 
ATOM     12  C   UNL A   1      30.540  27.538  24.519  1.00  0.00     0.007 A 
ATOM     13  C   UNL A   1      31.181  29.541  23.257  1.00  0.00     0.027 A 
ATOM     14  C   UNL A   1      29.475  27.323  23.620  1.00  0.00     0.011 A 
ATOM     15  C   UNL A   1      30.122  29.300  22.378  1.00  0.00     0.002 A 
ATOM     16  C   UNL A   1      29.279  28.207  22.554  1.00  0.00     0.001 A 
BRANCH  11  17
ATOM     17  C   UNL A   1      30.491  25.699  26.306  1.00  0.00     0.034 C 
ATOM     18  C   UNL A   1      31.132  24.528  26.431  1.00  0.00     0.110 C 
ATOM     19  S   UNL A   1      32.758  24.170  26.002  1.00  0.00     0.006 SA
ATOM     20  C   UNL A   1      30.487  23.297  26.959  1.00  0.00     0.346 C 
ATOM     21  C   UNL A   1      32.481  22.485  26.405  1.00  0.00     0.319 C 
ATOM     22  N   UNL A   1      31.295  22.193  26.831  1.00  0.00    -0.200 N 
ATOM     23  O   UNL A   1      29.351  23.287  27.437  1.00  0.00    -0.240 OA
ATOM     24  N   UNL A   1      33.497  21.606  26.177  1.00  0.00    -0.251 N 
ATOM     25  H   UNL A   1      31.003  21.277  27.042  1.00  0.00     0.316 HD
ATOM     26  C   UNL A   1      34.835  21.749  26.756  1.00  0.00     0.265 C 
ATOM     27  C   UNL A   1      33.281  20.314  25.523  1.00  0.00     0.265 C 
ATOM     28  C   UNL A   1      35.885  21.497  25.671  1.00  0.00     0.206 C 
ATOM     29  C   UNL A   1      34.378  20.122  24.462  1.00  0.00     0.206 C 
ATOM     30  O   UNL A   1      35.696  20.223  25.038  1.00  0.00    -0.373 OA
ENDBRANCH  11  17
ENDBRANCH   7   8
ENDBRANCH   5   7
ENDBRANCH   2   3
ENDBRANCH   1   2
BRANCH   1  31
ATOM     31  C   UNL A   1      33.182  34.052  28.319  1.00  0.00     0.023 C 
BRANCH  31  32
ATOM     32  C   UNL A   1      33.352  35.369  29.074  1.00  0.00     0.116 C 
BRANCH  32  33
ATOM     33  N   UNL A   1      32.967  35.292  30.469  1.00  0.00    -0.352 N 
ATOM     34  C   UNL A   1      33.585  34.889  31.621  1.00  0.00     0.251 C 
ATOM     35  H   UNL A   1      32.046  35.602  30.624  1.00  0.00     0.163 HD
ATOM     36  O   UNL A   1      33.014  35.196  32.670  1.00  0.00    -0.269 OA
BRANCH  34  37
ATOM     37  C   UNL A   1      34.833  34.079  31.699  1.00  0.00     0.039 A 
ATOM     38  C   UNL A   1      36.121  34.568  31.504  1.00  0.00     0.014 A 
ATOM     39  C   UNL A   1      34.662  32.689  31.875  1.00  0.00     0.014 A 
ATOM     40  C   UNL A   1      37.197  33.689  31.411  1.00  0.00     0.010 A 
ATOM     41  C   UNL A   1      35.733  31.805  31.777  1.00  0.00     0.010 A 
ATOM     42  C   UNL A   1      36.998  32.305  31.503  1.00  0.00    -0.014 A 
BRANCH  42  43
ATOM     43  C   UNL A   1      38.178  31.455  31.377  1.00  0.00     0.031 A 
ATOM     44  C   UNL A   1      38.887  31.189  32.654  1.00  0.00     0.074 A 
ATOM     45  C   UNL A   1      38.616  30.907  30.223  1.00  0.00     0.049 A 
ATOM     46  N   UNL A   1      40.063  31.595  33.002  1.00  0.00    -0.248 NA
ATOM     47  C   UNL A   1      38.166  30.463  33.709  1.00  0.00     0.031 C 
ATOM     48  C   UNL A   1      37.894  30.799  28.954  1.00  0.00     0.029 A 
ATOM     49  N   UNL A   1      39.797  30.262  29.966  1.00  0.00    -0.354 N 
ATOM     50  C   UNL A   1      40.313  31.025  34.248  1.00  0.00     0.074 A 
ATOM     51  C   UNL A   1      39.071  30.448  34.691  1.00  0.00     0.031 C 
ATOM     52  C   UNL A   1      38.559  29.953  28.133  1.00  0.00     0.029 A 
ATOM     53  C   UNL A   1      39.827  29.597  28.749  1.00  0.00     0.049 A 
ATOM     54  H   UNL A   1      40.558  30.270  30.591  1.00  0.00     0.167 HD
ATOM     55  C   UNL A   1      41.588  30.869  34.699  1.00  0.00     0.037 A 
ATOM     56  C   UNL A   1      40.813  28.790  28.288  1.00  0.00     0.037 A 
ATOM     57  C   UNL A   1      42.518  31.663  33.942  1.00  0.00     0.049 A 
ATOM     58  C   UNL A   1      42.075  29.158  28.969  1.00  0.00     0.074 A 
ATOM     59  C   UNL A   1      43.006  32.950  33.962  1.00  0.00     0.029 A 
ATOM     60  N   UNL A   1      42.858  31.117  32.739  1.00  0.00    -0.354 N 
ATOM     61  N   UNL A   1      42.696  30.289  28.787  1.00  0.00    -0.248 NA
ATOM     62  C   UNL A   1      42.556  28.346  30.084  1.00  0.00     0.031 C 
ATOM     63  C   UNL A   1      43.560  33.195  32.668  1.00  0.00     0.029 A 
ATOM     64  C   UNL A   1      43.409  32.046  31.899  1.00  0.00     0.049 A 
ATOM     65  H   UNL A   1      42.723  30.171  32.504  1.00  0.00     0.167 HD
ATOM     66  C   UNL A   1      43.341  30.510  29.983  1.00  0.00     0.074 A 
ATOM     67  C   UNL A   1      43.380  29.223  30.659  1.00  0.00     0.031 C 
ATOM     68  C   UNL A   1      43.465  31.769  30.485  1.00  0.00     0.037 A 
BRANCH  55  69
ATOM     69  C   UNL A   1      42.076  29.683  35.500  1.00  0.00     0.064 A 
ATOM     70  C   UNL A   1      43.010  29.884  36.540  1.00  0.00     0.173 A 
ATOM     71  C   UNL A   1      41.917  28.344  35.082  1.00  0.00     0.173 A 
ATOM     72  F   UNL A   1      43.268  31.118  36.997  1.00  0.00    -0.203 F 
ATOM     73  C   UNL A   1      43.760  28.832  37.077  1.00  0.00     0.198 A 
ATOM     74  C   UNL A   1      42.628  27.291  35.656  1.00  0.00     0.198 A 
ATOM     75  F   UNL A   1      41.157  28.018  34.029  1.00  0.00    -0.203 F 
ATOM     76  F   UNL A   1      44.712  29.087  37.985  1.00  0.00    -0.200 F 
ATOM     77  C   UNL A   1      43.568  27.536  36.635  1.00  0.00     0.200 A 
ATOM     78  F   UNL A   1      42.450  26.044  35.193  1.00  0.00    -0.200 F 
ATOM     79  F   UNL A   1      44.319  26.534  37.112  1.00  0.00    -0.200 F 
ENDBRANCH  55  69
BRANCH  56  80
ATOM     80  C   UNL A   1      40.720  27.555  27.474  1.00  0.00     0.064 A 
ATOM     81  C   UNL A   1      41.513  27.396  26.323  1.00  0.00     0.173 A 
ATOM     82  C   UNL A   1      40.126  26.391  27.995  1.00  0.00     0.173 A 
ATOM     83  F   UNL A   1      42.131  28.454  25.777  1.00  0.00    -0.203 F 
ATOM     84  C   UNL A   1      41.760  26.137  25.772  1.00  0.00     0.198 A 
ATOM     85  C   UNL A   1      40.368  25.134  27.437  1.00  0.00     0.198 A 
ATOM     86  F   UNL A   1      39.393  26.437  29.116  1.00  0.00    -0.203 F 
ATOM     87  F   UNL A   1      42.600  26.016  24.733  1.00  0.00    -0.200 F 
ATOM     88  C   UNL A   1      41.205  25.004  26.342  1.00  0.00     0.200 A 
ATOM     89  F   UNL A   1      39.849  24.041  28.015  1.00  0.00    -0.200 F 
ATOM     90  F   UNL A   1      41.512  23.789  25.870  1.00  0.00    -0.200 F 
ENDBRANCH  56  80
BRANCH  68  91
ATOM     91  C   UNL A   1      43.455  32.904  29.518  1.00  0.00     0.064 A 
ATOM     92  C   UNL A   1      44.502  33.199  28.633  1.00  0.00     0.173 A 
ATOM     93  C   UNL A   1      42.301  33.696  29.452  1.00  0.00     0.173 A 
ATOM     94  F   UNL A   1      45.607  32.440  28.595  1.00  0.00    -0.203 F 
ATOM     95  C   UNL A   1      44.405  34.267  27.741  1.00  0.00     0.198 A 
ATOM     96  C   UNL A   1      42.194  34.740  28.541  1.00  0.00     0.198 A 
ATOM     97  F   UNL A   1      41.259  33.433  30.257  1.00  0.00    -0.203 F 
ATOM     98  F   UNL A   1      45.422  34.544  26.911  1.00  0.00    -0.200 F 
ATOM     99  C   UNL A   1      43.250  35.030  27.692  1.00  0.00     0.200 A 
ATOM    100  F   UNL A   1      41.060  35.450  28.471  1.00  0.00    -0.200 F 
ATOM    101  F   UNL A   1      43.142  36.034  26.810  1.00  0.00    -0.200 F 
ENDBRANCH  68  91
ENDBRANCH  42  43
ENDBRANCH  34  37
ENDBRANCH  32  33
ENDBRANCH  31  32
ENDBRANCH   1  31
TORSDOF 13
ENDMDL
