MODEL 1
REMARK VINA RESULT:     -13.9      0.000      0.000
REMARK SMILES O=C(NCCCCNC(=O)[C@H]1[C@@H]2CC[C@@H](C2)[C@@H]1C(=O)Nc1ccc([N+](=O)[O-])cc1)c1ccc(-c2c3nc(c(-c4c(F)c(F)c(F)c(F)c4F)c4ccc([nH]4)c(-c4c(F)c(F)c(F)c(F)c4F)c4nc(c(-c5c(F)c(F)c(F)c(F)c5F)c5ccc2[nH]5)C=C4)C=C3)cc1
REMARK SMILES IDX 6 1 5 2 4 3 3 4 1 5 2 6 30 8 31 9 92 10 32 11 91 12 33 13
REMARK SMILES IDX 34 14 35 15 85 16 36 17 90 18 84 19 86 20 37 21 89 22 83 23
REMARK SMILES IDX 82 24 38 26 70 27 50 28 69 29 51 30 54 31 68 32 87 33 52 34
REMARK SMILES IDX 53 35 67 37 88 38 55 39 39 40 40 41 48 42 41 43 42 44 46 45
REMARK SMILES IDX 49 46 43 47 44 48 47 49 45 50 71 51 72 52 80 53 73 54 74 55
REMARK SMILES IDX 78 56 81 57 75 58 76 59 79 60 77 61 56 62 57 63 65 64 58 65
REMARK SMILES IDX 59 66 63 67 66 68 60 69 61 70 64 71 62 72 7 73 8 74 9 75
REMARK SMILES IDX 10 77 11 78 12 79 17 80 13 81 16 82 15 83 14 84 18 85 19 86
REMARK SMILES IDX 20 87 21 89 22 90 29 91 23 92 28 93 24 94 25 95 26 96 27 97
REMARK H PARENT 3 7 86 25 54 36 8 76 20 88
REMARK Flexibility Score: inf
ROOT
ATOM      1  C   UNL A   1      32.551  27.002  26.521  1.00  0.00     0.023 C 
ENDROOT
BRANCH   1   2
ATOM      2  C   UNL A   1      31.998  28.426  26.498  1.00  0.00     0.023 C 
BRANCH   2   3
ATOM      3  C   UNL A   1      32.949  29.482  25.950  1.00  0.00     0.116 C 
BRANCH   3   4
ATOM      4  N   UNL A   1      32.597  30.837  26.348  1.00  0.00    -0.352 N 
ATOM      5  O   UNL A   1      32.771  32.765  27.516  1.00  0.00    -0.269 OA
ATOM      6  C   UNL A   1      33.265  31.689  27.195  1.00  0.00     0.251 C 
ATOM      7  H   UNL A   1      31.766  31.193  25.957  1.00  0.00     0.163 HD
BRANCH   6   8
ATOM      8  C   UNL A   1      34.571  31.279  27.752  1.00  0.00     0.039 A 
ATOM      9  C   UNL A   1      34.787  29.962  28.161  1.00  0.00     0.014 A 
ATOM     10  C   UNL A   1      35.578  32.237  27.903  1.00  0.00     0.014 A 
ATOM     11  C   UNL A   1      35.936  29.644  28.872  1.00  0.00     0.010 A 
ATOM     12  C   UNL A   1      36.772  31.892  28.542  1.00  0.00     0.010 A 
ATOM     13  C   UNL A   1      36.942  30.605  29.073  1.00  0.00    -0.014 A 
BRANCH  13  14
ATOM     14  C   UNL A   1      38.165  30.224  29.825  1.00  0.00     0.031 A 
ATOM     15  C   UNL A   1      38.376  30.671  31.246  1.00  0.00     0.074 A 
ATOM     16  C   UNL A   1      39.066  29.421  29.230  1.00  0.00     0.049 A 
ATOM     17  N   UNL A   1      39.355  30.378  32.066  1.00  0.00    -0.248 NA
ATOM     18  C   UNL A   1      37.363  31.569  31.822  1.00  0.00     0.031 C 
ATOM     19  C   UNL A   1      38.976  28.934  27.852  1.00  0.00     0.029 A 
ATOM     20  N   UNL A   1      40.215  28.848  29.710  1.00  0.00    -0.354 N 
ATOM     21  C   UNL A   1      39.094  31.075  33.238  1.00  0.00     0.074 A 
ATOM     22  C   UNL A   1      37.873  31.822  33.020  1.00  0.00     0.031 C 
ATOM     23  C   UNL A   1      39.989  28.089  27.617  1.00  0.00     0.029 A 
ATOM     24  C   UNL A   1      40.830  28.016  28.808  1.00  0.00     0.049 A 
ATOM     25  H   UNL A   1      40.565  29.017  30.615  1.00  0.00     0.167 HD
ATOM     26  C   UNL A   1      39.805  31.084  34.393  1.00  0.00     0.037 A 
ATOM     27  C   UNL A   1      41.948  27.277  28.923  1.00  0.00     0.037 A 
ATOM     28  C   UNL A   1      41.000  30.312  34.618  1.00  0.00     0.049 A 
ATOM     29  C   UNL A   1      42.709  27.300  30.217  1.00  0.00     0.074 A 
ATOM     30  C   UNL A   1      41.760  30.214  35.770  1.00  0.00     0.029 A 
ATOM     31  N   UNL A   1      41.608  29.503  33.669  1.00  0.00    -0.354 N 
ATOM     32  N   UNL A   1      42.430  27.934  31.330  1.00  0.00    -0.248 NA
ATOM     33  C   UNL A   1      43.944  26.507  30.268  1.00  0.00     0.031 C 
ATOM     34  C   UNL A   1      42.851  29.378  35.506  1.00  0.00     0.029 A 
ATOM     35  C   UNL A   1      42.747  28.920  34.203  1.00  0.00     0.049 A 
ATOM     36  H   UNL A   1      41.280  29.363  32.751  1.00  0.00     0.167 HD
ATOM     37  C   UNL A   1      43.441  27.603  32.218  1.00  0.00     0.074 A 
ATOM     38  C   UNL A   1      44.331  26.697  31.521  1.00  0.00     0.031 C 
ATOM     39  C   UNL A   1      43.619  28.018  33.496  1.00  0.00     0.037 A 
BRANCH  26  40
ATOM     40  C   UNL A   1      39.322  31.972  35.503  1.00  0.00     0.064 A 
ATOM     41  C   UNL A   1      38.439  31.509  36.490  1.00  0.00     0.173 A 
ATOM     42  C   UNL A   1      39.789  33.291  35.607  1.00  0.00     0.173 A 
ATOM     43  F   UNL A   1      37.955  30.260  36.430  1.00  0.00    -0.203 F 
ATOM     44  C   UNL A   1      38.025  32.341  37.527  1.00  0.00     0.198 A 
ATOM     45  C   UNL A   1      39.392  34.113  36.659  1.00  0.00     0.198 A 
ATOM     46  F   UNL A   1      40.640  33.781  34.693  1.00  0.00    -0.203 F 
ATOM     47  F   UNL A   1      37.150  31.890  38.437  1.00  0.00    -0.200 F 
ATOM     48  C   UNL A   1      38.506  33.639  37.615  1.00  0.00     0.200 A 
ATOM     49  F   UNL A   1      39.869  35.362  36.749  1.00  0.00    -0.200 F 
ATOM     50  F   UNL A   1      38.113  34.436  38.618  1.00  0.00    -0.200 F 
ENDBRANCH  26  40
BRANCH  27  51
ATOM     51  C   UNL A   1      42.396  26.438  27.784  1.00  0.00     0.064 A 
ATOM     52  C   UNL A   1      41.929  25.126  27.631  1.00  0.00     0.173 A 
ATOM     53  C   UNL A   1      43.279  26.937  26.816  1.00  0.00     0.173 A 
ATOM     54  F   UNL A   1      41.098  24.601  28.542  1.00  0.00    -0.203 F 
ATOM     55  C   UNL A   1      42.341  24.338  26.558  1.00  0.00     0.198 A 
ATOM     56  C   UNL A   1      43.668  26.158  25.728  1.00  0.00     0.198 A 
ATOM     57  F   UNL A   1      43.748  28.190  26.916  1.00  0.00    -0.203 F 
ATOM     58  F   UNL A   1      41.909  23.074  26.454  1.00  0.00    -0.200 F 
ATOM     59  C   UNL A   1      43.203  24.858  25.604  1.00  0.00     0.200 A 
ATOM     60  F   UNL A   1      44.488  26.669  24.801  1.00  0.00    -0.200 F 
ATOM     61  F   UNL A   1      43.590  24.103  24.567  1.00  0.00    -0.200 F 
ENDBRANCH  27  51
BRANCH  39  62
ATOM     62  C   UNL A   1      44.808  27.470  34.228  1.00  0.00     0.064 A 
ATOM     63  C   UNL A   1      44.752  26.238  34.899  1.00  0.00     0.173 A 
ATOM     64  C   UNL A   1      46.019  28.176  34.246  1.00  0.00     0.173 A 
ATOM     65  F   UNL A   1      43.610  25.535  34.925  1.00  0.00    -0.203 F 
ATOM     66  C   UNL A   1      45.859  25.750  35.586  1.00  0.00     0.198 A 
ATOM     67  C   UNL A   1      47.132  27.670  34.911  1.00  0.00     0.198 A 
ATOM     68  F   UNL A   1      46.124  29.355  33.616  1.00  0.00    -0.203 F 
ATOM     69  F   UNL A   1      45.769  24.596  36.263  1.00  0.00    -0.200 F 
ATOM     70  C   UNL A   1      47.049  26.463  35.588  1.00  0.00     0.200 A 
ATOM     71  F   UNL A   1      48.284  28.357  34.906  1.00  0.00    -0.200 F 
ATOM     72  F   UNL A   1      48.113  25.990  36.251  1.00  0.00    -0.200 F 
ENDBRANCH  39  62
ENDBRANCH  13  14
ENDBRANCH   6   8
ENDBRANCH   3   4
ENDBRANCH   2   3
ENDBRANCH   1   2
BRANCH   1  73
ATOM     73  C   UNL A   1      31.583  25.935  26.016  1.00  0.00     0.116 C 
BRANCH  73  74
ATOM     74  N   UNL A   1      31.585  24.761  26.872  1.00  0.00    -0.356 N 
ATOM     75  C   UNL A   1      32.210  23.562  26.718  1.00  0.00     0.224 C 
ATOM     76  H   UNL A   1      31.050  24.846  27.693  1.00  0.00     0.163 HD
ATOM     77  O   UNL A   1      32.003  22.691  27.565  1.00  0.00    -0.275 OA
BRANCH  75  78
ATOM     78  C   UNL A   1      33.133  23.335  25.537  1.00  0.00     0.094 C 
ATOM     79  C   UNL A   1      34.605  23.654  25.908  1.00  0.00     0.002 C 
ATOM     80  C   UNL A   1      33.180  21.836  25.110  1.00  0.00     0.094 C 
ATOM     81  C   UNL A   1      35.389  23.846  24.597  1.00  0.00     0.005 C 
ATOM     82  C   UNL A   1      35.148  22.311  26.376  1.00  0.00     0.009 C 
ATOM     83  C   UNL A   1      34.713  21.593  25.100  1.00  0.00     0.002 C 
ATOM     84  C   UNL A   1      35.410  22.430  24.011  1.00  0.00     0.005 C 
BRANCH  80  85
ATOM     85  C   UNL A   1      32.395  21.623  23.808  1.00  0.00     0.228 C 
ATOM     86  O   UNL A   1      31.934  22.580  23.178  1.00  0.00    -0.274 OA
ATOM     87  N   UNL A   1      32.183  20.381  23.279  1.00  0.00    -0.326 N 
ATOM     88  H   UNL A   1      31.733  20.365  22.403  1.00  0.00     0.169 HD
BRANCH  87  89
ATOM     89  C   UNL A   1      32.514  19.132  23.803  1.00  0.00     0.041 A 
ATOM     90  C   UNL A   1      32.914  18.144  22.901  1.00  0.00     0.033 A 
ATOM     91  C   UNL A   1      32.513  18.880  25.177  1.00  0.00     0.033 A 
ATOM     92  C   UNL A   1      33.469  16.955  23.377  1.00  0.00     0.088 A 
ATOM     93  C   UNL A   1      33.037  17.678  25.661  1.00  0.00     0.088 A 
ATOM     94  C   UNL A   1      33.557  16.740  24.759  1.00  0.00     0.269 A 
BRANCH  94  95
ATOM     95  N   UNL A   1      34.251  15.549  25.264  1.00  0.00     0.062 N 
ATOM     96  O   UNL A   1      35.458  15.654  25.523  1.00  0.00    -0.258 OA
ATOM     97  O   UNL A   1      33.584  14.518  25.421  1.00  0.00    -0.258 OA
ENDBRANCH  94  95
ENDBRANCH  87  89
ENDBRANCH  80  85
ENDBRANCH  75  78
ENDBRANCH  73  74
ENDBRANCH   1  73
TORSDOF 14
ENDMDL
MODEL 2
REMARK VINA RESULT:     -13.8      0.289      1.621
REMARK SMILES O=C(NCCCCNC(=O)[C@H]1[C@@H]2CC[C@@H](C2)[C@@H]1C(=O)Nc1ccc([N+](=O)[O-])cc1)c1ccc(-c2c3nc(c(-c4c(F)c(F)c(F)c(F)c4F)c4ccc([nH]4)c(-c4c(F)c(F)c(F)c(F)c4F)c4nc(c(-c5c(F)c(F)c(F)c(F)c5F)c5ccc2[nH]5)C=C4)C=C3)cc1
REMARK SMILES IDX 6 1 5 2 4 3 3 4 1 5 2 6 30 8 31 9 92 10 32 11 91 12 33 13
REMARK SMILES IDX 34 14 35 15 85 16 36 17 90 18 84 19 86 20 37 21 89 22 83 23
REMARK SMILES IDX 82 24 38 26 70 27 50 28 69 29 51 30 54 31 68 32 87 33 52 34
REMARK SMILES IDX 53 35 67 37 88 38 55 39 39 40 40 41 48 42 41 43 42 44 46 45
REMARK SMILES IDX 49 46 43 47 44 48 47 49 45 50 71 51 72 52 80 53 73 54 74 55
REMARK SMILES IDX 78 56 81 57 75 58 76 59 79 60 77 61 56 62 57 63 65 64 58 65
REMARK SMILES IDX 59 66 63 67 66 68 60 69 61 70 64 71 62 72 7 73 8 74 9 75
REMARK SMILES IDX 10 77 11 78 12 79 17 80 13 81 16 82 15 83 14 84 18 85 19 86
REMARK SMILES IDX 20 87 21 89 22 90 29 91 23 92 28 93 24 94 25 95 26 96 27 97
REMARK H PARENT 3 7 86 25 54 36 8 76 20 88
REMARK Flexibility Score: inf
ROOT
ATOM      1  C   UNL A   1      31.533  26.988  26.591  1.00  0.00     0.023 C 
ENDROOT
BRANCH   1   2
ATOM      2  C   UNL A   1      31.662  28.158  25.616  1.00  0.00     0.023 C 
BRANCH   2   3
ATOM      3  C   UNL A   1      32.846  29.083  25.867  1.00  0.00     0.116 C 
BRANCH   3   4
ATOM      4  N   UNL A   1      32.453  30.433  26.245  1.00  0.00    -0.352 N 
ATOM      5  O   UNL A   1      32.573  32.385  27.378  1.00  0.00    -0.269 OA
ATOM      6  C   UNL A   1      33.100  31.321  27.070  1.00  0.00     0.251 C 
ATOM      7  H   UNL A   1      31.607  30.753  25.857  1.00  0.00     0.163 HD
BRANCH   6   8
ATOM      8  C   UNL A   1      34.424  30.965  27.621  1.00  0.00     0.039 A 
ATOM      9  C   UNL A   1      34.698  29.656  28.021  1.00  0.00     0.014 A 
ATOM     10  C   UNL A   1      35.388  31.965  27.776  1.00  0.00     0.014 A 
ATOM     11  C   UNL A   1      35.863  29.383  28.727  1.00  0.00     0.010 A 
ATOM     12  C   UNL A   1      36.598  31.668  28.409  1.00  0.00     0.010 A 
ATOM     13  C   UNL A   1      36.826  30.386  28.931  1.00  0.00    -0.014 A 
BRANCH  13  14
ATOM     14  C   UNL A   1      38.066  30.053  29.678  1.00  0.00     0.031 A 
ATOM     15  C   UNL A   1      38.279  30.532  31.088  1.00  0.00     0.074 A 
ATOM     16  C   UNL A   1      38.984  29.265  29.088  1.00  0.00     0.049 A 
ATOM     17  N   UNL A   1      39.274  30.283  31.903  1.00  0.00    -0.248 NA
ATOM     18  C   UNL A   1      37.247  31.412  31.658  1.00  0.00     0.031 C 
ATOM     19  C   UNL A   1      38.894  28.750  27.720  1.00  0.00     0.029 A 
ATOM     20  N   UNL A   1      40.153  28.734  29.567  1.00  0.00    -0.354 N 
ATOM     21  C   UNL A   1      39.004  30.994  33.065  1.00  0.00     0.074 A 
ATOM     22  C   UNL A   1      37.761  31.702  32.846  1.00  0.00     0.031 C 
ATOM     23  C   UNL A   1      39.928  27.929  27.491  1.00  0.00     0.029 A 
ATOM     24  C   UNL A   1      40.782  27.903  28.673  1.00  0.00     0.049 A 
ATOM     25  H   UNL A   1      40.507  28.929  30.464  1.00  0.00     0.167 HD
ATOM     26  C   UNL A   1      39.727  31.044  34.211  1.00  0.00     0.037 A 
ATOM     27  C   UNL A   1      41.922  27.198  28.791  1.00  0.00     0.037 A 
ATOM     28  C   UNL A   1      40.945  30.310  34.439  1.00  0.00     0.049 A 
ATOM     29  C   UNL A   1      42.695  27.266  30.076  1.00  0.00     0.074 A 
ATOM     30  C   UNL A   1      41.719  30.255  35.584  1.00  0.00     0.029 A 
ATOM     31  N   UNL A   1      41.566  29.501  33.498  1.00  0.00    -0.354 N 
ATOM     32  N   UNL A   1      42.409  27.912  31.180  1.00  0.00    -0.248 NA
ATOM     33  C   UNL A   1      43.953  26.509  30.129  1.00  0.00     0.031 C 
ATOM     34  C   UNL A   1      42.831  29.445  35.325  1.00  0.00     0.029 A 
ATOM     35  C   UNL A   1      42.726  28.960  34.031  1.00  0.00     0.049 A 
ATOM     36  H   UNL A   1      41.233  29.335  32.587  1.00  0.00     0.167 HD
ATOM     37  C   UNL A   1      43.438  27.627  32.064  1.00  0.00     0.074 A 
ATOM     38  C   UNL A   1      44.347  26.734  31.374  1.00  0.00     0.031 C 
ATOM     39  C   UNL A   1      43.617  28.070  33.332  1.00  0.00     0.037 A 
BRANCH  26  40
ATOM     40  C   UNL A   1      39.229  31.938  35.310  1.00  0.00     0.064 A 
ATOM     41  C   UNL A   1      39.489  33.317  35.317  1.00  0.00     0.173 A 
ATOM     42  C   UNL A   1      38.438  31.415  36.343  1.00  0.00     0.173 A 
ATOM     43  F   UNL A   1      40.248  33.865  34.357  1.00  0.00    -0.203 F 
ATOM     44  C   UNL A   1      38.994  34.134  36.330  1.00  0.00     0.198 A 
ATOM     45  C   UNL A   1      37.923  32.239  37.343  1.00  0.00     0.198 A 
ATOM     46  F   UNL A   1      38.153  30.104  36.381  1.00  0.00    -0.203 F 
ATOM     47  F   UNL A   1      39.288  35.441  36.339  1.00  0.00    -0.200 F 
ATOM     48  C   UNL A   1      38.207  33.596  37.339  1.00  0.00     0.200 A 
ATOM     49  F   UNL A   1      37.153  31.718  38.308  1.00  0.00    -0.200 F 
ATOM     50  F   UNL A   1      37.725  34.384  38.309  1.00  0.00    -0.200 F 
ENDBRANCH  26  40
BRANCH  27  51
ATOM     51  C   UNL A   1      42.382  26.350  27.662  1.00  0.00     0.064 A 
ATOM     52  C   UNL A   1      41.862  25.064  27.471  1.00  0.00     0.173 A 
ATOM     53  C   UNL A   1      43.333  26.816  26.743  1.00  0.00     0.173 A 
ATOM     54  F   UNL A   1      40.964  24.570  28.336  1.00  0.00    -0.203 F 
ATOM     55  C   UNL A   1      42.285  24.269  26.408  1.00  0.00     0.198 A 
ATOM     56  C   UNL A   1      43.735  26.031  25.665  1.00  0.00     0.198 A 
ATOM     57  F   UNL A   1      43.856  28.044  26.881  1.00  0.00    -0.203 F 
ATOM     58  F   UNL A   1      41.798  23.029  26.267  1.00  0.00    -0.200 F 
ATOM     59  C   UNL A   1      43.214  24.757  25.502  1.00  0.00     0.200 A 
ATOM     60  F   UNL A   1      44.621  26.512  24.783  1.00  0.00    -0.200 F 
ATOM     61  F   UNL A   1      43.613  23.995  24.474  1.00  0.00    -0.200 F 
ENDBRANCH  27  51
BRANCH  39  62
ATOM     62  C   UNL A   1      44.827  27.569  34.062  1.00  0.00     0.064 A 
ATOM     63  C   UNL A   1      46.049  28.258  34.015  1.00  0.00     0.173 A 
ATOM     64  C   UNL A   1      44.761  26.395  34.827  1.00  0.00     0.173 A 
ATOM     65  F   UNL A   1      46.167  29.375  33.282  1.00  0.00    -0.203 F 
ATOM     66  C   UNL A   1      47.167  27.772  34.686  1.00  0.00     0.198 A 
ATOM     67  C   UNL A   1      45.875  25.928  35.518  1.00  0.00     0.198 A 
ATOM     68  F   UNL A   1      43.615  25.704  34.906  1.00  0.00    -0.203 F 
ATOM     69  F   UNL A   1      48.339  28.418  34.587  1.00  0.00    -0.200 F 
ATOM     70  C   UNL A   1      47.079  26.611  35.441  1.00  0.00     0.200 A 
ATOM     71  F   UNL A   1      45.785  24.811  36.253  1.00  0.00    -0.200 F 
ATOM     72  F   UNL A   1      48.158  26.146  36.084  1.00  0.00    -0.200 F 
ENDBRANCH  39  62
ENDBRANCH  13  14
ENDBRANCH   6   8
ENDBRANCH   3   4
ENDBRANCH   2   3
ENDBRANCH   1   2
BRANCH   1  73
ATOM     73  C   UNL A   1      31.178  25.654  25.940  1.00  0.00     0.116 C 
BRANCH  73  74
ATOM     74  N   UNL A   1      31.377  24.542  26.855  1.00  0.00    -0.356 N 
ATOM     75  C   UNL A   1      32.178  23.447  26.747  1.00  0.00     0.224 C 
ATOM     76  H   UNL A   1      30.848  24.587  27.683  1.00  0.00     0.163 HD
ATOM     77  O   UNL A   1      32.123  22.603  27.642  1.00  0.00    -0.275 OA
BRANCH  75  78
ATOM     78  C   UNL A   1      33.106  23.302  25.557  1.00  0.00     0.094 C 
ATOM     79  C   UNL A   1      34.563  23.680  25.934  1.00  0.00     0.002 C 
ATOM     80  C   UNL A   1      33.223  21.822  25.083  1.00  0.00     0.094 C 
ATOM     81  C   UNL A   1      35.331  23.950  24.628  1.00  0.00     0.005 C 
ATOM     82  C   UNL A   1      35.171  22.350  26.358  1.00  0.00     0.009 C 
ATOM     83  C   UNL A   1      34.766  21.652  25.061  1.00  0.00     0.002 C 
ATOM     84  C   UNL A   1      35.417  22.556  23.997  1.00  0.00     0.005 C 
BRANCH  80  85
ATOM     85  C   UNL A   1      32.444  21.611  23.777  1.00  0.00     0.228 C 
ATOM     86  O   UNL A   1      31.999  22.572  23.139  1.00  0.00    -0.274 OA
ATOM     87  N   UNL A   1      32.219  20.370  23.253  1.00  0.00    -0.326 N 
ATOM     88  H   UNL A   1      31.774  20.355  22.374  1.00  0.00     0.169 HD
BRANCH  87  89
ATOM     89  C   UNL A   1      32.530  19.120  23.786  1.00  0.00     0.041 A 
ATOM     90  C   UNL A   1      32.944  18.128  22.894  1.00  0.00     0.033 A 
ATOM     91  C   UNL A   1      32.497  18.869  25.159  1.00  0.00     0.033 A 
ATOM     92  C   UNL A   1      33.480  16.936  23.382  1.00  0.00     0.088 A 
ATOM     93  C   UNL A   1      33.003  17.664  25.656  1.00  0.00     0.088 A 
ATOM     94  C   UNL A   1      33.536  16.722  24.766  1.00  0.00     0.269 A 
BRANCH  94  95
ATOM     95  N   UNL A   1      34.212  15.527  25.288  1.00  0.00     0.062 N 
ATOM     96  O   UNL A   1      33.529  14.506  25.452  1.00  0.00    -0.258 OA
ATOM     97  O   UNL A   1      35.427  15.605  25.512  1.00  0.00    -0.258 OA
ENDBRANCH  94  95
ENDBRANCH  87  89
ENDBRANCH  80  85
ENDBRANCH  75  78
ENDBRANCH  73  74
ENDBRANCH   1  73
TORSDOF 14
ENDMDL
MODEL 3
REMARK VINA RESULT:     -13.7      2.156      3.899
REMARK SMILES O=C(NCCCCNC(=O)[C@H]1[C@@H]2CC[C@@H](C2)[C@@H]1C(=O)Nc1ccc([N+](=O)[O-])cc1)c1ccc(-c2c3nc(c(-c4c(F)c(F)c(F)c(F)c4F)c4ccc([nH]4)c(-c4c(F)c(F)c(F)c(F)c4F)c4nc(c(-c5c(F)c(F)c(F)c(F)c5F)c5ccc2[nH]5)C=C4)C=C3)cc1
REMARK SMILES IDX 6 1 5 2 4 3 3 4 1 5 2 6 30 8 31 9 92 10 32 11 91 12 33 13
REMARK SMILES IDX 34 14 35 15 85 16 36 17 90 18 84 19 86 20 37 21 89 22 83 23
REMARK SMILES IDX 82 24 38 26 70 27 50 28 69 29 51 30 54 31 68 32 87 33 52 34
REMARK SMILES IDX 53 35 67 37 88 38 55 39 39 40 40 41 48 42 41 43 42 44 46 45
REMARK SMILES IDX 49 46 43 47 44 48 47 49 45 50 71 51 72 52 80 53 73 54 74 55
REMARK SMILES IDX 78 56 81 57 75 58 76 59 79 60 77 61 56 62 57 63 65 64 58 65
REMARK SMILES IDX 59 66 63 67 66 68 60 69 61 70 64 71 62 72 7 73 8 74 9 75
REMARK SMILES IDX 10 77 11 78 12 79 17 80 13 81 16 82 15 83 14 84 18 85 19 86
REMARK SMILES IDX 20 87 21 89 22 90 29 91 23 92 28 93 24 94 25 95 26 96 27 97
REMARK H PARENT 3 7 86 25 54 36 8 76 20 88
REMARK Flexibility Score: inf
ROOT
ATOM      1  C   UNL A   1      31.707  30.755  26.095  1.00  0.00     0.023 C 
ENDROOT
BRANCH   1   2
ATOM      2  C   UNL A   1      31.414  32.043  26.863  1.00  0.00     0.023 C 
BRANCH   2   3
ATOM      3  C   UNL A   1      32.643  32.829  27.302  1.00  0.00     0.116 C 
BRANCH   3   4
ATOM      4  N   UNL A   1      32.347  34.208  27.662  1.00  0.00    -0.352 N 
ATOM      5  O   UNL A   1      32.513  36.118  28.860  1.00  0.00    -0.269 OA
ATOM      6  C   UNL A   1      32.962  35.006  28.597  1.00  0.00     0.251 C 
ATOM      7  H   UNL A   1      31.605  34.625  27.170  1.00  0.00     0.163 HD
BRANCH   6   8
ATOM      8  C   UNL A   1      34.148  34.498  29.317  1.00  0.00     0.039 A 
ATOM      9  C   UNL A   1      35.429  34.690  28.797  1.00  0.00     0.014 A 
ATOM     10  C   UNL A   1      33.969  33.787  30.507  1.00  0.00     0.014 A 
ATOM     11  C   UNL A   1      36.508  34.029  29.370  1.00  0.00     0.010 A 
ATOM     12  C   UNL A   1      35.071  33.195  31.132  1.00  0.00     0.010 A 
ATOM     13  C   UNL A   1      36.341  33.272  30.543  1.00  0.00    -0.014 A 
BRANCH  13  14
ATOM     14  C   UNL A   1      37.522  32.592  31.136  1.00  0.00     0.031 A 
ATOM     15  C   UNL A   1      37.992  32.919  32.527  1.00  0.00     0.074 A 
ATOM     16  C   UNL A   1      38.140  31.632  30.423  1.00  0.00     0.049 A 
ATOM     17  N   UNL A   1      38.965  32.378  33.217  1.00  0.00    -0.248 NA
ATOM     18  C   UNL A   1      37.286  33.998  33.235  1.00  0.00     0.031 C 
ATOM     19  C   UNL A   1      37.782  31.237  29.059  1.00  0.00     0.029 A 
ATOM     20  N   UNL A   1      39.173  30.794  30.753  1.00  0.00    -0.354 N 
ATOM     21  C   UNL A   1      39.008  33.066  34.422  1.00  0.00     0.074 A 
ATOM     22  C   UNL A   1      37.974  34.079  34.366  1.00  0.00     0.031 C 
ATOM     23  C   UNL A   1      38.540  30.194  28.691  1.00  0.00     0.029 A 
ATOM     24  C   UNL A   1      39.472  29.883  29.770  1.00  0.00     0.049 A 
ATOM     25  H   UNL A   1      39.654  30.840  31.610  1.00  0.00     0.167 HD
ATOM     26  C   UNL A   1      39.830  32.865  35.482  1.00  0.00     0.037 A 
ATOM     27  C   UNL A   1      40.396  28.905  29.738  1.00  0.00     0.037 A 
ATOM     28  C   UNL A   1      40.832  31.833  35.549  1.00  0.00     0.049 A 
ATOM     29  C   UNL A   1      41.286  28.701  30.929  1.00  0.00     0.074 A 
ATOM     30  C   UNL A   1      41.677  31.517  36.599  1.00  0.00     0.029 A 
ATOM     31  N   UNL A   1      41.125  30.948  34.522  1.00  0.00    -0.354 N 
ATOM     32  N   UNL A   1      41.289  29.333  32.077  1.00  0.00    -0.248 NA
ATOM     33  C   UNL A   1      42.303  27.647  30.818  1.00  0.00     0.031 C 
ATOM     34  C   UNL A   1      42.509  30.467  36.192  1.00  0.00     0.029 A 
ATOM     35  C   UNL A   1      42.153  30.100  34.905  1.00  0.00     0.049 A 
ATOM     36  H   UNL A   1      40.670  30.925  33.649  1.00  0.00     0.167 HD
ATOM     37  C   UNL A   1      42.293  28.745  32.831  1.00  0.00     0.074 A 
ATOM     38  C   UNL A   1      42.865  27.691  32.018  1.00  0.00     0.031 C 
ATOM     39  C   UNL A   1      42.707  29.055  34.084  1.00  0.00     0.037 A 
BRANCH  26  40
ATOM     40  C   UNL A   1      39.694  33.791  36.656  1.00  0.00     0.064 A 
ATOM     41  C   UNL A   1      40.320  35.046  36.684  1.00  0.00     0.173 A 
ATOM     42  C   UNL A   1      38.884  33.438  37.745  1.00  0.00     0.173 A 
ATOM     43  F   UNL A   1      41.113  35.428  35.671  1.00  0.00    -0.203 F 
ATOM     44  C   UNL A   1      40.158  35.903  37.770  1.00  0.00     0.198 A 
ATOM     45  C   UNL A   1      38.705  34.307  38.819  1.00  0.00     0.198 A 
ATOM     46  F   UNL A   1      38.257  32.252  37.766  1.00  0.00    -0.203 F 
ATOM     47  F   UNL A   1      40.798  37.081  37.794  1.00  0.00    -0.200 F 
ATOM     48  C   UNL A   1      39.346  35.536  38.834  1.00  0.00     0.200 A 
ATOM     49  F   UNL A   1      37.910  33.955  39.839  1.00  0.00    -0.200 F 
ATOM     50  F   UNL A   1      39.186  36.364  39.874  1.00  0.00    -0.200 F 
ENDBRANCH  26  40
BRANCH  27  51
ATOM     51  C   UNL A   1      40.505  28.035  28.540  1.00  0.00     0.064 A 
ATOM     52  C   UNL A   1      41.279  28.423  27.438  1.00  0.00     0.173 A 
ATOM     53  C   UNL A   1      39.857  26.793  28.481  1.00  0.00     0.173 A 
ATOM     54  F   UNL A   1      41.901  29.611  27.443  1.00  0.00    -0.203 F 
ATOM     55  C   UNL A   1      41.390  27.606  26.316  1.00  0.00     0.198 A 
ATOM     56  C   UNL A   1      39.992  25.964  27.370  1.00  0.00     0.198 A 
ATOM     57  F   UNL A   1      39.110  26.376  29.514  1.00  0.00    -0.203 F 
ATOM     58  F   UNL A   1      42.107  28.016  25.261  1.00  0.00    -0.200 F 
ATOM     59  C   UNL A   1      40.754  26.374  26.286  1.00  0.00     0.200 A 
ATOM     60  F   UNL A   1      39.389  24.769  27.352  1.00  0.00    -0.200 F 
ATOM     61  F   UNL A   1      40.870  25.584  25.210  1.00  0.00    -0.200 F 
ENDBRANCH  27  51
BRANCH  39  62
ATOM     62  C   UNL A   1      43.813  28.221  34.658  1.00  0.00     0.064 A 
ATOM     63  C   UNL A   1      43.551  27.027  35.348  1.00  0.00     0.173 A 
ATOM     64  C   UNL A   1      45.152  28.612  34.504  1.00  0.00     0.173 A 
ATOM     65  F   UNL A   1      42.286  26.621  35.536  1.00  0.00    -0.203 F 
ATOM     66  C   UNL A   1      44.587  26.272  35.887  1.00  0.00     0.198 A 
ATOM     67  C   UNL A   1      46.187  27.839  35.022  1.00  0.00     0.198 A 
ATOM     68  F   UNL A   1      45.454  29.743  33.850  1.00  0.00    -0.203 F 
ATOM     69  F   UNL A   1      44.311  25.162  36.586  1.00  0.00    -0.200 F 
ATOM     70  C   UNL A   1      45.905  26.675  35.720  1.00  0.00     0.200 A 
ATOM     71  F   UNL A   1      47.459  28.226  34.852  1.00  0.00    -0.200 F 
ATOM     72  F   UNL A   1      46.900  25.946  36.241  1.00  0.00    -0.200 F 
ENDBRANCH  39  62
ENDBRANCH  13  14
ENDBRANCH   6   8
ENDBRANCH   3   4
ENDBRANCH   2   3
ENDBRANCH   1   2
BRANCH   1  73
ATOM     73  C   UNL A   1      32.995  30.047  26.506  1.00  0.00     0.116 C 
BRANCH  73  74
ATOM     74  N   UNL A   1      33.688  29.486  25.358  1.00  0.00    -0.356 N 
ATOM     75  C   UNL A   1      33.281  28.553  24.455  1.00  0.00     0.224 C 
ATOM     76  H   UNL A   1      34.595  29.837  25.210  1.00  0.00     0.163 HD
ATOM     77  O   UNL A   1      34.086  28.193  23.595  1.00  0.00    -0.275 OA
BRANCH  75  78
ATOM     78  C   UNL A   1      31.872  27.997  24.523  1.00  0.00     0.094 C 
ATOM     79  C   UNL A   1      31.160  28.107  23.149  1.00  0.00     0.002 C 
ATOM     80  C   UNL A   1      31.861  26.466  24.820  1.00  0.00     0.094 C 
ATOM     81  C   UNL A   1      29.646  27.964  23.392  1.00  0.00     0.005 C 
ATOM     82  C   UNL A   1      31.474  26.774  22.483  1.00  0.00     0.009 C 
ATOM     83  C   UNL A   1      30.951  25.961  23.667  1.00  0.00     0.002 C 
ATOM     84  C   UNL A   1      29.513  26.494  23.808  1.00  0.00     0.005 C 
BRANCH  80  85
ATOM     85  C   UNL A   1      31.423  26.202  26.267  1.00  0.00     0.228 C 
ATOM     86  O   UNL A   1      31.031  27.122  26.992  1.00  0.00    -0.274 OA
ATOM     87  N   UNL A   1      31.432  24.950  26.815  1.00  0.00    -0.326 N 
ATOM     88  H   UNL A   1      31.061  24.883  27.725  1.00  0.00     0.169 HD
BRANCH  87  89
ATOM     89  C   UNL A   1      31.890  23.753  26.267  1.00  0.00     0.041 A 
ATOM     90  C   UNL A   1      33.232  23.424  26.476  1.00  0.00     0.033 A 
ATOM     91  C   UNL A   1      31.043  22.874  25.588  1.00  0.00     0.033 A 
ATOM     92  C   UNL A   1      33.692  22.147  26.151  1.00  0.00     0.088 A 
ATOM     93  C   UNL A   1      31.504  21.604  25.230  1.00  0.00     0.088 A 
ATOM     94  C   UNL A   1      32.815  21.230  25.556  1.00  0.00     0.269 A 
BRANCH  94  95
ATOM     95  N   UNL A   1      33.257  19.849  25.327  1.00  0.00     0.062 N 
ATOM     96  O   UNL A   1      34.385  19.680  24.841  1.00  0.00    -0.258 OA
ATOM     97  O   UNL A   1      32.487  18.936  25.653  1.00  0.00    -0.258 OA
ENDBRANCH  94  95
ENDBRANCH  87  89
ENDBRANCH  80  85
ENDBRANCH  75  78
ENDBRANCH  73  74
ENDBRANCH   1  73
TORSDOF 14
ENDMDL
