MODEL 1
REMARK VINA RESULT:     -12.9      0.000      0.000
REMARK SMILES O=C(N[C@@H]1[C@@H](C(=O)NCCCCNC(=O)c2ccc(-c3c4nc(c(-c5c(F)c(F)c(F)c(F)c5F)c5ccc([nH]5)c(-c5c(F)c(F)c(F)c(F)c5F)c5nc(c(-c6c(F)c(F)c(F)c(F)c6F)c6ccc3[nH]6)C=C5)C=C4)cc2)[C@H]2C=C[C@@H]1C2)OCc1ccccc1
REMARK SMILES IDX 9 1 8 2 6 3 7 4 5 6 4 7 82 8 79 9 81 10 83 11 80 12 3 13
REMARK SMILES IDX 1 14 2 15 84 17 85 18 86 19 87 20 91 21 88 22 90 23 89 24
REMARK SMILES IDX 10 25 11 26 12 27 13 28 14 29 15 31 16 32 17 33 78 34 18 35
REMARK SMILES IDX 77 36 19 37 20 38 21 39 71 40 22 41 76 42 70 43 72 44 23 45
REMARK SMILES IDX 75 46 69 47 68 48 24 50 56 51 36 52 55 53 37 54 40 55 54 56
REMARK SMILES IDX 73 57 38 58 39 59 53 61 74 62 41 63 25 64 26 65 34 66 27 67
REMARK SMILES IDX 28 68 32 69 35 70 29 71 30 72 33 73 31 74 57 75 58 76 66 77
REMARK SMILES IDX 59 78 60 79 64 80 67 81 61 82 62 83 65 84 63 85 42 86 43 87
REMARK SMILES IDX 51 88 44 89 45 90 49 91 52 92 46 93 47 94 50 95 48 96
REMARK H PARENT 8 5 3 16 13 30 72 49 40 60
REMARK Flexibility Score: inf
ROOT
ATOM      1  C   UNL A   1      32.081  29.419  27.265  1.00  0.00     0.116 C 
ENDROOT
BRANCH   1   2
ATOM      2  N   UNL A   1      32.929  28.347  26.774  1.00  0.00    -0.356 N 
ATOM      3  C   UNL A   1      32.608  27.187  26.124  1.00  0.00     0.225 C 
ATOM      4  O   UNL A   1      33.535  26.412  25.879  1.00  0.00    -0.275 OA
ATOM      5  H   UNL A   1      33.891  28.477  26.935  1.00  0.00     0.163 HD
BRANCH   3   6
ATOM      6  C   UNL A   1      31.162  26.880  25.745  1.00  0.00     0.108 C 
ATOM      7  C   UNL A   1      30.885  25.350  25.496  1.00  0.00     0.105 C 
ATOM      8  C   UNL A   1      30.125  25.358  24.137  1.00  0.00     0.035 C 
ATOM      9  C   UNL A   1      30.758  27.495  24.371  1.00  0.00     0.026 C 
ATOM     10  C   UNL A   1      31.179  25.627  23.083  1.00  0.00    -0.025 C 
ATOM     11  C   UNL A   1      29.460  26.738  24.093  1.00  0.00     0.018 C 
ATOM     12  C   UNL A   1      31.574  26.901  23.240  1.00  0.00    -0.027 C 
BRANCH   7  13
ATOM     13  N   UNL A   1      30.260  24.608  26.589  1.00  0.00    -0.317 N 
ATOM     14  O   UNL A   1      29.514  22.856  27.793  1.00  0.00    -0.225 OA
ATOM     15  C   UNL A   1      30.123  23.275  26.814  1.00  0.00     0.407 C 
ATOM     16  H   UNL A   1      29.866  25.177  27.289  1.00  0.00     0.167 HD
BRANCH  15  17
ATOM     17  O   UNL A   1      30.646  22.504  25.840  1.00  0.00    -0.445 OA
BRANCH  17  18
ATOM     18  C   UNL A   1      31.990  22.057  26.076  1.00  0.00     0.270 C 
BRANCH  18  19
ATOM     19  C   UNL A   1      32.766  22.330  24.807  1.00  0.00    -0.011 A 
ATOM     20  C   UNL A   1      32.208  21.980  23.569  1.00  0.00     0.007 A 
ATOM     21  C   UNL A   1      33.927  23.114  24.833  1.00  0.00     0.007 A 
ATOM     22  C   UNL A   1      32.760  22.452  22.384  1.00  0.00     0.000 A 
ATOM     23  C   UNL A   1      34.490  23.573  23.644  1.00  0.00     0.000 A 
ATOM     24  C   UNL A   1      33.899  23.251  22.422  1.00  0.00     0.000 A 
ENDBRANCH  18  19
ENDBRANCH  17  18
ENDBRANCH  15  17
ENDBRANCH   7  13
ENDBRANCH   3   6
ENDBRANCH   1   2
BRANCH   1  25
ATOM     25  C   UNL A   1      32.012  30.598  26.290  1.00  0.00     0.023 C 
BRANCH  25  26
ATOM     26  C   UNL A   1      31.596  31.946  26.882  1.00  0.00     0.023 C 
BRANCH  26  27
ATOM     27  C   UNL A   1      32.747  32.852  27.308  1.00  0.00     0.116 C 
BRANCH  27  28
ATOM     28  N   UNL A   1      32.362  34.215  27.656  1.00  0.00    -0.352 N 
ATOM     29  C   UNL A   1      32.954  35.046  28.587  1.00  0.00     0.251 C 
ATOM     30  H   UNL A   1      31.591  34.587  27.170  1.00  0.00     0.163 HD
ATOM     31  O   UNL A   1      32.503  36.161  28.818  1.00  0.00    -0.269 OA
BRANCH  29  32
ATOM     32  C   UNL A   1      34.115  34.538  29.347  1.00  0.00     0.039 A 
ATOM     33  C   UNL A   1      33.904  33.887  30.565  1.00  0.00     0.014 A 
ATOM     34  C   UNL A   1      35.395  34.607  28.794  1.00  0.00     0.014 A 
ATOM     35  C   UNL A   1      34.966  33.220  31.181  1.00  0.00     0.010 A 
ATOM     36  C   UNL A   1      36.424  33.863  29.355  1.00  0.00     0.010 A 
ATOM     37  C   UNL A   1      36.222  33.161  30.555  1.00  0.00    -0.014 A 
BRANCH  37  38
ATOM     38  C   UNL A   1      37.352  32.394  31.137  1.00  0.00     0.031 A 
ATOM     39  C   UNL A   1      37.849  32.742  32.515  1.00  0.00     0.074 A 
ATOM     40  C   UNL A   1      37.986  31.459  30.404  1.00  0.00     0.049 A 
ATOM     41  N   UNL A   1      38.886  32.280  33.165  1.00  0.00    -0.248 NA
ATOM     42  C   UNL A   1      37.103  33.784  33.239  1.00  0.00     0.031 C 
ATOM     43  C   UNL A   1      37.645  31.078  29.032  1.00  0.00     0.029 A 
ATOM     44  N   UNL A   1      39.063  30.664  30.708  1.00  0.00    -0.354 N 
ATOM     45  C   UNL A   1      38.933  32.997  34.353  1.00  0.00     0.074 A 
ATOM     46  C   UNL A   1      37.864  33.969  34.306  1.00  0.00     0.031 C 
ATOM     47  C   UNL A   1      38.476  30.105  28.625  1.00  0.00     0.029 A 
ATOM     48  C   UNL A   1      39.428  29.814  29.692  1.00  0.00     0.049 A 
ATOM     49  H   UNL A   1      39.531  30.700  31.574  1.00  0.00     0.167 HD
ATOM     50  C   UNL A   1      39.771  32.838  35.405  1.00  0.00     0.037 A 
ATOM     51  C   UNL A   1      40.416  28.900  29.635  1.00  0.00     0.037 A 
ATOM     52  C   UNL A   1      40.798  31.834  35.469  1.00  0.00     0.049 A 
ATOM     53  C   UNL A   1      41.304  28.707  30.837  1.00  0.00     0.074 A 
ATOM     54  C   UNL A   1      41.658  31.542  36.512  1.00  0.00     0.029 A 
ATOM     55  N   UNL A   1      41.095  30.948  34.443  1.00  0.00    -0.354 N 
ATOM     56  N   UNL A   1      41.294  29.343  31.983  1.00  0.00    -0.248 NA
ATOM     57  C   UNL A   1      42.330  27.660  30.741  1.00  0.00     0.031 C 
ATOM     58  C   UNL A   1      42.495  30.497  36.107  1.00  0.00     0.029 A 
ATOM     59  C   UNL A   1      42.128  30.110  34.828  1.00  0.00     0.049 A 
ATOM     60  H   UNL A   1      40.639  30.919  33.571  1.00  0.00     0.167 HD
ATOM     61  C   UNL A   1      42.284  28.751  32.757  1.00  0.00     0.074 A 
ATOM     62  C   UNL A   1      42.868  27.698  31.953  1.00  0.00     0.031 C 
ATOM     63  C   UNL A   1      42.675  29.052  34.019  1.00  0.00     0.037 A 
BRANCH  50  64
ATOM     64  C   UNL A   1      39.592  33.761  36.575  1.00  0.00     0.064 A 
ATOM     65  C   UNL A   1      40.209  35.021  36.617  1.00  0.00     0.173 A 
ATOM     66  C   UNL A   1      38.790  33.388  37.663  1.00  0.00     0.173 A 
ATOM     67  F   UNL A   1      40.999  35.420  35.609  1.00  0.00    -0.203 F 
ATOM     68  C   UNL A   1      40.063  35.855  37.722  1.00  0.00     0.198 A 
ATOM     69  C   UNL A   1      38.618  34.239  38.752  1.00  0.00     0.198 A 
ATOM     70  F   UNL A   1      38.174  32.197  37.674  1.00  0.00    -0.203 F 
ATOM     71  F   UNL A   1      40.715  37.025  37.767  1.00  0.00    -0.200 F 
ATOM     72  C   UNL A   1      39.263  35.466  38.785  1.00  0.00     0.200 A 
ATOM     73  F   UNL A   1      37.836  33.868  39.774  1.00  0.00    -0.200 F 
ATOM     74  F   UNL A   1      39.123  36.271  39.848  1.00  0.00    -0.200 F 
ENDBRANCH  50  64
BRANCH  51  75
ATOM     75  C   UNL A   1      40.589  28.060  28.422  1.00  0.00     0.064 A 
ATOM     76  C   UNL A   1      39.974  26.802  28.328  1.00  0.00     0.173 A 
ATOM     77  C   UNL A   1      41.372  28.484  27.339  1.00  0.00     0.173 A 
ATOM     78  F   UNL A   1      39.230  26.344  29.345  1.00  0.00    -0.203 F 
ATOM     79  C   UNL A   1      40.158  25.991  27.210  1.00  0.00     0.198 A 
ATOM     80  C   UNL A   1      41.533  27.682  26.209  1.00  0.00     0.198 A 
ATOM     81  F   UNL A   1      41.976  29.680  27.375  1.00  0.00    -0.203 F 
ATOM     82  F   UNL A   1      39.596  24.774  27.168  1.00  0.00    -0.200 F 
ATOM     83  C   UNL A   1      40.933  26.434  26.149  1.00  0.00     0.200 A 
ATOM     84  F   UNL A   1      42.274  28.118  25.181  1.00  0.00    -0.200 F 
ATOM     85  F   UNL A   1      41.109  25.654  25.074  1.00  0.00    -0.200 F 
ENDBRANCH  51  75
BRANCH  63  86
ATOM     86  C   UNL A   1      43.746  28.198  34.630  1.00  0.00     0.064 A 
ATOM     87  C   UNL A   1      45.101  28.550  34.560  1.00  0.00     0.173 A 
ATOM     88  C   UNL A   1      43.403  27.035  35.338  1.00  0.00     0.173 A 
ATOM     89  F   UNL A   1      45.479  29.645  33.884  1.00  0.00    -0.203 F 
ATOM     90  C   UNL A   1      46.077  27.757  35.156  1.00  0.00     0.198 A 
ATOM     91  C   UNL A   1      44.379  26.260  35.957  1.00  0.00     0.198 A 
ATOM     92  F   UNL A   1      42.119  26.659  35.441  1.00  0.00    -0.203 F 
ATOM     93  F   UNL A   1      47.370  28.088  35.039  1.00  0.00    -0.200 F 
ATOM     94  C   UNL A   1      45.715  26.617  35.860  1.00  0.00     0.200 A 
ATOM     95  F   UNL A   1      44.026  25.167  36.649  1.00  0.00    -0.200 F 
ATOM     96  F   UNL A   1      46.656  25.861  36.441  1.00  0.00    -0.200 F 
ENDBRANCH  63  86
ENDBRANCH  37  38
ENDBRANCH  29  32
ENDBRANCH  27  28
ENDBRANCH  26  27
ENDBRANCH  25  26
ENDBRANCH   1  25
TORSDOF 15
ENDMDL
MODEL 2
REMARK VINA RESULT:     -12.9      0.411      1.248
REMARK SMILES O=C(N[C@@H]1[C@@H](C(=O)NCCCCNC(=O)c2ccc(-c3c4nc(c(-c5c(F)c(F)c(F)c(F)c5F)c5ccc([nH]5)c(-c5c(F)c(F)c(F)c(F)c5F)c5nc(c(-c6c(F)c(F)c(F)c(F)c6F)c6ccc3[nH]6)C=C5)C=C4)cc2)[C@H]2C=C[C@@H]1C2)OCc1ccccc1
REMARK SMILES IDX 9 1 8 2 6 3 7 4 5 6 4 7 82 8 79 9 81 10 83 11 80 12 3 13
REMARK SMILES IDX 1 14 2 15 84 17 85 18 86 19 87 20 91 21 88 22 90 23 89 24
REMARK SMILES IDX 10 25 11 26 12 27 13 28 14 29 15 31 16 32 17 33 78 34 18 35
REMARK SMILES IDX 77 36 19 37 20 38 21 39 71 40 22 41 76 42 70 43 72 44 23 45
REMARK SMILES IDX 75 46 69 47 68 48 24 50 56 51 36 52 55 53 37 54 40 55 54 56
REMARK SMILES IDX 73 57 38 58 39 59 53 61 74 62 41 63 25 64 26 65 34 66 27 67
REMARK SMILES IDX 28 68 32 69 35 70 29 71 30 72 33 73 31 74 57 75 58 76 66 77
REMARK SMILES IDX 59 78 60 79 64 80 67 81 61 82 62 83 65 84 63 85 42 86 43 87
REMARK SMILES IDX 51 88 44 89 45 90 49 91 52 92 46 93 47 94 50 95 48 96
REMARK H PARENT 8 5 3 16 13 30 72 49 40 60
REMARK Flexibility Score: inf
ROOT
ATOM      1  C   UNL A   1      31.930  29.376  27.220  1.00  0.00     0.116 C 
ENDROOT
BRANCH   1   2
ATOM      2  N   UNL A   1      32.790  28.291  26.780  1.00  0.00    -0.356 N 
ATOM      3  C   UNL A   1      32.493  27.138  26.106  1.00  0.00     0.225 C 
ATOM      4  O   UNL A   1      33.421  26.349  25.918  1.00  0.00    -0.275 OA
ATOM      5  H   UNL A   1      33.741  28.404  27.003  1.00  0.00     0.163 HD
BRANCH   3   6
ATOM      6  C   UNL A   1      31.069  26.857  25.634  1.00  0.00     0.108 C 
ATOM      7  C   UNL A   1      30.790  25.334  25.342  1.00  0.00     0.105 C 
ATOM      8  C   UNL A   1      30.115  25.374  23.939  1.00  0.00     0.035 C 
ATOM      9  C   UNL A   1      30.759  27.499  24.247  1.00  0.00     0.026 C 
ATOM     10  C   UNL A   1      31.236  25.645  22.957  1.00  0.00    -0.025 C 
ATOM     11  C   UNL A   1      29.471  26.764  23.877  1.00  0.00     0.018 C 
ATOM     12  C   UNL A   1      31.636  26.912  23.159  1.00  0.00    -0.027 C 
BRANCH   7  13
ATOM     13  N   UNL A   1      30.089  24.583  26.382  1.00  0.00    -0.317 N 
ATOM     14  O   UNL A   1      29.527  22.866  27.728  1.00  0.00    -0.225 OA
ATOM     15  C   UNL A   1      30.268  23.327  26.866  1.00  0.00     0.407 C 
ATOM     16  H   UNL A   1      29.353  25.078  26.810  1.00  0.00     0.167 HD
BRANCH  15  17
ATOM     17  O   UNL A   1      31.263  22.649  26.259  1.00  0.00    -0.445 OA
BRANCH  17  18
ATOM     18  C   UNL A   1      32.486  22.568  27.008  1.00  0.00     0.270 C 
BRANCH  18  19
ATOM     19  C   UNL A   1      33.612  22.800  26.026  1.00  0.00    -0.011 A 
ATOM     20  C   UNL A   1      33.343  22.773  24.650  1.00  0.00     0.007 A 
ATOM     21  C   UNL A   1      34.864  23.248  26.467  1.00  0.00     0.007 A 
ATOM     22  C   UNL A   1      34.279  23.242  23.736  1.00  0.00     0.000 A 
ATOM     23  C   UNL A   1      35.809  23.702  25.548  1.00  0.00     0.000 A 
ATOM     24  C   UNL A   1      35.510  23.709  24.186  1.00  0.00     0.000 A 
ENDBRANCH  18  19
ENDBRANCH  17  18
ENDBRANCH  15  17
ENDBRANCH   7  13
ENDBRANCH   3   6
ENDBRANCH   1   2
BRANCH   1  25
ATOM     25  C   UNL A   1      31.984  30.579  26.275  1.00  0.00     0.023 C 
BRANCH  25  26
ATOM     26  C   UNL A   1      31.586  31.930  26.873  1.00  0.00     0.023 C 
BRANCH  26  27
ATOM     27  C   UNL A   1      32.750  32.830  27.279  1.00  0.00     0.116 C 
BRANCH  27  28
ATOM     28  N   UNL A   1      32.381  34.197  27.626  1.00  0.00    -0.352 N 
ATOM     29  C   UNL A   1      32.973  35.016  28.567  1.00  0.00     0.251 C 
ATOM     30  H   UNL A   1      31.622  34.582  27.132  1.00  0.00     0.163 HD
ATOM     31  O   UNL A   1      32.535  36.137  28.796  1.00  0.00    -0.269 OA
BRANCH  29  32
ATOM     32  C   UNL A   1      34.117  34.489  29.340  1.00  0.00     0.039 A 
ATOM     33  C   UNL A   1      33.877  33.795  30.529  1.00  0.00     0.014 A 
ATOM     34  C   UNL A   1      35.410  34.585  28.826  1.00  0.00     0.014 A 
ATOM     35  C   UNL A   1      34.926  33.113  31.150  1.00  0.00     0.010 A 
ATOM     36  C   UNL A   1      36.428  33.828  29.388  1.00  0.00     0.010 A 
ATOM     37  C   UNL A   1      36.199  33.084  30.557  1.00  0.00    -0.014 A 
BRANCH  37  38
ATOM     38  C   UNL A   1      37.318  32.304  31.143  1.00  0.00     0.031 A 
ATOM     39  C   UNL A   1      37.819  32.650  32.520  1.00  0.00     0.074 A 
ATOM     40  C   UNL A   1      37.940  31.357  30.414  1.00  0.00     0.049 A 
ATOM     41  N   UNL A   1      38.850  32.176  33.172  1.00  0.00    -0.248 NA
ATOM     42  C   UNL A   1      37.087  33.705  33.239  1.00  0.00     0.031 C 
ATOM     43  C   UNL A   1      37.595  30.976  29.043  1.00  0.00     0.029 A 
ATOM     44  N   UNL A   1      39.006  30.548  30.722  1.00  0.00    -0.354 N 
ATOM     45  C   UNL A   1      38.906  32.898  34.357  1.00  0.00     0.074 A 
ATOM     46  C   UNL A   1      37.850  33.884  34.306  1.00  0.00     0.031 C 
ATOM     47  C   UNL A   1      38.413  29.990  28.641  1.00  0.00     0.029 A 
ATOM     48  C   UNL A   1      39.360  29.690  29.709  1.00  0.00     0.049 A 
ATOM     49  H   UNL A   1      39.474  30.581  31.588  1.00  0.00     0.167 HD
ATOM     50  C   UNL A   1      39.740  32.731  35.411  1.00  0.00     0.037 A 
ATOM     51  C   UNL A   1      40.336  28.762  29.657  1.00  0.00     0.037 A 
ATOM     52  C   UNL A   1      40.754  31.713  35.479  1.00  0.00     0.049 A 
ATOM     53  C   UNL A   1      41.220  28.562  30.860  1.00  0.00     0.074 A 
ATOM     54  C   UNL A   1      41.609  31.414  36.524  1.00  0.00     0.029 A 
ATOM     55  N   UNL A   1      41.039  30.819  34.457  1.00  0.00    -0.354 N 
ATOM     56  N   UNL A   1      41.218  29.203  32.004  1.00  0.00    -0.248 NA
ATOM     57  C   UNL A   1      42.231  27.500  30.769  1.00  0.00     0.031 C 
ATOM     58  C   UNL A   1      42.432  30.356  36.124  1.00  0.00     0.029 A 
ATOM     59  C   UNL A   1      42.060  29.969  34.846  1.00  0.00     0.049 A 
ATOM     60  H   UNL A   1      40.583  30.794  33.585  1.00  0.00     0.167 HD
ATOM     61  C   UNL A   1      42.200  28.600  32.780  1.00  0.00     0.074 A 
ATOM     62  C   UNL A   1      42.769  27.536  31.980  1.00  0.00     0.031 C 
ATOM     63  C   UNL A   1      42.593  28.900  34.041  1.00  0.00     0.037 A 
BRANCH  50  64
ATOM     64  C   UNL A   1      39.573  33.661  36.577  1.00  0.00     0.064 A 
ATOM     65  C   UNL A   1      40.226  34.903  36.625  1.00  0.00     0.173 A 
ATOM     66  C   UNL A   1      38.748  33.313  37.655  1.00  0.00     0.173 A 
ATOM     67  F   UNL A   1      41.039  35.278  35.626  1.00  0.00    -0.203 F 
ATOM     68  C   UNL A   1      40.089  35.743  37.727  1.00  0.00     0.198 A 
ATOM     69  C   UNL A   1      38.587  34.170  38.741  1.00  0.00     0.198 A 
ATOM     70  F   UNL A   1      38.098  32.140  37.660  1.00  0.00    -0.203 F 
ATOM     71  F   UNL A   1      40.773  36.894  37.778  1.00  0.00    -0.200 F 
ATOM     72  C   UNL A   1      39.266  35.379  38.781  1.00  0.00     0.200 A 
ATOM     73  F   UNL A   1      37.782  33.823  39.754  1.00  0.00    -0.200 F 
ATOM     74  F   UNL A   1      39.135  36.189  39.840  1.00  0.00    -0.200 F 
ENDBRANCH  50  64
BRANCH  51  75
ATOM     75  C   UNL A   1      40.497  27.915  28.446  1.00  0.00     0.064 A 
ATOM     76  C   UNL A   1      41.269  28.357  27.361  1.00  0.00     0.173 A 
ATOM     77  C   UNL A   1      39.883  26.659  28.340  1.00  0.00     0.173 A 
ATOM     78  F   UNL A   1      41.861  29.560  27.407  1.00  0.00    -0.203 F 
ATOM     79  C   UNL A   1      41.398  27.587  26.207  1.00  0.00     0.198 A 
ATOM     80  C   UNL A   1      40.036  25.878  27.195  1.00  0.00     0.198 A 
ATOM     81  F   UNL A   1      39.141  26.188  29.351  1.00  0.00    -0.203 F 
ATOM     82  F   UNL A   1      42.103  28.056  25.167  1.00  0.00    -0.200 F 
ATOM     83  C   UNL A   1      40.786  26.346  26.127  1.00  0.00     0.200 A 
ATOM     84  F   UNL A   1      39.452  24.674  27.126  1.00  0.00    -0.200 F 
ATOM     85  F   UNL A   1      40.911  25.606  25.017  1.00  0.00    -0.200 F 
ENDBRANCH  51  75
BRANCH  63  86
ATOM     86  C   UNL A   1      43.653  28.034  34.657  1.00  0.00     0.064 A 
ATOM     87  C   UNL A   1      45.011  28.375  34.598  1.00  0.00     0.173 A 
ATOM     88  C   UNL A   1      43.294  26.872  35.357  1.00  0.00     0.173 A 
ATOM     89  F   UNL A   1      45.404  29.469  33.929  1.00  0.00    -0.203 F 
ATOM     90  C   UNL A   1      45.976  27.571  35.197  1.00  0.00     0.198 A 
ATOM     91  C   UNL A   1      44.259  26.085  35.980  1.00  0.00     0.198 A 
ATOM     92  F   UNL A   1      42.006  26.507  35.449  1.00  0.00    -0.203 F 
ATOM     93  F   UNL A   1      47.273  27.891  35.091  1.00  0.00    -0.200 F 
ATOM     94  C   UNL A   1      45.599  26.431  35.894  1.00  0.00     0.200 A 
ATOM     95  F   UNL A   1      43.890  24.993  36.664  1.00  0.00    -0.200 F 
ATOM     96  F   UNL A   1      46.528  25.664  36.478  1.00  0.00    -0.200 F 
ENDBRANCH  63  86
ENDBRANCH  37  38
ENDBRANCH  29  32
ENDBRANCH  27  28
ENDBRANCH  26  27
ENDBRANCH  25  26
ENDBRANCH   1  25
TORSDOF 15
ENDMDL
MODEL 3
REMARK VINA RESULT:     -12.6      0.763      7.300
REMARK SMILES O=C(N[C@@H]1[C@@H](C(=O)NCCCCNC(=O)c2ccc(-c3c4nc(c(-c5c(F)c(F)c(F)c(F)c5F)c5ccc([nH]5)c(-c5c(F)c(F)c(F)c(F)c5F)c5nc(c(-c6c(F)c(F)c(F)c(F)c6F)c6ccc3[nH]6)C=C5)C=C4)cc2)[C@H]2C=C[C@@H]1C2)OCc1ccccc1
REMARK SMILES IDX 9 1 8 2 6 3 7 4 5 6 4 7 82 8 79 9 81 10 83 11 80 12 3 13
REMARK SMILES IDX 1 14 2 15 84 17 85 18 86 19 87 20 91 21 88 22 90 23 89 24
REMARK SMILES IDX 10 25 11 26 12 27 13 28 14 29 15 31 16 32 17 33 78 34 18 35
REMARK SMILES IDX 77 36 19 37 20 38 21 39 71 40 22 41 76 42 70 43 72 44 23 45
REMARK SMILES IDX 75 46 69 47 68 48 24 50 56 51 36 52 55 53 37 54 40 55 54 56
REMARK SMILES IDX 73 57 38 58 39 59 53 61 74 62 41 63 25 64 26 65 34 66 27 67
REMARK SMILES IDX 28 68 32 69 35 70 29 71 30 72 33 73 31 74 57 75 58 76 66 77
REMARK SMILES IDX 59 78 60 79 64 80 67 81 61 82 62 83 65 84 63 85 42 86 43 87
REMARK SMILES IDX 51 88 44 89 45 90 49 91 52 92 46 93 47 94 50 95 48 96
REMARK H PARENT 8 5 3 16 13 30 72 49 40 60
REMARK Flexibility Score: inf
ROOT
ATOM      1  C   UNL A   1      32.381  29.236  27.260  1.00  0.00     0.116 C 
ENDROOT
BRANCH   1   2
ATOM      2  N   UNL A   1      33.154  28.115  26.755  1.00  0.00    -0.356 N 
ATOM      3  C   UNL A   1      32.761  27.006  26.058  1.00  0.00     0.225 C 
ATOM      4  O   UNL A   1      33.630  26.167  25.812  1.00  0.00    -0.275 OA
ATOM      5  H   UNL A   1      34.118  28.161  26.948  1.00  0.00     0.163 HD
BRANCH   3   6
ATOM      6  C   UNL A   1      31.308  26.831  25.628  1.00  0.00     0.108 C 
ATOM      7  C   UNL A   1      30.918  25.337  25.312  1.00  0.00     0.105 C 
ATOM      8  C   UNL A   1      30.202  25.456  23.934  1.00  0.00     0.035 C 
ATOM      9  C   UNL A   1      30.994  27.526  24.268  1.00  0.00     0.026 C 
ATOM     10  C   UNL A   1      31.305  25.678  22.920  1.00  0.00    -0.025 C 
ATOM     11  C   UNL A   1      29.649  26.886  23.927  1.00  0.00     0.018 C 
ATOM     12  C   UNL A   1      31.794  26.911  23.138  1.00  0.00    -0.027 C 
BRANCH   7  13
ATOM     13  N   UNL A   1      30.204  24.608  26.358  1.00  0.00    -0.317 N 
ATOM     14  O   UNL A   1      29.592  22.904  27.698  1.00  0.00    -0.225 OA
ATOM     15  C   UNL A   1      30.337  23.340  26.827  1.00  0.00     0.407 C 
ATOM     16  H   UNL A   1      29.498  25.130  26.803  1.00  0.00     0.167 HD
BRANCH  15  17
ATOM     17  O   UNL A   1      31.291  22.625  26.196  1.00  0.00    -0.445 OA
BRANCH  17  18
ATOM     18  C   UNL A   1      32.528  22.501  26.914  1.00  0.00     0.270 C 
BRANCH  18  19
ATOM     19  C   UNL A   1      33.629  22.871  25.946  1.00  0.00    -0.011 A 
ATOM     20  C   UNL A   1      34.940  23.026  26.419  1.00  0.00     0.007 A 
ATOM     21  C   UNL A   1      33.402  22.852  24.564  1.00  0.00     0.007 A 
ATOM     22  C   UNL A   1      36.009  23.097  25.533  1.00  0.00     0.000 A 
ATOM     23  C   UNL A   1      34.473  22.942  23.676  1.00  0.00     0.000 A 
ATOM     24  C   UNL A   1      35.775  23.052  24.162  1.00  0.00     0.000 A 
ENDBRANCH  18  19
ENDBRANCH  17  18
ENDBRANCH  15  17
ENDBRANCH   7  13
ENDBRANCH   3   6
ENDBRANCH   1   2
BRANCH   1  25
ATOM     25  C   UNL A   1      32.440  30.449  26.327  1.00  0.00     0.023 C 
BRANCH  25  26
ATOM     26  C   UNL A   1      31.879  31.760  26.881  1.00  0.00     0.023 C 
BRANCH  26  27
ATOM     27  C   UNL A   1      32.912  32.699  27.497  1.00  0.00     0.116 C 
BRANCH  27  28
ATOM     28  N   UNL A   1      32.449  34.065  27.718  1.00  0.00    -0.352 N 
ATOM     29  C   UNL A   1      32.977  35.003  28.583  1.00  0.00     0.251 C 
ATOM     30  H   UNL A   1      31.671  34.352  27.188  1.00  0.00     0.163 HD
ATOM     31  O   UNL A   1      32.463  36.108  28.708  1.00  0.00    -0.269 OA
BRANCH  29  32
ATOM     32  C   UNL A   1      34.146  34.626  29.404  1.00  0.00     0.039 A 
ATOM     33  C   UNL A   1      33.947  34.186  30.715  1.00  0.00     0.014 A 
ATOM     34  C   UNL A   1      35.419  34.600  28.834  1.00  0.00     0.014 A 
ATOM     35  C   UNL A   1      35.015  33.628  31.422  1.00  0.00     0.010 A 
ATOM     36  C   UNL A   1      36.454  33.957  29.500  1.00  0.00     0.010 A 
ATOM     37  C   UNL A   1      36.265  33.464  30.801  1.00  0.00    -0.014 A 
BRANCH  37  38
ATOM     38  C   UNL A   1      37.400  32.802  31.491  1.00  0.00     0.031 A 
ATOM     39  C   UNL A   1      38.098  31.647  30.825  1.00  0.00     0.074 A 
ATOM     40  C   UNL A   1      37.743  33.172  32.740  1.00  0.00     0.049 A 
ATOM     41  N   UNL A   1      39.032  30.858  31.293  1.00  0.00    -0.248 NA
ATOM     42  C   UNL A   1      37.650  31.304  29.466  1.00  0.00     0.031 C 
ATOM     43  C   UNL A   1      37.100  34.230  33.521  1.00  0.00     0.029 A 
ATOM     44  N   UNL A   1      38.715  32.687  33.581  1.00  0.00    -0.354 N 
ATOM     45  C   UNL A   1      39.255  29.913  30.301  1.00  0.00     0.074 A 
ATOM     46  C   UNL A   1      38.316  30.184  29.236  1.00  0.00     0.031 C 
ATOM     47  C   UNL A   1      37.712  34.334  34.712  1.00  0.00     0.029 A 
ATOM     48  C   UNL A   1      38.768  33.330  34.794  1.00  0.00     0.049 A 
ATOM     49  H   UNL A   1      39.316  31.946  33.338  1.00  0.00     0.167 HD
ATOM     50  C   UNL A   1      40.184  28.928  30.265  1.00  0.00     0.037 A 
ATOM     51  C   UNL A   1      39.584  33.133  35.848  1.00  0.00     0.037 A 
ATOM     52  C   UNL A   1      41.151  28.698  31.303  1.00  0.00     0.049 A 
ATOM     53  C   UNL A   1      40.642  32.063  35.764  1.00  0.00     0.074 A 
ATOM     54  C   UNL A   1      42.178  27.772  31.338  1.00  0.00     0.029 A 
ATOM     55  N   UNL A   1      41.216  29.414  32.490  1.00  0.00    -0.354 N 
ATOM     56  N   UNL A   1      40.891  31.221  34.791  1.00  0.00    -0.248 NA
ATOM     57  C   UNL A   1      41.540  31.928  36.918  1.00  0.00     0.031 C 
ATOM     58  C   UNL A   1      42.847  27.908  32.560  1.00  0.00     0.029 A 
ATOM     59  C   UNL A   1      42.263  28.948  33.266  1.00  0.00     0.049 A 
ATOM     60  H   UNL A   1      40.606  30.144  32.742  1.00  0.00     0.167 HD
ATOM     61  C   UNL A   1      41.994  30.482  35.199  1.00  0.00     0.074 A 
ATOM     62  C   UNL A   1      42.371  30.982  36.504  1.00  0.00     0.031 C 
ATOM     63  C   UNL A   1      42.635  29.479  34.551  1.00  0.00     0.037 A 
BRANCH  50  64
ATOM     64  C   UNL A   1      40.204  28.044  29.052  1.00  0.00     0.064 A 
ATOM     65  C   UNL A   1      39.498  26.831  29.017  1.00  0.00     0.173 A 
ATOM     66  C   UNL A   1      40.929  28.413  27.911  1.00  0.00     0.173 A 
ATOM     67  F   UNL A   1      38.802  26.423  30.088  1.00  0.00    -0.203 F 
ATOM     68  C   UNL A   1      39.551  26.002  27.899  1.00  0.00     0.198 A 
ATOM     69  C   UNL A   1      40.952  27.598  26.781  1.00  0.00     0.198 A 
ATOM     70  F   UNL A   1      41.619  29.563  27.888  1.00  0.00    -0.203 F 
ATOM     71  F   UNL A   1      38.922  24.819  27.914  1.00  0.00    -0.200 F 
ATOM     72  C   UNL A   1      40.272  26.389  26.780  1.00  0.00     0.200 A 
ATOM     73  F   UNL A   1      41.640  27.978  25.696  1.00  0.00    -0.200 F 
ATOM     74  F   UNL A   1      40.321  25.591  25.705  1.00  0.00    -0.200 F 
ENDBRANCH  50  64
BRANCH  51  75
ATOM     75  C   UNL A   1      39.473  33.998  37.051  1.00  0.00     0.064 A 
ATOM     76  C   UNL A   1      38.734  33.579  38.168  1.00  0.00     0.173 A 
ATOM     77  C   UNL A   1      40.089  35.256  37.113  1.00  0.00     0.173 A 
ATOM     78  F   UNL A   1      38.111  32.391  38.150  1.00  0.00    -0.203 F 
ATOM     79  C   UNL A   1      38.592  34.396  39.287  1.00  0.00     0.198 A 
ATOM     80  C   UNL A   1      39.968  36.061  38.245  1.00  0.00     0.198 A 
ATOM     81  F   UNL A   1      40.812  35.700  36.076  1.00  0.00    -0.203 F 
ATOM     82  F   UNL A   1      37.841  33.990  40.320  1.00  0.00    -0.200 F 
ATOM     83  C   UNL A   1      39.214  35.635  39.328  1.00  0.00     0.200 A 
ATOM     84  F   UNL A   1      40.581  37.253  38.284  1.00  0.00    -0.200 F 
ATOM     85  F   UNL A   1      39.079  36.420  40.405  1.00  0.00    -0.200 F 
ENDBRANCH  51  75
BRANCH  63  86
ATOM     86  C   UNL A   1      43.845  28.893  35.217  1.00  0.00     0.064 A 
ATOM     87  C   UNL A   1      45.128  29.420  35.015  1.00  0.00     0.173 A 
ATOM     88  C   UNL A   1      43.707  27.817  36.109  1.00  0.00     0.173 A 
ATOM     89  F   UNL A   1      45.311  30.439  34.162  1.00  0.00    -0.203 F 
ATOM     90  C   UNL A   1      46.234  28.877  35.662  1.00  0.00     0.198 A 
ATOM     91  C   UNL A   1      44.811  27.296  36.777  1.00  0.00     0.198 A 
ATOM     92  F   UNL A   1      42.500  27.283  36.343  1.00  0.00    -0.203 F 
ATOM     93  F   UNL A   1      47.457  29.367  35.420  1.00  0.00    -0.200 F 
ATOM     94  C   UNL A   1      46.074  27.821  36.548  1.00  0.00     0.200 A 
ATOM     95  F   UNL A   1      44.652  26.285  37.643  1.00  0.00    -0.200 F 
ATOM     96  F   UNL A   1      47.139  27.306  37.177  1.00  0.00    -0.200 F 
ENDBRANCH  63  86
ENDBRANCH  37  38
ENDBRANCH  29  32
ENDBRANCH  27  28
ENDBRANCH  26  27
ENDBRANCH  25  26
ENDBRANCH   1  25
TORSDOF 15
ENDMDL
