MODEL 1
REMARK VINA RESULT:     -12.4      0.000      0.000
REMARK SMILES CN(C(=O)N[C@@](C)(C(=O)NCCCCNC(=O)c1ccc(-c2c3nc(c(-c4c(F)c(F)c(F)c(F)c4F)c4ccc([nH]4)c(-c4c(F)c(F)c(F)c(F)c4F)c4nc(c(-c5c(F)c(F)c(F)c(F)c5F)c5ccc2[nH]5)C=C4)C=C3)cc1)C(F)(F)F)c1ccc(F)cc1
REMARK SMILES IDX 12 1 11 2 10 3 8 4 9 5 6 7 7 8 5 9 3 10 4 11 2 13 1 14 85 15
REMARK SMILES IDX 86 16 91 17 87 18 90 19 88 20 89 21 81 22 82 23 83 24 84 25
REMARK SMILES IDX 13 26 14 27 15 28 16 29 17 31 18 32 19 33 80 34 20 35 79 36
REMARK SMILES IDX 21 37 22 38 23 39 73 40 24 41 78 42 72 43 74 44 25 45 77 46
REMARK SMILES IDX 71 47 70 48 26 50 58 51 38 52 57 53 39 54 42 55 56 56 75 57
REMARK SMILES IDX 40 58 41 59 55 61 76 62 43 63 27 64 28 65 36 66 29 67 30 68
REMARK SMILES IDX 34 69 37 70 31 71 32 72 35 73 33 74 59 75 60 76 68 77 61 78
REMARK SMILES IDX 62 79 66 80 69 81 63 82 64 83 67 84 65 85 44 86 45 87 53 88
REMARK SMILES IDX 46 89 47 90 51 91 54 92 48 93 49 94 52 95 50 96
REMARK H PARENT 10 6 5 12 15 30 74 49 42 60
REMARK Flexibility Score: inf
ROOT
ATOM      1  C   UNL A   1      37.330  20.913  24.583  1.00  0.00     0.023 C 
ENDROOT
BRANCH   1   2
ATOM      2  C   UNL A   1      37.009  21.889  25.714  1.00  0.00     0.116 C 
BRANCH   2   3
ATOM      3  N   UNL A   1      35.828  21.473  26.445  1.00  0.00    -0.354 N 
ATOM      4  C   UNL A   1      34.535  21.889  26.494  1.00  0.00     0.255 C 
ATOM      5  O   UNL A   1      33.868  21.313  27.360  1.00  0.00    -0.272 OA
ATOM      6  H   UNL A   1      36.003  20.712  27.045  1.00  0.00     0.163 HD
BRANCH   4   7
ATOM      7  C   UNL A   1      33.947  23.015  25.604  1.00  0.00     0.213 C 
ATOM      8  C   UNL A   1      34.934  24.184  25.415  1.00  0.00     0.056 C 
BRANCH   7   9
ATOM      9  N   UNL A   1      32.752  23.545  26.367  1.00  0.00    -0.316 N 
ATOM     10  C   UNL A   1      31.780  24.467  26.416  1.00  0.00     0.322 C 
ATOM     11  O   UNL A   1      30.864  24.123  27.178  1.00  0.00    -0.248 OA
ATOM     12  H   UNL A   1      32.643  22.974  27.160  1.00  0.00     0.166 HD
BRANCH  10  13
ATOM     13  N   UNL A   1      31.768  25.646  25.735  1.00  0.00    -0.298 N 
ATOM     14  C   UNL A   1      31.519  25.807  24.315  1.00  0.00     0.155 C 
BRANCH  13  15
ATOM     15  C   UNL A   1      32.296  26.842  26.332  1.00  0.00     0.045 A 
ATOM     16  C   UNL A   1      33.619  27.246  26.092  1.00  0.00     0.029 A 
ATOM     17  C   UNL A   1      31.427  27.713  27.009  1.00  0.00     0.029 A 
ATOM     18  C   UNL A   1      34.042  28.523  26.471  1.00  0.00     0.041 A 
ATOM     19  C   UNL A   1      31.861  28.978  27.410  1.00  0.00     0.041 A 
ATOM     20  C   UNL A   1      33.157  29.379  27.117  1.00  0.00     0.123 A 
ATOM     21  F   UNL A   1      33.554  30.615  27.446  1.00  0.00    -0.207 F 
ENDBRANCH  13  15
ENDBRANCH  10  13
ENDBRANCH   7   9
BRANCH   7  22
ATOM     22  C   UNL A   1      33.835  22.328  24.222  1.00  0.00     0.420 C 
ATOM     23  F   UNL A   1      34.822  22.650  23.366  1.00  0.00    -0.168 F 
ATOM     24  F   UNL A   1      33.815  20.976  24.335  1.00  0.00    -0.168 F 
ATOM     25  F   UNL A   1      32.652  22.626  23.616  1.00  0.00    -0.168 F 
ENDBRANCH   7  22
ENDBRANCH   4   7
ENDBRANCH   2   3
ENDBRANCH   1   2
BRANCH   1  26
ATOM     26  C   UNL A   1      38.202  19.716  24.976  1.00  0.00     0.023 C 
BRANCH  26  27
ATOM     27  C   UNL A   1      39.314  20.016  25.976  1.00  0.00     0.116 C 
BRANCH  27  28
ATOM     28  N   UNL A   1      40.423  19.083  25.876  1.00  0.00    -0.352 N 
ATOM     29  C   UNL A   1      41.770  19.301  26.011  1.00  0.00     0.251 C 
ATOM     30  H   UNL A   1      40.169  18.151  25.683  1.00  0.00     0.163 HD
ATOM     31  O   UNL A   1      42.563  18.402  25.732  1.00  0.00    -0.269 OA
BRANCH  29  32
ATOM     32  C   UNL A   1      42.278  20.614  26.459  1.00  0.00     0.039 A 
ATOM     33  C   UNL A   1      42.687  21.538  25.493  1.00  0.00     0.014 A 
ATOM     34  C   UNL A   1      42.365  20.938  27.816  1.00  0.00     0.014 A 
ATOM     35  C   UNL A   1      43.121  22.804  25.886  1.00  0.00     0.010 A 
ATOM     36  C   UNL A   1      42.714  22.230  28.201  1.00  0.00     0.010 A 
ATOM     37  C   UNL A   1      43.102  23.175  27.241  1.00  0.00    -0.014 A 
BRANCH  37  38
ATOM     38  C   UNL A   1      43.470  24.556  27.648  1.00  0.00     0.031 A 
ATOM     39  C   UNL A   1      44.905  24.999  27.669  1.00  0.00     0.074 A 
ATOM     40  C   UNL A   1      42.499  25.409  28.027  1.00  0.00     0.049 A 
ATOM     41  N   UNL A   1      45.403  26.180  27.940  1.00  0.00    -0.248 NA
ATOM     42  C   UNL A   1      45.917  23.976  27.371  1.00  0.00     0.031 C 
ATOM     43  C   UNL A   1      41.075  25.081  28.111  1.00  0.00     0.029 A 
ATOM     44  N   UNL A   1      42.561  26.728  28.399  1.00  0.00    -0.354 N 
ATOM     45  C   UNL A   1      46.782  26.040  27.847  1.00  0.00     0.074 A 
ATOM     46  C   UNL A   1      47.044  24.644  27.569  1.00  0.00     0.031 C 
ATOM     47  C   UNL A   1      40.391  26.184  28.451  1.00  0.00     0.029 A 
ATOM     48  C   UNL A   1      41.329  27.285  28.644  1.00  0.00     0.049 A 
ATOM     49  H   UNL A   1      43.405  27.227  28.481  1.00  0.00     0.167 HD
ATOM     50  C   UNL A   1      47.742  26.992  27.954  1.00  0.00     0.037 A 
ATOM     51  C   UNL A   1      40.993  28.547  28.972  1.00  0.00     0.037 A 
ATOM     52  C   UNL A   1      47.476  28.380  28.238  1.00  0.00     0.049 A 
ATOM     53  C   UNL A   1      42.075  29.583  29.101  1.00  0.00     0.074 A 
ATOM     54  C   UNL A   1      48.369  29.434  28.318  1.00  0.00     0.029 A 
ATOM     55  N   UNL A   1      46.218  28.905  28.503  1.00  0.00    -0.354 N 
ATOM     56  N   UNL A   1      43.368  29.461  28.925  1.00  0.00    -0.248 NA
ATOM     57  C   UNL A   1      41.642  30.937  29.468  1.00  0.00     0.031 C 
ATOM     58  C   UNL A   1      47.661  30.582  28.692  1.00  0.00     0.029 A 
ATOM     59  C   UNL A   1      46.315  30.261  28.781  1.00  0.00     0.049 A 
ATOM     60  H   UNL A   1      45.379  28.389  28.497  1.00  0.00     0.167 HD
ATOM     61  C   UNL A   1      43.903  30.725  29.132  1.00  0.00     0.074 A 
ATOM     62  C   UNL A   1      42.787  31.603  29.423  1.00  0.00     0.031 C 
ATOM     63  C   UNL A   1      45.199  31.123  29.086  1.00  0.00     0.037 A 
BRANCH  50  64
ATOM     64  C   UNL A   1      49.169  26.549  27.774  1.00  0.00     0.064 A 
ATOM     65  C   UNL A   1      50.017  26.317  28.870  1.00  0.00     0.173 A 
ATOM     66  C   UNL A   1      49.703  26.365  26.488  1.00  0.00     0.173 A 
ATOM     67  F   UNL A   1      49.564  26.487  30.121  1.00  0.00    -0.203 F 
ATOM     68  C   UNL A   1      51.354  25.973  28.685  1.00  0.00     0.198 A 
ATOM     69  C   UNL A   1      51.031  25.982  26.309  1.00  0.00     0.198 A 
ATOM     70  F   UNL A   1      48.940  26.562  25.404  1.00  0.00    -0.203 F 
ATOM     71  F   UNL A   1      52.161  25.837  29.748  1.00  0.00    -0.200 F 
ATOM     72  C   UNL A   1      51.859  25.803  27.407  1.00  0.00     0.200 A 
ATOM     73  F   UNL A   1      51.512  25.802  25.072  1.00  0.00    -0.200 F 
ATOM     74  F   UNL A   1      53.147  25.478  27.230  1.00  0.00    -0.200 F 
ENDBRANCH  50  64
BRANCH  51  75
ATOM     75  C   UNL A   1      39.561  28.909  29.132  1.00  0.00     0.064 A 
ATOM     76  C   UNL A   1      38.807  29.343  28.032  1.00  0.00     0.173 A 
ATOM     77  C   UNL A   1      38.913  28.812  30.371  1.00  0.00     0.173 A 
ATOM     78  F   UNL A   1      39.387  29.469  26.831  1.00  0.00    -0.203 F 
ATOM     79  C   UNL A   1      37.461  29.676  28.169  1.00  0.00     0.198 A 
ATOM     80  C   UNL A   1      37.561  29.119  30.501  1.00  0.00     0.198 A 
ATOM     81  F   UNL A   1      39.590  28.397  31.452  1.00  0.00    -0.203 F 
ATOM     82  F   UNL A   1      36.773  30.123  27.110  1.00  0.00    -0.200 F 
ATOM     83  C   UNL A   1      36.837  29.556  29.402  1.00  0.00     0.200 A 
ATOM     84  F   UNL A   1      36.956  28.986  31.689  1.00  0.00    -0.200 F 
ATOM     85  F   UNL A   1      35.540  29.866  29.530  1.00  0.00    -0.200 F 
ENDBRANCH  51  75
BRANCH  63  86
ATOM     86  C   UNL A   1      45.471  32.582  29.335  1.00  0.00     0.064 A 
ATOM     87  C   UNL A   1      45.758  33.073  30.618  1.00  0.00     0.173 A 
ATOM     88  C   UNL A   1      45.432  33.503  28.277  1.00  0.00     0.173 A 
ATOM     89  F   UNL A   1      45.795  32.238  31.669  1.00  0.00    -0.203 F 
ATOM     90  C   UNL A   1      45.944  34.435  30.841  1.00  0.00     0.198 A 
ATOM     91  C   UNL A   1      45.658  34.859  28.497  1.00  0.00     0.198 A 
ATOM     92  F   UNL A   1      45.172  33.089  27.028  1.00  0.00    -0.203 F 
ATOM     93  F   UNL A   1      46.138  34.888  32.087  1.00  0.00    -0.200 F 
ATOM     94  C   UNL A   1      45.897  35.326  29.780  1.00  0.00     0.200 A 
ATOM     95  F   UNL A   1      45.629  35.717  27.468  1.00  0.00    -0.200 F 
ATOM     96  F   UNL A   1      46.070  36.638  29.996  1.00  0.00    -0.200 F 
ENDBRANCH  63  86
ENDBRANCH  37  38
ENDBRANCH  29  32
ENDBRANCH  27  28
ENDBRANCH  26  27
ENDBRANCH   1  26
TORSDOF 15
ENDMDL
MODEL 2
REMARK VINA RESULT:     -12.3      5.305     10.692
REMARK SMILES CN(C(=O)N[C@@](C)(C(=O)NCCCCNC(=O)c1ccc(-c2c3nc(c(-c4c(F)c(F)c(F)c(F)c4F)c4ccc([nH]4)c(-c4c(F)c(F)c(F)c(F)c4F)c4nc(c(-c5c(F)c(F)c(F)c(F)c5F)c5ccc2[nH]5)C=C4)C=C3)cc1)C(F)(F)F)c1ccc(F)cc1
REMARK SMILES IDX 12 1 11 2 10 3 8 4 9 5 6 7 7 8 5 9 3 10 4 11 2 13 1 14 85 15
REMARK SMILES IDX 86 16 91 17 87 18 90 19 88 20 89 21 81 22 82 23 83 24 84 25
REMARK SMILES IDX 13 26 14 27 15 28 16 29 17 31 18 32 19 33 80 34 20 35 79 36
REMARK SMILES IDX 21 37 22 38 23 39 73 40 24 41 78 42 72 43 74 44 25 45 77 46
REMARK SMILES IDX 71 47 70 48 26 50 58 51 38 52 57 53 39 54 42 55 56 56 75 57
REMARK SMILES IDX 40 58 41 59 55 61 76 62 43 63 27 64 28 65 36 66 29 67 30 68
REMARK SMILES IDX 34 69 37 70 31 71 32 72 35 73 33 74 59 75 60 76 68 77 61 78
REMARK SMILES IDX 62 79 66 80 69 81 63 82 64 83 67 84 65 85 44 86 45 87 53 88
REMARK SMILES IDX 46 89 47 90 51 91 54 92 48 93 49 94 52 95 50 96
REMARK H PARENT 10 6 5 12 15 30 74 49 42 60
REMARK Flexibility Score: inf
ROOT
ATOM      1  C   UNL A   1      31.701  30.507  26.785  1.00  0.00     0.023 C 
ENDROOT
BRANCH   1   2
ATOM      2  C   UNL A   1      33.022  30.039  26.176  1.00  0.00     0.116 C 
BRANCH   2   3
ATOM      3  N   UNL A   1      32.894  29.829  24.747  1.00  0.00    -0.354 N 
ATOM      4  C   UNL A   1      32.758  28.738  23.947  1.00  0.00     0.255 C 
ATOM      5  O   UNL A   1      32.798  29.007  22.741  1.00  0.00    -0.272 OA
ATOM      6  H   UNL A   1      32.909  30.671  24.237  1.00  0.00     0.163 HD
BRANCH   4   7
ATOM      7  C   UNL A   1      32.626  27.284  24.471  1.00  0.00     0.213 C 
ATOM      8  C   UNL A   1      33.464  27.044  25.743  1.00  0.00     0.056 C 
BRANCH   7   9
ATOM      9  N   UNL A   1      33.199  26.411  23.376  1.00  0.00    -0.316 N 
ATOM     10  C   UNL A   1      33.527  25.167  22.997  1.00  0.00     0.322 C 
ATOM     11  O   UNL A   1      33.651  25.083  21.767  1.00  0.00    -0.248 OA
ATOM     12  H   UNL A   1      33.427  27.006  22.626  1.00  0.00     0.166 HD
BRANCH  10  13
ATOM     13  N   UNL A   1      33.716  24.107  23.831  1.00  0.00    -0.298 N 
ATOM     14  C   UNL A   1      32.679  23.410  24.568  1.00  0.00     0.155 C 
BRANCH  13  15
ATOM     15  C   UNL A   1      35.033  23.758  24.286  1.00  0.00     0.045 A 
ATOM     16  C   UNL A   1      35.454  24.069  25.588  1.00  0.00     0.029 A 
ATOM     17  C   UNL A   1      35.840  22.934  23.484  1.00  0.00     0.029 A 
ATOM     18  C   UNL A   1      36.632  23.512  26.096  1.00  0.00     0.041 A 
ATOM     19  C   UNL A   1      37.029  22.402  23.985  1.00  0.00     0.041 A 
ATOM     20  C   UNL A   1      37.403  22.678  25.293  1.00  0.00     0.123 A 
ATOM     21  F   UNL A   1      38.511  22.117  25.795  1.00  0.00    -0.207 F 
ENDBRANCH  13  15
ENDBRANCH  10  13
ENDBRANCH   7   9
BRANCH   7  22
ATOM     22  C   UNL A   1      31.147  27.221  24.920  1.00  0.00     0.420 C 
ATOM     23  F   UNL A   1      30.364  28.168  24.372  1.00  0.00    -0.168 F 
ATOM     24  F   UNL A   1      30.590  26.015  24.638  1.00  0.00    -0.168 F 
ATOM     25  F   UNL A   1      31.036  27.328  26.273  1.00  0.00    -0.168 F 
ENDBRANCH   7  22
ENDBRANCH   4   7
ENDBRANCH   2   3
ENDBRANCH   1   2
BRANCH   1  26
ATOM     26  C   UNL A   1      31.490  32.023  26.812  1.00  0.00     0.023 C 
BRANCH  26  27
ATOM     27  C   UNL A   1      32.745  32.855  27.057  1.00  0.00     0.116 C 
BRANCH  27  28
ATOM     28  N   UNL A   1      32.451  34.159  27.627  1.00  0.00    -0.352 N 
ATOM     29  C   UNL A   1      33.026  34.802  28.692  1.00  0.00     0.251 C 
ATOM     30  H   UNL A   1      31.729  34.657  27.179  1.00  0.00     0.163 HD
ATOM     31  O   UNL A   1      32.524  35.842  29.118  1.00  0.00    -0.269 OA
BRANCH  29  32
ATOM     32  C   UNL A   1      34.223  34.243  29.352  1.00  0.00     0.039 A 
ATOM     33  C   UNL A   1      34.047  33.370  30.429  1.00  0.00     0.014 A 
ATOM     34  C   UNL A   1      35.513  34.576  28.927  1.00  0.00     0.014 A 
ATOM     35  C   UNL A   1      35.159  32.786  31.036  1.00  0.00     0.010 A 
ATOM     36  C   UNL A   1      36.615  33.925  29.476  1.00  0.00     0.010 A 
ATOM     37  C   UNL A   1      36.452  33.028  30.541  1.00  0.00    -0.014 A 
BRANCH  37  38
ATOM     38  C   UNL A   1      37.624  32.328  31.124  1.00  0.00     0.031 A 
ATOM     39  C   UNL A   1      38.107  32.653  32.509  1.00  0.00     0.074 A 
ATOM     40  C   UNL A   1      38.275  31.409  30.385  1.00  0.00     0.049 A 
ATOM     41  N   UNL A   1      39.077  32.103  33.199  1.00  0.00    -0.248 NA
ATOM     42  C   UNL A   1      37.431  33.758  33.203  1.00  0.00     0.031 C 
ATOM     43  C   UNL A   1      37.945  31.050  29.006  1.00  0.00     0.029 A 
ATOM     44  N   UNL A   1      39.340  30.601  30.695  1.00  0.00    -0.354 N 
ATOM     45  C   UNL A   1      39.125  32.795  34.402  1.00  0.00     0.074 A 
ATOM     46  C   UNL A   1      38.140  33.851  34.318  1.00  0.00     0.031 C 
ATOM     47  C   UNL A   1      38.749  30.053  28.608  1.00  0.00     0.029 A 
ATOM     48  C   UNL A   1      39.674  29.728  29.689  1.00  0.00     0.049 A 
ATOM     49  H   UNL A   1      39.817  30.642  31.555  1.00  0.00     0.167 HD
ATOM     50  C   UNL A   1      39.899  32.554  35.490  1.00  0.00     0.037 A 
ATOM     51  C   UNL A   1      40.611  28.762  29.649  1.00  0.00     0.037 A 
ATOM     52  C   UNL A   1      40.883  31.504  35.565  1.00  0.00     0.049 A 
ATOM     53  C   UNL A   1      41.469  28.524  30.860  1.00  0.00     0.074 A 
ATOM     54  C   UNL A   1      41.683  31.142  36.635  1.00  0.00     0.029 A 
ATOM     55  N   UNL A   1      41.211  30.652  34.518  1.00  0.00    -0.354 N 
ATOM     56  N   UNL A   1      41.448  29.124  32.025  1.00  0.00    -0.248 NA
ATOM     57  C   UNL A   1      42.476  27.461  30.748  1.00  0.00     0.031 C 
ATOM     58  C   UNL A   1      42.538  30.115  36.217  1.00  0.00     0.029 A 
ATOM     59  C   UNL A   1      42.226  29.788  34.906  1.00  0.00     0.049 A 
ATOM     60  H   UNL A   1      40.787  30.661  33.630  1.00  0.00     0.167 HD
ATOM     61  C   UNL A   1      42.418  28.498  32.795  1.00  0.00     0.074 A 
ATOM     62  C   UNL A   1      42.990  27.453  31.970  1.00  0.00     0.031 C 
ATOM     63  C   UNL A   1      42.801  28.763  34.070  1.00  0.00     0.037 A 
BRANCH  50  64
ATOM     64  C   UNL A   1      39.710  33.459  36.677  1.00  0.00     0.064 A 
ATOM     65  C   UNL A   1      38.839  33.129  37.729  1.00  0.00     0.173 A 
ATOM     66  C   UNL A   1      40.399  34.679  36.762  1.00  0.00     0.173 A 
ATOM     67  F   UNL A   1      38.147  31.980  37.698  1.00  0.00    -0.203 F 
ATOM     68  C   UNL A   1      38.624  34.008  38.788  1.00  0.00     0.198 A 
ATOM     69  C   UNL A   1      40.211  35.538  37.844  1.00  0.00     0.198 A 
ATOM     70  F   UNL A   1      41.251  35.045  35.794  1.00  0.00    -0.203 F 
ATOM     71  F   UNL A   1      37.726  33.704  39.737  1.00  0.00    -0.200 F 
ATOM     72  C   UNL A   1      39.312  35.209  38.847  1.00  0.00     0.200 A 
ATOM     73  F   UNL A   1      40.890  36.692  37.906  1.00  0.00    -0.200 F 
ATOM     74  F   UNL A   1      39.100  36.056  39.862  1.00  0.00    -0.200 F 
ENDBRANCH  50  64
BRANCH  51  75
ATOM     75  C   UNL A   1      40.736  27.908  28.441  1.00  0.00     0.064 A 
ATOM     76  C   UNL A   1      40.043  26.692  28.350  1.00  0.00     0.173 A 
ATOM     77  C   UNL A   1      41.526  28.291  27.348  1.00  0.00     0.173 A 
ATOM     78  F   UNL A   1      39.290  26.273  29.378  1.00  0.00    -0.203 F 
ATOM     79  C   UNL A   1      40.146  25.886  27.218  1.00  0.00     0.198 A 
ATOM     80  C   UNL A   1      41.605  27.499  26.204  1.00  0.00     0.198 A 
ATOM     81  F   UNL A   1      42.204  29.448  27.382  1.00  0.00    -0.203 F 
ATOM     82  F   UNL A   1      39.503  24.712  27.174  1.00  0.00    -0.200 F 
ATOM     83  C   UNL A   1      40.920  26.295  26.142  1.00  0.00     0.200 A 
ATOM     84  F   UNL A   1      42.341  27.904  25.161  1.00  0.00    -0.200 F 
ATOM     85  F   UNL A   1      41.009  25.525  25.050  1.00  0.00    -0.200 F 
ENDBRANCH  51  75
BRANCH  63  86
ATOM     86  C   UNL A   1      43.877  27.888  34.652  1.00  0.00     0.064 A 
ATOM     87  C   UNL A   1      45.233  28.249  34.603  1.00  0.00     0.173 A 
ATOM     88  C   UNL A   1      43.549  26.665  35.256  1.00  0.00     0.173 A 
ATOM     89  F   UNL A   1      45.605  29.402  34.024  1.00  0.00    -0.203 F 
ATOM     90  C   UNL A   1      46.221  27.397  35.089  1.00  0.00     0.198 A 
ATOM     91  C   UNL A   1      44.537  25.833  35.778  1.00  0.00     0.198 A 
ATOM     92  F   UNL A   1      42.270  26.272  35.340  1.00  0.00    -0.203 F 
ATOM     93  F   UNL A   1      47.513  27.729  34.959  1.00  0.00    -0.200 F 
ATOM     94  C   UNL A   1      45.872  26.192  35.679  1.00  0.00     0.200 A 
ATOM     95  F   UNL A   1      44.198  24.676  36.362  1.00  0.00    -0.200 F 
ATOM     96  F   UNL A   1      46.825  25.370  36.141  1.00  0.00    -0.200 F 
ENDBRANCH  63  86
ENDBRANCH  37  38
ENDBRANCH  29  32
ENDBRANCH  27  28
ENDBRANCH  26  27
ENDBRANCH   1  26
TORSDOF 15
ENDMDL
MODEL 3
REMARK VINA RESULT:     -12.2      0.148      1.972
REMARK SMILES CN(C(=O)N[C@@](C)(C(=O)NCCCCNC(=O)c1ccc(-c2c3nc(c(-c4c(F)c(F)c(F)c(F)c4F)c4ccc([nH]4)c(-c4c(F)c(F)c(F)c(F)c4F)c4nc(c(-c5c(F)c(F)c(F)c(F)c5F)c5ccc2[nH]5)C=C4)C=C3)cc1)C(F)(F)F)c1ccc(F)cc1
REMARK SMILES IDX 12 1 11 2 10 3 8 4 9 5 6 7 7 8 5 9 3 10 4 11 2 13 1 14 85 15
REMARK SMILES IDX 86 16 91 17 87 18 90 19 88 20 89 21 81 22 82 23 83 24 84 25
REMARK SMILES IDX 13 26 14 27 15 28 16 29 17 31 18 32 19 33 80 34 20 35 79 36
REMARK SMILES IDX 21 37 22 38 23 39 73 40 24 41 78 42 72 43 74 44 25 45 77 46
REMARK SMILES IDX 71 47 70 48 26 50 58 51 38 52 57 53 39 54 42 55 56 56 75 57
REMARK SMILES IDX 40 58 41 59 55 61 76 62 43 63 27 64 28 65 36 66 29 67 30 68
REMARK SMILES IDX 34 69 37 70 31 71 32 72 35 73 33 74 59 75 60 76 68 77 61 78
REMARK SMILES IDX 62 79 66 80 69 81 63 82 64 83 67 84 65 85 44 86 45 87 53 88
REMARK SMILES IDX 46 89 47 90 51 91 54 92 48 93 49 94 52 95 50 96
REMARK H PARENT 10 6 5 12 15 30 74 49 42 60
REMARK Flexibility Score: inf
ROOT
ATOM      1  C   UNL A   1      37.102  20.698  24.631  1.00  0.00     0.023 C 
ENDROOT
BRANCH   1   2
ATOM      2  C   UNL A   1      36.808  21.728  25.720  1.00  0.00     0.116 C 
BRANCH   2   3
ATOM      3  N   UNL A   1      35.622  21.369  26.474  1.00  0.00    -0.354 N 
ATOM      4  C   UNL A   1      34.340  21.817  26.515  1.00  0.00     0.255 C 
ATOM      5  O   UNL A   1      33.665  21.292  27.407  1.00  0.00    -0.272 OA
ATOM      6  H   UNL A   1      35.783  20.628  27.102  1.00  0.00     0.163 HD
BRANCH   4   7
ATOM      7  C   UNL A   1      33.773  22.922  25.585  1.00  0.00     0.213 C 
ATOM      8  C   UNL A   1      34.808  24.027  25.293  1.00  0.00     0.056 C 
BRANCH   7   9
ATOM      9  N   UNL A   1      32.637  23.554  26.360  1.00  0.00    -0.316 N 
ATOM     10  C   UNL A   1      31.744  24.552  26.417  1.00  0.00     0.322 C 
ATOM     11  O   UNL A   1      30.816  24.290  27.195  1.00  0.00    -0.248 OA
ATOM     12  H   UNL A   1      32.494  22.998  27.160  1.00  0.00     0.166 HD
BRANCH  10  13
ATOM     13  N   UNL A   1      31.818  25.724  25.726  1.00  0.00    -0.298 N 
ATOM     14  C   UNL A   1      31.688  25.875  24.290  1.00  0.00     0.155 C 
BRANCH  13  15
ATOM     15  C   UNL A   1      32.331  26.911  26.353  1.00  0.00     0.045 A 
ATOM     16  C   UNL A   1      33.678  27.277  26.215  1.00  0.00     0.029 A 
ATOM     17  C   UNL A   1      31.435  27.813  26.950  1.00  0.00     0.029 A 
ATOM     18  C   UNL A   1      34.105  28.547  26.615  1.00  0.00     0.041 A 
ATOM     19  C   UNL A   1      31.870  29.070  27.373  1.00  0.00     0.041 A 
ATOM     20  C   UNL A   1      33.196  29.433  27.181  1.00  0.00     0.123 A 
ATOM     21  F   UNL A   1      33.599  30.662  27.529  1.00  0.00    -0.207 F 
ENDBRANCH  13  15
ENDBRANCH  10  13
ENDBRANCH   7   9
BRANCH   7  22
ATOM     22  C   UNL A   1      33.571  22.168  24.249  1.00  0.00     0.420 C 
ATOM     23  F   UNL A   1      32.463  22.528  23.575  1.00  0.00    -0.168 F 
ATOM     24  F   UNL A   1      34.630  22.335  23.416  1.00  0.00    -0.168 F 
ATOM     25  F   UNL A   1      33.514  20.822  24.445  1.00  0.00    -0.168 F 
ENDBRANCH   7  22
ENDBRANCH   4   7
ENDBRANCH   2   3
ENDBRANCH   1   2
BRANCH   1  26
ATOM     26  C   UNL A   1      38.108  19.608  25.011  1.00  0.00     0.023 C 
BRANCH  26  27
ATOM     27  C   UNL A   1      39.291  20.074  25.853  1.00  0.00     0.116 C 
BRANCH  27  28
ATOM     28  N   UNL A   1      40.387  19.120  25.856  1.00  0.00    -0.352 N 
ATOM     29  C   UNL A   1      41.726  19.321  26.071  1.00  0.00     0.251 C 
ATOM     30  H   UNL A   1      40.128  18.186  25.678  1.00  0.00     0.163 HD
ATOM     31  O   UNL A   1      42.519  18.400  25.873  1.00  0.00    -0.269 OA
BRANCH  29  32
ATOM     32  C   UNL A   1      42.229  20.640  26.507  1.00  0.00     0.039 A 
ATOM     33  C   UNL A   1      42.655  21.548  25.535  1.00  0.00     0.014 A 
ATOM     34  C   UNL A   1      42.292  20.984  27.860  1.00  0.00     0.014 A 
ATOM     35  C   UNL A   1      43.084  22.819  25.916  1.00  0.00     0.010 A 
ATOM     36  C   UNL A   1      42.637  22.282  28.232  1.00  0.00     0.010 A 
ATOM     37  C   UNL A   1      43.043  23.212  27.265  1.00  0.00    -0.014 A 
BRANCH  37  38
ATOM     38  C   UNL A   1      43.406  24.597  27.657  1.00  0.00     0.031 A 
ATOM     39  C   UNL A   1      44.838  25.051  27.658  1.00  0.00     0.074 A 
ATOM     40  C   UNL A   1      42.434  25.447  28.041  1.00  0.00     0.049 A 
ATOM     41  N   UNL A   1      45.332  26.237  27.915  1.00  0.00    -0.248 NA
ATOM     42  C   UNL A   1      45.854  24.032  27.357  1.00  0.00     0.031 C 
ATOM     43  C   UNL A   1      41.013  25.110  28.144  1.00  0.00     0.029 A 
ATOM     44  N   UNL A   1      42.490  26.769  28.402  1.00  0.00    -0.354 N 
ATOM     45  C   UNL A   1      46.710  26.106  27.807  1.00  0.00     0.074 A 
ATOM     46  C   UNL A   1      46.978  24.710  27.536  1.00  0.00     0.031 C 
ATOM     47  C   UNL A   1      40.326  26.211  28.484  1.00  0.00     0.029 A 
ATOM     48  C   UNL A   1      41.258  27.320  28.657  1.00  0.00     0.049 A 
ATOM     49  H   UNL A   1      43.332  27.275  28.471  1.00  0.00     0.167 HD
ATOM     50  C   UNL A   1      47.665  27.065  27.896  1.00  0.00     0.037 A 
ATOM     51  C   UNL A   1      40.917  28.581  28.979  1.00  0.00     0.037 A 
ATOM     52  C   UNL A   1      47.392  28.453  28.172  1.00  0.00     0.049 A 
ATOM     53  C   UNL A   1      41.993  29.626  29.088  1.00  0.00     0.074 A 
ATOM     54  C   UNL A   1      48.279  29.514  28.234  1.00  0.00     0.029 A 
ATOM     55  N   UNL A   1      46.133  28.971  28.448  1.00  0.00    -0.354 N 
ATOM     56  N   UNL A   1      43.285  29.511  28.898  1.00  0.00    -0.248 NA
ATOM     57  C   UNL A   1      41.555  30.980  29.449  1.00  0.00     0.031 C 
ATOM     58  C   UNL A   1      47.567  30.660  28.608  1.00  0.00     0.029 A 
ATOM     59  C   UNL A   1      46.224  30.331  28.714  1.00  0.00     0.049 A 
ATOM     60  H   UNL A   1      45.298  28.450  28.455  1.00  0.00     0.167 HD
ATOM     61  C   UNL A   1      43.813  30.780  29.090  1.00  0.00     0.074 A 
ATOM     62  C   UNL A   1      42.695  31.653  29.386  1.00  0.00     0.031 C 
ATOM     63  C   UNL A   1      45.107  31.187  29.025  1.00  0.00     0.037 A 
BRANCH  50  64
ATOM     64  C   UNL A   1      49.092  26.630  27.702  1.00  0.00     0.064 A 
ATOM     65  C   UNL A   1      49.641  26.438  26.423  1.00  0.00     0.173 A 
ATOM     66  C   UNL A   1      49.922  26.389  28.809  1.00  0.00     0.173 A 
ATOM     67  F   UNL A   1      48.892  26.644  25.329  1.00  0.00    -0.203 F 
ATOM     68  C   UNL A   1      50.943  25.970  26.261  1.00  0.00     0.198 A 
ATOM     69  C   UNL A   1      51.237  25.958  28.642  1.00  0.00     0.198 A 
ATOM     70  F   UNL A   1      49.457  26.563  30.054  1.00  0.00    -0.203 F 
ATOM     71  F   UNL A   1      51.415  25.719  25.031  1.00  0.00    -0.200 F 
ATOM     72  C   UNL A   1      51.740  25.733  27.369  1.00  0.00     0.200 A 
ATOM     73  F   UNL A   1      52.011  25.746  29.714  1.00  0.00    -0.200 F 
ATOM     74  F   UNL A   1      52.990  25.277  27.213  1.00  0.00    -0.200 F 
ENDBRANCH  50  64
BRANCH  51  75
ATOM     75  C   UNL A   1      39.485  28.936  29.153  1.00  0.00     0.064 A 
ATOM     76  C   UNL A   1      38.868  28.824  30.407  1.00  0.00     0.173 A 
ATOM     77  C   UNL A   1      38.710  29.410  28.085  1.00  0.00     0.173 A 
ATOM     78  F   UNL A   1      39.563  28.358  31.455  1.00  0.00    -0.203 F 
ATOM     79  C   UNL A   1      37.528  29.162  30.584  1.00  0.00     0.198 A 
ATOM     80  C   UNL A   1      37.379  29.775  28.268  1.00  0.00     0.198 A 
ATOM     81  F   UNL A   1      39.256  29.540  26.866  1.00  0.00    -0.203 F 
ATOM     82  F   UNL A   1      36.955  29.011  31.784  1.00  0.00    -0.200 F 
ATOM     83  C   UNL A   1      36.787  29.645  29.516  1.00  0.00     0.200 A 
ATOM     84  F   UNL A   1      36.670  30.257  27.239  1.00  0.00    -0.200 F 
ATOM     85  F   UNL A   1      35.501  29.981  29.689  1.00  0.00    -0.200 F 
ENDBRANCH  51  75
BRANCH  63  86
ATOM     86  C   UNL A   1      45.371  32.649  29.261  1.00  0.00     0.064 A 
ATOM     87  C   UNL A   1      45.340  33.585  28.215  1.00  0.00     0.173 A 
ATOM     88  C   UNL A   1      45.670  33.119  30.548  1.00  0.00     0.173 A 
ATOM     89  F   UNL A   1      45.073  33.188  26.960  1.00  0.00    -0.203 F 
ATOM     90  C   UNL A   1      45.650  34.924  28.440  1.00  0.00     0.198 A 
ATOM     91  C   UNL A   1      45.940  34.466  30.777  1.00  0.00     0.198 A 
ATOM     92  F   UNL A   1      45.704  32.273  31.588  1.00  0.00    -0.203 F 
ATOM     93  F   UNL A   1      45.691  35.782  27.411  1.00  0.00    -0.200 F 
ATOM     94  C   UNL A   1      45.946  35.364  29.721  1.00  0.00     0.200 A 
ATOM     95  F   UNL A   1      46.209  34.893  32.018  1.00  0.00    -0.200 F 
ATOM     96  F   UNL A   1      46.250  36.652  29.935  1.00  0.00    -0.200 F 
ENDBRANCH  63  86
ENDBRANCH  37  38
ENDBRANCH  29  32
ENDBRANCH  27  28
ENDBRANCH  26  27
ENDBRANCH   1  26
TORSDOF 15
ENDMDL
