MODEL 1
REMARK VINA RESULT:     -11.8      0.000      0.000
REMARK SMILES CC(C)[C@H](NC(=O)CCNC(=O)c1ccoc1)C(=O)NCCCCNC(=O)c1ccc(-c2c3nc(c(-c4c(F)c(F)c(F)c(F)c4F)c4ccc([nH]4)c(-c4c(F)c(F)c(F)c(F)c4F)c4nc(c(-c5c(F)c(F)c(F)c(F)c5F)c5ccc2[nH]5)C=C4)C=C3)cc1
REMARK SMILES IDX 21 1 20 2 18 3 19 4 4 6 2 7 1 8 3 9 5 10 6 11 7 13 8 14 9 15
REMARK SMILES IDX 10 16 11 17 12 19 13 20 14 21 17 22 15 23 16 24 22 25 23 26
REMARK SMILES IDX 24 27 25 28 26 29 27 31 28 32 29 33 90 34 30 35 89 36 31 37
REMARK SMILES IDX 32 38 33 39 83 40 34 41 88 42 82 43 84 44 35 45 87 46 81 47
REMARK SMILES IDX 80 48 36 50 68 51 48 52 67 53 49 54 52 55 66 56 85 57 50 58
REMARK SMILES IDX 51 59 65 61 86 62 53 63 37 64 38 65 46 66 39 67 40 68 44 69
REMARK SMILES IDX 47 70 41 71 42 72 45 73 43 74 69 75 70 76 78 77 71 78 72 79
REMARK SMILES IDX 76 80 79 81 73 82 74 83 77 84 75 85 54 86 55 87 63 88 56 89
REMARK SMILES IDX 57 90 61 91 64 92 58 93 59 94 62 95 60 96
REMARK H PARENT 20 5 5 12 10 18 25 30 84 49 52 60
REMARK Flexibility Score: inf
ROOT
ATOM      1  C   UNL A   1      36.536  22.179  25.259  1.00  0.00     0.116 C 
ENDROOT
BRANCH   1   2
ATOM      2  N   UNL A   1      35.894  22.701  26.453  1.00  0.00    -0.354 N 
ATOM      3  C   UNL A   1      34.588  23.087  26.627  1.00  0.00     0.242 C 
ATOM      4  O   UNL A   1      34.032  22.686  27.654  1.00  0.00    -0.273 OA
ATOM      5  H   UNL A   1      36.473  22.790  27.244  1.00  0.00     0.163 HD
BRANCH   3   6
ATOM      6  C   UNL A   1      33.870  24.110  25.678  1.00  0.00     0.173 C 
BRANCH   6   7
ATOM      7  C   UNL A   1      32.979  25.217  26.312  1.00  0.00     0.015 C 
ATOM      8  C   UNL A   1      33.198  26.644  25.809  1.00  0.00     0.010 C 
ATOM      9  C   UNL A   1      31.490  24.858  26.181  1.00  0.00     0.010 C 
ENDBRANCH   6   7
BRANCH   6  10
ATOM     10  N   UNL A   1      33.347  23.474  24.452  1.00  0.00    -0.344 N 
ATOM     11  C   UNL A   1      32.819  22.278  24.098  1.00  0.00     0.222 C 
ATOM     12  H   UNL A   1      33.396  24.086  23.682  1.00  0.00     0.164 HD
ATOM     13  O   UNL A   1      32.792  22.027  22.889  1.00  0.00    -0.275 OA
BRANCH  11  14
ATOM     14  C   UNL A   1      32.271  21.267  25.081  1.00  0.00     0.121 C 
BRANCH  14  15
ATOM     15  C   UNL A   1      32.789  19.837  24.918  1.00  0.00     0.126 C 
BRANCH  15  16
ATOM     16  N   UNL A   1      32.534  19.247  23.612  1.00  0.00    -0.351 N 
ATOM     17  C   UNL A   1      32.781  17.995  23.133  1.00  0.00     0.254 C 
ATOM     18  H   UNL A   1      32.111  19.856  22.965  1.00  0.00     0.163 HD
ATOM     19  O   UNL A   1      32.361  17.686  22.023  1.00  0.00    -0.269 OA
BRANCH  17  20
ATOM     20  C   UNL A   1      33.526  17.093  23.957  1.00  0.00     0.077 A 
ATOM     21  C   UNL A   1      34.886  17.151  24.354  1.00  0.00     0.056 A 
ATOM     22  C   UNL A   1      32.991  15.989  24.584  1.00  0.00     0.208 A 
ATOM     23  C   UNL A   1      35.085  16.074  25.185  1.00  0.00     0.195 A 
ATOM     24  O   UNL A   1      33.938  15.358  25.321  1.00  0.00    -0.472 OA
ENDBRANCH  17  20
ENDBRANCH  15  16
ENDBRANCH  14  15
ENDBRANCH  11  14
ENDBRANCH   6  10
ENDBRANCH   3   6
ENDBRANCH   1   2
BRANCH   1  25
ATOM     25  C   UNL A   1      36.604  20.660  25.150  1.00  0.00     0.023 C 
BRANCH  25  26
ATOM     26  C   UNL A   1      37.990  20.118  24.763  1.00  0.00     0.023 C 
BRANCH  26  27
ATOM     27  C   UNL A   1      39.143  20.264  25.762  1.00  0.00     0.116 C 
BRANCH  27  28
ATOM     28  N   UNL A   1      40.141  19.212  25.715  1.00  0.00    -0.352 N 
ATOM     29  C   UNL A   1      41.478  19.259  26.061  1.00  0.00     0.251 C 
ATOM     30  H   UNL A   1      39.820  18.341  25.391  1.00  0.00     0.163 HD
ATOM     31  O   UNL A   1      42.168  18.248  25.949  1.00  0.00    -0.269 OA
BRANCH  29  32
ATOM     32  C   UNL A   1      42.120  20.524  26.512  1.00  0.00     0.039 A 
ATOM     33  C   UNL A   1      42.617  21.396  25.536  1.00  0.00     0.014 A 
ATOM     34  C   UNL A   1      42.235  20.873  27.860  1.00  0.00     0.014 A 
ATOM     35  C   UNL A   1      43.132  22.646  25.903  1.00  0.00     0.010 A 
ATOM     36  C   UNL A   1      42.690  22.146  28.222  1.00  0.00     0.010 A 
ATOM     37  C   UNL A   1      43.125  23.056  27.248  1.00  0.00    -0.014 A 
BRANCH  37  38
ATOM     38  C   UNL A   1      43.496  24.451  27.614  1.00  0.00     0.031 A 
ATOM     39  C   UNL A   1      44.928  24.911  27.618  1.00  0.00     0.074 A 
ATOM     40  C   UNL A   1      42.528  25.309  27.998  1.00  0.00     0.049 A 
ATOM     41  N   UNL A   1      45.414  26.102  27.876  1.00  0.00    -0.248 NA
ATOM     42  C   UNL A   1      45.952  23.900  27.320  1.00  0.00     0.031 C 
ATOM     43  C   UNL A   1      41.108  24.976  28.124  1.00  0.00     0.029 A 
ATOM     44  N   UNL A   1      42.589  26.635  28.357  1.00  0.00    -0.354 N 
ATOM     45  C   UNL A   1      46.793  25.983  27.774  1.00  0.00     0.074 A 
ATOM     46  C   UNL A   1      47.071  24.591  27.484  1.00  0.00     0.031 C 
ATOM     47  C   UNL A   1      40.429  26.073  28.495  1.00  0.00     0.029 A 
ATOM     48  C   UNL A   1      41.365  27.182  28.655  1.00  0.00     0.049 A 
ATOM     49  H   UNL A   1      43.431  27.144  28.396  1.00  0.00     0.167 HD
ATOM     50  C   UNL A   1      47.741  26.945  27.889  1.00  0.00     0.037 A 
ATOM     51  C   UNL A   1      41.028  28.438  29.005  1.00  0.00     0.037 A 
ATOM     52  C   UNL A   1      47.470  28.335  28.163  1.00  0.00     0.049 A 
ATOM     53  C   UNL A   1      42.093  29.498  29.083  1.00  0.00     0.074 A 
ATOM     54  C   UNL A   1      48.360  29.393  28.231  1.00  0.00     0.029 A 
ATOM     55  N   UNL A   1      46.212  28.859  28.421  1.00  0.00    -0.354 N 
ATOM     56  N   UNL A   1      43.383  29.391  28.883  1.00  0.00    -0.248 NA
ATOM     57  C   UNL A   1      41.648  30.858  29.416  1.00  0.00     0.031 C 
ATOM     58  C   UNL A   1      47.648  30.550  28.567  1.00  0.00     0.029 A 
ATOM     59  C   UNL A   1      46.305  30.221  28.664  1.00  0.00     0.049 A 
ATOM     60  H   UNL A   1      45.375  28.341  28.430  1.00  0.00     0.167 HD
ATOM     61  C   UNL A   1      43.900  30.670  29.040  1.00  0.00     0.074 A 
ATOM     62  C   UNL A   1      42.781  31.541  29.331  1.00  0.00     0.031 C 
ATOM     63  C   UNL A   1      45.187  31.083  28.950  1.00  0.00     0.037 A 
BRANCH  50  64
ATOM     64  C   UNL A   1      49.174  26.534  27.706  1.00  0.00     0.064 A 
ATOM     65  C   UNL A   1      49.731  26.372  26.428  1.00  0.00     0.173 A 
ATOM     66  C   UNL A   1      50.012  26.344  28.815  1.00  0.00     0.173 A 
ATOM     67  F   UNL A   1      48.971  26.535  25.335  1.00  0.00    -0.203 F 
ATOM     68  C   UNL A   1      51.066  26.008  26.269  1.00  0.00     0.198 A 
ATOM     69  C   UNL A   1      51.353  26.008  28.651  1.00  0.00     0.198 A 
ATOM     70  F   UNL A   1      49.533  26.495  30.059  1.00  0.00    -0.203 F 
ATOM     71  F   UNL A   1      51.563  25.815  25.040  1.00  0.00    -0.200 F 
ATOM     72  C   UNL A   1      51.877  25.833  27.380  1.00  0.00     0.200 A 
ATOM     73  F   UNL A   1      52.140  25.852  29.726  1.00  0.00    -0.200 F 
ATOM     74  F   UNL A   1      53.164  25.490  27.224  1.00  0.00    -0.200 F 
ENDBRANCH  50  64
BRANCH  51  75
ATOM     75  C   UNL A   1      39.603  28.779  29.252  1.00  0.00     0.064 A 
ATOM     76  C   UNL A   1      38.788  29.260  28.217  1.00  0.00     0.173 A 
ATOM     77  C   UNL A   1      39.029  28.636  30.524  1.00  0.00     0.173 A 
ATOM     78  F   UNL A   1      39.300  29.432  26.990  1.00  0.00    -0.203 F 
ATOM     79  C   UNL A   1      37.459  29.604  28.449  1.00  0.00     0.198 A 
ATOM     80  C   UNL A   1      37.692  28.955  30.748  1.00  0.00     0.198 A 
ATOM     81  F   UNL A   1      39.765  28.175  31.545  1.00  0.00    -0.203 F 
ATOM     82  F   UNL A   1      36.716  30.103  27.452  1.00  0.00    -0.200 F 
ATOM     83  C   UNL A   1      36.910  29.446  29.712  1.00  0.00     0.200 A 
ATOM     84  F   UNL A   1      37.160  28.789  31.966  1.00  0.00    -0.200 F 
ATOM     85  F   UNL A   1      35.629  29.775  29.934  1.00  0.00    -0.200 F 
ENDBRANCH  51  75
BRANCH  63  86
ATOM     86  C   UNL A   1      45.450  32.550  29.139  1.00  0.00     0.064 A 
ATOM     87  C   UNL A   1      45.743  33.091  30.399  1.00  0.00     0.173 A 
ATOM     88  C   UNL A   1      45.415  33.424  28.042  1.00  0.00     0.173 A 
ATOM     89  F   UNL A   1      45.773  32.300  31.483  1.00  0.00    -0.203 F 
ATOM     90  C   UNL A   1      45.955  34.458  30.561  1.00  0.00     0.198 A 
ATOM     91  C   UNL A   1      45.655  34.786  28.202  1.00  0.00     0.198 A 
ATOM     92  F   UNL A   1      45.145  32.958  26.814  1.00  0.00    -0.203 F 
ATOM     93  F   UNL A   1      46.175  34.960  31.784  1.00  0.00    -0.200 F 
ATOM     94  C   UNL A   1      45.915  35.303  29.462  1.00  0.00     0.200 A 
ATOM     95  F   UNL A   1      45.627  35.601  27.138  1.00  0.00    -0.200 F 
ATOM     96  F   UNL A   1      46.116  36.620  29.620  1.00  0.00    -0.200 F 
ENDBRANCH  63  86
ENDBRANCH  37  38
ENDBRANCH  29  32
ENDBRANCH  27  28
ENDBRANCH  26  27
ENDBRANCH  25  26
ENDBRANCH   1  25
TORSDOF 17
ENDMDL
MODEL 2
REMARK VINA RESULT:     -11.6      0.752      7.446
REMARK SMILES CC(C)[C@H](NC(=O)CCNC(=O)c1ccoc1)C(=O)NCCCCNC(=O)c1ccc(-c2c3nc(c(-c4c(F)c(F)c(F)c(F)c4F)c4ccc([nH]4)c(-c4c(F)c(F)c(F)c(F)c4F)c4nc(c(-c5c(F)c(F)c(F)c(F)c5F)c5ccc2[nH]5)C=C4)C=C3)cc1
REMARK SMILES IDX 21 1 20 2 18 3 19 4 4 6 2 7 1 8 3 9 5 10 6 11 7 13 8 14 9 15
REMARK SMILES IDX 10 16 11 17 12 19 13 20 14 21 17 22 15 23 16 24 22 25 23 26
REMARK SMILES IDX 24 27 25 28 26 29 27 31 28 32 29 33 90 34 30 35 89 36 31 37
REMARK SMILES IDX 32 38 33 39 83 40 34 41 88 42 82 43 84 44 35 45 87 46 81 47
REMARK SMILES IDX 80 48 36 50 68 51 48 52 67 53 49 54 52 55 66 56 85 57 50 58
REMARK SMILES IDX 51 59 65 61 86 62 53 63 37 64 38 65 46 66 39 67 40 68 44 69
REMARK SMILES IDX 47 70 41 71 42 72 45 73 43 74 69 75 70 76 78 77 71 78 72 79
REMARK SMILES IDX 76 80 79 81 73 82 74 83 77 84 75 85 54 86 55 87 63 88 56 89
REMARK SMILES IDX 57 90 61 91 64 92 58 93 59 94 62 95 60 96
REMARK H PARENT 20 5 5 12 10 18 25 30 84 49 52 60
REMARK Flexibility Score: inf
ROOT
ATOM      1  C   UNL A   1      36.595  22.117  25.199  1.00  0.00     0.116 C 
ENDROOT
BRANCH   1   2
ATOM      2  N   UNL A   1      35.969  22.679  26.384  1.00  0.00    -0.354 N 
ATOM      3  C   UNL A   1      34.685  23.139  26.542  1.00  0.00     0.242 C 
ATOM      4  O   UNL A   1      34.096  22.774  27.564  1.00  0.00    -0.273 OA
ATOM      5  H   UNL A   1      36.544  22.739  27.181  1.00  0.00     0.163 HD
BRANCH   3   6
ATOM      6  C   UNL A   1      34.037  24.197  25.580  1.00  0.00     0.173 C 
BRANCH   6   7
ATOM      7  C   UNL A   1      33.209  25.359  26.200  1.00  0.00     0.015 C 
ATOM      8  C   UNL A   1      33.608  26.778  25.792  1.00  0.00     0.010 C 
ATOM      9  C   UNL A   1      31.709  25.159  25.934  1.00  0.00     0.010 C 
ENDBRANCH   6   7
BRANCH   6  10
ATOM     10  N   UNL A   1      33.487  23.585  24.354  1.00  0.00    -0.344 N 
ATOM     11  C   UNL A   1      32.928  22.405  23.994  1.00  0.00     0.222 C 
ATOM     12  H   UNL A   1      33.542  24.203  23.589  1.00  0.00     0.164 HD
ATOM     13  O   UNL A   1      32.882  22.166  22.784  1.00  0.00    -0.275 OA
BRANCH  11  14
ATOM     14  C   UNL A   1      32.367  21.397  24.974  1.00  0.00     0.121 C 
BRANCH  14  15
ATOM     15  C   UNL A   1      32.852  19.958  24.792  1.00  0.00     0.126 C 
BRANCH  15  16
ATOM     16  N   UNL A   1      32.541  19.374  23.495  1.00  0.00    -0.351 N 
ATOM     17  C   UNL A   1      32.611  18.086  23.054  1.00  0.00     0.254 C 
ATOM     18  H   UNL A   1      32.226  20.020  22.823  1.00  0.00     0.163 HD
ATOM     19  O   UNL A   1      32.174  17.810  21.942  1.00  0.00    -0.269 OA
BRANCH  17  20
ATOM     20  C   UNL A   1      33.197  17.108  23.920  1.00  0.00     0.077 A 
ATOM     21  C   UNL A   1      32.627  16.429  25.027  1.00  0.00     0.056 A 
ATOM     22  C   UNL A   1      34.466  16.597  23.769  1.00  0.00     0.208 A 
ATOM     23  C   UNL A   1      33.592  15.561  25.477  1.00  0.00     0.195 A 
ATOM     24  O   UNL A   1      34.718  15.665  24.721  1.00  0.00    -0.472 OA
ENDBRANCH  17  20
ENDBRANCH  15  16
ENDBRANCH  14  15
ENDBRANCH  11  14
ENDBRANCH   6  10
ENDBRANCH   3   6
ENDBRANCH   1   2
BRANCH   1  25
ATOM     25  C   UNL A   1      36.641  20.594  25.131  1.00  0.00     0.023 C 
BRANCH  25  26
ATOM     26  C   UNL A   1      38.029  20.021  24.803  1.00  0.00     0.023 C 
BRANCH  26  27
ATOM     27  C   UNL A   1      39.146  20.160  25.843  1.00  0.00     0.116 C 
BRANCH  27  28
ATOM     28  N   UNL A   1      40.143  19.105  25.827  1.00  0.00    -0.352 N 
ATOM     29  C   UNL A   1      41.493  19.172  26.111  1.00  0.00     0.251 C 
ATOM     30  H   UNL A   1      39.809  18.214  25.578  1.00  0.00     0.163 HD
ATOM     31  O   UNL A   1      42.178  18.155  26.041  1.00  0.00    -0.269 OA
BRANCH  29  32
ATOM     32  C   UNL A   1      42.153  20.464  26.445  1.00  0.00     0.039 A 
ATOM     33  C   UNL A   1      42.677  21.228  25.395  1.00  0.00     0.014 A 
ATOM     34  C   UNL A   1      42.259  20.942  27.754  1.00  0.00     0.014 A 
ATOM     35  C   UNL A   1      43.210  22.499  25.645  1.00  0.00     0.010 A 
ATOM     36  C   UNL A   1      42.733  22.236  27.996  1.00  0.00     0.010 A 
ATOM     37  C   UNL A   1      43.195  23.039  26.943  1.00  0.00    -0.014 A 
BRANCH  37  38
ATOM     38  C   UNL A   1      43.587  24.457  27.177  1.00  0.00     0.031 A 
ATOM     39  C   UNL A   1      42.591  25.485  27.639  1.00  0.00     0.074 A 
ATOM     40  C   UNL A   1      44.856  24.838  26.921  1.00  0.00     0.049 A 
ATOM     41  N   UNL A   1      42.781  26.751  27.925  1.00  0.00    -0.248 NA
ATOM     42  C   UNL A   1      41.196  25.044  27.774  1.00  0.00     0.031 C 
ATOM     43  C   UNL A   1      45.906  23.969  26.388  1.00  0.00     0.029 A 
ATOM     44  N   UNL A   1      45.479  26.054  27.071  1.00  0.00    -0.354 N 
ATOM     45  C   UNL A   1      41.534  27.256  28.269  1.00  0.00     0.074 A 
ATOM     46  C   UNL A   1      40.586  26.174  28.105  1.00  0.00     0.031 C 
ATOM     47  C   UNL A   1      47.048  24.666  26.289  1.00  0.00     0.029 A 
ATOM     48  C   UNL A   1      46.810  26.038  26.731  1.00  0.00     0.049 A 
ATOM     49  H   UNL A   1      45.016  26.861  27.393  1.00  0.00     0.167 HD
ATOM     50  C   UNL A   1      41.211  28.500  28.703  1.00  0.00     0.037 A 
ATOM     51  C   UNL A   1      47.740  27.010  26.780  1.00  0.00     0.037 A 
ATOM     52  C   UNL A   1      42.153  29.577  28.882  1.00  0.00     0.049 A 
ATOM     53  C   UNL A   1      47.366  28.369  27.306  1.00  0.00     0.074 A 
ATOM     54  C   UNL A   1      41.928  30.848  29.381  1.00  0.00     0.029 A 
ATOM     55  N   UNL A   1      43.501  29.509  28.563  1.00  0.00    -0.354 N 
ATOM     56  N   UNL A   1      46.203  28.802  27.725  1.00  0.00    -0.248 NA
ATOM     57  C   UNL A   1      48.442  29.366  27.384  1.00  0.00     0.031 C 
ATOM     58  C   UNL A   1      43.130  31.563  29.328  1.00  0.00     0.029 A 
ATOM     59  C   UNL A   1      44.116  30.722  28.838  1.00  0.00     0.049 A 
ATOM     60  H   UNL A   1      43.956  28.717  28.195  1.00  0.00     0.167 HD
ATOM     61  C   UNL A   1      46.411  30.111  28.141  1.00  0.00     0.074 A 
ATOM     62  C   UNL A   1      47.817  30.394  27.942  1.00  0.00     0.031 C 
ATOM     63  C   UNL A   1      45.516  30.996  28.641  1.00  0.00     0.037 A 
BRANCH  50  64
ATOM     64  C   UNL A   1      39.770  28.767  29.030  1.00  0.00     0.064 A 
ATOM     65  C   UNL A   1      39.261  28.554  30.321  1.00  0.00     0.173 A 
ATOM     66  C   UNL A   1      38.899  29.284  28.060  1.00  0.00     0.173 A 
ATOM     67  F   UNL A   1      40.051  28.055  31.284  1.00  0.00    -0.203 F 
ATOM     68  C   UNL A   1      37.927  28.823  30.619  1.00  0.00     0.198 A 
ATOM     69  C   UNL A   1      37.573  29.578  28.370  1.00  0.00     0.198 A 
ATOM     70  F   UNL A   1      39.335  29.515  26.813  1.00  0.00    -0.203 F 
ATOM     71  F   UNL A   1      37.454  28.569  31.847  1.00  0.00    -0.200 F 
ATOM     72  C   UNL A   1      37.087  29.340  29.646  1.00  0.00     0.200 A 
ATOM     73  F   UNL A   1      36.765  30.091  27.431  1.00  0.00    -0.200 F 
ATOM     74  F   UNL A   1      35.806  29.605  29.937  1.00  0.00    -0.200 F 
ENDBRANCH  50  64
BRANCH  51  75
ATOM     75  C   UNL A   1      49.138  26.717  26.371  1.00  0.00     0.064 A 
ATOM     76  C   UNL A   1      50.076  26.248  27.301  1.00  0.00     0.173 A 
ATOM     77  C   UNL A   1      49.565  26.903  25.048  1.00  0.00     0.173 A 
ATOM     78  F   UNL A   1      49.719  26.075  28.582  1.00  0.00    -0.203 F 
ATOM     79  C   UNL A   1      51.394  25.996  26.928  1.00  0.00     0.198 A 
ATOM     80  C   UNL A   1      50.876  26.625  24.670  1.00  0.00     0.198 A 
ATOM     81  F   UNL A   1      48.703  27.345  24.120  1.00  0.00    -0.203 F 
ATOM     82  F   UNL A   1      52.281  25.590  27.847  1.00  0.00    -0.200 F 
ATOM     83  C   UNL A   1      51.792  26.178  25.612  1.00  0.00     0.200 A 
ATOM     84  F   UNL A   1      51.254  26.789  23.396  1.00  0.00    -0.200 F 
ATOM     85  F   UNL A   1      53.060  25.931  25.253  1.00  0.00    -0.200 F 
ENDBRANCH  51  75
BRANCH  63  86
ATOM     86  C   UNL A   1      46.039  32.347  29.039  1.00  0.00     0.064 A 
ATOM     87  C   UNL A   1      46.059  33.424  28.141  1.00  0.00     0.173 A 
ATOM     88  C   UNL A   1      46.519  32.567  30.339  1.00  0.00     0.173 A 
ATOM     89  F   UNL A   1      45.625  33.261  26.881  1.00  0.00    -0.203 F 
ATOM     90  C   UNL A   1      46.575  34.662  28.518  1.00  0.00     0.198 A 
ATOM     91  C   UNL A   1      47.007  33.814  30.721  1.00  0.00     0.198 A 
ATOM     92  F   UNL A   1      46.517  31.574  31.239  1.00  0.00    -0.203 F 
ATOM     93  F   UNL A   1      46.637  35.659  27.625  1.00  0.00    -0.200 F 
ATOM     94  C   UNL A   1      47.044  34.857  29.807  1.00  0.00     0.200 A 
ATOM     95  F   UNL A   1      47.451  34.005  31.971  1.00  0.00    -0.200 F 
ATOM     96  F   UNL A   1      47.543  36.049  30.168  1.00  0.00    -0.200 F 
ENDBRANCH  63  86
ENDBRANCH  37  38
ENDBRANCH  29  32
ENDBRANCH  27  28
ENDBRANCH  26  27
ENDBRANCH  25  26
ENDBRANCH   1  25
TORSDOF 17
ENDMDL
MODEL 3
REMARK VINA RESULT:     -11.6      4.691      9.779
REMARK SMILES CC(C)[C@H](NC(=O)CCNC(=O)c1ccoc1)C(=O)NCCCCNC(=O)c1ccc(-c2c3nc(c(-c4c(F)c(F)c(F)c(F)c4F)c4ccc([nH]4)c(-c4c(F)c(F)c(F)c(F)c4F)c4nc(c(-c5c(F)c(F)c(F)c(F)c5F)c5ccc2[nH]5)C=C4)C=C3)cc1
REMARK SMILES IDX 21 1 20 2 18 3 19 4 4 6 2 7 1 8 3 9 5 10 6 11 7 13 8 14 9 15
REMARK SMILES IDX 10 16 11 17 12 19 13 20 14 21 17 22 15 23 16 24 22 25 23 26
REMARK SMILES IDX 24 27 25 28 26 29 27 31 28 32 29 33 90 34 30 35 89 36 31 37
REMARK SMILES IDX 32 38 33 39 83 40 34 41 88 42 82 43 84 44 35 45 87 46 81 47
REMARK SMILES IDX 80 48 36 50 68 51 48 52 67 53 49 54 52 55 66 56 85 57 50 58
REMARK SMILES IDX 51 59 65 61 86 62 53 63 37 64 38 65 46 66 39 67 40 68 44 69
REMARK SMILES IDX 47 70 41 71 42 72 45 73 43 74 69 75 70 76 78 77 71 78 72 79
REMARK SMILES IDX 76 80 79 81 73 82 74 83 77 84 75 85 54 86 55 87 63 88 56 89
REMARK SMILES IDX 57 90 61 91 64 92 58 93 59 94 62 95 60 96
REMARK H PARENT 20 5 5 12 10 18 25 30 84 49 52 60
REMARK Flexibility Score: inf
ROOT
ATOM      1  C   UNL A   1      30.722  28.955  23.995  1.00  0.00     0.116 C 
ENDROOT
BRANCH   1   2
ATOM      2  N   UNL A   1      29.899  27.914  23.403  1.00  0.00    -0.354 N 
ATOM      3  C   UNL A   1      29.557  26.689  23.921  1.00  0.00     0.242 C 
ATOM      4  O   UNL A   1      28.370  26.365  23.821  1.00  0.00    -0.273 OA
ATOM      5  H   UNL A   1      29.537  28.114  22.509  1.00  0.00     0.163 HD
BRANCH   3   6
ATOM      6  C   UNL A   1      30.620  25.671  24.468  1.00  0.00     0.173 C 
BRANCH   6   7
ATOM      7  C   UNL A   1      31.446  24.836  23.447  1.00  0.00     0.015 C 
ATOM      8  C   UNL A   1      30.948  23.419  23.160  1.00  0.00     0.010 C 
ATOM      9  C   UNL A   1      31.601  25.597  22.121  1.00  0.00     0.010 C 
ENDBRANCH   6   7
BRANCH   6  10
ATOM     10  N   UNL A   1      30.150  24.954  25.670  1.00  0.00    -0.344 N 
ATOM     11  C   UNL A   1      30.678  24.137  26.612  1.00  0.00     0.222 C 
ATOM     12  H   UNL A   1      29.191  25.112  25.830  1.00  0.00     0.164 HD
ATOM     13  O   UNL A   1      29.875  23.486  27.287  1.00  0.00    -0.275 OA
BRANCH  11  14
ATOM     14  C   UNL A   1      32.162  23.991  26.875  1.00  0.00     0.121 C 
BRANCH  14  15
ATOM     15  C   UNL A   1      32.643  22.572  27.180  1.00  0.00     0.126 C 
BRANCH  15  16
ATOM     16  N   UNL A   1      32.115  21.549  26.289  1.00  0.00    -0.351 N 
ATOM     17  C   UNL A   1      32.687  20.897  25.237  1.00  0.00     0.254 C 
ATOM     18  H   UNL A   1      31.186  21.284  26.478  1.00  0.00     0.163 HD
ATOM     19  O   UNL A   1      32.080  19.974  24.705  1.00  0.00    -0.269 OA
BRANCH  17  20
ATOM     20  C   UNL A   1      33.981  21.326  24.802  1.00  0.00     0.077 A 
ATOM     21  C   UNL A   1      34.349  22.498  24.093  1.00  0.00     0.056 A 
ATOM     22  C   UNL A   1      35.154  20.657  25.072  1.00  0.00     0.208 A 
ATOM     23  C   UNL A   1      35.718  22.454  23.973  1.00  0.00     0.195 A 
ATOM     24  O   UNL A   1      36.213  21.331  24.559  1.00  0.00    -0.472 OA
ENDBRANCH  17  20
ENDBRANCH  15  16
ENDBRANCH  14  15
ENDBRANCH  11  14
ENDBRANCH   6  10
ENDBRANCH   3   6
ENDBRANCH   1   2
BRANCH   1  25
ATOM     25  C   UNL A   1      32.221  28.843  23.738  1.00  0.00     0.023 C 
BRANCH  25  26
ATOM     26  C   UNL A   1      33.097  29.367  24.889  1.00  0.00     0.023 C 
BRANCH  26  27
ATOM     27  C   UNL A   1      32.446  29.619  26.253  1.00  0.00     0.116 C 
BRANCH  27  28
ATOM     28  N   UNL A   1      32.319  31.015  26.630  1.00  0.00    -0.352 N 
ATOM     29  C   UNL A   1      33.219  31.828  27.291  1.00  0.00     0.251 C 
ATOM     30  H   UNL A   1      31.470  31.443  26.379  1.00  0.00     0.163 HD
ATOM     31  O   UNL A   1      32.923  32.998  27.521  1.00  0.00    -0.269 OA
BRANCH  29  32
ATOM     32  C   UNL A   1      34.522  31.303  27.784  1.00  0.00     0.039 A 
ATOM     33  C   UNL A   1      35.579  32.207  27.946  1.00  0.00     0.014 A 
ATOM     34  C   UNL A   1      34.724  29.957  28.097  1.00  0.00     0.014 A 
ATOM     35  C   UNL A   1      36.789  31.784  28.509  1.00  0.00     0.010 A 
ATOM     36  C   UNL A   1      35.909  29.547  28.718  1.00  0.00     0.010 A 
ATOM     37  C   UNL A   1      36.949  30.459  28.951  1.00  0.00    -0.014 A 
BRANCH  37  38
ATOM     38  C   UNL A   1      38.162  30.059  29.717  1.00  0.00     0.031 A 
ATOM     39  C   UNL A   1      38.411  30.554  31.115  1.00  0.00     0.074 A 
ATOM     40  C   UNL A   1      39.083  29.271  29.124  1.00  0.00     0.049 A 
ATOM     41  N   UNL A   1      39.398  30.269  31.931  1.00  0.00    -0.248 NA
ATOM     42  C   UNL A   1      37.443  31.514  31.662  1.00  0.00     0.031 C 
ATOM     43  C   UNL A   1      39.014  28.785  27.745  1.00  0.00     0.029 A 
ATOM     44  N   UNL A   1      40.258  28.741  29.602  1.00  0.00    -0.354 N 
ATOM     45  C   UNL A   1      39.171  31.013  33.080  1.00  0.00     0.074 A 
ATOM     46  C   UNL A   1      37.983  31.804  32.837  1.00  0.00     0.031 C 
ATOM     47  C   UNL A   1      40.077  28.003  27.499  1.00  0.00     0.029 A 
ATOM     48  C   UNL A   1      40.914  27.947  28.694  1.00  0.00     0.049 A 
ATOM     49  H   UNL A   1      40.597  28.914  30.510  1.00  0.00     0.167 HD
ATOM     50  C   UNL A   1      39.875  31.023  34.240  1.00  0.00     0.037 A 
ATOM     51  C   UNL A   1      42.055  27.240  28.810  1.00  0.00     0.037 A 
ATOM     52  C   UNL A   1      41.050  30.226  34.492  1.00  0.00     0.049 A 
ATOM     53  C   UNL A   1      42.793  27.232  30.121  1.00  0.00     0.074 A 
ATOM     54  C   UNL A   1      41.788  30.120  35.659  1.00  0.00     0.029 A 
ATOM     55  N   UNL A   1      41.663  29.403  33.560  1.00  0.00    -0.354 N 
ATOM     56  N   UNL A   1      42.509  27.862  31.234  1.00  0.00    -0.248 NA
ATOM     57  C   UNL A   1      43.999  26.397  30.195  1.00  0.00     0.031 C 
ATOM     58  C   UNL A   1      42.869  29.263  35.422  1.00  0.00     0.029 A 
ATOM     59  C   UNL A   1      42.779  28.799  34.120  1.00  0.00     0.049 A 
ATOM     60  H   UNL A   1      41.352  29.267  32.635  1.00  0.00     0.167 HD
ATOM     61  C   UNL A   1      43.483  27.480  32.147  1.00  0.00     0.074 A 
ATOM     62  C   UNL A   1      44.354  26.547  31.463  1.00  0.00     0.031 C 
ATOM     63  C   UNL A   1      43.640  27.869  33.435  1.00  0.00     0.037 A 
BRANCH  50  64
ATOM     64  C   UNL A   1      39.384  31.918  35.341  1.00  0.00     0.064 A 
ATOM     65  C   UNL A   1      38.491  31.453  36.319  1.00  0.00     0.173 A 
ATOM     66  C   UNL A   1      39.845  33.239  35.449  1.00  0.00     0.173 A 
ATOM     67  F   UNL A   1      38.015  30.200  36.258  1.00  0.00    -0.203 F 
ATOM     68  C   UNL A   1      38.057  32.286  37.347  1.00  0.00     0.198 A 
ATOM     69  C   UNL A   1      39.430  34.059  36.495  1.00  0.00     0.198 A 
ATOM     70  F   UNL A   1      40.706  33.731  34.547  1.00  0.00    -0.203 F 
ATOM     71  F   UNL A   1      37.169  31.833  38.243  1.00  0.00    -0.200 F 
ATOM     72  C   UNL A   1      38.531  33.586  37.438  1.00  0.00     0.200 A 
ATOM     73  F   UNL A   1      39.900  35.312  36.589  1.00  0.00    -0.200 F 
ATOM     74  F   UNL A   1      38.117  34.383  38.433  1.00  0.00    -0.200 F 
ENDBRANCH  50  64
BRANCH  51  75
ATOM     75  C   UNL A   1      42.542  26.429  27.664  1.00  0.00     0.064 A 
ATOM     76  C   UNL A   1      43.482  26.949  26.763  1.00  0.00     0.173 A 
ATOM     77  C   UNL A   1      42.077  25.125  27.444  1.00  0.00     0.173 A 
ATOM     78  F   UNL A   1      43.939  28.200  26.922  1.00  0.00    -0.203 F 
ATOM     79  C   UNL A   1      43.924  26.203  25.674  1.00  0.00     0.198 A 
ATOM     80  C   UNL A   1      42.540  24.369  26.369  1.00  0.00     0.198 A 
ATOM     81  F   UNL A   1      41.181  24.581  28.281  1.00  0.00    -0.203 F 
ATOM     82  F   UNL A   1      44.789  26.741  24.803  1.00  0.00    -0.200 F 
ATOM     83  C   UNL A   1      43.457  24.912  25.480  1.00  0.00     0.200 A 
ATOM     84  F   UNL A   1      42.097  23.118  26.192  1.00  0.00    -0.200 F 
ATOM     85  F   UNL A   1      43.885  24.192  24.433  1.00  0.00    -0.200 F 
ENDBRANCH  51  75
BRANCH  63  86
ATOM     86  C   UNL A   1      44.781  27.261  34.200  1.00  0.00     0.064 A 
ATOM     87  C   UNL A   1      44.639  26.056  34.903  1.00  0.00     0.173 A 
ATOM     88  C   UNL A   1      46.035  27.890  34.223  1.00  0.00     0.173 A 
ATOM     89  F   UNL A   1      43.456  25.423  34.925  1.00  0.00    -0.203 F 
ATOM     90  C   UNL A   1      45.699  25.521  35.631  1.00  0.00     0.198 A 
ATOM     91  C   UNL A   1      47.101  27.338  34.928  1.00  0.00     0.198 A 
ATOM     92  F   UNL A   1      46.227  29.042  33.563  1.00  0.00    -0.203 F 
ATOM     93  F   UNL A   1      45.523  24.399  36.342  1.00  0.00    -0.200 F 
ATOM     94  C   UNL A   1      46.929  26.160  35.639  1.00  0.00     0.200 A 
ATOM     95  F   UNL A   1      48.293  27.951  34.927  1.00  0.00    -0.200 F 
ATOM     96  F   UNL A   1      47.948  25.646  36.344  1.00  0.00    -0.200 F 
ENDBRANCH  63  86
ENDBRANCH  37  38
ENDBRANCH  29  32
ENDBRANCH  27  28
ENDBRANCH  26  27
ENDBRANCH  25  26
ENDBRANCH   1  25
TORSDOF 17
ENDMDL
