MODEL 1
REMARK VINA RESULT:     -12.8      0.000      0.000
REMARK SMILES COc1c(N)cc(-c2ccccc2)cc1C(=O)NCCCCNC(=O)c1ccc(-c2c3nc(c(-c4c(F)c(F)c(F)c(F)c4F)c4ccc([nH]4)c(-c4c(F)c(F)c(F)c(F)c4F)c4nc(c(-c5c(F)c(F)c(F)c(F)c5F)c5ccc2[nH]5)C=C4)C=C3)cc1
REMARK SMILES IDX 21 1 20 2 19 3 18 4 16 5 17 6 15 8 3 9 4 10 6 11 14 12 7 13
REMARK SMILES IDX 2 14 1 15 5 16 8 19 9 20 13 21 10 22 12 23 11 24 22 25 23 26
REMARK SMILES IDX 24 27 25 29 26 30 27 31 88 32 28 33 87 34 29 35 30 36 31 37
REMARK SMILES IDX 81 38 32 39 86 40 80 41 82 42 33 43 85 44 79 45 78 46 34 48
REMARK SMILES IDX 66 49 46 50 65 51 47 52 50 53 64 54 83 55 48 56 49 57 63 59
REMARK SMILES IDX 84 60 51 61 35 62 36 63 44 64 37 65 38 66 42 67 45 68 39 69
REMARK SMILES IDX 40 70 43 71 41 72 67 73 68 74 76 75 69 76 70 77 74 78 77 79
REMARK SMILES IDX 71 80 72 81 75 82 73 83 52 84 53 85 61 86 54 87 55 88 59 89
REMARK SMILES IDX 62 90 56 91 57 92 60 93 58 94
REMARK H PARENT 18 7 5 17 5 18 23 28 82 47 50 58
REMARK Flexibility Score: inf
ROOT
ATOM      1  C   UNL A   1      31.578  31.856  26.708  1.00  0.00     0.023 C 
ENDROOT
BRANCH   1   2
ATOM      2  C   UNL A   1      31.780  30.344  26.614  1.00  0.00     0.023 C 
BRANCH   2   3
ATOM      3  C   UNL A   1      33.125  29.859  26.091  1.00  0.00     0.116 C 
BRANCH   3   4
ATOM      4  N   UNL A   1      33.275  29.790  24.662  1.00  0.00    -0.352 N 
ATOM      5  C   UNL A   1      33.019  28.730  23.817  1.00  0.00     0.255 C 
ATOM      6  O   UNL A   1      33.115  28.945  22.607  1.00  0.00    -0.269 OA
ATOM      7  H   UNL A   1      33.604  30.610  24.228  1.00  0.00     0.163 HD
BRANCH   5   8
ATOM      8  C   UNL A   1      32.741  27.330  24.274  1.00  0.00     0.084 A 
ATOM      9  C   UNL A   1      31.481  26.773  24.583  1.00  0.00     0.154 A 
ATOM     10  C   UNL A   1      31.385  25.398  24.900  1.00  0.00     0.076 A 
ATOM     11  C   UNL A   1      32.549  24.629  24.992  1.00  0.00     0.038 A 
ATOM     12  C   UNL A   1      33.885  26.489  24.292  1.00  0.00     0.026 A 
ATOM     13  C   UNL A   1      33.805  25.134  24.641  1.00  0.00    -0.015 A 
BRANCH   9  14
ATOM     14  O   UNL A   1      30.338  27.532  24.450  1.00  0.00    -0.494 OA
ATOM     15  C   UNL A   1      29.818  27.567  23.111  1.00  0.00     0.278 C 
ENDBRANCH   9  14
BRANCH  10  16
ATOM     16  N   UNL A   1      30.170  24.760  25.162  1.00  0.00    -0.396 N 
ATOM     17  H   UNL A   1      30.041  24.276  26.009  1.00  0.00     0.156 HD
ATOM     18  H   UNL A   1      29.442  24.795  24.500  1.00  0.00     0.156 HD
ENDBRANCH  10  16
BRANCH  13  19
ATOM     19  C   UNL A   1      34.959  24.218  24.592  1.00  0.00    -0.018 A 
ATOM     20  C   UNL A   1      35.821  24.113  25.702  1.00  0.00     0.009 A 
ATOM     21  C   UNL A   1      35.277  23.478  23.445  1.00  0.00     0.009 A 
ATOM     22  C   UNL A   1      36.976  23.331  25.659  1.00  0.00     0.001 A 
ATOM     23  C   UNL A   1      36.435  22.691  23.400  1.00  0.00     0.001 A 
ATOM     24  C   UNL A   1      37.287  22.626  24.501  1.00  0.00     0.000 A 
ENDBRANCH  13  19
ENDBRANCH   5   8
ENDBRANCH   3   4
ENDBRANCH   2   3
ENDBRANCH   1   2
BRANCH   1  25
ATOM     25  C   UNL A   1      32.730  32.678  27.282  1.00  0.00     0.116 C 
BRANCH  25  26
ATOM     26  N   UNL A   1      32.372  34.038  27.661  1.00  0.00    -0.352 N 
ATOM     27  C   UNL A   1      32.952  34.918  28.549  1.00  0.00     0.251 C 
ATOM     28  H   UNL A   1      31.576  34.390  27.203  1.00  0.00     0.163 HD
ATOM     29  O   UNL A   1      32.436  36.009  28.746  1.00  0.00    -0.269 OA
BRANCH  27  30
ATOM     30  C   UNL A   1      34.165  34.537  29.311  1.00  0.00     0.039 A 
ATOM     31  C   UNL A   1      34.011  34.032  30.606  1.00  0.00     0.014 A 
ATOM     32  C   UNL A   1      35.443  34.657  28.765  1.00  0.00     0.014 A 
ATOM     33  C   UNL A   1      35.121  33.539  31.300  1.00  0.00     0.010 A 
ATOM     34  C   UNL A   1      36.532  34.081  29.416  1.00  0.00     0.010 A 
ATOM     35  C   UNL A   1      36.382  33.499  30.684  1.00  0.00    -0.014 A 
BRANCH  35  36
ATOM     36  C   UNL A   1      37.544  32.827  31.325  1.00  0.00     0.031 A 
ATOM     37  C   UNL A   1      38.206  31.652  30.656  1.00  0.00     0.074 A 
ATOM     38  C   UNL A   1      37.939  33.207  32.558  1.00  0.00     0.049 A 
ATOM     39  N   UNL A   1      39.142  30.858  31.114  1.00  0.00    -0.248 NA
ATOM     40  C   UNL A   1      37.729  31.299  29.310  1.00  0.00     0.031 C 
ATOM     41  C   UNL A   1      37.341  34.287  33.345  1.00  0.00     0.029 A 
ATOM     42  N   UNL A   1      38.925  32.712  33.376  1.00  0.00    -0.354 N 
ATOM     43  C   UNL A   1      39.338  29.897  30.130  1.00  0.00     0.074 A 
ATOM     44  C   UNL A   1      38.401  30.184  29.066  1.00  0.00     0.031 C 
ATOM     45  C   UNL A   1      37.980  34.383  34.523  1.00  0.00     0.029 A 
ATOM     46  C   UNL A   1      39.005  33.348  34.592  1.00  0.00     0.049 A 
ATOM     47  H   UNL A   1      39.519  31.970  33.117  1.00  0.00     0.167 HD
ATOM     48  C   UNL A   1      40.232  28.881  30.109  1.00  0.00     0.037 A 
ATOM     49  C   UNL A   1      39.807  33.116  35.650  1.00  0.00     0.037 A 
ATOM     50  C   UNL A   1      41.206  28.633  31.137  1.00  0.00     0.049 A 
ATOM     51  C   UNL A   1      40.819  32.004  35.577  1.00  0.00     0.074 A 
ATOM     52  C   UNL A   1      42.219  27.689  31.156  1.00  0.00     0.029 A 
ATOM     53  N   UNL A   1      41.295  29.338  32.328  1.00  0.00    -0.354 N 
ATOM     54  N   UNL A   1      41.050  31.158  34.604  1.00  0.00    -0.248 NA
ATOM     55  C   UNL A   1      41.688  31.819  36.749  1.00  0.00     0.031 C 
ATOM     56  C   UNL A   1      42.898  27.799  32.373  1.00  0.00     0.029 A 
ATOM     57  C   UNL A   1      42.334  28.837  33.095  1.00  0.00     0.049 A 
ATOM     58  H   UNL A   1      40.706  30.083  32.589  1.00  0.00     0.167 HD
ATOM     59  C   UNL A   1      42.107  30.366  35.031  1.00  0.00     0.074 A 
ATOM     60  C   UNL A   1      42.483  30.839  36.346  1.00  0.00     0.031 C 
ATOM     61  C   UNL A   1      42.710  29.335  34.391  1.00  0.00     0.037 A 
BRANCH  48  62
ATOM     62  C   UNL A   1      40.218  27.958  28.926  1.00  0.00     0.064 A 
ATOM     63  C   UNL A   1      40.944  28.246  27.762  1.00  0.00     0.173 A 
ATOM     64  C   UNL A   1      39.532  26.735  28.988  1.00  0.00     0.173 A 
ATOM     65  F   UNL A   1      41.608  29.407  27.650  1.00  0.00    -0.203 F 
ATOM     66  C   UNL A   1      40.970  27.351  26.695  1.00  0.00     0.198 A 
ATOM     67  C   UNL A   1      39.582  25.832  27.931  1.00  0.00     0.198 A 
ATOM     68  F   UNL A   1      38.829  26.409  30.084  1.00  0.00    -0.203 F 
ATOM     69  F   UNL A   1      41.645  27.661  25.579  1.00  0.00    -0.200 F 
ATOM     70  C   UNL A   1      40.297  26.141  26.784  1.00  0.00     0.200 A 
ATOM     71  F   UNL A   1      38.943  24.656  28.024  1.00  0.00    -0.200 F 
ATOM     72  F   UNL A   1      40.339  25.274  25.763  1.00  0.00    -0.200 F 
ENDBRANCH  48  62
BRANCH  49  73
ATOM     73  C   UNL A   1      39.704  33.958  36.871  1.00  0.00     0.064 A 
ATOM     74  C   UNL A   1      38.894  33.568  37.948  1.00  0.00     0.173 A 
ATOM     75  C   UNL A   1      40.378  35.184  36.974  1.00  0.00     0.173 A 
ATOM     76  F   UNL A   1      38.211  32.415  37.886  1.00  0.00    -0.203 F 
ATOM     77  C   UNL A   1      38.736  34.385  39.065  1.00  0.00     0.198 A 
ATOM     78  C   UNL A   1      40.242  35.987  38.104  1.00  0.00     0.198 A 
ATOM     79  F   UNL A   1      41.168  35.601  35.974  1.00  0.00    -0.203 F 
ATOM     80  F   UNL A   1      37.909  34.015  40.051  1.00  0.00    -0.200 F 
ATOM     81  C   UNL A   1      39.413  35.593  39.143  1.00  0.00     0.200 A 
ATOM     82  F   UNL A   1      40.906  37.148  38.182  1.00  0.00    -0.200 F 
ATOM     83  F   UNL A   1      39.255  36.383  40.215  1.00  0.00    -0.200 F 
ENDBRANCH  49  73
BRANCH  61  84
ATOM     84  C   UNL A   1      43.869  28.678  35.081  1.00  0.00     0.064 A 
ATOM     85  C   UNL A   1      43.691  27.575  35.928  1.00  0.00     0.173 A 
ATOM     86  C   UNL A   1      45.177  29.134  34.857  1.00  0.00     0.173 A 
ATOM     87  F   UNL A   1      42.458  27.114  36.185  1.00  0.00    -0.203 F 
ATOM     88  C   UNL A   1      44.780  26.964  36.542  1.00  0.00     0.198 A 
ATOM     89  C   UNL A   1      46.266  28.503  35.451  1.00  0.00     0.198 A 
ATOM     90  F   UNL A   1      45.399  30.182  34.050  1.00  0.00    -0.203 F 
ATOM     91  F   UNL A   1      44.584  25.938  37.382  1.00  0.00    -0.200 F 
ATOM     92  C   UNL A   1      46.067  27.424  36.298  1.00  0.00     0.200 A 
ATOM     93  F   UNL A   1      47.508  28.940  35.205  1.00  0.00    -0.200 F 
ATOM     94  F   UNL A   1      47.114  26.829  36.884  1.00  0.00    -0.200 F 
ENDBRANCH  61  84
ENDBRANCH  35  36
ENDBRANCH  27  30
ENDBRANCH  25  26
ENDBRANCH   1  25
TORSDOF 14
ENDMDL
MODEL 2
REMARK VINA RESULT:     -12.6      2.073      7.985
REMARK SMILES COc1c(N)cc(-c2ccccc2)cc1C(=O)NCCCCNC(=O)c1ccc(-c2c3nc(c(-c4c(F)c(F)c(F)c(F)c4F)c4ccc([nH]4)c(-c4c(F)c(F)c(F)c(F)c4F)c4nc(c(-c5c(F)c(F)c(F)c(F)c5F)c5ccc2[nH]5)C=C4)C=C3)cc1
REMARK SMILES IDX 21 1 20 2 19 3 18 4 16 5 17 6 15 8 3 9 4 10 6 11 14 12 7 13
REMARK SMILES IDX 2 14 1 15 5 16 8 19 9 20 13 21 10 22 12 23 11 24 22 25 23 26
REMARK SMILES IDX 24 27 25 29 26 30 27 31 88 32 28 33 87 34 29 35 30 36 31 37
REMARK SMILES IDX 81 38 32 39 86 40 80 41 82 42 33 43 85 44 79 45 78 46 34 48
REMARK SMILES IDX 66 49 46 50 65 51 47 52 50 53 64 54 83 55 48 56 49 57 63 59
REMARK SMILES IDX 84 60 51 61 35 62 36 63 44 64 37 65 38 66 42 67 45 68 39 69
REMARK SMILES IDX 40 70 43 71 41 72 67 73 68 74 76 75 69 76 70 77 74 78 77 79
REMARK SMILES IDX 71 80 72 81 75 82 73 83 52 84 53 85 61 86 54 87 55 88 59 89
REMARK SMILES IDX 62 90 56 91 57 92 60 93 58 94
REMARK H PARENT 18 7 5 17 5 18 23 28 82 47 50 58
REMARK Flexibility Score: inf
ROOT
ATOM      1  C   UNL A   1      31.607  29.130  26.408  1.00  0.00     0.023 C 
ENDROOT
BRANCH   1   2
ATOM      2  C   UNL A   1      32.104  27.837  27.052  1.00  0.00     0.023 C 
BRANCH   2   3
ATOM      3  C   UNL A   1      31.970  26.562  26.231  1.00  0.00     0.116 C 
BRANCH   3   4
ATOM      4  N   UNL A   1      31.330  25.445  26.874  1.00  0.00    -0.352 N 
ATOM      5  C   UNL A   1      31.575  24.098  26.710  1.00  0.00     0.255 C 
ATOM      6  O   UNL A   1      30.975  23.325  27.460  1.00  0.00    -0.269 OA
ATOM      7  H   UNL A   1      30.621  25.673  27.518  1.00  0.00     0.163 HD
BRANCH   5   8
ATOM      8  C   UNL A   1      32.432  23.518  25.625  1.00  0.00     0.084 A 
ATOM      9  C   UNL A   1      32.031  23.195  24.310  1.00  0.00     0.154 A 
ATOM     10  C   UNL A   1      32.996  22.751  23.376  1.00  0.00     0.076 A 
ATOM     11  C   UNL A   1      34.316  22.553  23.790  1.00  0.00     0.038 A 
ATOM     12  C   UNL A   1      33.801  23.388  25.975  1.00  0.00     0.026 A 
ATOM     13  C   UNL A   1      34.758  22.914  25.068  1.00  0.00    -0.015 A 
BRANCH   9  14
ATOM     14  O   UNL A   1      30.735  23.432  23.904  1.00  0.00    -0.494 OA
ATOM     15  C   UNL A   1      30.533  24.741  23.347  1.00  0.00     0.278 C 
ENDBRANCH   9  14
BRANCH  10  16
ATOM     16  N   UNL A   1      32.690  22.465  22.043  1.00  0.00    -0.396 N 
ATOM     17  H   UNL A   1      32.747  23.174  21.362  1.00  0.00     0.156 HD
ATOM     18  H   UNL A   1      32.419  21.555  21.784  1.00  0.00     0.156 HD
ENDBRANCH  10  16
BRANCH  13  19
ATOM     19  C   UNL A   1      36.198  22.843  25.376  1.00  0.00    -0.018 A 
ATOM     20  C   UNL A   1      36.902  21.640  25.170  1.00  0.00     0.009 A 
ATOM     21  C   UNL A   1      36.897  23.923  25.932  1.00  0.00     0.009 A 
ATOM     22  C   UNL A   1      38.241  21.505  25.539  1.00  0.00     0.001 A 
ATOM     23  C   UNL A   1      38.241  23.790  26.303  1.00  0.00     0.001 A 
ATOM     24  C   UNL A   1      38.909  22.581  26.115  1.00  0.00     0.000 A 
ENDBRANCH  13  19
ENDBRANCH   5   8
ENDBRANCH   3   4
ENDBRANCH   2   3
ENDBRANCH   1   2
BRANCH   1  25
ATOM     25  C   UNL A   1      32.664  30.119  25.925  1.00  0.00     0.116 C 
BRANCH  25  26
ATOM     26  N   UNL A   1      32.550  31.454  26.497  1.00  0.00    -0.352 N 
ATOM     27  C   UNL A   1      33.372  32.149  27.359  1.00  0.00     0.251 C 
ATOM     28  H   UNL A   1      31.744  31.946  26.220  1.00  0.00     0.163 HD
ATOM     29  O   UNL A   1      33.039  33.258  27.751  1.00  0.00    -0.269 OA
BRANCH  27  30
ATOM     30  C   UNL A   1      34.629  31.545  27.859  1.00  0.00     0.039 A 
ATOM     31  C   UNL A   1      35.740  32.374  28.049  1.00  0.00     0.014 A 
ATOM     32  C   UNL A   1      34.725  30.185  28.153  1.00  0.00     0.014 A 
ATOM     33  C   UNL A   1      36.898  31.864  28.645  1.00  0.00     0.010 A 
ATOM     34  C   UNL A   1      35.841  29.699  28.831  1.00  0.00     0.010 A 
ATOM     35  C   UNL A   1      36.934  30.537  29.102  1.00  0.00    -0.014 A 
BRANCH  35  36
ATOM     36  C   UNL A   1      38.082  30.013  29.890  1.00  0.00     0.031 A 
ATOM     37  C   UNL A   1      38.312  30.483  31.301  1.00  0.00     0.074 A 
ATOM     38  C   UNL A   1      38.978  29.193  29.302  1.00  0.00     0.049 A 
ATOM     39  N   UNL A   1      39.322  30.243  32.100  1.00  0.00    -0.248 NA
ATOM     40  C   UNL A   1      37.290  31.369  31.880  1.00  0.00     0.031 C 
ATOM     41  C   UNL A   1      38.910  28.713  27.921  1.00  0.00     0.029 A 
ATOM     42  N   UNL A   1      40.136  28.634  29.787  1.00  0.00    -0.354 N 
ATOM     43  C   UNL A   1      39.074  30.974  33.255  1.00  0.00     0.074 A 
ATOM     44  C   UNL A   1      37.837  31.694  33.042  1.00  0.00     0.031 C 
ATOM     45  C   UNL A   1      39.968  27.922  27.674  1.00  0.00     0.029 A 
ATOM     46  C   UNL A   1      40.809  27.870  28.864  1.00  0.00     0.049 A 
ATOM     47  H   UNL A   1      40.454  28.769  30.709  1.00  0.00     0.167 HD
ATOM     48  C   UNL A   1      39.801  31.025  34.395  1.00  0.00     0.037 A 
ATOM     49  C   UNL A   1      41.980  27.211  28.961  1.00  0.00     0.037 A 
ATOM     50  C   UNL A   1      40.997  30.261  34.631  1.00  0.00     0.049 A 
ATOM     51  C   UNL A   1      42.743  27.253  30.258  1.00  0.00     0.074 A 
ATOM     52  C   UNL A   1      41.746  30.169  35.792  1.00  0.00     0.029 A 
ATOM     53  N   UNL A   1      41.615  29.451  33.691  1.00  0.00    -0.354 N 
ATOM     54  N   UNL A   1      42.451  27.879  31.370  1.00  0.00    -0.248 NA
ATOM     55  C   UNL A   1      43.999  26.488  30.315  1.00  0.00     0.031 C 
ATOM     56  C   UNL A   1      42.838  29.332  35.544  1.00  0.00     0.029 A 
ATOM     57  C   UNL A   1      42.747  28.871  34.241  1.00  0.00     0.049 A 
ATOM     58  H   UNL A   1      41.298  29.310  32.770  1.00  0.00     0.167 HD
ATOM     59  C   UNL A   1      43.464  27.561  32.265  1.00  0.00     0.074 A 
ATOM     60  C   UNL A   1      44.373  26.673  31.572  1.00  0.00     0.031 C 
ATOM     61  C   UNL A   1      43.628  27.970  33.546  1.00  0.00     0.037 A 
BRANCH  48  62
ATOM     62  C   UNL A   1      39.322  31.925  35.495  1.00  0.00     0.064 A 
ATOM     63  C   UNL A   1      38.452  31.465  36.494  1.00  0.00     0.173 A 
ATOM     64  C   UNL A   1      39.800  33.242  35.593  1.00  0.00     0.173 A 
ATOM     65  F   UNL A   1      37.961  30.218  36.439  1.00  0.00    -0.203 F 
ATOM     66  C   UNL A   1      38.064  32.296  37.542  1.00  0.00     0.198 A 
ATOM     67  C   UNL A   1      39.430  34.059  36.656  1.00  0.00     0.198 A 
ATOM     68  F   UNL A   1      40.641  33.726  34.667  1.00  0.00    -0.203 F 
ATOM     69  F   UNL A   1      37.207  31.845  38.468  1.00  0.00    -0.200 F 
ATOM     70  C   UNL A   1      38.560  33.588  37.628  1.00  0.00     0.200 A 
ATOM     71  F   UNL A   1      39.922  35.304  36.747  1.00  0.00    -0.200 F 
ATOM     72  F   UNL A   1      38.199  34.379  38.648  1.00  0.00    -0.200 F 
ENDBRANCH  48  62
BRANCH  49  73
ATOM     73  C   UNL A   1      42.507  26.438  27.805  1.00  0.00     0.064 A 
ATOM     74  C   UNL A   1      43.422  27.013  26.912  1.00  0.00     0.173 A 
ATOM     75  C   UNL A   1      42.080  25.127  27.546  1.00  0.00     0.173 A 
ATOM     76  F   UNL A   1      43.842  28.273  27.104  1.00  0.00    -0.203 F 
ATOM     77  C   UNL A   1      43.865  26.321  25.787  1.00  0.00     0.198 A 
ATOM     78  C   UNL A   1      42.546  24.425  26.436  1.00  0.00     0.198 A 
ATOM     79  F   UNL A   1      41.209  24.529  28.372  1.00  0.00    -0.203 F 
ATOM     80  F   UNL A   1      44.692  26.918  24.919  1.00  0.00    -0.200 F 
ATOM     81  C   UNL A   1      43.428  25.026  25.552  1.00  0.00     0.200 A 
ATOM     82  F   UNL A   1      42.131  23.169  26.218  1.00  0.00    -0.200 F 
ATOM     83  F   UNL A   1      43.849  24.363  24.465  1.00  0.00    -0.200 F 
ENDBRANCH  49  73
BRANCH  61  84
ATOM     84  C   UNL A   1      44.806  27.427  34.298  1.00  0.00     0.064 A 
ATOM     85  C   UNL A   1      46.032  28.107  34.334  1.00  0.00     0.173 A 
ATOM     86  C   UNL A   1      44.692  26.233  35.026  1.00  0.00     0.173 A 
ATOM     87  F   UNL A   1      46.193  29.244  33.641  1.00  0.00    -0.203 F 
ATOM     88  C   UNL A   1      47.108  27.600  35.057  1.00  0.00     0.198 A 
ATOM     89  C   UNL A   1      45.762  25.744  35.770  1.00  0.00     0.198 A 
ATOM     90  F   UNL A   1      43.538  25.550  35.028  1.00  0.00    -0.203 F 
ATOM     91  F   UNL A   1      48.283  28.243  35.043  1.00  0.00    -0.200 F 
ATOM     92  C   UNL A   1      46.970  26.423  35.779  1.00  0.00     0.200 A 
ATOM     93  F   UNL A   1      45.623  24.613  36.476  1.00  0.00    -0.200 F 
ATOM     94  F   UNL A   1      48.005  25.941  36.479  1.00  0.00    -0.200 F 
ENDBRANCH  61  84
ENDBRANCH  35  36
ENDBRANCH  27  30
ENDBRANCH  25  26
ENDBRANCH   1  25
TORSDOF 14
ENDMDL
MODEL 3
REMARK VINA RESULT:     -12.5      0.634      1.728
REMARK SMILES COc1c(N)cc(-c2ccccc2)cc1C(=O)NCCCCNC(=O)c1ccc(-c2c3nc(c(-c4c(F)c(F)c(F)c(F)c4F)c4ccc([nH]4)c(-c4c(F)c(F)c(F)c(F)c4F)c4nc(c(-c5c(F)c(F)c(F)c(F)c5F)c5ccc2[nH]5)C=C4)C=C3)cc1
REMARK SMILES IDX 21 1 20 2 19 3 18 4 16 5 17 6 15 8 3 9 4 10 6 11 14 12 7 13
REMARK SMILES IDX 2 14 1 15 5 16 8 19 9 20 13 21 10 22 12 23 11 24 22 25 23 26
REMARK SMILES IDX 24 27 25 29 26 30 27 31 88 32 28 33 87 34 29 35 30 36 31 37
REMARK SMILES IDX 81 38 32 39 86 40 80 41 82 42 33 43 85 44 79 45 78 46 34 48
REMARK SMILES IDX 66 49 46 50 65 51 47 52 50 53 64 54 83 55 48 56 49 57 63 59
REMARK SMILES IDX 84 60 51 61 35 62 36 63 44 64 37 65 38 66 42 67 45 68 39 69
REMARK SMILES IDX 40 70 43 71 41 72 67 73 68 74 76 75 69 76 70 77 74 78 77 79
REMARK SMILES IDX 71 80 72 81 75 82 73 83 52 84 53 85 61 86 54 87 55 88 59 89
REMARK SMILES IDX 62 90 56 91 57 92 60 93 58 94
REMARK H PARENT 18 7 5 17 5 18 23 28 82 47 50 58
REMARK Flexibility Score: inf
ROOT
ATOM      1  C   UNL A   1      31.774  31.602  26.832  1.00  0.00     0.023 C 
ENDROOT
BRANCH   1   2
ATOM      2  C   UNL A   1      32.022  30.095  26.876  1.00  0.00     0.023 C 
BRANCH   2   3
ATOM      3  C   UNL A   1      33.419  29.615  26.505  1.00  0.00     0.116 C 
BRANCH   3   4
ATOM      4  N   UNL A   1      33.653  29.319  25.118  1.00  0.00    -0.352 N 
ATOM      5  C   UNL A   1      33.427  28.141  24.436  1.00  0.00     0.255 C 
ATOM      6  O   UNL A   1      33.600  28.161  23.215  1.00  0.00    -0.269 OA
ATOM      7  H   UNL A   1      34.024  30.056  24.581  1.00  0.00     0.163 HD
BRANCH   5   8
ATOM      8  C   UNL A   1      33.094  26.834  25.089  1.00  0.00     0.084 A 
ATOM      9  C   UNL A   1      31.831  26.422  25.566  1.00  0.00     0.154 A 
ATOM     10  C   UNL A   1      31.668  25.108  26.064  1.00  0.00     0.076 A 
ATOM     11  C   UNL A   1      32.779  24.265  26.161  1.00  0.00     0.038 A 
ATOM     12  C   UNL A   1      34.173  25.913  25.123  1.00  0.00     0.026 A 
ATOM     13  C   UNL A   1      34.031  24.621  25.648  1.00  0.00    -0.015 A 
BRANCH   9  14
ATOM     14  O   UNL A   1      30.736  27.249  25.428  1.00  0.00    -0.494 OA
ATOM     15  C   UNL A   1      30.085  27.140  24.152  1.00  0.00     0.278 C 
ENDBRANCH   9  14
BRANCH  10  16
ATOM     16  N   UNL A   1      30.440  24.607  26.501  1.00  0.00    -0.396 N 
ATOM     17  H   UNL A   1      30.413  23.862  27.144  1.00  0.00     0.156 HD
ATOM     18  H   UNL A   1      29.600  24.998  26.167  1.00  0.00     0.156 HD
ENDBRANCH  10  16
BRANCH  13  19
ATOM     19  C   UNL A   1      35.109  23.616  25.625  1.00  0.00    -0.018 A 
ATOM     20  C   UNL A   1      36.456  24.029  25.679  1.00  0.00     0.009 A 
ATOM     21  C   UNL A   1      34.850  22.246  25.489  1.00  0.00     0.009 A 
ATOM     22  C   UNL A   1      37.504  23.115  25.563  1.00  0.00     0.001 A 
ATOM     23  C   UNL A   1      35.901  21.327  25.374  1.00  0.00     0.001 A 
ATOM     24  C   UNL A   1      37.225  21.762  25.401  1.00  0.00     0.000 A 
ENDBRANCH  13  19
ENDBRANCH   5   8
ENDBRANCH   3   4
ENDBRANCH   2   3
ENDBRANCH   1   2
BRANCH   1  25
ATOM     25  C   UNL A   1      32.926  32.510  27.253  1.00  0.00     0.116 C 
BRANCH  25  26
ATOM     26  N   UNL A   1      32.527  33.861  27.626  1.00  0.00    -0.352 N 
ATOM     27  C   UNL A   1      33.052  34.745  28.543  1.00  0.00     0.251 C 
ATOM     28  H   UNL A   1      31.743  34.201  27.138  1.00  0.00     0.163 HD
ATOM     29  O   UNL A   1      32.508  35.824  28.726  1.00  0.00    -0.269 OA
BRANCH  27  30
ATOM     30  C   UNL A   1      34.240  34.382  29.352  1.00  0.00     0.039 A 
ATOM     31  C   UNL A   1      34.042  33.815  30.616  1.00  0.00     0.014 A 
ATOM     32  C   UNL A   1      35.538  34.578  28.880  1.00  0.00     0.014 A 
ATOM     33  C   UNL A   1      35.135  33.338  31.346  1.00  0.00     0.010 A 
ATOM     34  C   UNL A   1      36.616  34.020  29.563  1.00  0.00     0.010 A 
ATOM     35  C   UNL A   1      36.426  33.377  30.796  1.00  0.00    -0.014 A 
BRANCH  35  36
ATOM     36  C   UNL A   1      37.583  32.727  31.470  1.00  0.00     0.031 A 
ATOM     37  C   UNL A   1      38.288  31.568  30.819  1.00  0.00     0.074 A 
ATOM     38  C   UNL A   1      37.932  33.111  32.715  1.00  0.00     0.049 A 
ATOM     39  N   UNL A   1      39.226  30.792  31.301  1.00  0.00    -0.248 NA
ATOM     40  C   UNL A   1      37.859  31.210  29.457  1.00  0.00     0.031 C 
ATOM     41  C   UNL A   1      37.289  34.175  33.487  1.00  0.00     0.029 A 
ATOM     42  N   UNL A   1      38.904  32.633  33.562  1.00  0.00    -0.354 N 
ATOM     43  C   UNL A   1      39.470  29.838  30.321  1.00  0.00     0.074 A 
ATOM     44  C   UNL A   1      38.560  30.110  29.231  1.00  0.00     0.031 C 
ATOM     45  C   UNL A   1      37.891  34.280  34.684  1.00  0.00     0.029 A 
ATOM     46  C   UNL A   1      38.935  33.266  34.781  1.00  0.00     0.049 A 
ATOM     47  H   UNL A   1      39.520  31.904  33.318  1.00  0.00     0.167 HD
ATOM     48  C   UNL A   1      40.385  28.840  30.324  1.00  0.00     0.037 A 
ATOM     49  C   UNL A   1      39.709  33.047  35.862  1.00  0.00     0.037 A 
ATOM     50  C   UNL A   1      41.333  28.608  31.380  1.00  0.00     0.049 A 
ATOM     51  C   UNL A   1      40.746  31.956  35.816  1.00  0.00     0.074 A 
ATOM     52  C   UNL A   1      42.364  27.685  31.426  1.00  0.00     0.029 A 
ATOM     53  N   UNL A   1      41.372  29.311  32.575  1.00  0.00    -0.354 N 
ATOM     54  N   UNL A   1      41.023  31.118  34.848  1.00  0.00    -0.248 NA
ATOM     55  C   UNL A   1      41.583  31.785  37.013  1.00  0.00     0.031 C 
ATOM     56  C   UNL A   1      43.004  27.805  32.663  1.00  0.00     0.029 A 
ATOM     57  C   UNL A   1      42.397  28.829  33.371  1.00  0.00     0.049 A 
ATOM     58  H   UNL A   1      40.761  30.043  32.820  1.00  0.00     0.167 HD
ATOM     59  C   UNL A   1      42.082  30.346  35.304  1.00  0.00     0.074 A 
ATOM     60  C   UNL A   1      42.409  30.822  36.631  1.00  0.00     0.031 C 
ATOM     61  C   UNL A   1      42.725  29.329  34.680  1.00  0.00     0.037 A 
BRANCH  48  62
ATOM     62  C   UNL A   1      40.425  27.922  29.139  1.00  0.00     0.064 A 
ATOM     63  C   UNL A   1      39.648  26.755  29.087  1.00  0.00     0.173 A 
ATOM     64  C   UNL A   1      41.192  28.252  28.010  1.00  0.00     0.173 A 
ATOM     65  F   UNL A   1      38.905  26.392  30.144  1.00  0.00    -0.203 F 
ATOM     66  C   UNL A   1      39.650  25.944  27.955  1.00  0.00     0.198 A 
ATOM     67  C   UNL A   1      41.170  27.453  26.871  1.00  0.00     0.198 A 
ATOM     68  F   UNL A   1      41.946  29.361  28.007  1.00  0.00    -0.203 F 
ATOM     69  F   UNL A   1      38.924  24.818  27.940  1.00  0.00    -0.200 F 
ATOM     70  C   UNL A   1      40.403  26.298  26.845  1.00  0.00     0.200 A 
ATOM     71  F   UNL A   1      41.887  27.803  25.794  1.00  0.00    -0.200 F 
ATOM     72  F   UNL A   1      40.389  25.525  25.751  1.00  0.00    -0.200 F 
ENDBRANCH  48  62
BRANCH  49  73
ATOM     73  C   UNL A   1      39.553  33.882  37.082  1.00  0.00     0.064 A 
ATOM     74  C   UNL A   1      38.767  33.445  38.158  1.00  0.00     0.173 A 
ATOM     75  C   UNL A   1      40.150  35.148  37.183  1.00  0.00     0.173 A 
ATOM     76  F   UNL A   1      38.157  32.251  38.097  1.00  0.00    -0.203 F 
ATOM     77  C   UNL A   1      38.557  34.252  39.273  1.00  0.00     0.198 A 
ATOM     78  C   UNL A   1      39.963  35.943  38.313  1.00  0.00     0.198 A 
ATOM     79  F   UNL A   1      40.914  35.612  36.184  1.00  0.00    -0.203 F 
ATOM     80  F   UNL A   1      37.754  33.832  40.259  1.00  0.00    -0.200 F 
ATOM     81  C   UNL A   1      39.158  35.499  39.351  1.00  0.00     0.200 A 
ATOM     82  F   UNL A   1      40.554  37.143  38.389  1.00  0.00    -0.200 F 
ATOM     83  F   UNL A   1      38.950  36.279  40.421  1.00  0.00    -0.200 F 
ENDBRANCH  49  73
BRANCH  61  84
ATOM     84  C   UNL A   1      43.875  28.694  35.402  1.00  0.00     0.064 A 
ATOM     85  C   UNL A   1      45.192  29.142  35.225  1.00  0.00     0.173 A 
ATOM     86  C   UNL A   1      43.650  27.652  36.315  1.00  0.00     0.173 A 
ATOM     87  F   UNL A   1      45.458  30.125  34.352  1.00  0.00    -0.203 F 
ATOM     88  C   UNL A   1      46.245  28.556  35.922  1.00  0.00     0.198 A 
ATOM     89  C   UNL A   1      44.702  27.087  37.030  1.00  0.00     0.198 A 
ATOM     90  F   UNL A   1      42.407  27.193  36.523  1.00  0.00    -0.203 F 
ATOM     91  F   UNL A   1      47.501  28.970  35.706  1.00  0.00    -0.200 F 
ATOM     92  C   UNL A   1      45.998  27.534  36.828  1.00  0.00     0.200 A 
ATOM     93  F   UNL A   1      44.461  26.109  37.913  1.00  0.00    -0.200 F 
ATOM     94  F   UNL A   1      47.013  26.977  37.502  1.00  0.00    -0.200 F 
ENDBRANCH  61  84
ENDBRANCH  35  36
ENDBRANCH  27  30
ENDBRANCH  25  26
ENDBRANCH   1  25
TORSDOF 14
ENDMDL
