MODEL 1
REMARK VINA RESULT:     -11.7      0.000      0.000
REMARK SMILES CC[C@H](Oc1c(C)cc(Br)cc1N)C(=O)NCCCCNC(=O)c1ccc(-c2c3nc(c(-c4c(F)c(F)c(F)c(F)c4F)c4ccc([nH]4)c(-c4c(F)c(F)c(F)c(F)c4F)c4nc(c(-c5c(F)c(F)c(F)c(F)c5F)c5ccc2[nH]5)C=C4)C=C3)cc1
REMARK SMILES IDX 18 1 17 2 16 3 14 4 15 5 3 7 2 8 1 9 4 10 5 11 6 12 12 13
REMARK SMILES IDX 7 14 8 15 11 16 9 17 10 18 13 19 19 22 20 23 21 24 22 25
REMARK SMILES IDX 23 27 24 28 25 29 86 30 26 31 85 32 27 33 28 34 29 35 79 36
REMARK SMILES IDX 30 37 84 38 78 39 80 40 31 41 83 42 77 43 76 44 32 46 64 47
REMARK SMILES IDX 44 48 63 49 45 50 48 51 62 52 81 53 46 54 47 55 61 57 82 58
REMARK SMILES IDX 49 59 33 60 34 61 42 62 35 63 36 64 40 65 43 66 37 67 38 68
REMARK SMILES IDX 41 69 39 70 65 71 66 72 74 73 67 74 68 75 72 76 75 77 69 78
REMARK SMILES IDX 70 79 73 80 71 81 50 82 51 83 59 84 52 85 53 86 57 87 60 88
REMARK SMILES IDX 54 89 55 90 58 91 56 92
REMARK H PARENT 16 6 13 20 13 21 21 26 80 45 48 56
REMARK Flexibility Score: inf
ROOT
ATOM      1  C   UNL A   1      31.453  30.741  26.692  1.00  0.00     0.023 C 
ENDROOT
BRANCH   1   2
ATOM      2  C   UNL A   1      31.866  30.092  25.376  1.00  0.00     0.116 C 
BRANCH   2   3
ATOM      3  N   UNL A   1      30.777  29.986  24.423  1.00  0.00    -0.353 N 
ATOM      4  C   UNL A   1      30.420  28.906  23.655  1.00  0.00     0.261 C 
ATOM      5  O   UNL A   1      29.394  28.999  22.976  1.00  0.00    -0.271 OA
ATOM      6  H   UNL A   1      30.222  30.793  24.314  1.00  0.00     0.163 HD
BRANCH   4   7
ATOM      7  C   UNL A   1      31.257  27.606  23.679  1.00  0.00     0.261 C 
BRANCH   7   8
ATOM      8  C   UNL A   1      30.997  26.839  22.357  1.00  0.00     0.052 C 
ATOM      9  C   UNL A   1      32.083  25.969  21.746  1.00  0.00     0.008 C 
ENDBRANCH   7   8
BRANCH   7  10
ATOM     10  O   UNL A   1      30.948  27.038  24.947  1.00  0.00    -0.478 OA
BRANCH  10  11
ATOM     11  C   UNL A   1      31.654  26.030  25.535  1.00  0.00     0.146 A 
ATOM     12  C   UNL A   1      33.046  25.903  25.633  1.00  0.00    -0.006 A 
ATOM     13  C   UNL A   1      30.810  25.049  26.125  1.00  0.00     0.076 A 
ATOM     14  C   UNL A   1      34.028  26.969  25.249  1.00  0.00     0.048 C 
ATOM     15  C   UNL A   1      33.569  24.691  26.126  1.00  0.00     0.023 A 
ATOM     16  C   UNL A   1      31.353  23.854  26.592  1.00  0.00     0.045 A 
ATOM     17  C   UNL A   1      32.729  23.673  26.576  1.00  0.00     0.020 A 
ATOM     18  Br  UNL A   1      33.467  22.043  27.183  1.00  0.00    -0.051 Br
BRANCH  13  19
ATOM     19  N   UNL A   1      29.417  25.203  26.097  1.00  0.00    -0.396 N 
ATOM     20  H   UNL A   1      28.878  24.687  25.455  1.00  0.00     0.156 HD
ATOM     21  H   UNL A   1      28.978  25.828  26.719  1.00  0.00     0.156 HD
ENDBRANCH  13  19
ENDBRANCH  10  11
ENDBRANCH   7  10
ENDBRANCH   4   7
ENDBRANCH   2   3
ENDBRANCH   1   2
BRANCH   1  22
ATOM     22  C   UNL A   1      31.405  32.265  26.679  1.00  0.00     0.023 C 
BRANCH  22  23
ATOM     23  C   UNL A   1      32.646  32.959  27.227  1.00  0.00     0.116 C 
BRANCH  23  24
ATOM     24  N   UNL A   1      32.375  34.300  27.728  1.00  0.00    -0.352 N 
ATOM     25  C   UNL A   1      32.981  34.987  28.751  1.00  0.00     0.251 C 
ATOM     26  H   UNL A   1      31.653  34.784  27.266  1.00  0.00     0.163 HD
ATOM     27  O   UNL A   1      32.537  36.067  29.126  1.00  0.00    -0.269 OA
BRANCH  25  28
ATOM     28  C   UNL A   1      34.156  34.400  29.428  1.00  0.00     0.039 A 
ATOM     29  C   UNL A   1      33.960  33.655  30.594  1.00  0.00     0.014 A 
ATOM     30  C   UNL A   1      35.439  34.562  28.900  1.00  0.00     0.014 A 
ATOM     31  C   UNL A   1      35.044  33.009  31.188  1.00  0.00     0.010 A 
ATOM     32  C   UNL A   1      36.505  33.856  29.448  1.00  0.00     0.010 A 
ATOM     33  C   UNL A   1      36.317  33.072  30.598  1.00  0.00    -0.014 A 
BRANCH  33  34
ATOM     34  C   UNL A   1      37.469  32.339  31.176  1.00  0.00     0.031 A 
ATOM     35  C   UNL A   1      37.968  32.692  32.547  1.00  0.00     0.074 A 
ATOM     36  C   UNL A   1      38.091  31.389  30.451  1.00  0.00     0.049 A 
ATOM     37  N   UNL A   1      38.996  32.214  33.203  1.00  0.00    -0.248 NA
ATOM     38  C   UNL A   1      37.227  33.736  33.273  1.00  0.00     0.031 C 
ATOM     39  C   UNL A   1      37.715  30.977  29.098  1.00  0.00     0.029 A 
ATOM     40  N   UNL A   1      39.170  30.596  30.752  1.00  0.00    -0.354 N 
ATOM     41  C   UNL A   1      39.023  32.899  34.409  1.00  0.00     0.074 A 
ATOM     42  C   UNL A   1      37.949  33.867  34.375  1.00  0.00     0.031 C 
ATOM     43  C   UNL A   1      38.527  29.984  28.700  1.00  0.00     0.029 A 
ATOM     44  C   UNL A   1      39.504  29.715  29.752  1.00  0.00     0.049 A 
ATOM     45  H   UNL A   1      39.660  30.655  31.604  1.00  0.00     0.167 HD
ATOM     46  C   UNL A   1      39.850  32.715  35.465  1.00  0.00     0.037 A 
ATOM     47  C   UNL A   1      40.485  28.795  29.694  1.00  0.00     0.037 A 
ATOM     48  C   UNL A   1      40.904  31.738  35.506  1.00  0.00     0.049 A 
ATOM     49  C   UNL A   1      41.414  28.638  30.867  1.00  0.00     0.074 A 
ATOM     50  C   UNL A   1      41.780  31.458  36.540  1.00  0.00     0.029 A 
ATOM     51  N   UNL A   1      41.221  30.875  34.467  1.00  0.00    -0.354 N 
ATOM     52  N   UNL A   1      41.410  29.268  32.016  1.00  0.00    -0.248 NA
ATOM     53  C   UNL A   1      42.487  27.641  30.734  1.00  0.00     0.031 C 
ATOM     54  C   UNL A   1      42.648  30.448  36.115  1.00  0.00     0.029 A 
ATOM     55  C   UNL A   1      42.288  30.070  34.831  1.00  0.00     0.049 A 
ATOM     56  H   UNL A   1      40.756  30.840  33.600  1.00  0.00     0.167 HD
ATOM     57  C   UNL A   1      42.458  28.730  32.751  1.00  0.00     0.074 A 
ATOM     58  C   UNL A   1      43.070  27.712  31.923  1.00  0.00     0.031 C 
ATOM     59  C   UNL A   1      42.877  29.055  33.998  1.00  0.00     0.037 A 
BRANCH  46  60
ATOM     60  C   UNL A   1      39.632  33.573  36.675  1.00  0.00     0.064 A 
ATOM     61  C   UNL A   1      40.233  34.835  36.789  1.00  0.00     0.173 A 
ATOM     62  C   UNL A   1      38.777  33.156  37.705  1.00  0.00     0.173 A 
ATOM     63  F   UNL A   1      41.069  35.273  35.835  1.00  0.00    -0.203 F 
ATOM     64  C   UNL A   1      39.999  35.642  37.899  1.00  0.00     0.198 A 
ATOM     65  C   UNL A   1      38.525  33.977  38.802  1.00  0.00     0.198 A 
ATOM     66  F   UNL A   1      38.175  31.958  37.643  1.00  0.00    -0.203 F 
ATOM     67  F   UNL A   1      40.614  36.828  38.004  1.00  0.00    -0.200 F 
ATOM     68  C   UNL A   1      39.140  35.216  38.899  1.00  0.00     0.200 A 
ATOM     69  F   UNL A   1      37.685  33.568  39.763  1.00  0.00    -0.200 F 
ATOM     70  F   UNL A   1      38.906  35.998  39.961  1.00  0.00    -0.200 F 
ENDBRANCH  46  60
BRANCH  47  71
ATOM     71  C   UNL A   1      40.614  27.923  28.499  1.00  0.00     0.064 A 
ATOM     72  C   UNL A   1      39.962  26.682  28.450  1.00  0.00     0.173 A 
ATOM     73  C   UNL A   1      41.376  28.304  27.386  1.00  0.00     0.173 A 
ATOM     74  F   UNL A   1      39.239  26.264  29.500  1.00  0.00    -0.203 F 
ATOM     75  C   UNL A   1      40.078  25.851  27.337  1.00  0.00     0.198 A 
ATOM     76  C   UNL A   1      41.471  27.483  26.264  1.00  0.00     0.198 A 
ATOM     77  F   UNL A   1      42.017  29.482  27.383  1.00  0.00    -0.203 F 
ATOM     78  F   UNL A   1      39.473  24.655  27.331  1.00  0.00    -0.200 F 
ATOM     79  C   UNL A   1      40.826  26.256  26.243  1.00  0.00     0.200 A 
ATOM     80  F   UNL A   1      42.186  27.882  25.204  1.00  0.00    -0.200 F 
ATOM     81  F   UNL A   1      40.931  25.459  25.171  1.00  0.00    -0.200 F 
ENDBRANCH  47  71
BRANCH  59  82
ATOM     82  C   UNL A   1      44.037  28.289  34.560  1.00  0.00     0.064 A 
ATOM     83  C   UNL A   1      43.853  27.071  35.229  1.00  0.00     0.173 A 
ATOM     84  C   UNL A   1      45.350  28.742  34.361  1.00  0.00     0.173 A 
ATOM     85  F   UNL A   1      42.616  26.605  35.455  1.00  0.00    -0.203 F 
ATOM     86  C   UNL A   1      44.944  26.338  35.689  1.00  0.00     0.198 A 
ATOM     87  C   UNL A   1      46.439  27.994  34.799  1.00  0.00     0.198 A 
ATOM     88  F   UNL A   1      45.577  29.898  33.720  1.00  0.00    -0.203 F 
ATOM     89  F   UNL A   1      44.745  25.191  36.353  1.00  0.00    -0.200 F 
ATOM     90  C   UNL A   1      46.235  26.795  35.465  1.00  0.00     0.200 A 
ATOM     91  F   UNL A   1      47.685  28.429  34.570  1.00  0.00    -0.200 F 
ATOM     92  F   UNL A   1      47.284  26.079  35.895  1.00  0.00    -0.200 F 
ENDBRANCH  59  82
ENDBRANCH  33  34
ENDBRANCH  25  28
ENDBRANCH  23  24
ENDBRANCH  22  23
ENDBRANCH   1  22
TORSDOF 15
ENDMDL
MODEL 2
REMARK VINA RESULT:     -11.7      5.846     11.263
REMARK SMILES CC[C@H](Oc1c(C)cc(Br)cc1N)C(=O)NCCCCNC(=O)c1ccc(-c2c3nc(c(-c4c(F)c(F)c(F)c(F)c4F)c4ccc([nH]4)c(-c4c(F)c(F)c(F)c(F)c4F)c4nc(c(-c5c(F)c(F)c(F)c(F)c5F)c5ccc2[nH]5)C=C4)C=C3)cc1
REMARK SMILES IDX 18 1 17 2 16 3 14 4 15 5 3 7 2 8 1 9 4 10 5 11 6 12 12 13
REMARK SMILES IDX 7 14 8 15 11 16 9 17 10 18 13 19 19 22 20 23 21 24 22 25
REMARK SMILES IDX 23 27 24 28 25 29 86 30 26 31 85 32 27 33 28 34 29 35 79 36
REMARK SMILES IDX 30 37 84 38 78 39 80 40 31 41 83 42 77 43 76 44 32 46 64 47
REMARK SMILES IDX 44 48 63 49 45 50 48 51 62 52 81 53 46 54 47 55 61 57 82 58
REMARK SMILES IDX 49 59 33 60 34 61 42 62 35 63 36 64 40 65 43 66 37 67 38 68
REMARK SMILES IDX 41 69 39 70 65 71 66 72 74 73 67 74 68 75 72 76 75 77 69 78
REMARK SMILES IDX 70 79 73 80 71 81 50 82 51 83 59 84 52 85 53 86 57 87 60 88
REMARK SMILES IDX 54 89 55 90 58 91 56 92
REMARK H PARENT 16 6 13 20 13 21 21 26 80 45 48 56
REMARK Flexibility Score: inf
ROOT
ATOM      1  C   UNL A   1      37.483  20.809  24.668  1.00  0.00     0.023 C 
ENDROOT
BRANCH   1   2
ATOM      2  C   UNL A   1      36.189  20.913  25.468  1.00  0.00     0.116 C 
BRANCH   2   3
ATOM      3  N   UNL A   1      35.153  20.012  25.002  1.00  0.00    -0.353 N 
ATOM      4  C   UNL A   1      33.855  20.307  24.669  1.00  0.00     0.261 C 
ATOM      5  O   UNL A   1      33.162  19.400  24.199  1.00  0.00    -0.271 OA
ATOM      6  H   UNL A   1      35.414  19.066  24.911  1.00  0.00     0.163 HD
BRANCH   4   7
ATOM      7  C   UNL A   1      33.299  21.740  24.839  1.00  0.00     0.261 C 
BRANCH   7   8
ATOM      8  C   UNL A   1      31.768  21.643  25.056  1.00  0.00     0.052 C 
ATOM      9  C   UNL A   1      31.035  22.708  25.856  1.00  0.00     0.008 C 
ENDBRANCH   7   8
BRANCH   7  10
ATOM     10  O   UNL A   1      33.856  22.443  23.732  1.00  0.00    -0.478 OA
BRANCH  10  11
ATOM     11  C   UNL A   1      33.838  23.800  23.591  1.00  0.00     0.146 A 
ATOM     12  C   UNL A   1      34.302  24.762  24.497  1.00  0.00    -0.006 A 
ATOM     13  C   UNL A   1      33.304  24.207  22.338  1.00  0.00     0.076 A 
ATOM     14  C   UNL A   1      35.080  24.455  25.742  1.00  0.00     0.048 C 
ATOM     15  C   UNL A   1      34.024  26.116  24.228  1.00  0.00     0.023 A 
ATOM     16  C   UNL A   1      33.025  25.552  22.103  1.00  0.00     0.045 A 
ATOM     17  C   UNL A   1      33.372  26.499  23.057  1.00  0.00     0.020 A 
ATOM     18  Br  UNL A   1      32.973  28.322  22.754  1.00  0.00    -0.051 Br
BRANCH  13  19
ATOM     19  N   UNL A   1      32.903  23.251  21.393  1.00  0.00    -0.396 N 
ATOM     20  H   UNL A   1      33.383  23.174  20.537  1.00  0.00     0.156 HD
ATOM     21  H   UNL A   1      32.140  22.658  21.586  1.00  0.00     0.156 HD
ENDBRANCH  13  19
ENDBRANCH  10  11
ENDBRANCH   7  10
ENDBRANCH   4   7
ENDBRANCH   2   3
ENDBRANCH   1   2
BRANCH   1  22
ATOM     22  C   UNL A   1      38.358  19.604  25.001  1.00  0.00     0.023 C 
BRANCH  22  23
ATOM     23  C   UNL A   1      39.430  19.851  26.054  1.00  0.00     0.116 C 
BRANCH  23  24
ATOM     24  N   UNL A   1      40.528  18.897  25.986  1.00  0.00    -0.352 N 
ATOM     25  C   UNL A   1      41.882  19.119  26.052  1.00  0.00     0.251 C 
ATOM     26  H   UNL A   1      40.261  17.956  25.876  1.00  0.00     0.163 HD
ATOM     27  O   UNL A   1      42.674  18.206  25.846  1.00  0.00    -0.269 OA
BRANCH  25  28
ATOM     28  C   UNL A   1      42.384  20.478  26.339  1.00  0.00     0.039 A 
ATOM     29  C   UNL A   1      42.731  21.308  25.269  1.00  0.00     0.014 A 
ATOM     30  C   UNL A   1      42.488  20.939  27.654  1.00  0.00     0.014 A 
ATOM     31  C   UNL A   1      43.109  22.628  25.518  1.00  0.00     0.010 A 
ATOM     32  C   UNL A   1      42.790  22.275  27.895  1.00  0.00     0.010 A 
ATOM     33  C   UNL A   1      43.104  23.132  26.829  1.00  0.00    -0.014 A 
BRANCH  33  34
ATOM     34  C   UNL A   1      43.438  24.550  27.108  1.00  0.00     0.031 A 
ATOM     35  C   UNL A   1      44.829  25.055  26.849  1.00  0.00     0.074 A 
ATOM     36  C   UNL A   1      42.506  25.368  27.634  1.00  0.00     0.049 A 
ATOM     37  N   UNL A   1      45.337  26.239  27.084  1.00  0.00    -0.248 NA
ATOM     38  C   UNL A   1      45.783  24.097  26.266  1.00  0.00     0.031 C 
ATOM     39  C   UNL A   1      41.130  24.985  27.954  1.00  0.00     0.029 A 
ATOM     40  N   UNL A   1      42.575  26.691  27.991  1.00  0.00    -0.354 N 
ATOM     41  C   UNL A   1      46.662  26.164  26.681  1.00  0.00     0.074 A 
ATOM     42  C   UNL A   1      46.900  24.807  26.244  1.00  0.00     0.031 C 
ATOM     43  C   UNL A   1      40.475  26.058  28.426  1.00  0.00     0.029 A 
ATOM     44  C   UNL A   1      41.393  27.193  28.478  1.00  0.00     0.049 A 
ATOM     45  H   UNL A   1      43.395  27.229  27.907  1.00  0.00     0.167 HD
ATOM     46  C   UNL A   1      47.590  27.150  26.650  1.00  0.00     0.037 A 
ATOM     47  C   UNL A   1      41.086  28.430  28.914  1.00  0.00     0.037 A 
ATOM     48  C   UNL A   1      47.346  28.504  27.066  1.00  0.00     0.049 A 
ATOM     49  C   UNL A   1      42.148  29.496  28.904  1.00  0.00     0.074 A 
ATOM     50  C   UNL A   1      48.215  29.581  27.048  1.00  0.00     0.029 A 
ATOM     51  N   UNL A   1      46.141  28.970  27.568  1.00  0.00    -0.354 N 
ATOM     52  N   UNL A   1      43.389  29.424  28.491  1.00  0.00    -0.248 NA
ATOM     53  C   UNL A   1      41.765  30.818  29.423  1.00  0.00     0.031 C 
ATOM     54  C   UNL A   1      47.545  30.691  27.571  1.00  0.00     0.029 A 
ATOM     55  C   UNL A   1      46.247  30.317  27.877  1.00  0.00     0.049 A 
ATOM     56  H   UNL A   1      45.329  28.425  27.689  1.00  0.00     0.167 HD
ATOM     57  C   UNL A   1      43.928  30.690  28.675  1.00  0.00     0.074 A 
ATOM     58  C   UNL A   1      42.875  31.517  29.227  1.00  0.00     0.031 C 
ATOM     59  C   UNL A   1      45.184  31.125  28.414  1.00  0.00     0.037 A 
BRANCH  46  60
ATOM     60  C   UNL A   1      48.951  26.804  26.124  1.00  0.00     0.064 A 
ATOM     61  C   UNL A   1      49.907  26.177  26.938  1.00  0.00     0.173 A 
ATOM     62  C   UNL A   1      49.288  27.053  24.786  1.00  0.00     0.173 A 
ATOM     63  F   UNL A   1      49.637  25.931  28.229  1.00  0.00    -0.203 F 
ATOM     64  C   UNL A   1      51.157  25.828  26.435  1.00  0.00     0.198 A 
ATOM     65  C   UNL A   1      50.529  26.678  24.279  1.00  0.00     0.198 A 
ATOM     66  F   UNL A   1      48.408  27.647  23.966  1.00  0.00    -0.203 F 
ATOM     67  F   UNL A   1      52.068  25.264  27.240  1.00  0.00    -0.200 F 
ATOM     68  C   UNL A   1      51.464  26.071  25.105  1.00  0.00     0.200 A 
ATOM     69  F   UNL A   1      50.821  26.903  22.990  1.00  0.00    -0.200 F 
ATOM     70  F   UNL A   1      52.662  25.723  24.618  1.00  0.00    -0.200 F 
ENDBRANCH  46  60
BRANCH  47  71
ATOM     71  C   UNL A   1      39.703  28.738  29.359  1.00  0.00     0.064 A 
ATOM     72  C   UNL A   1      39.316  28.514  30.689  1.00  0.00     0.173 A 
ATOM     73  C   UNL A   1      38.746  29.265  28.482  1.00  0.00     0.173 A 
ATOM     74  F   UNL A   1      40.192  27.990  31.561  1.00  0.00    -0.203 F 
ATOM     75  C   UNL A   1      38.022  28.794  31.120  1.00  0.00     0.198 A 
ATOM     76  C   UNL A   1      37.458  29.568  28.920  1.00  0.00     0.198 A 
ATOM     77  F   UNL A   1      39.067  29.499  27.201  1.00  0.00    -0.203 F 
ATOM     78  F   UNL A   1      37.669  28.537  32.386  1.00  0.00    -0.200 F 
ATOM     79  C   UNL A   1      37.096  29.328  30.236  1.00  0.00     0.200 A 
ATOM     80  F   UNL A   1      36.569  30.094  28.066  1.00  0.00    -0.200 F 
ATOM     81  F   UNL A   1      35.853  29.603  30.653  1.00  0.00    -0.200 F 
ENDBRANCH  47  71
BRANCH  59  82
ATOM     82  C   UNL A   1      45.490  32.566  28.697  1.00  0.00     0.064 A 
ATOM     83  C   UNL A   1      45.231  33.567  27.751  1.00  0.00     0.173 A 
ATOM     84  C   UNL A   1      45.977  32.955  29.954  1.00  0.00     0.173 A 
ATOM     85  F   UNL A   1      44.778  33.242  26.531  1.00  0.00    -0.203 F 
ATOM     86  C   UNL A   1      45.458  34.907  28.050  1.00  0.00     0.198 A 
ATOM     87  C   UNL A   1      46.179  34.298  30.258  1.00  0.00     0.198 A 
ATOM     88  F   UNL A   1      46.234  32.034  30.895  1.00  0.00    -0.203 F 
ATOM     89  F   UNL A   1      45.232  35.846  27.120  1.00  0.00    -0.200 F 
ATOM     90  C   UNL A   1      45.923  35.272  29.305  1.00  0.00     0.200 A 
ATOM     91  F   UNL A   1      46.613  34.650  31.475  1.00  0.00    -0.200 F 
ATOM     92  F   UNL A   1      46.126  36.565  29.596  1.00  0.00    -0.200 F 
ENDBRANCH  59  82
ENDBRANCH  33  34
ENDBRANCH  25  28
ENDBRANCH  23  24
ENDBRANCH  22  23
ENDBRANCH   1  22
TORSDOF 15
ENDMDL
MODEL 3
REMARK VINA RESULT:     -11.6      0.653      7.462
REMARK SMILES CC[C@H](Oc1c(C)cc(Br)cc1N)C(=O)NCCCCNC(=O)c1ccc(-c2c3nc(c(-c4c(F)c(F)c(F)c(F)c4F)c4ccc([nH]4)c(-c4c(F)c(F)c(F)c(F)c4F)c4nc(c(-c5c(F)c(F)c(F)c(F)c5F)c5ccc2[nH]5)C=C4)C=C3)cc1
REMARK SMILES IDX 18 1 17 2 16 3 14 4 15 5 3 7 2 8 1 9 4 10 5 11 6 12 12 13
REMARK SMILES IDX 7 14 8 15 11 16 9 17 10 18 13 19 19 22 20 23 21 24 22 25
REMARK SMILES IDX 23 27 24 28 25 29 86 30 26 31 85 32 27 33 28 34 29 35 79 36
REMARK SMILES IDX 30 37 84 38 78 39 80 40 31 41 83 42 77 43 76 44 32 46 64 47
REMARK SMILES IDX 44 48 63 49 45 50 48 51 62 52 81 53 46 54 47 55 61 57 82 58
REMARK SMILES IDX 49 59 33 60 34 61 42 62 35 63 36 64 40 65 43 66 37 67 38 68
REMARK SMILES IDX 41 69 39 70 65 71 66 72 74 73 67 74 68 75 72 76 75 77 69 78
REMARK SMILES IDX 70 79 73 80 71 81 50 82 51 83 59 84 52 85 53 86 57 87 60 88
REMARK SMILES IDX 54 89 55 90 58 91 56 92
REMARK H PARENT 16 6 13 20 13 21 21 26 80 45 48 56
REMARK Flexibility Score: inf
ROOT
ATOM      1  C   UNL A   1      31.677  30.432  26.484  1.00  0.00     0.023 C 
ENDROOT
BRANCH   1   2
ATOM      2  C   UNL A   1      32.027  29.948  25.081  1.00  0.00     0.116 C 
BRANCH   2   3
ATOM      3  N   UNL A   1      30.863  29.721  24.247  1.00  0.00    -0.353 N 
ATOM      4  C   UNL A   1      30.551  28.608  23.506  1.00  0.00     0.261 C 
ATOM      5  O   UNL A   1      29.455  28.585  22.939  1.00  0.00    -0.271 OA
ATOM      6  H   UNL A   1      30.212  30.459  24.207  1.00  0.00     0.163 HD
BRANCH   4   7
ATOM      7  C   UNL A   1      31.527  27.412  23.424  1.00  0.00     0.261 C 
BRANCH   7   8
ATOM      8  C   UNL A   1      31.368  26.751  22.032  1.00  0.00     0.052 C 
ATOM      9  C   UNL A   1      32.517  25.971  21.414  1.00  0.00     0.008 C 
ENDBRANCH   7   8
BRANCH   7  10
ATOM     10  O   UNL A   1      31.272  26.695  24.627  1.00  0.00    -0.478 OA
BRANCH  10  11
ATOM     11  C   UNL A   1      32.066  25.700  25.117  1.00  0.00     0.146 A 
ATOM     12  C   UNL A   1      33.319  25.827  25.730  1.00  0.00    -0.006 A 
ATOM     13  C   UNL A   1      31.469  24.416  24.986  1.00  0.00     0.076 A 
ATOM     14  C   UNL A   1      33.948  27.132  26.121  1.00  0.00     0.048 C 
ATOM     15  C   UNL A   1      34.048  24.653  26.002  1.00  0.00     0.023 A 
ATOM     16  C   UNL A   1      32.217  23.270  25.249  1.00  0.00     0.045 A 
ATOM     17  C   UNL A   1      33.509  23.394  25.741  1.00  0.00     0.020 A 
ATOM     18  Br  UNL A   1      34.537  21.843  26.074  1.00  0.00    -0.051 Br
BRANCH  13  19
ATOM     19  N   UNL A   1      30.184  24.283  24.441  1.00  0.00    -0.396 N 
ATOM     20  H   UNL A   1      29.897  23.421  24.063  1.00  0.00     0.156 HD
ATOM     21  H   UNL A   1      29.569  25.053  24.436  1.00  0.00     0.156 HD
ENDBRANCH  13  19
ENDBRANCH  10  11
ENDBRANCH   7  10
ENDBRANCH   4   7
ENDBRANCH   2   3
ENDBRANCH   1   2
BRANCH   1  22
ATOM     22  C   UNL A   1      31.516  31.942  26.630  1.00  0.00     0.023 C 
BRANCH  22  23
ATOM     23  C   UNL A   1      32.695  32.661  27.276  1.00  0.00     0.116 C 
BRANCH  23  24
ATOM     24  N   UNL A   1      32.405  34.050  27.603  1.00  0.00    -0.352 N 
ATOM     25  C   UNL A   1      32.979  34.860  28.553  1.00  0.00     0.251 C 
ATOM     26  H   UNL A   1      31.694  34.470  27.067  1.00  0.00     0.163 HD
ATOM     27  O   UNL A   1      32.520  35.974  28.782  1.00  0.00    -0.269 OA
BRANCH  25  28
ATOM     28  C   UNL A   1      34.136  34.367  29.328  1.00  0.00     0.039 A 
ATOM     29  C   UNL A   1      33.905  33.687  30.527  1.00  0.00     0.014 A 
ATOM     30  C   UNL A   1      35.440  34.552  28.861  1.00  0.00     0.014 A 
ATOM     31  C   UNL A   1      34.979  33.126  31.218  1.00  0.00     0.010 A 
ATOM     32  C   UNL A   1      36.500  33.928  29.509  1.00  0.00     0.010 A 
ATOM     33  C   UNL A   1      36.279  33.209  30.694  1.00  0.00    -0.014 A 
BRANCH  33  34
ATOM     34  C   UNL A   1      37.426  32.563  31.379  1.00  0.00     0.031 A 
ATOM     35  C   UNL A   1      38.164  31.443  30.704  1.00  0.00     0.074 A 
ATOM     36  C   UNL A   1      37.771  32.953  32.621  1.00  0.00     0.049 A 
ATOM     37  N   UNL A   1      39.149  30.709  31.158  1.00  0.00    -0.248 NA
ATOM     38  C   UNL A   1      37.726  31.085  29.345  1.00  0.00     0.031 C 
ATOM     39  C   UNL A   1      37.112  34.010  33.389  1.00  0.00     0.029 A 
ATOM     40  N   UNL A   1      38.765  32.506  33.455  1.00  0.00    -0.354 N 
ATOM     41  C   UNL A   1      39.443  29.808  30.145  1.00  0.00     0.074 A 
ATOM     42  C   UNL A   1      38.497  30.043  29.077  1.00  0.00     0.031 C 
ATOM     43  C   UNL A   1      37.741  34.154  34.566  1.00  0.00     0.029 A 
ATOM     44  C   UNL A   1      38.822  33.176  34.653  1.00  0.00     0.049 A 
ATOM     45  H   UNL A   1      39.377  31.773  33.218  1.00  0.00     0.167 HD
ATOM     46  C   UNL A   1      40.434  28.887  30.097  1.00  0.00     0.037 A 
ATOM     47  C   UNL A   1      39.655  33.019  35.699  1.00  0.00     0.037 A 
ATOM     48  C   UNL A   1      41.388  28.669  31.151  1.00  0.00     0.049 A 
ATOM     49  C   UNL A   1      40.724  31.962  35.635  1.00  0.00     0.074 A 
ATOM     50  C   UNL A   1      42.445  27.777  31.186  1.00  0.00     0.029 A 
ATOM     51  N   UNL A   1      41.403  29.357  32.355  1.00  0.00    -0.354 N 
ATOM     52  N   UNL A   1      41.014  31.137  34.659  1.00  0.00    -0.248 NA
ATOM     53  C   UNL A   1      41.582  31.813  36.820  1.00  0.00     0.031 C 
ATOM     54  C   UNL A   1      43.080  27.902  32.425  1.00  0.00     0.029 A 
ATOM     55  C   UNL A   1      42.445  28.900  33.146  1.00  0.00     0.049 A 
ATOM     56  H   UNL A   1      40.768  30.065  32.610  1.00  0.00     0.167 HD
ATOM     57  C   UNL A   1      42.098  30.390  35.099  1.00  0.00     0.074 A 
ATOM     58  C   UNL A   1      42.425  30.868  36.426  1.00  0.00     0.031 C 
ATOM     59  C   UNL A   1      42.761  29.395  34.460  1.00  0.00     0.037 A 
BRANCH  46  60
ATOM     60  C   UNL A   1      40.555  28.062  28.851  1.00  0.00     0.064 A 
ATOM     61  C   UNL A   1      39.866  26.847  28.715  1.00  0.00     0.173 A 
ATOM     62  C   UNL A   1      41.321  28.509  27.765  1.00  0.00     0.173 A 
ATOM     63  F   UNL A   1      39.130  26.370  29.732  1.00  0.00    -0.203 F 
ATOM     64  C   UNL A   1      39.954  26.101  27.543  1.00  0.00     0.198 A 
ATOM     65  C   UNL A   1      41.385  27.773  26.585  1.00  0.00     0.198 A 
ATOM     66  F   UNL A   1      41.996  29.665  27.844  1.00  0.00    -0.203 F 
ATOM     67  F   UNL A   1      39.317  24.925  27.450  1.00  0.00    -0.200 F 
ATOM     68  C   UNL A   1      40.706  26.568  26.477  1.00  0.00     0.200 A 
ATOM     69  F   UNL A   1      42.104  28.231  25.550  1.00  0.00    -0.200 F 
ATOM     70  F   UNL A   1      40.780  25.856  25.345  1.00  0.00    -0.200 F 
ENDBRANCH  46  60
BRANCH  47  71
ATOM     71  C   UNL A   1      39.538  33.910  36.881  1.00  0.00     0.064 A 
ATOM     72  C   UNL A   1      38.793  33.513  38.002  1.00  0.00     0.173 A 
ATOM     73  C   UNL A   1      40.165  35.163  36.926  1.00  0.00     0.173 A 
ATOM     74  F   UNL A   1      38.157  32.331  37.998  1.00  0.00    -0.203 F 
ATOM     75  C   UNL A   1      38.671  34.341  39.116  1.00  0.00     0.198 A 
ATOM     76  C   UNL A   1      40.062  35.979  38.050  1.00  0.00     0.198 A 
ATOM     77  F   UNL A   1      40.890  35.588  35.881  1.00  0.00    -0.203 F 
ATOM     78  F   UNL A   1      37.925  33.951  40.158  1.00  0.00    -0.200 F 
ATOM     79  C   UNL A   1      39.312  35.570  39.142  1.00  0.00     0.200 A 
ATOM     80  F   UNL A   1      40.692  37.162  38.076  1.00  0.00    -0.200 F 
ATOM     81  F   UNL A   1      39.199  36.362  40.216  1.00  0.00    -0.200 F 
ENDBRANCH  47  71
BRANCH  59  82
ATOM     82  C   UNL A   1      43.922  28.768  35.173  1.00  0.00     0.064 A 
ATOM     83  C   UNL A   1      43.762  27.618  35.958  1.00  0.00     0.173 A 
ATOM     84  C   UNL A   1      45.217  29.279  35.006  1.00  0.00     0.173 A 
ATOM     85  F   UNL A   1      42.541  27.100  36.157  1.00  0.00    -0.203 F 
ATOM     86  C   UNL A   1      44.859  27.007  36.560  1.00  0.00     0.198 A 
ATOM     87  C   UNL A   1      46.314  28.651  35.588  1.00  0.00     0.198 A 
ATOM     88  F   UNL A   1      45.422  30.374  34.257  1.00  0.00    -0.203 F 
ATOM     89  F   UNL A   1      44.680  25.925  37.331  1.00  0.00    -0.200 F 
ATOM     90  C   UNL A   1      46.134  27.518  36.367  1.00  0.00     0.200 A 
ATOM     91  F   UNL A   1      47.547  29.137  35.389  1.00  0.00    -0.200 F 
ATOM     92  F   UNL A   1      47.190  26.919  36.935  1.00  0.00    -0.200 F 
ENDBRANCH  59  82
ENDBRANCH  33  34
ENDBRANCH  25  28
ENDBRANCH  23  24
ENDBRANCH  22  23
ENDBRANCH   1  22
TORSDOF 15
ENDMDL
