MODEL 1
REMARK VINA RESULT:     -12.4      0.000      0.000
REMARK SMILES C[NH2+][C@@]1(C(=O)NCCCCNC(=O)c2ccc(-c3c4nc(c(-c5c(F)c(F)c(F)c(F)c5F)c5ccc([nH]5)c(-c5c(F)c(F)c(F)c(F)c5F)c5nc(c(-c6c(F)c(F)c(F)c(F)c6F)c6ccc3[nH]6)C=C5)C=C4)cc2)C=CC=C(c2ccccc2)C1
REMARK SMILES IDX 9 1 8 2 7 3 6 4 4 5 5 6 3 8 77 9 87 10 78 11 80 12 79 13
REMARK SMILES IDX 2 14 1 15 81 18 82 19 86 20 83 21 85 22 84 23 10 24 11 25
REMARK SMILES IDX 12 26 13 28 14 29 15 30 76 31 16 32 75 33 17 34 18 35 19 36
REMARK SMILES IDX 69 37 20 38 74 39 68 40 70 41 21 42 73 43 67 44 66 45 22 47
REMARK SMILES IDX 54 48 34 49 53 50 35 51 38 52 52 53 71 54 36 55 37 56 51 58
REMARK SMILES IDX 72 59 39 60 23 61 24 62 32 63 25 64 26 65 30 66 33 67 27 68
REMARK SMILES IDX 28 69 31 70 29 71 55 72 56 73 64 74 57 75 58 76 62 77 65 78
REMARK SMILES IDX 59 79 60 80 63 81 61 82 40 83 41 84 49 85 42 86 43 87 47 88
REMARK SMILES IDX 50 89 44 90 45 91 48 92 46 93
REMARK H PARENT 6 7 2 16 2 17 11 27 70 46 38 57
REMARK Flexibility Score: inf
ROOT
ATOM      1  C   UNL A   1      31.770  28.923  26.673  1.00  0.00     0.023 C 
ENDROOT
BRANCH   1   2
ATOM      2  C   UNL A   1      32.154  27.473  26.958  1.00  0.00     0.023 C 
BRANCH   2   3
ATOM      3  C   UNL A   1      33.226  26.905  26.030  1.00  0.00     0.116 C 
BRANCH   3   4
ATOM      4  N   UNL A   1      32.910  25.557  25.600  1.00  0.00    -0.350 N 
ATOM      5  C   UNL A   1      32.433  25.095  24.405  1.00  0.00     0.285 C 
ATOM      6  O   UNL A   1      32.368  23.863  24.292  1.00  0.00    -0.267 OA
ATOM      7  H   UNL A   1      33.065  24.860  26.278  1.00  0.00     0.163 HD
BRANCH   5   8
ATOM      8  C   UNL A   1      32.053  26.058  23.208  1.00  0.00     0.198 C 
ATOM      9  C   UNL A   1      33.336  26.789  22.830  1.00  0.00     0.051 C 
ATOM     10  C   UNL A   1      30.886  27.022  23.609  1.00  0.00     0.120 C 
ATOM     11  C   UNL A   1      33.405  28.115  22.645  1.00  0.00     0.003 C 
ATOM     12  C   UNL A   1      31.062  28.468  23.193  1.00  0.00    -0.034 C 
ATOM     13  C   UNL A   1      32.237  28.951  22.756  1.00  0.00     0.004 C 
BRANCH   8  14
ATOM     14  N   UNL A   1      31.765  25.215  21.998  1.00  0.00    -0.332 N 
ATOM     15  C   UNL A   1      32.497  25.575  20.791  1.00  0.00     0.332 C 
ATOM     16  H   UNL A   1      31.996  24.248  22.228  1.00  0.00     0.347 HD
ATOM     17  H   UNL A   1      30.780  25.364  21.782  1.00  0.00     0.347 HD
ENDBRANCH   8  14
BRANCH  12  18
ATOM     18  C   UNL A   1      29.878  29.340  23.262  1.00  0.00    -0.022 A 
ATOM     19  C   UNL A   1      29.983  30.617  23.829  1.00  0.00     0.008 A 
ATOM     20  C   UNL A   1      28.645  28.927  22.742  1.00  0.00     0.008 A 
ATOM     21  C   UNL A   1      28.877  31.466  23.876  1.00  0.00     0.001 A 
ATOM     22  C   UNL A   1      27.536  29.777  22.795  1.00  0.00     0.001 A 
ATOM     23  C   UNL A   1      27.654  31.045  23.361  1.00  0.00     0.000 A 
ENDBRANCH  12  18
ENDBRANCH   5   8
ENDBRANCH   3   4
ENDBRANCH   2   3
ENDBRANCH   1   2
BRANCH   1  24
ATOM     24  C   UNL A   1      32.912  29.802  26.181  1.00  0.00     0.116 C 
BRANCH  24  25
ATOM     25  N   UNL A   1      32.720  31.209  26.496  1.00  0.00    -0.352 N 
ATOM     26  C   UNL A   1      33.443  32.010  27.345  1.00  0.00     0.251 C 
ATOM     27  H   UNL A   1      31.969  31.649  26.036  1.00  0.00     0.163 HD
ATOM     28  O   UNL A   1      33.055  33.146  27.605  1.00  0.00    -0.269 OA
BRANCH  26  29
ATOM     29  C   UNL A   1      34.676  31.490  27.968  1.00  0.00     0.039 A 
ATOM     30  C   UNL A   1      35.773  32.340  28.109  1.00  0.00     0.014 A 
ATOM     31  C   UNL A   1      34.744  30.171  28.427  1.00  0.00     0.014 A 
ATOM     32  C   UNL A   1      36.920  31.885  28.758  1.00  0.00     0.010 A 
ATOM     33  C   UNL A   1      35.850  29.748  29.154  1.00  0.00     0.010 A 
ATOM     34  C   UNL A   1      36.957  30.595  29.314  1.00  0.00    -0.014 A 
BRANCH  34  35
ATOM     35  C   UNL A   1      38.154  30.107  30.043  1.00  0.00     0.031 A 
ATOM     36  C   UNL A   1      38.421  30.573  31.448  1.00  0.00     0.074 A 
ATOM     37  C   UNL A   1      39.025  29.286  29.425  1.00  0.00     0.049 A 
ATOM     38  N   UNL A   1      39.423  30.286  32.241  1.00  0.00    -0.248 NA
ATOM     39  C   UNL A   1      37.449  31.513  32.030  1.00  0.00     0.031 C 
ATOM     40  C   UNL A   1      38.902  28.805  28.048  1.00  0.00     0.029 A 
ATOM     41  N   UNL A   1      40.187  28.711  29.876  1.00  0.00    -0.354 N 
ATOM     42  C   UNL A   1      39.207  31.019  33.401  1.00  0.00     0.074 A 
ATOM     43  C   UNL A   1      38.020  31.814  33.186  1.00  0.00     0.031 C 
ATOM     44  C   UNL A   1      39.924  27.977  27.780  1.00  0.00     0.029 A 
ATOM     45  C   UNL A   1      40.795  27.901  28.949  1.00  0.00     0.049 A 
ATOM     46  H   UNL A   1      40.549  28.865  30.777  1.00  0.00     0.167 HD
ATOM     47  C   UNL A   1      39.920  31.009  34.553  1.00  0.00     0.037 A 
ATOM     48  C   UNL A   1      41.926  27.176  29.037  1.00  0.00     0.037 A 
ATOM     49  C   UNL A   1      41.089  30.196  34.769  1.00  0.00     0.049 A 
ATOM     50  C   UNL A   1      42.706  27.191  30.325  1.00  0.00     0.074 A 
ATOM     51  C   UNL A   1      41.846  30.061  35.920  1.00  0.00     0.029 A 
ATOM     52  N   UNL A   1      41.675  29.384  33.808  1.00  0.00    -0.354 N 
ATOM     53  N   UNL A   1      42.448  27.821  31.444  1.00  0.00    -0.248 NA
ATOM     54  C   UNL A   1      43.933  26.382  30.361  1.00  0.00     0.031 C 
ATOM     55  C   UNL A   1      42.922  29.214  35.638  1.00  0.00     0.029 A 
ATOM     56  C   UNL A   1      42.800  28.767  34.331  1.00  0.00     0.049 A 
ATOM     57  H   UNL A   1      41.339  29.264  32.891  1.00  0.00     0.167 HD
ATOM     58  C   UNL A   1      43.455  27.458  32.328  1.00  0.00     0.074 A 
ATOM     59  C   UNL A   1      44.321  26.540  31.617  1.00  0.00     0.031 C 
ATOM     60  C   UNL A   1      43.646  27.848  33.613  1.00  0.00     0.037 A 
BRANCH  47  61
ATOM     61  C   UNL A   1      39.456  31.907  35.664  1.00  0.00     0.064 A 
ATOM     62  C   UNL A   1      39.950  33.213  35.817  1.00  0.00     0.173 A 
ATOM     63  C   UNL A   1      38.491  31.464  36.581  1.00  0.00     0.173 A 
ATOM     64  F   UNL A   1      40.884  33.685  34.977  1.00  0.00    -0.203 F 
ATOM     65  C   UNL A   1      39.525  34.024  36.867  1.00  0.00     0.198 A 
ATOM     66  C   UNL A   1      38.040  32.291  37.607  1.00  0.00     0.198 A 
ATOM     67  F   UNL A   1      37.979  30.228  36.480  1.00  0.00    -0.203 F 
ATOM     68  F   UNL A   1      40.060  35.242  37.029  1.00  0.00    -0.200 F 
ATOM     69  C   UNL A   1      38.566  33.565  37.757  1.00  0.00     0.200 A 
ATOM     70  F   UNL A   1      37.102  31.851  38.456  1.00  0.00    -0.200 F 
ATOM     71  F   UNL A   1      38.155  34.348  38.764  1.00  0.00    -0.200 F 
ENDBRANCH  47  61
BRANCH  48  72
ATOM     72  C   UNL A   1      42.369  26.341  27.888  1.00  0.00     0.064 A 
ATOM     73  C   UNL A   1      43.321  26.822  26.978  1.00  0.00     0.173 A 
ATOM     74  C   UNL A   1      41.847  25.059  27.667  1.00  0.00     0.173 A 
ATOM     75  F   UNL A   1      43.836  28.051  27.135  1.00  0.00    -0.203 F 
ATOM     76  C   UNL A   1      43.715  26.064  25.878  1.00  0.00     0.198 A 
ATOM     77  C   UNL A   1      42.265  24.288  26.584  1.00  0.00     0.198 A 
ATOM     78  F   UNL A   1      40.938  24.549  28.511  1.00  0.00    -0.203 F 
ATOM     79  F   UNL A   1      44.588  26.569  24.996  1.00  0.00    -0.200 F 
ATOM     80  C   UNL A   1      43.191  24.795  25.685  1.00  0.00     0.200 A 
ATOM     81  F   UNL A   1      41.767  23.056  26.410  1.00  0.00    -0.200 F 
ATOM     82  F   UNL A   1      43.571  24.064  24.629  1.00  0.00    -0.200 F 
ENDBRANCH  48  72
BRANCH  60  83
ATOM     83  C   UNL A   1      44.808  27.244  34.351  1.00  0.00     0.064 A 
ATOM     84  C   UNL A   1      44.697  26.027  35.040  1.00  0.00     0.173 A 
ATOM     85  C   UNL A   1      46.058  27.883  34.345  1.00  0.00     0.173 A 
ATOM     86  F   UNL A   1      43.521  25.383  35.088  1.00  0.00    -0.203 F 
ATOM     87  C   UNL A   1      45.785  25.490  35.724  1.00  0.00     0.198 A 
ATOM     88  C   UNL A   1      47.153  27.324  34.999  1.00  0.00     0.198 A 
ATOM     89  F   UNL A   1      46.222  29.045  33.695  1.00  0.00    -0.203 F 
ATOM     90  F   UNL A   1      45.639  24.357  36.425  1.00  0.00    -0.200 F 
ATOM     91  C   UNL A   1      47.013  26.134  35.697  1.00  0.00     0.200 A 
ATOM     92  F   UNL A   1      48.342  27.940  34.956  1.00  0.00    -0.200 F 
ATOM     93  F   UNL A   1      48.059  25.613  36.351  1.00  0.00    -0.200 F 
ENDBRANCH  60  83
ENDBRANCH  34  35
ENDBRANCH  26  29
ENDBRANCH  24  25
ENDBRANCH   1  24
TORSDOF 13
ENDMDL
MODEL 2
REMARK VINA RESULT:     -12.3      4.828     10.215
REMARK SMILES C[NH2+][C@@]1(C(=O)NCCCCNC(=O)c2ccc(-c3c4nc(c(-c5c(F)c(F)c(F)c(F)c5F)c5ccc([nH]5)c(-c5c(F)c(F)c(F)c(F)c5F)c5nc(c(-c6c(F)c(F)c(F)c(F)c6F)c6ccc3[nH]6)C=C5)C=C4)cc2)C=CC=C(c2ccccc2)C1
REMARK SMILES IDX 9 1 8 2 7 3 6 4 4 5 5 6 3 8 77 9 87 10 78 11 80 12 79 13
REMARK SMILES IDX 2 14 1 15 81 18 82 19 86 20 83 21 85 22 84 23 10 24 11 25
REMARK SMILES IDX 12 26 13 28 14 29 15 30 76 31 16 32 75 33 17 34 18 35 19 36
REMARK SMILES IDX 69 37 20 38 74 39 68 40 70 41 21 42 73 43 67 44 66 45 22 47
REMARK SMILES IDX 54 48 34 49 53 50 35 51 38 52 52 53 71 54 36 55 37 56 51 58
REMARK SMILES IDX 72 59 39 60 23 61 24 62 32 63 25 64 26 65 30 66 33 67 27 68
REMARK SMILES IDX 28 69 31 70 29 71 55 72 56 73 64 74 57 75 58 76 62 77 65 78
REMARK SMILES IDX 59 79 60 80 63 81 61 82 40 83 41 84 49 85 42 86 43 87 47 88
REMARK SMILES IDX 50 89 44 90 45 91 48 92 46 93
REMARK H PARENT 6 7 2 16 2 17 11 27 70 46 38 57
REMARK Flexibility Score: inf
ROOT
ATOM      1  C   UNL A   1      36.760  22.209  23.889  1.00  0.00     0.023 C 
ENDROOT
BRANCH   1   2
ATOM      2  C   UNL A   1      35.720  23.260  23.509  1.00  0.00     0.023 C 
BRANCH   2   3
ATOM      3  C   UNL A   1      35.157  24.050  24.688  1.00  0.00     0.116 C 
BRANCH   3   4
ATOM      4  N   UNL A   1      33.934  24.746  24.338  1.00  0.00    -0.350 N 
ATOM      5  C   UNL A   1      32.626  24.402  24.543  1.00  0.00     0.285 C 
ATOM      6  O   UNL A   1      31.789  25.261  24.232  1.00  0.00    -0.267 OA
ATOM      7  H   UNL A   1      34.065  25.607  23.878  1.00  0.00     0.163 HD
BRANCH   5   8
ATOM      8  C   UNL A   1      32.198  23.028  25.202  1.00  0.00     0.198 C 
ATOM      9  C   UNL A   1      32.779  23.037  26.611  1.00  0.00     0.051 C 
ATOM     10  C   UNL A   1      32.684  21.814  24.339  1.00  0.00     0.120 C 
ATOM     11  C   UNL A   1      33.457  22.006  27.138  1.00  0.00     0.003 C 
ATOM     12  C   UNL A   1      33.299  20.667  25.114  1.00  0.00    -0.034 C 
ATOM     13  C   UNL A   1      33.653  20.782  26.406  1.00  0.00     0.004 C 
BRANCH   8  14
ATOM     14  N   UNL A   1      30.715  23.060  25.438  1.00  0.00    -0.332 N 
ATOM     15  C   UNL A   1      30.302  23.334  26.808  1.00  0.00     0.332 C 
ATOM     16  H   UNL A   1      30.318  23.785  24.840  1.00  0.00     0.347 HD
ATOM     17  H   UNL A   1      30.379  22.121  25.227  1.00  0.00     0.347 HD
ENDBRANCH   8  14
BRANCH  12  18
ATOM     18  C   UNL A   1      33.480  19.392  24.403  1.00  0.00    -0.022 A 
ATOM     19  C   UNL A   1      34.609  18.602  24.662  1.00  0.00     0.008 A 
ATOM     20  C   UNL A   1      32.525  18.933  23.486  1.00  0.00     0.008 A 
ATOM     21  C   UNL A   1      34.781  17.377  24.016  1.00  0.00     0.001 A 
ATOM     22  C   UNL A   1      32.702  17.707  22.837  1.00  0.00     0.001 A 
ATOM     23  C   UNL A   1      33.828  16.931  23.103  1.00  0.00     0.000 A 
ENDBRANCH  12  18
ENDBRANCH   5   8
ENDBRANCH   3   4
ENDBRANCH   2   3
ENDBRANCH   1   2
BRANCH   1  24
ATOM     24  C   UNL A   1      37.002  22.059  25.385  1.00  0.00     0.116 C 
BRANCH  24  25
ATOM     25  N   UNL A   1      37.958  21.010  25.703  1.00  0.00    -0.352 N 
ATOM     26  C   UNL A   1      39.233  21.124  26.200  1.00  0.00     0.251 C 
ATOM     27  H   UNL A   1      37.649  20.090  25.539  1.00  0.00     0.163 HD
ATOM     28  O   UNL A   1      39.960  20.137  26.275  1.00  0.00    -0.269 OA
BRANCH  26  29
ATOM     29  C   UNL A   1      39.738  22.448  26.618  1.00  0.00     0.039 A 
ATOM     30  C   UNL A   1      40.760  22.512  27.566  1.00  0.00     0.014 A 
ATOM     31  C   UNL A   1      39.217  23.620  26.064  1.00  0.00     0.014 A 
ATOM     32  C   UNL A   1      41.296  23.751  27.920  1.00  0.00     0.010 A 
ATOM     33  C   UNL A   1      39.813  24.843  26.346  1.00  0.00     0.010 A 
ATOM     34  C   UNL A   1      40.849  24.924  27.290  1.00  0.00    -0.014 A 
BRANCH  34  35
ATOM     35  C   UNL A   1      41.435  26.245  27.624  1.00  0.00     0.031 A 
ATOM     36  C   UNL A   1      42.833  26.582  27.182  1.00  0.00     0.074 A 
ATOM     37  C   UNL A   1      40.729  27.121  28.365  1.00  0.00     0.049 A 
ATOM     38  N   UNL A   1      43.532  27.668  27.397  1.00  0.00    -0.248 NA
ATOM     39  C   UNL A   1      43.554  25.548  26.423  1.00  0.00     0.031 C 
ATOM     40  C   UNL A   1      39.385  26.891  28.896  1.00  0.00     0.029 A 
ATOM     41  N   UNL A   1      41.048  28.383  28.802  1.00  0.00    -0.354 N 
ATOM     42  C   UNL A   1      44.772  27.439  26.816  1.00  0.00     0.074 A 
ATOM     43  C   UNL A   1      44.755  26.090  26.298  1.00  0.00     0.031 C 
ATOM     44  C   UNL A   1      38.978  27.989  29.551  1.00  0.00     0.029 A 
ATOM     45  C   UNL A   1      40.045  28.985  29.523  1.00  0.00     0.049 A 
ATOM     46  H   UNL A   1      41.911  28.816  28.616  1.00  0.00     0.167 HD
ATOM     47  C   UNL A   1      45.822  28.288  26.700  1.00  0.00     0.037 A 
ATOM     48  C   UNL A   1      39.995  30.203  30.093  1.00  0.00     0.037 A 
ATOM     49  C   UNL A   1      45.823  29.639  27.197  1.00  0.00     0.049 A 
ATOM     50  C   UNL A   1      41.179  31.123  29.959  1.00  0.00     0.074 A 
ATOM     51  C   UNL A   1      46.809  30.603  27.074  1.00  0.00     0.029 A 
ATOM     52  N   UNL A   1      44.788  30.215  27.920  1.00  0.00    -0.354 N 
ATOM     53  N   UNL A   1      42.315  30.928  29.335  1.00  0.00    -0.248 NA
ATOM     54  C   UNL A   1      41.067  32.439  30.603  1.00  0.00     0.031 C 
ATOM     55  C   UNL A   1      46.395  31.742  27.773  1.00  0.00     0.029 A 
ATOM     56  C   UNL A   1      45.124  31.513  28.275  1.00  0.00     0.049 A 
ATOM     57  H   UNL A   1      43.942  29.768  28.147  1.00  0.00     0.167 HD
ATOM     58  C   UNL A   1      43.037  32.105  29.478  1.00  0.00     0.074 A 
ATOM     59  C   UNL A   1      42.203  33.014  30.238  1.00  0.00     0.031 C 
ATOM     60  C   UNL A   1      44.278  32.408  29.022  1.00  0.00     0.037 A 
BRANCH  47  61
ATOM     61  C   UNL A   1      47.056  27.775  26.012  1.00  0.00     0.064 A 
ATOM     62  C   UNL A   1      47.177  27.770  24.613  1.00  0.00     0.173 A 
ATOM     63  C   UNL A   1      48.141  27.296  26.762  1.00  0.00     0.173 A 
ATOM     64  F   UNL A   1      46.166  28.205  23.846  1.00  0.00    -0.203 F 
ATOM     65  C   UNL A   1      48.319  27.269  23.993  1.00  0.00     0.198 A 
ATOM     66  C   UNL A   1      49.296  26.831  26.140  1.00  0.00     0.198 A 
ATOM     67  F   UNL A   1      48.083  27.282  28.103  1.00  0.00    -0.203 F 
ATOM     68  F   UNL A   1      48.384  27.217  22.656  1.00  0.00    -0.200 F 
ATOM     69  C   UNL A   1      49.380  26.807  24.756  1.00  0.00     0.200 A 
ATOM     70  F   UNL A   1      50.326  26.398  26.880  1.00  0.00    -0.200 F 
ATOM     71  F   UNL A   1      50.480  26.329  24.158  1.00  0.00    -0.200 F 
ENDBRANCH  47  61
BRANCH  48  72
ATOM     72  C   UNL A   1      38.766  30.643  30.807  1.00  0.00     0.064 A 
ATOM     73  C   UNL A   1      37.685  31.191  30.103  1.00  0.00     0.173 A 
ATOM     74  C   UNL A   1      38.650  30.539  32.201  1.00  0.00     0.173 A 
ATOM     75  F   UNL A   1      37.755  31.330  28.770  1.00  0.00    -0.203 F 
ATOM     76  C   UNL A   1      36.545  31.641  30.765  1.00  0.00     0.198 A 
ATOM     77  C   UNL A   1      37.496  30.960  32.860  1.00  0.00     0.198 A 
ATOM     78  F   UNL A   1      39.652  30.016  32.921  1.00  0.00    -0.203 F 
ATOM     79  F   UNL A   1      35.548  32.207  30.072  1.00  0.00    -0.200 F 
ATOM     80  C   UNL A   1      36.450  31.519  32.143  1.00  0.00     0.200 A 
ATOM     81  F   UNL A   1      37.402  30.826  34.190  1.00  0.00    -0.200 F 
ATOM     82  F   UNL A   1      35.353  31.949  32.781  1.00  0.00    -0.200 F 
ENDBRANCH  48  72
BRANCH  60  83
ATOM     83  C   UNL A   1      44.789  33.796  29.287  1.00  0.00     0.064 A 
ATOM     84  C   UNL A   1      44.536  34.860  28.408  1.00  0.00     0.173 A 
ATOM     85  C   UNL A   1      45.522  34.069  30.453  1.00  0.00     0.173 A 
ATOM     86  F   UNL A   1      43.853  34.650  27.273  1.00  0.00    -0.203 F 
ATOM     87  C   UNL A   1      45.027  36.137  28.669  1.00  0.00     0.198 A 
ATOM     88  C   UNL A   1      45.980  35.355  30.728  1.00  0.00     0.198 A 
ATOM     89  F   UNL A   1      45.785  33.091  31.332  1.00  0.00    -0.203 F 
ATOM     90  F   UNL A   1      44.825  37.123  27.785  1.00  0.00    -0.200 F 
ATOM     91  C   UNL A   1      45.742  36.385  29.832  1.00  0.00     0.200 A 
ATOM     92  F   UNL A   1      46.654  35.595  31.861  1.00  0.00    -0.200 F 
ATOM     93  F   UNL A   1      46.209  37.615  30.083  1.00  0.00    -0.200 F 
ENDBRANCH  60  83
ENDBRANCH  34  35
ENDBRANCH  26  29
ENDBRANCH  24  25
ENDBRANCH   1  24
TORSDOF 13
ENDMDL
MODEL 3
REMARK VINA RESULT:     -12.3      0.207      1.622
REMARK SMILES C[NH2+][C@@]1(C(=O)NCCCCNC(=O)c2ccc(-c3c4nc(c(-c5c(F)c(F)c(F)c(F)c5F)c5ccc([nH]5)c(-c5c(F)c(F)c(F)c(F)c5F)c5nc(c(-c6c(F)c(F)c(F)c(F)c6F)c6ccc3[nH]6)C=C5)C=C4)cc2)C=CC=C(c2ccccc2)C1
REMARK SMILES IDX 9 1 8 2 7 3 6 4 4 5 5 6 3 8 77 9 87 10 78 11 80 12 79 13
REMARK SMILES IDX 2 14 1 15 81 18 82 19 86 20 83 21 85 22 84 23 10 24 11 25
REMARK SMILES IDX 12 26 13 28 14 29 15 30 76 31 16 32 75 33 17 34 18 35 19 36
REMARK SMILES IDX 69 37 20 38 74 39 68 40 70 41 21 42 73 43 67 44 66 45 22 47
REMARK SMILES IDX 54 48 34 49 53 50 35 51 38 52 52 53 71 54 36 55 37 56 51 58
REMARK SMILES IDX 72 59 39 60 23 61 24 62 32 63 25 64 26 65 30 66 33 67 27 68
REMARK SMILES IDX 28 69 31 70 29 71 55 72 56 73 64 74 57 75 58 76 62 77 65 78
REMARK SMILES IDX 59 79 60 80 63 81 61 82 40 83 41 84 49 85 42 86 43 87 47 88
REMARK SMILES IDX 50 89 44 90 45 91 48 92 46 93
REMARK H PARENT 6 7 2 16 2 17 11 27 70 46 38 57
REMARK Flexibility Score: inf
ROOT
ATOM      1  C   UNL A   1      31.767  28.911  26.707  1.00  0.00     0.023 C 
ENDROOT
BRANCH   1   2
ATOM      2  C   UNL A   1      32.159  27.457  26.955  1.00  0.00     0.023 C 
BRANCH   2   3
ATOM      3  C   UNL A   1      33.211  26.910  25.992  1.00  0.00     0.116 C 
BRANCH   3   4
ATOM      4  N   UNL A   1      32.902  25.560  25.563  1.00  0.00    -0.350 N 
ATOM      5  C   UNL A   1      32.407  25.097  24.376  1.00  0.00     0.285 C 
ATOM      6  O   UNL A   1      32.353  23.864  24.260  1.00  0.00    -0.267 OA
ATOM      7  H   UNL A   1      33.078  24.862  26.236  1.00  0.00     0.163 HD
BRANCH   5   8
ATOM      8  C   UNL A   1      31.993  26.059  23.190  1.00  0.00     0.198 C 
ATOM      9  C   UNL A   1      33.263  26.797  22.782  1.00  0.00     0.051 C 
ATOM     10  C   UNL A   1      30.831  27.018  23.621  1.00  0.00     0.120 C 
ATOM     11  C   UNL A   1      33.321  28.124  22.597  1.00  0.00     0.003 C 
ATOM     12  C   UNL A   1      30.990  28.464  23.203  1.00  0.00    -0.034 C 
ATOM     13  C   UNL A   1      32.152  28.953  22.738  1.00  0.00     0.004 C 
BRANCH   8  14
ATOM     14  N   UNL A   1      31.680  25.216  21.987  1.00  0.00    -0.332 N 
ATOM     15  C   UNL A   1      32.727  25.148  20.976  1.00  0.00     0.332 C 
ATOM     16  H   UNL A   1      31.492  24.267  22.309  1.00  0.00     0.347 HD
ATOM     17  H   UNL A   1      30.883  25.663  21.533  1.00  0.00     0.347 HD
ENDBRANCH   8  14
BRANCH  12  18
ATOM     18  C   UNL A   1      29.804  29.330  23.303  1.00  0.00    -0.022 A 
ATOM     19  C   UNL A   1      29.928  30.628  23.818  1.00  0.00     0.008 A 
ATOM     20  C   UNL A   1      28.549  28.892  22.861  1.00  0.00     0.008 A 
ATOM     21  C   UNL A   1      28.818  31.470  23.893  1.00  0.00     0.001 A 
ATOM     22  C   UNL A   1      27.438  29.736  22.941  1.00  0.00     0.001 A 
ATOM     23  C   UNL A   1      27.574  31.024  23.456  1.00  0.00     0.000 A 
ENDBRANCH  12  18
ENDBRANCH   5   8
ENDBRANCH   3   4
ENDBRANCH   2   3
ENDBRANCH   1   2
BRANCH   1  24
ATOM     24  C   UNL A   1      32.897  29.803  26.211  1.00  0.00     0.116 C 
BRANCH  24  25
ATOM     25  N   UNL A   1      32.690  31.208  26.525  1.00  0.00    -0.352 N 
ATOM     26  C   UNL A   1      33.417  32.023  27.358  1.00  0.00     0.251 C 
ATOM     27  H   UNL A   1      31.924  31.635  26.079  1.00  0.00     0.163 HD
ATOM     28  O   UNL A   1      33.017  33.154  27.622  1.00  0.00    -0.269 OA
BRANCH  26  29
ATOM     29  C   UNL A   1      34.669  31.523  27.959  1.00  0.00     0.039 A 
ATOM     30  C   UNL A   1      35.750  32.396  28.094  1.00  0.00     0.014 A 
ATOM     31  C   UNL A   1      34.773  30.201  28.402  1.00  0.00     0.014 A 
ATOM     32  C   UNL A   1      36.916  31.959  28.723  1.00  0.00     0.010 A 
ATOM     33  C   UNL A   1      35.897  29.795  29.111  1.00  0.00     0.010 A 
ATOM     34  C   UNL A   1      36.988  30.664  29.265  1.00  0.00    -0.014 A 
BRANCH  34  35
ATOM     35  C   UNL A   1      38.205  30.195  29.971  1.00  0.00     0.031 A 
ATOM     36  C   UNL A   1      38.481  30.652  31.378  1.00  0.00     0.074 A 
ATOM     37  C   UNL A   1      39.085  29.400  29.333  1.00  0.00     0.049 A 
ATOM     38  N   UNL A   1      39.500  30.379  32.155  1.00  0.00    -0.248 NA
ATOM     39  C   UNL A   1      37.497  31.563  31.984  1.00  0.00     0.031 C 
ATOM     40  C   UNL A   1      38.954  28.931  27.952  1.00  0.00     0.029 A 
ATOM     41  N   UNL A   1      40.265  28.846  29.762  1.00  0.00    -0.354 N 
ATOM     42  C   UNL A   1      39.283  31.093  33.326  1.00  0.00     0.074 A 
ATOM     43  C   UNL A   1      38.076  31.864  33.135  1.00  0.00     0.031 C 
ATOM     44  C   UNL A   1      39.990  28.129  27.662  1.00  0.00     0.029 A 
ATOM     45  C   UNL A   1      40.879  28.059  28.819  1.00  0.00     0.049 A 
ATOM     46  H   UNL A   1      40.636  28.998  30.660  1.00  0.00     0.167 HD
ATOM     47  C   UNL A   1      40.012  31.087  34.468  1.00  0.00     0.037 A 
ATOM     48  C   UNL A   1      42.026  27.358  28.883  1.00  0.00     0.037 A 
ATOM     49  C   UNL A   1      41.201  30.297  34.659  1.00  0.00     0.049 A 
ATOM     50  C   UNL A   1      42.823  27.377  30.160  1.00  0.00     0.074 A 
ATOM     51  C   UNL A   1      41.976  30.167  35.798  1.00  0.00     0.029 A 
ATOM     52  N   UNL A   1      41.791  29.509  33.681  1.00  0.00    -0.354 N 
ATOM     53  N   UNL A   1      42.567  27.989  31.290  1.00  0.00    -0.248 NA
ATOM     54  C   UNL A   1      44.067  26.595  30.172  1.00  0.00     0.031 C 
ATOM     55  C   UNL A   1      43.067  29.347  35.492  1.00  0.00     0.029 A 
ATOM     56  C   UNL A   1      42.937  28.912  34.183  1.00  0.00     0.049 A 
ATOM     57  H   UNL A   1      41.446  29.391  32.767  1.00  0.00     0.167 HD
ATOM     58  C   UNL A   1      43.593  27.639  32.157  1.00  0.00     0.074 A 
ATOM     59  C   UNL A   1      44.470  26.748  31.424  1.00  0.00     0.031 C 
ATOM     60  C   UNL A   1      43.793  28.019  33.443  1.00  0.00     0.037 A 
BRANCH  47  61
ATOM     61  C   UNL A   1      39.544  31.963  35.594  1.00  0.00     0.064 A 
ATOM     62  C   UNL A   1      40.054  33.257  35.789  1.00  0.00     0.173 A 
ATOM     63  C   UNL A   1      38.558  31.510  36.485  1.00  0.00     0.173 A 
ATOM     64  F   UNL A   1      41.008  33.736  34.976  1.00  0.00    -0.203 F 
ATOM     65  C   UNL A   1      39.624  34.046  36.853  1.00  0.00     0.198 A 
ATOM     66  C   UNL A   1      38.103  32.317  37.525  1.00  0.00     0.198 A 
ATOM     67  F   UNL A   1      38.030  30.285  36.344  1.00  0.00    -0.203 F 
ATOM     68  F   UNL A   1      40.173  35.252  37.055  1.00  0.00    -0.200 F 
ATOM     69  C   UNL A   1      38.645  33.578  37.716  1.00  0.00     0.200 A 
ATOM     70  F   UNL A   1      37.146  31.868  38.348  1.00  0.00    -0.200 F 
ATOM     71  F   UNL A   1      38.229  34.341  38.737  1.00  0.00    -0.200 F 
ENDBRANCH  47  61
BRANCH  48  72
ATOM     72  C   UNL A   1      42.471  26.546  27.719  1.00  0.00     0.064 A 
ATOM     73  C   UNL A   1      41.986  25.245  27.525  1.00  0.00     0.173 A 
ATOM     74  C   UNL A   1      43.395  27.042  26.788  1.00  0.00     0.173 A 
ATOM     75  F   UNL A   1      41.115  24.718  28.399  1.00  0.00    -0.203 F 
ATOM     76  C   UNL A   1      42.425  24.463  26.460  1.00  0.00     0.198 A 
ATOM     77  C   UNL A   1      43.810  26.270  25.705  1.00  0.00     0.198 A 
ATOM     78  F   UNL A   1      43.886  28.282  26.924  1.00  0.00    -0.203 F 
ATOM     79  F   UNL A   1      41.983  23.205  26.327  1.00  0.00    -0.200 F 
ATOM     80  C   UNL A   1      43.333  24.978  25.547  1.00  0.00     0.200 A 
ATOM     81  F   UNL A   1      44.676  26.778  24.817  1.00  0.00    -0.200 F 
ATOM     82  F   UNL A   1      43.754  24.227  24.520  1.00  0.00    -0.200 F 
ENDBRANCH  48  72
BRANCH  60  83
ATOM     83  C   UNL A   1      44.978  27.433  34.158  1.00  0.00     0.064 A 
ATOM     84  C   UNL A   1      46.200  28.115  34.251  1.00  0.00     0.173 A 
ATOM     85  C   UNL A   1      44.877  26.178  34.781  1.00  0.00     0.173 A 
ATOM     86  F   UNL A   1      46.353  29.309  33.661  1.00  0.00    -0.203 F 
ATOM     87  C   UNL A   1      47.288  27.548  34.912  1.00  0.00     0.198 A 
ATOM     88  C   UNL A   1      45.956  25.632  35.472  1.00  0.00     0.198 A 
ATOM     89  F   UNL A   1      43.729  25.486  34.730  1.00  0.00    -0.203 F 
ATOM     90  F   UNL A   1      48.463  28.191  34.936  1.00  0.00    -0.200 F 
ATOM     91  C   UNL A   1      47.163  26.312  35.528  1.00  0.00     0.200 A 
ATOM     92  F   UNL A   1      45.826  24.445  36.081  1.00  0.00    -0.200 F 
ATOM     93  F   UNL A   1      48.209  25.771  36.167  1.00  0.00    -0.200 F 
ENDBRANCH  60  83
ENDBRANCH  34  35
ENDBRANCH  26  29
ENDBRANCH  24  25
ENDBRANCH   1  24
TORSDOF 13
ENDMDL
