MODEL 1
REMARK VINA RESULT:     -14.7      0.000      0.000
REMARK SMILES Cc1c(NCc2ccccn2)cccc1C(=O)N1CCOC[C@@H]1CC(=O)NCCCCNC(=O)c1ccc(-c2c3nc(c(-c4c(F)c(F)c(F)c(F)c4F)c4ccc([nH]4)c(-c4c(F)c(F)c(F)c(F)c4F)c4nc(c(-c5c(F)c(F)c(F)c(F)c5F)c5ccc2[nH]5)C=C4)C=C3)cc1
REMARK SMILES IDX 25 1 26 2 27 3 24 5 23 6 18 7 19 8 20 9 22 10 21 11 16 12
REMARK SMILES IDX 17 13 15 14 1 15 2 16 3 17 12 18 14 19 13 20 4 21 5 23 6 24
REMARK SMILES IDX 7 25 11 26 8 27 10 28 9 29 28 30 29 31 30 32 31 33 32 34
REMARK SMILES IDX 33 35 34 37 35 38 36 39 97 40 37 41 96 42 38 43 39 44 40 45
REMARK SMILES IDX 90 46 41 47 95 48 89 49 91 50 42 51 94 52 88 53 87 54 43 56
REMARK SMILES IDX 75 57 55 58 74 59 56 60 59 61 73 62 92 63 57 64 58 65 72 67
REMARK SMILES IDX 93 68 60 69 44 70 45 71 53 72 46 73 47 74 51 75 54 76 48 77
REMARK SMILES IDX 49 78 52 79 50 80 76 81 77 82 85 83 78 84 79 85 83 86 86 87
REMARK SMILES IDX 80 88 81 89 84 90 82 91 61 92 62 93 70 94 63 95 64 96 68 97
REMARK SMILES IDX 71 98 65 99 66 100 69 101 67 102
REMARK H PARENT 27 4 4 22 32 36 91 55 59 66
REMARK Flexibility Score: inf
ROOT
ATOM      1  C   UNL A   1      33.319  29.479  26.423  1.00  0.00     0.222 C 
ATOM      2  O   UNL A   1      34.125  28.552  26.353  1.00  0.00    -0.275 OA
ATOM      3  N   UNL A   1      33.783  30.715  26.772  1.00  0.00    -0.356 N 
ATOM      4  H   UNL A   1      34.706  30.954  26.525  1.00  0.00     0.163 HD
ENDROOT
BRANCH   1   5
ATOM      5  C   UNL A   1      31.844  29.306  26.063  1.00  0.00     0.127 C 
BRANCH   5   6
ATOM      6  C   UNL A   1      31.424  28.464  24.835  1.00  0.00     0.120 C 
ATOM      7  N   UNL A   1      31.485  26.939  24.838  1.00  0.00    -0.331 N 
ATOM      8  C   UNL A   1      30.787  26.435  23.646  1.00  0.00     0.148 C 
ATOM      9  C   UNL A   1      31.309  27.055  22.342  1.00  0.00     0.181 C 
ATOM     10  C   UNL A   1      32.066  28.971  23.520  1.00  0.00     0.185 C 
ATOM     11  O   UNL A   1      31.319  28.486  22.390  1.00  0.00    -0.377 OA
BRANCH   7  12
ATOM     12  C   UNL A   1      31.273  26.156  25.988  1.00  0.00     0.254 C 
ATOM     13  O   UNL A   1      30.491  26.520  26.865  1.00  0.00    -0.269 OA
BRANCH  12  14
ATOM     14  C   UNL A   1      32.227  24.972  26.323  1.00  0.00     0.045 A 
ATOM     15  C   UNL A   1      30.341  22.824  26.699  1.00  0.00     0.047 C 
ATOM     16  C   UNL A   1      31.706  23.235  26.269  1.00  0.00    -0.015 A 
ATOM     17  C   UNL A   1      32.819  21.937  25.637  1.00  0.00     0.038 A 
ATOM     18  C   UNL A   1      34.419  22.396  24.930  1.00  0.00     0.026 A 
ATOM     19  C   UNL A   1      33.906  25.398  25.770  1.00  0.00     0.014 A 
ATOM     20  C   UNL A   1      34.987  24.147  25.034  1.00  0.00     0.003 A 
BRANCH  17  21
ATOM     21  N   UNL A   1      32.388  20.613  25.622  1.00  0.00    -0.379 N 
ATOM     22  H   UNL A   1      32.156  20.166  26.468  1.00  0.00     0.160 HD
BRANCH  21  23
ATOM     23  C   UNL A   1      32.279  19.884  24.364  1.00  0.00     0.169 C 
BRANCH  23  24
ATOM     24  C   UNL A   1      32.751  18.440  24.483  1.00  0.00     0.059 A 
ATOM     25  C   UNL A   1      33.452  17.810  23.452  1.00  0.00     0.026 A 
ATOM     26  N   UNL A   1      32.421  17.779  25.625  1.00  0.00    -0.259 NA
ATOM     27  C   UNL A   1      33.845  16.483  23.603  1.00  0.00     0.004 A 
ATOM     28  C   UNL A   1      32.799  16.485  25.735  1.00  0.00     0.111 A 
ATOM     29  C   UNL A   1      33.511  15.802  24.764  1.00  0.00     0.020 A 
ENDBRANCH  23  24
ENDBRANCH  21  23
ENDBRANCH  17  21
ENDBRANCH  12  14
ENDBRANCH   7  12
ENDBRANCH   5   6
ENDBRANCH   1   5
BRANCH   3  30
ATOM     30  C   UNL A   1      32.996  31.683  27.480  1.00  0.00     0.116 C 
BRANCH  30  31
ATOM     31  C   UNL A   1      33.893  32.899  27.737  1.00  0.00     0.023 C 
BRANCH  31  32
ATOM     32  C   UNL A   1      33.281  34.091  28.469  1.00  0.00     0.023 C 
BRANCH  32  33
ATOM     33  C   UNL A   1      34.163  34.405  29.848  1.00  0.00     0.116 C 
BRANCH  33  34
ATOM     34  N   UNL A   1      35.769  33.453  30.784  1.00  0.00    -0.352 N 
ATOM     35  C   UNL A   1      36.573  32.229  31.062  1.00  0.00     0.251 C 
ATOM     36  H   UNL A   1      36.217  34.166  31.294  1.00  0.00     0.163 HD
ATOM     37  O   UNL A   1      37.430  32.366  31.946  1.00  0.00    -0.269 OA
BRANCH  35  38
ATOM     38  C   UNL A   1      36.624  30.901  30.310  1.00  0.00     0.039 A 
ATOM     39  C   UNL A   1      36.773  29.756  31.091  1.00  0.00     0.014 A 
ATOM     40  C   UNL A   1      36.859  30.754  28.949  1.00  0.00     0.014 A 
ATOM     41  C   UNL A   1      37.642  28.751  30.663  1.00  0.00     0.010 A 
ATOM     42  C   UNL A   1      37.861  29.860  28.569  1.00  0.00     0.010 A 
ATOM     43  C   UNL A   1      38.386  28.965  29.510  1.00  0.00    -0.014 A 
BRANCH  43  44
ATOM     44  C   UNL A   1      39.819  28.588  29.420  1.00  0.00     0.031 A 
ATOM     45  C   UNL A   1      40.237  27.248  28.945  1.00  0.00     0.074 A 
ATOM     46  C   UNL A   1      40.794  29.513  29.647  1.00  0.00     0.049 A 
ATOM     47  N   UNL A   1      41.457  26.828  28.954  1.00  0.00    -0.248 NA
ATOM     48  C   UNL A   1      39.304  26.228  28.483  1.00  0.00     0.031 C 
ATOM     49  C   UNL A   1      42.220  29.447  29.303  1.00  0.00     0.029 A 
ATOM     50  N   UNL A   1      40.708  30.699  30.399  1.00  0.00    -0.354 N 
ATOM     51  C   UNL A   1      41.518  25.605  28.337  1.00  0.00     0.074 A 
ATOM     52  C   UNL A   1      40.139  25.251  28.113  1.00  0.00     0.031 C 
ATOM     53  C   UNL A   1      42.906  30.311  30.066  1.00  0.00     0.029 A 
ATOM     54  C   UNL A   1      41.973  30.890  31.006  1.00  0.00     0.049 A 
ATOM     55  H   UNL A   1      39.919  31.283  30.486  1.00  0.00     0.167 HD
ATOM     56  C   UNL A   1      42.746  25.080  28.061  1.00  0.00     0.037 A 
ATOM     57  C   UNL A   1      42.092  30.866  32.366  1.00  0.00     0.037 A 
ATOM     58  C   UNL A   1      43.779  25.766  28.851  1.00  0.00     0.049 A 
ATOM     59  C   UNL A   1      42.855  29.662  32.883  1.00  0.00     0.074 A 
ATOM     60  C   UNL A   1      44.774  26.698  28.616  1.00  0.00     0.029 A 
ATOM     61  N   UNL A   1      43.676  25.670  30.229  1.00  0.00    -0.354 N 
ATOM     62  N   UNL A   1      43.427  28.771  32.118  1.00  0.00    -0.248 NA
ATOM     63  C   UNL A   1      42.960  29.316  34.301  1.00  0.00     0.031 C 
ATOM     64  C   UNL A   1      45.219  27.196  29.885  1.00  0.00     0.029 A 
ATOM     65  C   UNL A   1      44.521  26.540  30.884  1.00  0.00     0.049 A 
ATOM     66  H   UNL A   1      43.065  25.049  30.690  1.00  0.00     0.167 HD
ATOM     67  C   UNL A   1      43.889  27.734  32.880  1.00  0.00     0.074 A 
ATOM     68  C   UNL A   1      43.580  28.123  34.246  1.00  0.00     0.031 C 
ATOM     69  C   UNL A   1      44.452  26.614  32.339  1.00  0.00     0.037 A 
BRANCH  56  70
ATOM     70  C   UNL A   1      43.058  23.984  27.057  1.00  0.00     0.064 A 
ATOM     71  C   UNL A   1      42.689  22.646  27.327  1.00  0.00     0.173 A 
ATOM     72  C   UNL A   1      43.805  24.144  25.869  1.00  0.00     0.173 A 
ATOM     73  F   UNL A   1      41.976  22.326  28.417  1.00  0.00    -0.203 F 
ATOM     74  C   UNL A   1      43.061  21.575  26.504  1.00  0.00     0.198 A 
ATOM     75  C   UNL A   1      44.150  23.079  25.032  1.00  0.00     0.198 A 
ATOM     76  F   UNL A   1      44.275  25.325  25.469  1.00  0.00    -0.203 F 
ATOM     77  F   UNL A   1      42.719  20.324  26.844  1.00  0.00    -0.200 F 
ATOM     78  C   UNL A   1      43.792  21.790  25.356  1.00  0.00     0.200 A 
ATOM     79  F   UNL A   1      44.858  23.318  23.919  1.00  0.00    -0.200 F 
ATOM     80  F   UNL A   1      44.162  20.769  24.573  1.00  0.00    -0.200 F 
ENDBRANCH  56  70
BRANCH  57  81
ATOM     81  C   UNL A   1      40.943  31.562  33.012  1.00  0.00     0.064 A 
ATOM     82  C   UNL A   1      39.949  30.738  33.587  1.00  0.00     0.173 A 
ATOM     83  C   UNL A   1      41.047  32.872  33.486  1.00  0.00     0.173 A 
ATOM     84  F   UNL A   1      39.792  29.479  33.148  1.00  0.00    -0.203 F 
ATOM     85  C   UNL A   1      39.237  31.140  34.713  1.00  0.00     0.198 A 
ATOM     86  C   UNL A   1      40.296  33.287  34.590  1.00  0.00     0.198 A 
ATOM     87  F   UNL A   1      41.989  33.696  33.005  1.00  0.00    -0.203 F 
ATOM     88  F   UNL A   1      38.442  30.270  35.351  1.00  0.00    -0.200 F 
ATOM     89  C   UNL A   1      39.438  32.404  35.234  1.00  0.00     0.200 A 
ATOM     90  F   UNL A   1      40.520  34.495  35.127  1.00  0.00    -0.200 F 
ATOM     91  F   UNL A   1      38.866  32.751  36.396  1.00  0.00    -0.200 F 
ENDBRANCH  57  81
BRANCH  69  92
ATOM     92  C   UNL A   1      44.962  25.469  33.174  1.00  0.00     0.064 A 
ATOM     93  C   UNL A   1      44.111  24.704  33.988  1.00  0.00     0.173 A 
ATOM     94  C   UNL A   1      46.338  25.166  33.264  1.00  0.00     0.173 A 
ATOM     95  F   UNL A   1      42.793  24.954  34.027  1.00  0.00    -0.203 F 
ATOM     96  C   UNL A   1      44.597  23.670  34.792  1.00  0.00     0.198 A 
ATOM     97  C   UNL A   1      46.827  24.177  34.115  1.00  0.00     0.198 A 
ATOM     98  F   UNL A   1      47.247  25.796  32.507  1.00  0.00    -0.203 F 
ATOM     99  F   UNL A   1      43.741  22.921  35.500  1.00  0.00    -0.200 F 
ATOM    100  C   UNL A   1      45.956  23.415  34.865  1.00  0.00     0.200 A 
ATOM    101  F   UNL A   1      48.149  23.961  34.192  1.00  0.00    -0.200 F 
ATOM    102  F   UNL A   1      46.422  22.435  35.650  1.00  0.00    -0.200 F 
ENDBRANCH  69  92
ENDBRANCH  43  44
ENDBRANCH  35  38
ENDBRANCH  33  34
ENDBRANCH  32  33
ENDBRANCH  31  32
ENDBRANCH  30  31
ENDBRANCH   3  30
TORSDOF 17
ENDMDL
MODEL 2
REMARK VINA RESULT:     -13.7      2.582      4.727
REMARK SMILES Cc1c(NCc2ccccn2)cccc1C(=O)N1CCOC[C@@H]1CC(=O)NCCCCNC(=O)c1ccc(-c2c3nc(c(-c4c(F)c(F)c(F)c(F)c4F)c4ccc([nH]4)c(-c4c(F)c(F)c(F)c(F)c4F)c4nc(c(-c5c(F)c(F)c(F)c(F)c5F)c5ccc2[nH]5)C=C4)C=C3)cc1
REMARK SMILES IDX 25 1 26 2 27 3 24 5 23 6 18 7 19 8 20 9 22 10 21 11 16 12
REMARK SMILES IDX 17 13 15 14 1 15 2 16 3 17 12 18 14 19 13 20 4 21 5 23 6 24
REMARK SMILES IDX 7 25 11 26 8 27 10 28 9 29 28 30 29 31 30 32 31 33 32 34
REMARK SMILES IDX 33 35 34 37 35 38 36 39 97 40 37 41 96 42 38 43 39 44 40 45
REMARK SMILES IDX 90 46 41 47 95 48 89 49 91 50 42 51 94 52 88 53 87 54 43 56
REMARK SMILES IDX 75 57 55 58 74 59 56 60 59 61 73 62 92 63 57 64 58 65 72 67
REMARK SMILES IDX 93 68 60 69 44 70 45 71 53 72 46 73 47 74 51 75 54 76 48 77
REMARK SMILES IDX 49 78 52 79 50 80 76 81 77 82 85 83 78 84 79 85 83 86 86 87
REMARK SMILES IDX 80 88 81 89 84 90 82 91 61 92 62 93 70 94 63 95 64 96 68 97
REMARK SMILES IDX 71 98 65 99 66 100 69 101 67 102
REMARK H PARENT 27 4 4 22 32 36 91 55 59 66
REMARK Flexibility Score: inf
ROOT
ATOM      1  C   UNL A   1      31.985  27.884  27.048  1.00  0.00     0.222 C 
ATOM      2  O   UNL A   1      31.027  27.333  27.589  1.00  0.00    -0.275 OA
ATOM      3  N   UNL A   1      32.290  29.163  27.417  1.00  0.00    -0.356 N 
ATOM      4  H   UNL A   1      32.083  29.445  28.338  1.00  0.00     0.163 HD
ENDROOT
BRANCH   1   5
ATOM      5  C   UNL A   1      32.882  27.160  26.044  1.00  0.00     0.127 C 
BRANCH   5   6
ATOM      6  C   UNL A   1      32.297  26.593  24.728  1.00  0.00     0.120 C 
ATOM      7  N   UNL A   1      32.745  25.252  24.155  1.00  0.00    -0.331 N 
ATOM      8  C   UNL A   1      31.836  24.878  23.061  1.00  0.00     0.148 C 
ATOM      9  C   UNL A   1      31.702  25.975  21.994  1.00  0.00     0.181 C 
ATOM     10  C   UNL A   1      32.298  27.634  23.581  1.00  0.00     0.185 C 
ATOM     11  O   UNL A   1      31.360  27.243  22.563  1.00  0.00    -0.377 OA
BRANCH   7  12
ATOM     12  C   UNL A   1      33.148  24.163  24.949  1.00  0.00     0.254 C 
ATOM     13  O   UNL A   1      33.094  24.223  26.176  1.00  0.00    -0.269 OA
BRANCH  12  14
ATOM     14  C   UNL A   1      33.941  22.979  24.322  1.00  0.00     0.045 A 
ATOM     15  C   UNL A   1      36.655  23.907  24.613  1.00  0.00     0.047 C 
ATOM     16  C   UNL A   1      35.724  22.745  24.557  1.00  0.00    -0.015 A 
ATOM     17  C   UNL A   1      36.434  21.082  24.787  1.00  0.00     0.038 A 
ATOM     18  C   UNL A   1      35.337  19.651  24.913  1.00  0.00     0.026 A 
ATOM     19  C   UNL A   1      32.867  21.513  24.276  1.00  0.00     0.014 A 
ATOM     20  C   UNL A   1      33.530  19.864  24.614  1.00  0.00     0.003 A 
BRANCH  17  21
ATOM     21  N   UNL A   1      37.810  20.942  24.954  1.00  0.00    -0.379 N 
ATOM     22  H   UNL A   1      38.329  20.415  24.304  1.00  0.00     0.160 HD
BRANCH  21  23
ATOM     23  C   UNL A   1      38.486  21.568  26.084  1.00  0.00     0.169 C 
BRANCH  23  24
ATOM     24  C   UNL A   1      39.971  21.230  26.137  1.00  0.00     0.059 A 
ATOM     25  C   UNL A   1      40.949  22.226  26.173  1.00  0.00     0.026 A 
ATOM     26  N   UNL A   1      40.300  19.910  26.105  1.00  0.00    -0.259 NA
ATOM     27  C   UNL A   1      42.293  21.864  26.202  1.00  0.00     0.004 A 
ATOM     28  C   UNL A   1      41.614  19.590  26.113  1.00  0.00     0.111 A 
ATOM     29  C   UNL A   1      42.637  20.521  26.168  1.00  0.00     0.020 A 
ENDBRANCH  23  24
ENDBRANCH  21  23
ENDBRANCH  17  21
ENDBRANCH  12  14
ENDBRANCH   7  12
ENDBRANCH   5   6
ENDBRANCH   1   5
BRANCH   3  30
ATOM     30  C   UNL A   1      32.892  30.117  26.532  1.00  0.00     0.116 C 
BRANCH  30  31
ATOM     31  C   UNL A   1      33.604  31.159  27.403  1.00  0.00     0.023 C 
BRANCH  31  32
ATOM     32  C   UNL A   1      34.987  30.805  27.946  1.00  0.00     0.023 C 
BRANCH  32  33
ATOM     33  C   UNL A   1      35.406  31.891  29.139  1.00  0.00     0.116 C 
BRANCH  33  34
ATOM     34  N   UNL A   1      34.493  32.516  30.910  1.00  0.00    -0.352 N 
ATOM     35  C   UNL A   1      34.577  32.968  32.328  1.00  0.00     0.251 C 
ATOM     36  H   UNL A   1      33.529  32.509  30.709  1.00  0.00     0.163 HD
ATOM     37  O   UNL A   1      33.487  33.038  32.912  1.00  0.00    -0.269 OA
BRANCH  35  38
ATOM     38  C   UNL A   1      35.768  33.523  33.108  1.00  0.00     0.039 A 
ATOM     39  C   UNL A   1      36.579  34.431  32.431  1.00  0.00     0.014 A 
ATOM     40  C   UNL A   1      36.291  32.980  34.275  1.00  0.00     0.014 A 
ATOM     41  C   UNL A   1      37.965  34.336  32.565  1.00  0.00     0.010 A 
ATOM     42  C   UNL A   1      37.665  32.739  34.304  1.00  0.00     0.010 A 
ATOM     43  C   UNL A   1      38.486  33.286  33.311  1.00  0.00    -0.014 A 
BRANCH  43  44
ATOM     44  C   UNL A   1      39.677  32.521  32.861  1.00  0.00     0.031 A 
ATOM     45  C   UNL A   1      39.549  31.353  31.958  1.00  0.00     0.074 A 
ATOM     46  C   UNL A   1      40.934  32.955  33.164  1.00  0.00     0.049 A 
ATOM     47  N   UNL A   1      40.532  30.586  31.628  1.00  0.00    -0.248 NA
ATOM     48  C   UNL A   1      38.282  30.899  31.400  1.00  0.00     0.031 C 
ATOM     49  C   UNL A   1      42.213  32.552  32.565  1.00  0.00     0.029 A 
ATOM     50  N   UNL A   1      41.332  33.788  34.225  1.00  0.00    -0.354 N 
ATOM     51  C   UNL A   1      40.105  29.684  30.688  1.00  0.00     0.074 A 
ATOM     52  C   UNL A   1      38.680  29.885  30.624  1.00  0.00     0.031 C 
ATOM     53  C   UNL A   1      43.214  32.847  33.407  1.00  0.00     0.029 A 
ATOM     54  C   UNL A   1      42.619  33.351  34.624  1.00  0.00     0.049 A 
ATOM     55  H   UNL A   1      40.816  34.530  34.614  1.00  0.00     0.167 HD
ATOM     56  C   UNL A   1      41.039  28.914  30.059  1.00  0.00     0.037 A 
ATOM     57  C   UNL A   1      42.814  32.845  35.876  1.00  0.00     0.037 A 
ATOM     58  C   UNL A   1      42.301  28.931  30.813  1.00  0.00     0.049 A 
ATOM     59  C   UNL A   1      43.124  31.360  35.884  1.00  0.00     0.074 A 
ATOM     60  C   UNL A   1      43.548  29.517  30.678  1.00  0.00     0.029 A 
ATOM     61  N   UNL A   1      42.264  28.426  32.102  1.00  0.00    -0.354 N 
ATOM     62  N   UNL A   1      43.281  30.637  34.807  1.00  0.00    -0.248 NA
ATOM     63  C   UNL A   1      43.193  30.552  37.102  1.00  0.00     0.031 C 
ATOM     64  C   UNL A   1      44.227  29.399  31.935  1.00  0.00     0.029 A 
ATOM     65  C   UNL A   1      43.409  28.711  32.814  1.00  0.00     0.049 A 
ATOM     66  H   UNL A   1      41.504  27.918  32.469  1.00  0.00     0.167 HD
ATOM     67  C   UNL A   1      43.389  29.317  35.147  1.00  0.00     0.074 A 
ATOM     68  C   UNL A   1      43.335  29.312  36.599  1.00  0.00     0.031 C 
ATOM     69  C   UNL A   1      43.471  28.320  34.218  1.00  0.00     0.037 A 
BRANCH  56  70
ATOM     70  C   UNL A   1      40.865  28.172  28.745  1.00  0.00     0.064 A 
ATOM     71  C   UNL A   1      40.093  26.987  28.695  1.00  0.00     0.173 A 
ATOM     72  C   UNL A   1      41.504  28.492  27.528  1.00  0.00     0.173 A 
ATOM     73  F   UNL A   1      39.422  26.546  29.769  1.00  0.00    -0.203 F 
ATOM     74  C   UNL A   1      40.001  26.189  27.547  1.00  0.00     0.198 A 
ATOM     75  C   UNL A   1      41.387  27.712  26.373  1.00  0.00     0.198 A 
ATOM     76  F   UNL A   1      42.305  29.548  27.392  1.00  0.00    -0.203 F 
ATOM     77  F   UNL A   1      39.292  25.053  27.581  1.00  0.00    -0.200 F 
ATOM     78  C   UNL A   1      40.648  26.551  26.385  1.00  0.00     0.200 A 
ATOM     79  F   UNL A   1      42.025  28.089  25.256  1.00  0.00    -0.200 F 
ATOM     80  F   UNL A   1      40.575  25.785  25.289  1.00  0.00    -0.200 F 
ENDBRANCH  56  70
BRANCH  57  81
ATOM     81  C   UNL A   1      42.041  33.618  36.888  1.00  0.00     0.064 A 
ATOM     82  C   UNL A   1      42.563  34.880  37.252  1.00  0.00     0.173 A 
ATOM     83  C   UNL A   1      40.676  33.401  37.097  1.00  0.00     0.173 A 
ATOM     84  F   UNL A   1      43.873  35.129  37.096  1.00  0.00    -0.203 F 
ATOM     85  C   UNL A   1      41.728  35.933  37.612  1.00  0.00     0.198 A 
ATOM     86  C   UNL A   1      39.847  34.451  37.503  1.00  0.00     0.198 A 
ATOM     87  F   UNL A   1      40.112  32.237  36.745  1.00  0.00    -0.203 F 
ATOM     88  F   UNL A   1      42.229  37.167  37.764  1.00  0.00    -0.200 F 
ATOM     89  C   UNL A   1      40.364  35.725  37.703  1.00  0.00     0.200 A 
ATOM     90  F   UNL A   1      38.520  34.267  37.549  1.00  0.00    -0.200 F 
ATOM     91  F   UNL A   1      39.538  36.761  37.910  1.00  0.00    -0.200 F 
ENDBRANCH  57  81
BRANCH  69  92
ATOM     92  C   UNL A   1      43.588  26.864  34.587  1.00  0.00     0.064 A 
ATOM     93  C   UNL A   1      42.462  26.070  34.853  1.00  0.00     0.173 A 
ATOM     94  C   UNL A   1      44.840  26.244  34.787  1.00  0.00     0.173 A 
ATOM     95  F   UNL A   1      41.225  26.582  34.758  1.00  0.00    -0.203 F 
ATOM     96  C   UNL A   1      42.579  24.732  35.236  1.00  0.00     0.198 A 
ATOM     97  C   UNL A   1      44.957  24.928  35.230  1.00  0.00     0.198 A 
ATOM     98  F   UNL A   1      45.990  26.883  34.527  1.00  0.00    -0.203 F 
ATOM     99  F   UNL A   1      41.476  23.992  35.412  1.00  0.00    -0.200 F 
ATOM    100  C   UNL A   1      43.826  24.165  35.437  1.00  0.00     0.200 A 
ATOM    101  F   UNL A   1      46.172  24.404  35.444  1.00  0.00    -0.200 F 
ATOM    102  F   UNL A   1      43.938  22.887  35.821  1.00  0.00    -0.200 F 
ENDBRANCH  69  92
ENDBRANCH  43  44
ENDBRANCH  35  38
ENDBRANCH  33  34
ENDBRANCH  32  33
ENDBRANCH  31  32
ENDBRANCH  30  31
ENDBRANCH   3  30
TORSDOF 17
ENDMDL
MODEL 3
REMARK VINA RESULT:     -13.7      2.582      4.071
REMARK SMILES Cc1c(NCc2ccccn2)cccc1C(=O)N1CCOC[C@@H]1CC(=O)NCCCCNC(=O)c1ccc(-c2c3nc(c(-c4c(F)c(F)c(F)c(F)c4F)c4ccc([nH]4)c(-c4c(F)c(F)c(F)c(F)c4F)c4nc(c(-c5c(F)c(F)c(F)c(F)c5F)c5ccc2[nH]5)C=C4)C=C3)cc1
REMARK SMILES IDX 25 1 26 2 27 3 24 5 23 6 18 7 19 8 20 9 22 10 21 11 16 12
REMARK SMILES IDX 17 13 15 14 1 15 2 16 3 17 12 18 14 19 13 20 4 21 5 23 6 24
REMARK SMILES IDX 7 25 11 26 8 27 10 28 9 29 28 30 29 31 30 32 31 33 32 34
REMARK SMILES IDX 33 35 34 37 35 38 36 39 97 40 37 41 96 42 38 43 39 44 40 45
REMARK SMILES IDX 90 46 41 47 95 48 89 49 91 50 42 51 94 52 88 53 87 54 43 56
REMARK SMILES IDX 75 57 55 58 74 59 56 60 59 61 73 62 92 63 57 64 58 65 72 67
REMARK SMILES IDX 93 68 60 69 44 70 45 71 53 72 46 73 47 74 51 75 54 76 48 77
REMARK SMILES IDX 49 78 52 79 50 80 76 81 77 82 85 83 78 84 79 85 83 86 86 87
REMARK SMILES IDX 80 88 81 89 84 90 82 91 61 92 62 93 70 94 63 95 64 96 68 97
REMARK SMILES IDX 71 98 65 99 66 100 69 101 67 102
REMARK H PARENT 27 4 4 22 32 36 91 55 59 66
REMARK Flexibility Score: inf
ROOT
ATOM      1  C   UNL A   1      32.951  28.007  26.731  1.00  0.00     0.222 C 
ATOM      2  O   UNL A   1      32.808  26.902  27.252  1.00  0.00    -0.275 OA
ATOM      3  N   UNL A   1      32.945  29.109  27.539  1.00  0.00    -0.356 N 
ATOM      4  H   UNL A   1      33.273  29.013  28.462  1.00  0.00     0.163 HD
ENDROOT
BRANCH   1   5
ATOM      5  C   UNL A   1      33.210  28.177  25.235  1.00  0.00     0.127 C 
BRANCH   5   6
ATOM      6  C   UNL A   1      32.069  27.977  24.208  1.00  0.00     0.120 C 
ATOM      7  N   UNL A   1      32.294  27.266  22.876  1.00  0.00    -0.331 N 
ATOM      8  C   UNL A   1      30.988  27.009  22.251  1.00  0.00     0.148 C 
ATOM      9  C   UNL A   1      30.129  28.275  22.121  1.00  0.00     0.181 C 
ATOM     10  C   UNL A   1      31.283  29.282  23.933  1.00  0.00     0.185 C 
ATOM     11  O   UNL A   1      29.998  28.970  23.365  1.00  0.00    -0.377 OA
BRANCH   7  12
ATOM     12  C   UNL A   1      33.218  26.220  22.701  1.00  0.00     0.254 C 
ATOM     13  O   UNL A   1      33.783  26.051  21.621  1.00  0.00    -0.269 OA
BRANCH  12  14
ATOM     14  C   UNL A   1      33.331  25.081  23.757  1.00  0.00     0.045 A 
ATOM     15  C   UNL A   1      31.176  23.348  22.943  1.00  0.00     0.047 C 
ATOM     16  C   UNL A   1      32.524  23.468  23.565  1.00  0.00    -0.015 A 
ATOM     17  C   UNL A   1      33.357  21.930  24.079  1.00  0.00     0.038 A 
ATOM     18  C   UNL A   1      35.065  21.993  24.670  1.00  0.00     0.026 A 
ATOM     19  C   UNL A   1      34.982  25.147  24.515  1.00  0.00     0.014 A 
ATOM     20  C   UNL A   1      35.875  23.628  24.928  1.00  0.00     0.003 A 
BRANCH  17  21
ATOM     21  N   UNL A   1      32.700  20.712  23.927  1.00  0.00    -0.379 N 
ATOM     22  H   UNL A   1      32.501  20.375  23.023  1.00  0.00     0.160 HD
BRANCH  21  23
ATOM     23  C   UNL A   1      32.304  19.934  25.094  1.00  0.00     0.169 C 
BRANCH  23  24
ATOM     24  C   UNL A   1      32.867  18.518  25.071  1.00  0.00     0.059 A 
ATOM     25  C   UNL A   1      34.037  18.206  24.377  1.00  0.00     0.026 A 
ATOM     26  N   UNL A   1      32.152  17.564  25.726  1.00  0.00    -0.259 NA
ATOM     27  C   UNL A   1      34.501  16.893  24.373  1.00  0.00     0.004 A 
ATOM     28  C   UNL A   1      32.616  16.293  25.687  1.00  0.00     0.111 A 
ATOM     29  C   UNL A   1      33.777  15.913  25.037  1.00  0.00     0.020 A 
ENDBRANCH  23  24
ENDBRANCH  21  23
ENDBRANCH  17  21
ENDBRANCH  12  14
ENDBRANCH   7  12
ENDBRANCH   5   6
ENDBRANCH   1   5
BRANCH   3  30
ATOM     30  C   UNL A   1      32.483  30.398  27.111  1.00  0.00     0.116 C 
BRANCH  30  31
ATOM     31  C   UNL A   1      33.606  31.402  27.400  1.00  0.00     0.023 C 
BRANCH  31  32
ATOM     32  C   UNL A   1      34.936  30.852  27.910  1.00  0.00     0.023 C 
BRANCH  32  33
ATOM     33  C   UNL A   1      35.512  31.838  29.124  1.00  0.00     0.116 C 
BRANCH  33  34
ATOM     34  N   UNL A   1      34.602  33.122  30.497  1.00  0.00    -0.352 N 
ATOM     35  C   UNL A   1      34.518  33.722  31.860  1.00  0.00     0.251 C 
ATOM     36  H   UNL A   1      33.863  33.538  29.997  1.00  0.00     0.163 HD
ATOM     37  O   UNL A   1      33.502  34.402  32.061  1.00  0.00    -0.269 OA
BRANCH  35  38
ATOM     38  C   UNL A   1      35.564  33.774  32.971  1.00  0.00     0.039 A 
ATOM     39  C   UNL A   1      36.581  34.714  32.816  1.00  0.00     0.014 A 
ATOM     40  C   UNL A   1      35.777  32.786  33.924  1.00  0.00     0.014 A 
ATOM     41  C   UNL A   1      37.893  34.353  33.130  1.00  0.00     0.010 A 
ATOM     42  C   UNL A   1      37.086  32.329  34.085  1.00  0.00     0.010 A 
ATOM     43  C   UNL A   1      38.145  33.042  33.511  1.00  0.00    -0.014 A 
BRANCH  43  44
ATOM     44  C   UNL A   1      39.327  32.293  33.011  1.00  0.00     0.031 A 
ATOM     45  C   UNL A   1      39.176  31.084  32.168  1.00  0.00     0.074 A 
ATOM     46  C   UNL A   1      40.586  32.777  33.207  1.00  0.00     0.049 A 
ATOM     47  N   UNL A   1      40.159  30.333  31.802  1.00  0.00    -0.248 NA
ATOM     48  C   UNL A   1      37.889  30.569  31.719  1.00  0.00     0.031 C 
ATOM     49  C   UNL A   1      41.834  32.387  32.537  1.00  0.00     0.029 A 
ATOM     50  N   UNL A   1      41.030  33.667  34.202  1.00  0.00    -0.354 N 
ATOM     51  C   UNL A   1      39.698  29.379  30.932  1.00  0.00     0.074 A 
ATOM     52  C   UNL A   1      38.266  29.535  30.959  1.00  0.00     0.031 C 
ATOM     53  C   UNL A   1      42.880  32.748  33.294  1.00  0.00     0.029 A 
ATOM     54  C   UNL A   1      42.354  33.287  34.528  1.00  0.00     0.049 A 
ATOM     55  H   UNL A   1      40.517  34.410  34.596  1.00  0.00     0.167 HD
ATOM     56  C   UNL A   1      40.611  28.611  30.271  1.00  0.00     0.037 A 
ATOM     57  C   UNL A   1      42.651  32.841  35.784  1.00  0.00     0.037 A 
ATOM     58  C   UNL A   1      41.920  28.698  30.934  1.00  0.00     0.049 A 
ATOM     59  C   UNL A   1      43.009  31.368  35.831  1.00  0.00     0.074 A 
ATOM     60  C   UNL A   1      43.135  29.315  30.688  1.00  0.00     0.029 A 
ATOM     61  N   UNL A   1      41.989  28.248  32.242  1.00  0.00    -0.354 N 
ATOM     62  N   UNL A   1      43.116  30.604  34.776  1.00  0.00    -0.248 NA
ATOM     63  C   UNL A   1      43.189  30.616  37.073  1.00  0.00     0.031 C 
ATOM     64  C   UNL A   1      43.903  29.271  31.898  1.00  0.00     0.029 A 
ATOM     65  C   UNL A   1      43.170  28.598  32.860  1.00  0.00     0.049 A 
ATOM     66  H   UNL A   1      41.272  27.735  32.682  1.00  0.00     0.167 HD
ATOM     67  C   UNL A   1      43.289  29.304  35.162  1.00  0.00     0.074 A 
ATOM     68  C   UNL A   1      43.336  29.360  36.613  1.00  0.00     0.031 C 
ATOM     69  C   UNL A   1      43.341  28.270  34.271  1.00  0.00     0.037 A 
BRANCH  56  70
ATOM     70  C   UNL A   1      40.371  27.807  29.005  1.00  0.00     0.064 A 
ATOM     71  C   UNL A   1      39.534  26.667  29.034  1.00  0.00     0.173 A 
ATOM     72  C   UNL A   1      41.005  28.022  27.761  1.00  0.00     0.173 A 
ATOM     73  F   UNL A   1      38.860  26.326  30.141  1.00  0.00    -0.203 F 
ATOM     74  C   UNL A   1      39.377  25.813  27.934  1.00  0.00     0.198 A 
ATOM     75  C   UNL A   1      40.824  27.186  26.655  1.00  0.00     0.198 A 
ATOM     76  F   UNL A   1      41.861  29.022  27.554  1.00  0.00    -0.203 F 
ATOM     77  F   UNL A   1      38.606  24.722  28.044  1.00  0.00    -0.200 F 
ATOM     78  C   UNL A   1      40.021  26.072  26.744  1.00  0.00     0.200 A 
ATOM     79  F   UNL A   1      41.461  27.464  25.508  1.00  0.00    -0.200 F 
ATOM     80  F   UNL A   1      39.885  25.252  25.695  1.00  0.00    -0.200 F 
ENDBRANCH  56  70
BRANCH  57  81
ATOM     81  C   UNL A   1      41.925  33.634  36.814  1.00  0.00     0.064 A 
ATOM     82  C   UNL A   1      42.434  34.922  37.095  1.00  0.00     0.173 A 
ATOM     83  C   UNL A   1      40.582  33.392  37.120  1.00  0.00     0.173 A 
ATOM     84  F   UNL A   1      43.724  35.197  36.844  1.00  0.00    -0.203 F 
ATOM     85  C   UNL A   1      41.596  35.967  37.470  1.00  0.00     0.198 A 
ATOM     86  C   UNL A   1      39.753  34.436  37.541  1.00  0.00     0.198 A 
ATOM     87  F   UNL A   1      40.028  32.201  36.851  1.00  0.00    -0.203 F 
ATOM     88  F   UNL A   1      42.072  37.218  37.542  1.00  0.00    -0.200 F 
ATOM     89  C   UNL A   1      40.247  35.729  37.658  1.00  0.00     0.200 A 
ATOM     90  F   UNL A   1      38.437  34.220  37.680  1.00  0.00    -0.200 F 
ATOM     91  F   UNL A   1      39.408  36.751  37.880  1.00  0.00    -0.200 F 
ENDBRANCH  57  81
BRANCH  69  92
ATOM     92  C   UNL A   1      43.530  26.836  34.691  1.00  0.00     0.064 A 
ATOM     93  C   UNL A   1      44.785  26.208  34.651  1.00  0.00     0.173 A 
ATOM     94  C   UNL A   1      42.441  26.014  35.051  1.00  0.00     0.173 A 
ATOM     95  F   UNL A   1      45.876  26.883  34.258  1.00  0.00    -0.203 F 
ATOM     96  C   UNL A   1      44.947  24.866  35.002  1.00  0.00     0.198 A 
ATOM     97  C   UNL A   1      42.594  24.659  35.340  1.00  0.00     0.198 A 
ATOM     98  F   UNL A   1      41.198  26.505  35.167  1.00  0.00    -0.203 F 
ATOM     99  F   UNL A   1      46.173  24.325  35.016  1.00  0.00    -0.200 F 
ATOM    100  C   UNL A   1      43.850  24.089  35.334  1.00  0.00     0.200 A 
ATOM    101  F   UNL A   1      41.517  23.916  35.634  1.00  0.00    -0.200 F 
ATOM    102  F   UNL A   1      44.004  22.797  35.653  1.00  0.00    -0.200 F 
ENDBRANCH  69  92
ENDBRANCH  43  44
ENDBRANCH  35  38
ENDBRANCH  33  34
ENDBRANCH  32  33
ENDBRANCH  31  32
ENDBRANCH  30  31
ENDBRANCH   3  30
TORSDOF 17
ENDMDL
