MODEL 1
REMARK VINA RESULT:     -13.1      0.000      0.000
REMARK SMILES Cc1ccc(N2C[C@H](C(=O)N3CCC[C@@H](C(=O)NCCCCNC(=O)c4ccc(-c5c6nc(c(-c7c(F)c(F)c(F)c(F)c7F)c7ccc([nH]7)c(-c7c(F)c(F)c(F)c(F)c7F)c7nc(c(-c8c(F)c(F)c(F)c(F)c8F)c8ccc5[nH]8)C=C7)C=C6)cc4)C3)CC2=O)cc1C
REMARK SMILES IDX 20 1 19 2 18 3 16 4 17 5 15 7 11 8 12 9 89 10 13 11 14 12
REMARK SMILES IDX 9 13 10 14 8 15 6 16 7 17 91 18 90 19 92 20 5 21 1 22 2 23
REMARK SMILES IDX 3 24 94 25 4 26 93 27 95 28 21 29 22 30 23 31 24 32 25 34
REMARK SMILES IDX 26 35 27 36 88 37 28 38 87 39 29 40 30 41 31 42 81 43 32 44
REMARK SMILES IDX 86 45 80 46 82 47 33 48 85 49 79 50 78 51 34 53 66 54 46 55
REMARK SMILES IDX 65 56 47 57 50 58 64 59 83 60 48 61 49 62 63 64 84 65 51 66
REMARK SMILES IDX 35 67 36 68 44 69 37 70 38 71 42 72 45 73 39 74 40 75 43 76
REMARK SMILES IDX 41 77 67 78 68 79 76 80 69 81 70 82 74 83 77 84 71 85 72 86
REMARK SMILES IDX 75 87 73 88 52 89 53 90 61 91 54 92 55 93 59 94 62 95 56 96
REMARK SMILES IDX 57 97 60 98 58 99
REMARK H PARENT 18 6 23 33 82 52 50 63
REMARK Flexibility Score: inf
ROOT
ATOM      1  C   UNL A   1      34.786  30.770  27.921  1.00  0.00     0.023 C 
ENDROOT
BRANCH   1   2
ATOM      2  C   UNL A   1      34.374  29.482  27.219  1.00  0.00     0.116 C 
BRANCH   2   3
ATOM      3  N   UNL A   1      33.135  28.922  27.720  1.00  0.00    -0.356 N 
ATOM      4  C   UNL A   1      32.136  28.240  27.096  1.00  0.00     0.224 C 
ATOM      5  O   UNL A   1      31.208  27.843  27.807  1.00  0.00    -0.275 OA
ATOM      6  H   UNL A   1      32.989  29.058  28.684  1.00  0.00     0.163 HD
BRANCH   4   7
ATOM      7  C   UNL A   1      32.070  28.035  25.586  1.00  0.00     0.098 C 
ATOM      8  N   UNL A   1      31.825  26.292  23.841  1.00  0.00    -0.342 N 
ATOM      9  C   UNL A   1      30.743  27.021  23.203  1.00  0.00     0.119 C 
ATOM     10  C   UNL A   1      31.999  26.530  25.276  1.00  0.00     0.133 C 
ATOM     11  C   UNL A   1      30.949  28.518  23.355  1.00  0.00     0.022 C 
ATOM     12  C   UNL A   1      31.041  28.898  24.833  1.00  0.00     0.017 C 
BRANCH   8  13
ATOM     13  C   UNL A   1      32.740  25.653  23.020  1.00  0.00     0.228 C 
ATOM     14  O   UNL A   1      33.699  26.266  22.549  1.00  0.00    -0.274 OA
BRANCH  13  15
ATOM     15  C   UNL A   1      32.497  24.185  22.678  1.00  0.00     0.108 C 
ATOM     16  N   UNL A   1      34.032  23.081  24.036  1.00  0.00    -0.312 N 
ATOM     17  C   UNL A   1      33.785  23.385  22.653  1.00  0.00     0.139 C 
ATOM     18  C   UNL A   1      32.836  23.040  24.763  1.00  0.00     0.227 C 
ATOM     19  C   UNL A   1      31.731  23.490  23.821  1.00  0.00     0.116 C 
ATOM     20  O   UNL A   1      32.665  22.717  25.922  1.00  0.00    -0.274 OA
BRANCH  16  21
ATOM     21  C   UNL A   1      35.313  22.793  24.542  1.00  0.00     0.044 A 
ATOM     22  C   UNL A   1      39.249  21.922  26.121  1.00  0.00     0.044 C 
ATOM     23  C   UNL A   1      37.878  22.186  25.561  1.00  0.00    -0.048 A 
ATOM     24  C   UNL A   1      37.401  23.506  25.532  1.00  0.00     0.006 A 
ATOM     25  C   UNL A   1      37.072  21.158  25.040  1.00  0.00    -0.046 A 
ATOM     26  C   UNL A   1      36.146  23.810  24.999  1.00  0.00     0.026 A 
ATOM     27  C   UNL A   1      35.783  21.472  24.570  1.00  0.00     0.030 A 
ATOM     28  C   UNL A   1      37.546  19.738  24.891  1.00  0.00     0.044 C 
ENDBRANCH  16  21
ENDBRANCH  13  15
ENDBRANCH   8  13
ENDBRANCH   4   7
ENDBRANCH   2   3
ENDBRANCH   1   2
BRANCH   1  29
ATOM     29  C   UNL A   1      34.204  32.059  27.353  1.00  0.00     0.023 C 
BRANCH  29  30
ATOM     30  C   UNL A   1      32.787  32.392  27.797  1.00  0.00     0.116 C 
BRANCH  30  31
ATOM     31  N   UNL A   1      32.502  33.822  27.832  1.00  0.00    -0.352 N 
ATOM     32  C   UNL A   1      33.122  34.800  28.578  1.00  0.00     0.251 C 
ATOM     33  H   UNL A   1      31.772  34.127  27.247  1.00  0.00     0.163 HD
ATOM     34  O   UNL A   1      32.709  35.953  28.576  1.00  0.00    -0.269 OA
BRANCH  32  35
ATOM     35  C   UNL A   1      34.279  34.423  29.413  1.00  0.00     0.039 A 
ATOM     36  C   UNL A   1      34.066  33.743  30.614  1.00  0.00     0.014 A 
ATOM     37  C   UNL A   1      35.573  34.658  28.945  1.00  0.00     0.014 A 
ATOM     38  C   UNL A   1      35.159  33.216  31.306  1.00  0.00     0.010 A 
ATOM     39  C   UNL A   1      36.647  34.055  29.586  1.00  0.00     0.010 A 
ATOM     40  C   UNL A   1      36.452  33.327  30.771  1.00  0.00    -0.014 A 
BRANCH  40  41
ATOM     41  C   UNL A   1      37.639  32.728  31.433  1.00  0.00     0.031 A 
ATOM     42  C   UNL A   1      38.314  31.550  30.790  1.00  0.00     0.074 A 
ATOM     43  C   UNL A   1      38.036  33.160  32.646  1.00  0.00     0.049 A 
ATOM     44  N   UNL A   1      39.234  30.754  31.270  1.00  0.00    -0.248 NA
ATOM     45  C   UNL A   1      37.863  31.197  29.433  1.00  0.00     0.031 C 
ATOM     46  C   UNL A   1      37.445  34.274  33.388  1.00  0.00     0.029 A 
ATOM     47  N   UNL A   1      39.019  32.689  33.484  1.00  0.00    -0.354 N 
ATOM     48  C   UNL A   1      39.445  29.793  30.289  1.00  0.00     0.074 A 
ATOM     49  C   UNL A   1      38.519  30.069  29.215  1.00  0.00     0.031 C 
ATOM     50  C   UNL A   1      38.085  34.410  34.562  1.00  0.00     0.029 A 
ATOM     51  C   UNL A   1      39.093  33.360  34.680  1.00  0.00     0.049 A 
ATOM     52  H   UNL A   1      39.615  31.943  33.248  1.00  0.00     0.167 HD
ATOM     53  C   UNL A   1      40.348  28.784  30.279  1.00  0.00     0.037 A 
ATOM     54  C   UNL A   1      39.869  33.138  35.760  1.00  0.00     0.037 A 
ATOM     55  C   UNL A   1      41.287  28.536  31.339  1.00  0.00     0.049 A 
ATOM     56  C   UNL A   1      40.850  31.993  35.734  1.00  0.00     0.074 A 
ATOM     57  C   UNL A   1      42.277  27.573  31.403  1.00  0.00     0.029 A 
ATOM     58  N   UNL A   1      41.349  29.259  32.521  1.00  0.00    -0.354 N 
ATOM     59  N   UNL A   1      41.077  31.119  34.783  1.00  0.00    -0.248 NA
ATOM     60  C   UNL A   1      41.684  31.803  36.930  1.00  0.00     0.031 C 
ATOM     61  C   UNL A   1      42.903  27.677  32.648  1.00  0.00     0.029 A 
ATOM     62  C   UNL A   1      42.350  28.750  33.330  1.00  0.00     0.049 A 
ATOM     63  H   UNL A   1      40.769  30.020  32.750  1.00  0.00     0.167 HD
ATOM     64  C   UNL A   1      42.108  30.311  35.243  1.00  0.00     0.074 A 
ATOM     65  C   UNL A   1      42.460  30.792  36.561  1.00  0.00     0.031 C 
ATOM     66  C   UNL A   1      42.712  29.267  34.626  1.00  0.00     0.037 A 
BRANCH  53  67
ATOM     67  C   UNL A   1      40.358  27.873  29.086  1.00  0.00     0.064 A 
ATOM     68  C   UNL A   1      41.108  28.169  27.936  1.00  0.00     0.173 A 
ATOM     69  C   UNL A   1      39.631  26.673  29.102  1.00  0.00     0.173 A 
ATOM     70  F   UNL A   1      41.811  29.310  27.863  1.00  0.00    -0.203 F 
ATOM     71  C   UNL A   1      41.100  27.316  26.836  1.00  0.00     0.198 A 
ATOM     72  C   UNL A   1      39.657  25.805  28.014  1.00  0.00     0.198 A 
ATOM     73  F   UNL A   1      38.901  26.338  30.176  1.00  0.00    -0.203 F 
ATOM     74  F   UNL A   1      41.776  27.650  25.728  1.00  0.00    -0.200 F 
ATOM     75  C   UNL A   1      40.383  26.131  26.879  1.00  0.00     0.200 A 
ATOM     76  F   UNL A   1      38.974  24.652  28.065  1.00  0.00    -0.200 F 
ATOM     77  F   UNL A   1      40.383  25.307  25.822  1.00  0.00    -0.200 F 
ENDBRANCH  53  67
BRANCH  54  78
ATOM     78  C   UNL A   1      39.765  34.022  36.952  1.00  0.00     0.064 A 
ATOM     79  C   UNL A   1      38.961  33.663  38.044  1.00  0.00     0.173 A 
ATOM     80  C   UNL A   1      40.447  35.245  37.021  1.00  0.00     0.173 A 
ATOM     81  F   UNL A   1      38.273  32.513  38.019  1.00  0.00    -0.203 F 
ATOM     82  C   UNL A   1      38.825  34.505  39.147  1.00  0.00     0.198 A 
ATOM     83  C   UNL A   1      40.336  36.071  38.138  1.00  0.00     0.198 A 
ATOM     84  F   UNL A   1      41.234  35.635  36.007  1.00  0.00    -0.203 F 
ATOM     85  F   UNL A   1      38.010  34.160  40.153  1.00  0.00    -0.200 F 
ATOM     86  C   UNL A   1      39.517  35.705  39.196  1.00  0.00     0.200 A 
ATOM     87  F   UNL A   1      41.019  37.222  38.188  1.00  0.00    -0.200 F 
ATOM     88  F   UNL A   1      39.389  36.513  40.257  1.00  0.00    -0.200 F 
ENDBRANCH  54  78
BRANCH  66  89
ATOM     89  C   UNL A   1      43.872  28.614  35.319  1.00  0.00     0.064 A 
ATOM     90  C   UNL A   1      43.700  27.544  36.208  1.00  0.00     0.173 A 
ATOM     91  C   UNL A   1      45.183  29.008  35.008  1.00  0.00     0.173 A 
ATOM     92  F   UNL A   1      42.467  27.138  36.547  1.00  0.00    -0.203 F 
ATOM     93  C   UNL A   1      44.800  26.897  36.767  1.00  0.00     0.198 A 
ATOM     94  C   UNL A   1      46.279  28.339  35.544  1.00  0.00     0.198 A 
ATOM     95  F   UNL A   1      45.400  30.023  34.157  1.00  0.00    -0.203 F 
ATOM     96  F   UNL A   1      44.615  25.894  37.636  1.00  0.00    -0.200 F 
ATOM     97  C   UNL A   1      46.088  27.286  36.424  1.00  0.00     0.200 A 
ATOM     98  F   UNL A   1      47.521  28.705  35.196  1.00  0.00    -0.200 F 
ATOM     99  F   UNL A   1      47.144  26.644  36.942  1.00  0.00    -0.200 F 
ENDBRANCH  66  89
ENDBRANCH  40  41
ENDBRANCH  32  35
ENDBRANCH  30  31
ENDBRANCH  29  30
ENDBRANCH   1  29
TORSDOF 14
ENDMDL
MODEL 2
REMARK VINA RESULT:     -13.1      1.452      2.440
REMARK SMILES Cc1ccc(N2C[C@H](C(=O)N3CCC[C@@H](C(=O)NCCCCNC(=O)c4ccc(-c5c6nc(c(-c7c(F)c(F)c(F)c(F)c7F)c7ccc([nH]7)c(-c7c(F)c(F)c(F)c(F)c7F)c7nc(c(-c8c(F)c(F)c(F)c(F)c8F)c8ccc5[nH]8)C=C7)C=C6)cc4)C3)CC2=O)cc1C
REMARK SMILES IDX 20 1 19 2 18 3 16 4 17 5 15 7 11 8 12 9 89 10 13 11 14 12
REMARK SMILES IDX 9 13 10 14 8 15 6 16 7 17 91 18 90 19 92 20 5 21 1 22 2 23
REMARK SMILES IDX 3 24 94 25 4 26 93 27 95 28 21 29 22 30 23 31 24 32 25 34
REMARK SMILES IDX 26 35 27 36 88 37 28 38 87 39 29 40 30 41 31 42 81 43 32 44
REMARK SMILES IDX 86 45 80 46 82 47 33 48 85 49 79 50 78 51 34 53 66 54 46 55
REMARK SMILES IDX 65 56 47 57 50 58 64 59 83 60 48 61 49 62 63 64 84 65 51 66
REMARK SMILES IDX 35 67 36 68 44 69 37 70 38 71 42 72 45 73 39 74 40 75 43 76
REMARK SMILES IDX 41 77 67 78 68 79 76 80 69 81 70 82 74 83 77 84 71 85 72 86
REMARK SMILES IDX 75 87 73 88 52 89 53 90 61 91 54 92 55 93 59 94 62 95 56 96
REMARK SMILES IDX 57 97 60 98 58 99
REMARK H PARENT 18 6 23 33 82 52 50 63
REMARK Flexibility Score: inf
ROOT
ATOM      1  C   UNL A   1      31.433  30.773  25.994  1.00  0.00     0.023 C 
ENDROOT
BRANCH   1   2
ATOM      2  C   UNL A   1      31.767  29.713  27.037  1.00  0.00     0.116 C 
BRANCH   2   3
ATOM      3  N   UNL A   1      33.172  29.671  27.389  1.00  0.00    -0.356 N 
ATOM      4  C   UNL A   1      34.195  28.903  26.927  1.00  0.00     0.224 C 
ATOM      5  O   UNL A   1      35.315  29.129  27.397  1.00  0.00    -0.275 OA
ATOM      6  H   UNL A   1      33.434  30.313  28.088  1.00  0.00     0.163 HD
BRANCH   4   7
ATOM      7  C   UNL A   1      34.007  27.745  25.951  1.00  0.00     0.098 C 
ATOM      8  N   UNL A   1      32.754  25.635  25.611  1.00  0.00    -0.342 N 
ATOM      9  C   UNL A   1      32.317  26.055  24.292  1.00  0.00     0.119 C 
ATOM     10  C   UNL A   1      33.047  26.711  26.562  1.00  0.00     0.133 C 
ATOM     11  C   UNL A   1      33.379  26.916  23.631  1.00  0.00     0.022 C 
ATOM     12  C   UNL A   1      33.692  28.137  24.496  1.00  0.00     0.017 C 
BRANCH   8  13
ATOM     13  C   UNL A   1      33.097  24.303  25.781  1.00  0.00     0.228 C 
ATOM     14  O   UNL A   1      32.275  23.410  25.575  1.00  0.00    -0.274 OA
BRANCH  13  15
ATOM     15  C   UNL A   1      34.505  23.982  26.277  1.00  0.00     0.108 C 
ATOM     16  N   UNL A   1      34.987  21.979  25.191  1.00  0.00    -0.312 N 
ATOM     17  C   UNL A   1      34.703  22.495  26.503  1.00  0.00     0.139 C 
ATOM     18  C   UNL A   1      35.569  22.961  24.381  1.00  0.00     0.227 C 
ATOM     19  C   UNL A   1      35.540  24.260  25.169  1.00  0.00     0.116 C 
ATOM     20  O   UNL A   1      36.024  22.844  23.259  1.00  0.00    -0.274 OA
BRANCH  16  21
ATOM     21  C   UNL A   1      34.763  20.637  24.829  1.00  0.00     0.044 A 
ATOM     22  C   UNL A   1      34.087  16.502  23.742  1.00  0.00     0.044 C 
ATOM     23  C   UNL A   1      34.286  17.948  24.104  1.00  0.00    -0.048 A 
ATOM     24  C   UNL A   1      35.519  18.348  24.645  1.00  0.00     0.006 A 
ATOM     25  C   UNL A   1      33.290  18.917  23.891  1.00  0.00    -0.046 A 
ATOM     26  C   UNL A   1      35.766  19.683  24.974  1.00  0.00     0.026 A 
ATOM     27  C   UNL A   1      33.530  20.245  24.292  1.00  0.00     0.030 A 
ATOM     28  C   UNL A   1      31.994  18.621  23.185  1.00  0.00     0.044 C 
ENDBRANCH  16  21
ENDBRANCH  13  15
ENDBRANCH   8  13
ENDBRANCH   4   7
ENDBRANCH   2   3
ENDBRANCH   1   2
BRANCH   1  29
ATOM     29  C   UNL A   1      31.241  32.192  26.519  1.00  0.00     0.023 C 
BRANCH  29  30
ATOM     30  C   UNL A   1      32.516  32.930  26.899  1.00  0.00     0.116 C 
BRANCH  30  31
ATOM     31  N   UNL A   1      32.281  34.186  27.602  1.00  0.00    -0.352 N 
ATOM     32  C   UNL A   1      33.011  34.742  28.630  1.00  0.00     0.251 C 
ATOM     33  H   UNL A   1      31.499  34.703  27.304  1.00  0.00     0.163 HD
ATOM     34  O   UNL A   1      32.636  35.763  29.191  1.00  0.00    -0.269 OA
BRANCH  32  35
ATOM     35  C   UNL A   1      34.244  34.059  29.068  1.00  0.00     0.039 A 
ATOM     36  C   UNL A   1      35.486  34.569  28.685  1.00  0.00     0.014 A 
ATOM     37  C   UNL A   1      34.157  32.973  29.942  1.00  0.00     0.014 A 
ATOM     38  C   UNL A   1      36.648  34.044  29.254  1.00  0.00     0.010 A 
ATOM     39  C   UNL A   1      35.306  32.517  30.573  1.00  0.00     0.010 A 
ATOM     40  C   UNL A   1      36.562  33.046  30.238  1.00  0.00    -0.014 A 
BRANCH  40  41
ATOM     41  C   UNL A   1      37.763  32.501  30.921  1.00  0.00     0.031 A 
ATOM     42  C   UNL A   1      38.524  31.380  30.271  1.00  0.00     0.074 A 
ATOM     43  C   UNL A   1      38.100  32.926  32.155  1.00  0.00     0.049 A 
ATOM     44  N   UNL A   1      39.475  30.628  30.760  1.00  0.00    -0.248 NA
ATOM     45  C   UNL A   1      38.132  31.034  28.895  1.00  0.00     0.031 C 
ATOM     46  C   UNL A   1      37.424  33.986  32.903  1.00  0.00     0.029 A 
ATOM     47  N   UNL A   1      39.085  32.494  33.010  1.00  0.00    -0.354 N 
ATOM     48  C   UNL A   1      39.770  29.704  29.765  1.00  0.00     0.074 A 
ATOM     49  C   UNL A   1      38.860  29.952  28.671  1.00  0.00     0.031 C 
ATOM     50  C   UNL A   1      38.021  34.131  34.098  1.00  0.00     0.029 A 
ATOM     51  C   UNL A   1      39.086  33.139  34.223  1.00  0.00     0.049 A 
ATOM     52  H   UNL A   1      39.731  31.789  32.775  1.00  0.00     0.167 HD
ATOM     53  C   UNL A   1      40.730  28.750  29.759  1.00  0.00     0.037 A 
ATOM     54  C   UNL A   1      39.843  32.936  35.319  1.00  0.00     0.037 A 
ATOM     55  C   UNL A   1      41.653  28.532  30.840  1.00  0.00     0.049 A 
ATOM     56  C   UNL A   1      40.890  31.851  35.296  1.00  0.00     0.074 A 
ATOM     57  C   UNL A   1      42.695  27.627  30.912  1.00  0.00     0.029 A 
ATOM     58  N   UNL A   1      41.639  29.229  32.039  1.00  0.00    -0.354 N 
ATOM     59  N   UNL A   1      41.195  31.015  34.333  1.00  0.00    -0.248 NA
ATOM     60  C   UNL A   1      41.701  31.681  36.512  1.00  0.00     0.031 C 
ATOM     61  C   UNL A   1      43.279  27.737  32.176  1.00  0.00     0.029 A 
ATOM     62  C   UNL A   1      42.645  28.759  32.866  1.00  0.00     0.049 A 
ATOM     63  H   UNL A   1      41.009  29.949  32.269  1.00  0.00     0.167 HD
ATOM     64  C   UNL A   1      42.258  30.257  34.805  1.00  0.00     0.074 A 
ATOM     65  C   UNL A   1      42.544  30.726  36.144  1.00  0.00     0.031 C 
ATOM     66  C   UNL A   1      42.940  29.265  34.183  1.00  0.00     0.037 A 
BRANCH  53  67
ATOM     67  C   UNL A   1      40.827  27.871  28.547  1.00  0.00     0.064 A 
ATOM     68  C   UNL A   1      41.616  28.222  27.439  1.00  0.00     0.173 A 
ATOM     69  C   UNL A   1      40.146  26.644  28.501  1.00  0.00     0.173 A 
ATOM     70  F   UNL A   1      42.278  29.389  27.425  1.00  0.00    -0.203 F 
ATOM     71  C   UNL A   1      41.689  27.397  26.320  1.00  0.00     0.198 A 
ATOM     72  C   UNL A   1      40.252  25.805  27.397  1.00  0.00     0.198 A 
ATOM     73  F   UNL A   1      39.382  26.257  29.534  1.00  0.00    -0.203 F 
ATOM     74  F   UNL A   1      42.400  27.782  25.252  1.00  0.00    -0.200 F 
ATOM     75  C   UNL A   1      41.015  26.186  26.303  1.00  0.00     0.200 A 
ATOM     76  F   UNL A   1      39.612  24.627  27.389  1.00  0.00    -0.200 F 
ATOM     77  F   UNL A   1      41.092  25.389  25.228  1.00  0.00    -0.200 F 
ENDBRANCH  53  67
BRANCH  54  78
ATOM     78  C   UNL A   1      39.654  33.783  36.527  1.00  0.00     0.064 A 
ATOM     79  C   UNL A   1      38.836  33.357  37.583  1.00  0.00     0.173 A 
ATOM     80  C   UNL A   1      40.268  35.038  36.647  1.00  0.00     0.173 A 
ATOM     81  F   UNL A   1      38.210  32.173  37.509  1.00  0.00    -0.203 F 
ATOM     82  C   UNL A   1      38.620  34.162  38.700  1.00  0.00     0.198 A 
ATOM     83  C   UNL A   1      40.077  35.830  37.779  1.00  0.00     0.198 A 
ATOM     84  F   UNL A   1      41.065  35.494  35.669  1.00  0.00    -0.203 F 
ATOM     85  F   UNL A   1      37.792  33.751  39.670  1.00  0.00    -0.200 F 
ATOM     86  C   UNL A   1      39.245  35.396  38.800  1.00  0.00     0.200 A 
ATOM     87  F   UNL A   1      40.697  37.014  37.878  1.00  0.00    -0.200 F 
ATOM     88  F   UNL A   1      39.040  36.170  39.874  1.00  0.00    -0.200 F 
ENDBRANCH  54  78
BRANCH  66  89
ATOM     89  C   UNL A   1      44.116  28.664  34.895  1.00  0.00     0.064 A 
ATOM     90  C   UNL A   1      45.401  29.216  34.806  1.00  0.00     0.173 A 
ATOM     91  C   UNL A   1      43.925  27.574  35.760  1.00  0.00     0.173 A 
ATOM     92  F   UNL A   1      45.637  30.250  33.985  1.00  0.00    -0.203 F 
ATOM     93  C   UNL A   1      46.455  28.692  35.550  1.00  0.00     0.198 A 
ATOM     94  C   UNL A   1      44.974  27.074  36.525  1.00  0.00     0.198 A 
ATOM     95  F   UNL A   1      42.712  27.016  35.886  1.00  0.00    -0.203 F 
ATOM     96  F   UNL A   1      47.684  29.215  35.429  1.00  0.00    -0.200 F 
ATOM     97  C   UNL A   1      46.238  27.631  36.419  1.00  0.00     0.200 A 
ATOM     98  F   UNL A   1      44.756  26.063  37.377  1.00  0.00    -0.200 F 
ATOM     99  F   UNL A   1      47.249  27.147  37.154  1.00  0.00    -0.200 F 
ENDBRANCH  66  89
ENDBRANCH  40  41
ENDBRANCH  32  35
ENDBRANCH  30  31
ENDBRANCH  29  30
ENDBRANCH   1  29
TORSDOF 14
ENDMDL
MODEL 3
REMARK VINA RESULT:     -13.1      5.103     10.758
REMARK SMILES Cc1ccc(N2C[C@H](C(=O)N3CCC[C@@H](C(=O)NCCCCNC(=O)c4ccc(-c5c6nc(c(-c7c(F)c(F)c(F)c(F)c7F)c7ccc([nH]7)c(-c7c(F)c(F)c(F)c(F)c7F)c7nc(c(-c8c(F)c(F)c(F)c(F)c8F)c8ccc5[nH]8)C=C7)C=C6)cc4)C3)CC2=O)cc1C
REMARK SMILES IDX 20 1 19 2 18 3 16 4 17 5 15 7 11 8 12 9 89 10 13 11 14 12
REMARK SMILES IDX 9 13 10 14 8 15 6 16 7 17 91 18 90 19 92 20 5 21 1 22 2 23
REMARK SMILES IDX 3 24 94 25 4 26 93 27 95 28 21 29 22 30 23 31 24 32 25 34
REMARK SMILES IDX 26 35 27 36 88 37 28 38 87 39 29 40 30 41 31 42 81 43 32 44
REMARK SMILES IDX 86 45 80 46 82 47 33 48 85 49 79 50 78 51 34 53 66 54 46 55
REMARK SMILES IDX 65 56 47 57 50 58 64 59 83 60 48 61 49 62 63 64 84 65 51 66
REMARK SMILES IDX 35 67 36 68 44 69 37 70 38 71 42 72 45 73 39 74 40 75 43 76
REMARK SMILES IDX 41 77 67 78 68 79 76 80 69 81 70 82 74 83 77 84 71 85 72 86
REMARK SMILES IDX 75 87 73 88 52 89 53 90 61 91 54 92 55 93 59 94 62 95 56 96
REMARK SMILES IDX 57 97 60 98 58 99
REMARK H PARENT 18 6 23 33 82 52 50 63
REMARK Flexibility Score: inf
ROOT
ATOM      1  C   UNL A   1      39.051  22.881  26.347  1.00  0.00     0.023 C 
ENDROOT
BRANCH   1   2
ATOM      2  C   UNL A   1      37.730  23.514  25.928  1.00  0.00     0.116 C 
BRANCH   2   3
ATOM      3  N   UNL A   1      37.438  23.362  24.517  1.00  0.00    -0.356 N 
ATOM      4  C   UNL A   1      36.281  23.077  23.861  1.00  0.00     0.224 C 
ATOM      5  O   UNL A   1      36.333  23.056  22.627  1.00  0.00    -0.275 OA
ATOM      6  H   UNL A   1      38.215  23.487  23.926  1.00  0.00     0.163 HD
BRANCH   4   7
ATOM      7  C   UNL A   1      34.981  22.702  24.567  1.00  0.00     0.098 C 
ATOM      8  N   UNL A   1      32.571  23.266  24.695  1.00  0.00    -0.342 N 
ATOM      9  C   UNL A   1      32.191  21.877  24.509  1.00  0.00     0.119 C 
ATOM     10  C   UNL A   1      33.862  23.658  24.123  1.00  0.00     0.133 C 
ATOM     11  C   UNL A   1      33.222  20.956  25.138  1.00  0.00     0.022 C 
ATOM     12  C   UNL A   1      34.605  21.209  24.534  1.00  0.00     0.017 C 
BRANCH   8  13
ATOM     13  C   UNL A   1      31.832  24.020  25.591  1.00  0.00     0.228 C 
ATOM     14  O   UNL A   1      32.065  23.967  26.800  1.00  0.00    -0.274 OA
BRANCH  13  15
ATOM     15  C   UNL A   1      30.692  24.875  25.043  1.00  0.00     0.108 C 
ATOM     16  N   UNL A   1      31.567  27.029  25.157  1.00  0.00    -0.312 N 
ATOM     17  C   UNL A   1      30.570  26.198  25.775  1.00  0.00     0.139 C 
ATOM     18  C   UNL A   1      31.809  26.627  23.838  1.00  0.00     0.227 C 
ATOM     19  C   UNL A   1      31.018  25.349  23.614  1.00  0.00     0.116 C 
ATOM     20  O   UNL A   1      32.508  27.162  23.000  1.00  0.00    -0.274 OA
BRANCH  16  21
ATOM     21  C   UNL A   1      32.146  28.140  25.799  1.00  0.00     0.044 A 
ATOM     22  C   UNL A   1      33.951  31.550  27.762  1.00  0.00     0.044 C 
ATOM     23  C   UNL A   1      33.293  30.388  27.071  1.00  0.00    -0.048 A 
ATOM     24  C   UNL A   1      33.901  29.125  27.140  1.00  0.00     0.006 A 
ATOM     25  C   UNL A   1      32.072  30.520  26.384  1.00  0.00    -0.046 A 
ATOM     26  C   UNL A   1      33.318  28.007  26.538  1.00  0.00     0.026 A 
ATOM     27  C   UNL A   1      31.534  29.399  25.725  1.00  0.00     0.030 A 
ATOM     28  C   UNL A   1      31.268  31.792  26.374  1.00  0.00     0.044 C 
ENDBRANCH  16  21
ENDBRANCH  13  15
ENDBRANCH   8  13
ENDBRANCH   4   7
ENDBRANCH   2   3
ENDBRANCH   1   2
BRANCH   1  29
ATOM     29  C   UNL A   1      39.378  21.532  25.716  1.00  0.00     0.023 C 
BRANCH  29  30
ATOM     30  C   UNL A   1      39.715  20.414  26.692  1.00  0.00     0.116 C 
BRANCH  30  31
ATOM     31  N   UNL A   1      40.632  19.418  26.152  1.00  0.00    -0.352 N 
ATOM     32  C   UNL A   1      41.990  19.526  25.946  1.00  0.00     0.251 C 
ATOM     33  H   UNL A   1      40.229  18.556  25.901  1.00  0.00     0.163 HD
ATOM     34  O   UNL A   1      42.618  18.635  25.390  1.00  0.00    -0.269 OA
BRANCH  32  35
ATOM     35  C   UNL A   1      42.671  20.762  26.378  1.00  0.00     0.039 A 
ATOM     36  C   UNL A   1      43.134  21.663  25.417  1.00  0.00     0.014 A 
ATOM     37  C   UNL A   1      42.754  21.065  27.738  1.00  0.00     0.014 A 
ATOM     38  C   UNL A   1      43.602  22.916  25.820  1.00  0.00     0.010 A 
ATOM     39  C   UNL A   1      43.132  22.342  28.128  1.00  0.00     0.010 A 
ATOM     40  C   UNL A   1      43.559  23.281  27.175  1.00  0.00    -0.014 A 
BRANCH  40  41
ATOM     41  C   UNL A   1      43.981  24.624  27.648  1.00  0.00     0.031 A 
ATOM     42  C   UNL A   1      42.929  25.621  28.045  1.00  0.00     0.074 A 
ATOM     43  C   UNL A   1      45.280  24.983  27.616  1.00  0.00     0.049 A 
ATOM     44  N   UNL A   1      43.048  26.897  28.303  1.00  0.00    -0.248 NA
ATOM     45  C   UNL A   1      41.547  25.118  28.122  1.00  0.00     0.031 C 
ATOM     46  C   UNL A   1      46.392  24.117  27.224  1.00  0.00     0.029 A 
ATOM     47  N   UNL A   1      45.880  26.187  27.894  1.00  0.00    -0.354 N 
ATOM     48  C   UNL A   1      41.757  27.352  28.541  1.00  0.00     0.074 A 
ATOM     49  C   UNL A   1      40.867  26.232  28.340  1.00  0.00     0.031 C 
ATOM     50  C   UNL A   1      47.539  24.813  27.299  1.00  0.00     0.029 A 
ATOM     51  C   UNL A   1      47.239  26.187  27.691  1.00  0.00     0.049 A 
ATOM     52  H   UNL A   1      45.384  26.976  28.211  1.00  0.00     0.167 HD
ATOM     53  C   UNL A   1      41.356  28.589  28.917  1.00  0.00     0.037 A 
ATOM     54  C   UNL A   1      48.137  27.188  27.787  1.00  0.00     0.037 A 
ATOM     55  C   UNL A   1      42.252  29.689  29.146  1.00  0.00     0.049 A 
ATOM     56  C   UNL A   1      47.661  28.563  28.183  1.00  0.00     0.074 A 
ATOM     57  C   UNL A   1      41.953  30.968  29.579  1.00  0.00     0.029 A 
ATOM     58  N   UNL A   1      43.626  29.638  28.959  1.00  0.00    -0.354 N 
ATOM     59  N   UNL A   1      46.446  28.972  28.454  1.00  0.00    -0.248 NA
ATOM     60  C   UNL A   1      48.682  29.616  28.289  1.00  0.00     0.031 C 
ATOM     61  C   UNL A   1      43.137  31.708  29.600  1.00  0.00     0.029 A 
ATOM     62  C   UNL A   1      44.184  30.870  29.250  1.00  0.00     0.049 A 
ATOM     63  H   UNL A   1      44.128  28.845  28.664  1.00  0.00     0.167 HD
ATOM     64  C   UNL A   1      46.561  30.310  28.808  1.00  0.00     0.074 A 
ATOM     65  C   UNL A   1      47.964  30.648  28.712  1.00  0.00     0.031 C 
ATOM     66  C   UNL A   1      45.591  31.178  29.185  1.00  0.00     0.037 A 
BRANCH  53  67
ATOM     67  C   UNL A   1      39.883  28.815  29.099  1.00  0.00     0.064 A 
ATOM     68  C   UNL A   1      39.252  28.616  30.338  1.00  0.00     0.173 A 
ATOM     69  C   UNL A   1      39.095  29.266  28.029  1.00  0.00     0.173 A 
ATOM     70  F   UNL A   1      39.955  28.174  31.391  1.00  0.00    -0.203 F 
ATOM     71  C   UNL A   1      37.884  28.825  30.487  1.00  0.00     0.198 A 
ATOM     72  C   UNL A   1      37.735  29.510  28.192  1.00  0.00     0.198 A 
ATOM     73  F   UNL A   1      39.647  29.477  26.825  1.00  0.00    -0.203 F 
ATOM     74  F   UNL A   1      37.294  28.570  31.663  1.00  0.00    -0.200 F 
ATOM     75  C   UNL A   1      37.128  29.280  29.417  1.00  0.00     0.200 A 
ATOM     76  F   UNL A   1      37.010  29.965  27.160  1.00  0.00    -0.200 F 
ATOM     77  F   UNL A   1      35.812  29.488  29.565  1.00  0.00    -0.200 F 
ENDBRANCH  53  67
BRANCH  54  78
ATOM     78  C   UNL A   1      49.577  26.931  27.517  1.00  0.00     0.064 A 
ATOM     79  C   UNL A   1      50.090  27.013  26.215  1.00  0.00     0.173 A 
ATOM     80  C   UNL A   1      50.465  26.582  28.545  1.00  0.00     0.173 A 
ATOM     81  F   UNL A   1      49.278  27.324  25.194  1.00  0.00    -0.203 F 
ATOM     82  C   UNL A   1      51.429  26.733  25.948  1.00  0.00     0.198 A 
ATOM     83  C   UNL A   1      51.811  26.334  28.282  1.00  0.00     0.198 A 
ATOM     84  F   UNL A   1      50.029  26.494  29.810  1.00  0.00    -0.203 F 
ATOM     85  F   UNL A   1      51.880  26.769  24.687  1.00  0.00    -0.200 F 
ATOM     86  C   UNL A   1      52.290  26.399  26.982  1.00  0.00     0.200 A 
ATOM     87  F   UNL A   1      52.643  26.028  29.287  1.00  0.00    -0.200 F 
ATOM     88  F   UNL A   1      53.578  26.132  26.726  1.00  0.00    -0.200 F 
ENDBRANCH  54  78
BRANCH  66  89
ATOM     89  C   UNL A   1      46.006  32.559  29.602  1.00  0.00     0.064 A 
ATOM     90  C   UNL A   1      46.046  33.629  28.698  1.00  0.00     0.173 A 
ATOM     91  C   UNL A   1      46.271  32.829  30.955  1.00  0.00     0.173 A 
ATOM     92  F   UNL A   1      45.812  33.420  27.393  1.00  0.00    -0.203 F 
ATOM     93  C   UNL A   1      46.345  34.918  29.132  1.00  0.00     0.198 A 
ATOM     94  C   UNL A   1      46.538  34.123  31.388  1.00  0.00     0.198 A 
ATOM     95  F   UNL A   1      46.238  31.840  31.860  1.00  0.00    -0.203 F 
ATOM     96  F   UNL A   1      46.406  35.923  28.246  1.00  0.00    -0.200 F 
ATOM     97  C   UNL A   1      46.577  35.167  30.477  1.00  0.00     0.200 A 
ATOM     98  F   UNL A   1      46.743  34.362  32.691  1.00  0.00    -0.200 F 
ATOM     99  F   UNL A   1      46.839  36.413  30.895  1.00  0.00    -0.200 F 
ENDBRANCH  66  89
ENDBRANCH  40  41
ENDBRANCH  32  35
ENDBRANCH  30  31
ENDBRANCH  29  30
ENDBRANCH   1  29
TORSDOF 14
ENDMDL
