MODEL 1
REMARK VINA RESULT:     -11.3      0.000      0.000
REMARK SMILES CCCN(CC)S(=O)(=O)c1ccc(C(=O)NCCCCNC(=O)c2ccc(-c3c4nc(c(-c5c(F)c(F)c(F)c(F)c5F)c5ccc([nH]5)c(-c5c(F)c(F)c(F)c(F)c5F)c5nc(c(-c6c(F)c(F)c(F)c(F)c6F)c6ccc3[nH]6)C=C5)C=C4)cc2)o1
REMARK SMILES IDX 17 1 16 2 14 3 15 4 13 6 10 7 11 8 87 9 12 10 7 11 8 12 9 13
REMARK SMILES IDX 4 14 3 15 2 16 1 17 5 18 6 19 18 20 19 21 20 22 21 23 22 24
REMARK SMILES IDX 23 26 24 27 25 28 86 29 26 30 85 31 27 32 28 33 29 34 79 35
REMARK SMILES IDX 30 36 84 37 78 38 80 39 31 40 83 41 77 42 76 43 32 45 64 46
REMARK SMILES IDX 44 47 63 48 45 49 48 50 62 51 81 52 46 53 47 54 61 56 82 57
REMARK SMILES IDX 49 58 33 59 34 60 42 61 35 62 36 63 40 64 43 65 37 66 38 67
REMARK SMILES IDX 41 68 39 69 65 70 66 71 74 72 67 73 68 74 72 75 75 76 69 77
REMARK SMILES IDX 70 78 73 79 71 80 50 81 51 82 59 83 52 84 53 85 57 86 60 87
REMARK SMILES IDX 54 88 55 89 58 90 56 91
REMARK H PARENT 16 5 21 25 80 44 48 55
REMARK Flexibility Score: inf
ROOT
ATOM      1  C   UNL A   1      33.140  29.986  26.074  1.00  0.00     0.116 C 
ENDROOT
BRANCH   1   2
ATOM      2  N   UNL A   1      33.235  29.824  24.642  1.00  0.00    -0.349 N 
ATOM      3  C   UNL A   1      33.457  28.704  23.873  1.00  0.00     0.287 C 
ATOM      4  O   UNL A   1      33.461  28.896  22.655  1.00  0.00    -0.266 OA
ATOM      5  H   UNL A   1      33.124  30.656  24.128  1.00  0.00     0.163 HD
BRANCH   3   6
ATOM      6  C   UNL A   1      33.655  27.389  24.466  1.00  0.00     0.193 A 
ATOM      7  C   UNL A   1      33.866  25.160  24.286  1.00  0.00     0.234 A 
ATOM      8  C   UNL A   1      33.874  25.476  25.636  1.00  0.00     0.065 A 
ATOM      9  O   UNL A   1      33.738  26.338  23.587  1.00  0.00    -0.438 OA
ATOM     10  C   UNL A   1      33.790  26.884  25.745  1.00  0.00     0.058 A 
BRANCH   7  11
ATOM     11  S   UNL A   1      33.932  23.582  23.435  1.00  0.00     0.276 S 
ATOM     12  O   UNL A   1      35.277  23.467  22.918  1.00  0.00    -0.204 OA
ATOM     13  O   UNL A   1      32.783  23.626  22.556  1.00  0.00    -0.204 OA
BRANCH  11  14
ATOM     14  N   UNL A   1      33.688  22.315  24.569  1.00  0.00    -0.195 NA
BRANCH  14  15
ATOM     15  C   UNL A   1      32.327  21.690  24.508  1.00  0.00     0.102 C 
BRANCH  15  16
ATOM     16  C   UNL A   1      31.375  22.221  25.580  1.00  0.00     0.013 C 
ATOM     17  C   UNL A   1      32.072  22.673  26.861  1.00  0.00     0.005 C 
ENDBRANCH  15  16
ENDBRANCH  14  15
BRANCH  14  18
ATOM     18  C   UNL A   1      34.767  21.287  24.688  1.00  0.00     0.099 C 
ATOM     19  C   UNL A   1      35.695  21.474  25.876  1.00  0.00     0.022 C 
ENDBRANCH  14  18
ENDBRANCH  11  14
ENDBRANCH   7  11
ENDBRANCH   3   6
ENDBRANCH   1   2
BRANCH   1  20
ATOM     20  C   UNL A   1      31.732  30.408  26.493  1.00  0.00     0.023 C 
BRANCH  20  21
ATOM     21  C   UNL A   1      31.533  31.926  26.604  1.00  0.00     0.023 C 
BRANCH  21  22
ATOM     22  C   UNL A   1      32.695  32.685  27.239  1.00  0.00     0.116 C 
BRANCH  22  23
ATOM     23  N   UNL A   1      32.358  34.051  27.605  1.00  0.00    -0.352 N 
ATOM     24  C   UNL A   1      32.960  34.858  28.538  1.00  0.00     0.251 C 
ATOM     25  H   UNL A   1      31.600  34.450  27.119  1.00  0.00     0.163 HD
ATOM     26  O   UNL A   1      32.493  35.961  28.799  1.00  0.00    -0.269 OA
BRANCH  24  27
ATOM     27  C   UNL A   1      34.148  34.366  29.265  1.00  0.00     0.039 A 
ATOM     28  C   UNL A   1      33.954  33.692  30.475  1.00  0.00     0.014 A 
ATOM     29  C   UNL A   1      35.435  34.558  28.759  1.00  0.00     0.014 A 
ATOM     30  C   UNL A   1      35.051  33.150  31.146  1.00  0.00     0.010 A 
ATOM     31  C   UNL A   1      36.523  33.979  29.404  1.00  0.00     0.010 A 
ATOM     32  C   UNL A   1      36.338  33.266  30.599  1.00  0.00    -0.014 A 
BRANCH  32  33
ATOM     33  C   UNL A   1      37.508  32.642  31.259  1.00  0.00     0.031 A 
ATOM     34  C   UNL A   1      38.241  31.520  30.585  1.00  0.00     0.074 A 
ATOM     35  C   UNL A   1      37.857  33.036  32.497  1.00  0.00     0.049 A 
ATOM     36  N   UNL A   1      39.221  30.783  31.038  1.00  0.00    -0.248 NA
ATOM     37  C   UNL A   1      37.795  31.166  29.228  1.00  0.00     0.031 C 
ATOM     38  C   UNL A   1      37.192  34.086  33.271  1.00  0.00     0.029 A 
ATOM     39  N   UNL A   1      38.852  32.587  33.329  1.00  0.00    -0.354 N 
ATOM     40  C   UNL A   1      39.493  29.861  30.037  1.00  0.00     0.074 A 
ATOM     41  C   UNL A   1      38.558  30.114  28.961  1.00  0.00     0.031 C 
ATOM     42  C   UNL A   1      37.802  34.207  34.460  1.00  0.00     0.029 A 
ATOM     43  C   UNL A   1      38.882  33.229  34.543  1.00  0.00     0.049 A 
ATOM     44  H   UNL A   1      39.483  31.874  33.080  1.00  0.00     0.167 HD
ATOM     45  C   UNL A   1      40.445  28.899  30.014  1.00  0.00     0.037 A 
ATOM     46  C   UNL A   1      39.689  33.041  35.604  1.00  0.00     0.037 A 
ATOM     47  C   UNL A   1      41.397  28.673  31.067  1.00  0.00     0.049 A 
ATOM     48  C   UNL A   1      40.764  31.993  35.536  1.00  0.00     0.074 A 
ATOM     49  C   UNL A   1      42.437  27.759  31.113  1.00  0.00     0.029 A 
ATOM     50  N   UNL A   1      41.429  29.375  32.262  1.00  0.00    -0.354 N 
ATOM     51  N   UNL A   1      41.042  31.158  34.564  1.00  0.00    -0.248 NA
ATOM     52  C   UNL A   1      41.641  31.865  36.708  1.00  0.00     0.031 C 
ATOM     53  C   UNL A   1      43.086  27.898  32.345  1.00  0.00     0.029 A 
ATOM     54  C   UNL A   1      42.467  28.913  33.055  1.00  0.00     0.049 A 
ATOM     55  H   UNL A   1      40.806  30.097  32.511  1.00  0.00     0.167 HD
ATOM     56  C   UNL A   1      42.135  30.422  34.997  1.00  0.00     0.074 A 
ATOM     57  C   UNL A   1      42.477  30.913  36.316  1.00  0.00     0.031 C 
ATOM     58  C   UNL A   1      42.796  29.426  34.359  1.00  0.00     0.037 A 
BRANCH  45  59
ATOM     59  C   UNL A   1      40.501  28.018  28.804  1.00  0.00     0.064 A 
ATOM     60  C   UNL A   1      41.272  28.361  27.684  1.00  0.00     0.173 A 
ATOM     61  C   UNL A   1      39.795  26.806  28.773  1.00  0.00     0.173 A 
ATOM     62  F   UNL A   1      41.951  29.517  27.662  1.00  0.00    -0.203 F 
ATOM     63  C   UNL A   1      41.317  27.533  26.566  1.00  0.00     0.198 A 
ATOM     64  C   UNL A   1      39.859  25.970  27.661  1.00  0.00     0.198 A 
ATOM     65  F   UNL A   1      39.045  26.433  29.820  1.00  0.00    -0.203 F 
ATOM     66  F   UNL A   1      42.028  27.900  25.491  1.00  0.00    -0.200 F 
ATOM     67  C   UNL A   1      40.614  26.337  26.557  1.00  0.00     0.200 A 
ATOM     68  F   UNL A   1      39.184  24.812  27.656  1.00  0.00    -0.200 F 
ATOM     69  F   UNL A   1      40.659  25.540  25.480  1.00  0.00    -0.200 F 
ENDBRANCH  45  59
BRANCH  46  70
ATOM     70  C   UNL A   1      39.529  33.889  36.809  1.00  0.00     0.064 A 
ATOM     71  C   UNL A   1      40.144  35.146  36.884  1.00  0.00     0.173 A 
ATOM     72  C   UNL A   1      38.757  33.469  37.900  1.00  0.00     0.173 A 
ATOM     73  F   UNL A   1      40.908  35.579  35.871  1.00  0.00    -0.203 F 
ATOM     74  C   UNL A   1      40.002  35.948  38.014  1.00  0.00     0.198 A 
ATOM     75  C   UNL A   1      38.600  34.280  39.021  1.00  0.00     0.198 A 
ATOM     76  F   UNL A   1      38.146  32.276  37.870  1.00  0.00    -0.203 F 
ATOM     77  F   UNL A   1      40.624  37.133  38.075  1.00  0.00    -0.200 F 
ATOM     78  C   UNL A   1      39.226  35.517  39.080  1.00  0.00     0.200 A 
ATOM     79  F   UNL A   1      37.842  33.865  40.045  1.00  0.00    -0.200 F 
ATOM     80  F   UNL A   1      39.087  36.290  40.166  1.00  0.00    -0.200 F 
ENDBRANCH  46  70
BRANCH  58  81
ATOM     81  C   UNL A   1      43.971  28.825  35.065  1.00  0.00     0.064 A 
ATOM     82  C   UNL A   1      45.261  29.347  34.911  1.00  0.00     0.173 A 
ATOM     83  C   UNL A   1      43.793  27.740  35.937  1.00  0.00     0.173 A 
ATOM     84  F   UNL A   1      45.478  30.373  34.074  1.00  0.00    -0.203 F 
ATOM     85  C   UNL A   1      46.339  28.795  35.595  1.00  0.00     0.198 A 
ATOM     86  C   UNL A   1      44.872  27.202  36.633  1.00  0.00     0.198 A 
ATOM     87  F   UNL A   1      42.576  27.209  36.116  1.00  0.00    -0.203 F 
ATOM     88  F   UNL A   1      47.572  29.288  35.410  1.00  0.00    -0.200 F 
ATOM     89  C   UNL A   1      46.144  27.728  36.459  1.00  0.00     0.200 A 
ATOM     90  F   UNL A   1      44.680  26.174  37.472  1.00  0.00    -0.200 F 
ATOM     91  F   UNL A   1      47.184  27.200  37.120  1.00  0.00    -0.200 F 
ENDBRANCH  58  81
ENDBRANCH  32  33
ENDBRANCH  24  27
ENDBRANCH  22  23
ENDBRANCH  21  22
ENDBRANCH  20  21
ENDBRANCH   1  20
TORSDOF 16
ENDMDL
MODEL 2
REMARK VINA RESULT:     -11.3      0.474      1.718
REMARK SMILES CCCN(CC)S(=O)(=O)c1ccc(C(=O)NCCCCNC(=O)c2ccc(-c3c4nc(c(-c5c(F)c(F)c(F)c(F)c5F)c5ccc([nH]5)c(-c5c(F)c(F)c(F)c(F)c5F)c5nc(c(-c6c(F)c(F)c(F)c(F)c6F)c6ccc3[nH]6)C=C5)C=C4)cc2)o1
REMARK SMILES IDX 17 1 16 2 14 3 15 4 13 6 10 7 11 8 87 9 12 10 7 11 8 12 9 13
REMARK SMILES IDX 4 14 3 15 2 16 1 17 5 18 6 19 18 20 19 21 20 22 21 23 22 24
REMARK SMILES IDX 23 26 24 27 25 28 86 29 26 30 85 31 27 32 28 33 29 34 79 35
REMARK SMILES IDX 30 36 84 37 78 38 80 39 31 40 83 41 77 42 76 43 32 45 64 46
REMARK SMILES IDX 44 47 63 48 45 49 48 50 62 51 81 52 46 53 47 54 61 56 82 57
REMARK SMILES IDX 49 58 33 59 34 60 42 61 35 62 36 63 40 64 43 65 37 66 38 67
REMARK SMILES IDX 41 68 39 69 65 70 66 71 74 72 67 73 68 74 72 75 75 76 69 77
REMARK SMILES IDX 70 78 73 79 71 80 50 81 51 82 59 83 52 84 53 85 57 86 60 87
REMARK SMILES IDX 54 88 55 89 58 90 56 91
REMARK H PARENT 16 5 21 25 80 44 48 55
REMARK Flexibility Score: inf
ROOT
ATOM      1  C   UNL A   1      33.148  30.008  26.257  1.00  0.00     0.116 C 
ENDROOT
BRANCH   1   2
ATOM      2  N   UNL A   1      33.121  29.801  24.828  1.00  0.00    -0.349 N 
ATOM      3  C   UNL A   1      33.106  28.643  24.084  1.00  0.00     0.287 C 
ATOM      4  O   UNL A   1      33.060  28.804  22.862  1.00  0.00    -0.266 OA
ATOM      5  H   UNL A   1      33.112  30.628  24.295  1.00  0.00     0.163 HD
BRANCH   3   6
ATOM      6  C   UNL A   1      33.126  27.326  24.706  1.00  0.00     0.193 A 
ATOM      7  C   UNL A   1      33.962  25.250  24.893  1.00  0.00     0.234 A 
ATOM      8  C   UNL A   1      32.885  25.350  25.759  1.00  0.00     0.065 A 
ATOM      9  O   UNL A   1      34.099  26.466  24.264  1.00  0.00    -0.438 OA
ATOM     10  C   UNL A   1      32.390  26.672  25.676  1.00  0.00     0.058 A 
BRANCH   7  11
ATOM     11  S   UNL A   1      35.041  23.873  24.492  1.00  0.00     0.276 S 
ATOM     12  O   UNL A   1      36.274  24.114  25.206  1.00  0.00    -0.204 OA
ATOM     13  O   UNL A   1      34.998  23.826  23.045  1.00  0.00    -0.204 OA
BRANCH  11  14
ATOM     14  N   UNL A   1      34.352  22.419  25.094  1.00  0.00    -0.195 NA
BRANCH  14  15
ATOM     15  C   UNL A   1      33.560  21.650  24.081  1.00  0.00     0.102 C 
BRANCH  15  16
ATOM     16  C   UNL A   1      32.269  21.060  24.651  1.00  0.00     0.013 C 
ATOM     17  C   UNL A   1      31.519  22.000  25.591  1.00  0.00     0.005 C 
ENDBRANCH  15  16
ENDBRANCH  14  15
BRANCH  14  18
ATOM     18  C   UNL A   1      35.239  21.527  25.901  1.00  0.00     0.099 C 
ATOM     19  C   UNL A   1      36.113  20.591  25.086  1.00  0.00     0.022 C 
ENDBRANCH  14  18
ENDBRANCH  11  14
ENDBRANCH   7  11
ENDBRANCH   3   6
ENDBRANCH   1   2
BRANCH   1  20
ATOM     20  C   UNL A   1      31.787  30.465  26.779  1.00  0.00     0.023 C 
BRANCH  20  21
ATOM     21  C   UNL A   1      31.580  31.985  26.759  1.00  0.00     0.023 C 
BRANCH  21  22
ATOM     22  C   UNL A   1      32.772  32.806  27.243  1.00  0.00     0.116 C 
BRANCH  22  23
ATOM     23  N   UNL A   1      32.415  34.156  27.647  1.00  0.00    -0.352 N 
ATOM     24  C   UNL A   1      32.995  34.941  28.612  1.00  0.00     0.251 C 
ATOM     25  H   UNL A   1      31.659  34.562  27.163  1.00  0.00     0.163 HD
ATOM     26  O   UNL A   1      32.512  36.030  28.900  1.00  0.00    -0.269 OA
BRANCH  24  27
ATOM     27  C   UNL A   1      34.179  34.440  29.340  1.00  0.00     0.039 A 
ATOM     28  C   UNL A   1      33.979  33.763  30.546  1.00  0.00     0.014 A 
ATOM     29  C   UNL A   1      35.468  34.627  28.836  1.00  0.00     0.014 A 
ATOM     30  C   UNL A   1      35.072  33.212  31.217  1.00  0.00     0.010 A 
ATOM     31  C   UNL A   1      36.552  34.040  29.482  1.00  0.00     0.010 A 
ATOM     32  C   UNL A   1      36.361  33.323  30.673  1.00  0.00    -0.014 A 
BRANCH  32  33
ATOM     33  C   UNL A   1      37.526  32.690  31.333  1.00  0.00     0.031 A 
ATOM     34  C   UNL A   1      38.254  31.566  30.656  1.00  0.00     0.074 A 
ATOM     35  C   UNL A   1      37.876  33.078  32.573  1.00  0.00     0.049 A 
ATOM     36  N   UNL A   1      39.229  30.822  31.109  1.00  0.00    -0.248 NA
ATOM     37  C   UNL A   1      37.808  31.219  29.298  1.00  0.00     0.031 C 
ATOM     38  C   UNL A   1      37.216  34.129  33.349  1.00  0.00     0.029 A 
ATOM     39  N   UNL A   1      38.866  32.621  33.405  1.00  0.00    -0.354 N 
ATOM     40  C   UNL A   1      39.497  29.902  30.105  1.00  0.00     0.074 A 
ATOM     41  C   UNL A   1      38.565  30.164  29.029  1.00  0.00     0.031 C 
ATOM     42  C   UNL A   1      37.824  34.243  34.540  1.00  0.00     0.029 A 
ATOM     43  C   UNL A   1      38.898  33.258  34.621  1.00  0.00     0.049 A 
ATOM     44  H   UNL A   1      39.493  31.905  33.155  1.00  0.00     0.167 HD
ATOM     45  C   UNL A   1      40.443  28.934  30.080  1.00  0.00     0.037 A 
ATOM     46  C   UNL A   1      39.702  33.063  35.682  1.00  0.00     0.037 A 
ATOM     47  C   UNL A   1      41.393  28.699  31.135  1.00  0.00     0.049 A 
ATOM     48  C   UNL A   1      40.772  32.009  35.613  1.00  0.00     0.074 A 
ATOM     49  C   UNL A   1      42.427  27.780  31.179  1.00  0.00     0.029 A 
ATOM     50  N   UNL A   1      41.426  29.398  32.332  1.00  0.00    -0.354 N 
ATOM     51  N   UNL A   1      41.046  31.176  34.639  1.00  0.00    -0.248 NA
ATOM     52  C   UNL A   1      41.646  31.873  36.786  1.00  0.00     0.031 C 
ATOM     53  C   UNL A   1      43.075  27.910  32.413  1.00  0.00     0.029 A 
ATOM     54  C   UNL A   1      42.460  28.928  33.125  1.00  0.00     0.049 A 
ATOM     55  H   UNL A   1      40.807  30.123  32.582  1.00  0.00     0.167 HD
ATOM     56  C   UNL A   1      42.134  30.432  35.071  1.00  0.00     0.074 A 
ATOM     57  C   UNL A   1      42.477  30.917  36.392  1.00  0.00     0.031 C 
ATOM     58  C   UNL A   1      42.790  29.435  34.431  1.00  0.00     0.037 A 
BRANCH  45  59
ATOM     59  C   UNL A   1      40.496  28.057  28.868  1.00  0.00     0.064 A 
ATOM     60  C   UNL A   1      39.775  26.856  28.802  1.00  0.00     0.173 A 
ATOM     61  C   UNL A   1      41.256  28.433  27.750  1.00  0.00     0.173 A 
ATOM     62  F   UNL A   1      39.047  26.449  29.851  1.00  0.00    -0.203 F 
ATOM     63  C   UNL A   1      39.831  26.051  27.668  1.00  0.00     0.198 A 
ATOM     64  C   UNL A   1      41.293  27.635  26.610  1.00  0.00     0.198 A 
ATOM     65  F   UNL A   1      41.962  29.574  27.765  1.00  0.00    -0.203 F 
ATOM     66  F   UNL A   1      39.166  24.887  27.641  1.00  0.00    -0.200 F 
ATOM     67  C   UNL A   1      40.586  26.442  26.572  1.00  0.00     0.200 A 
ATOM     68  F   UNL A   1      42.018  28.017  25.549  1.00  0.00    -0.200 F 
ATOM     69  F   UNL A   1      40.638  25.666  25.481  1.00  0.00    -0.200 F 
ENDBRANCH  45  59
BRANCH  46  70
ATOM     70  C   UNL A   1      39.546  33.908  36.890  1.00  0.00     0.064 A 
ATOM     71  C   UNL A   1      40.155  35.167  36.964  1.00  0.00     0.173 A 
ATOM     72  C   UNL A   1      38.781  33.482  37.985  1.00  0.00     0.173 A 
ATOM     73  F   UNL A   1      40.912  35.606  35.947  1.00  0.00    -0.203 F 
ATOM     74  C   UNL A   1      40.016  35.967  38.097  1.00  0.00     0.198 A 
ATOM     75  C   UNL A   1      38.626  34.291  39.108  1.00  0.00     0.198 A 
ATOM     76  F   UNL A   1      38.175  32.287  37.956  1.00  0.00    -0.203 F 
ATOM     77  F   UNL A   1      40.633  37.155  38.156  1.00  0.00    -0.200 F 
ATOM     78  C   UNL A   1      39.248  35.531  39.166  1.00  0.00     0.200 A 
ATOM     79  F   UNL A   1      37.876  33.871  40.136  1.00  0.00    -0.200 F 
ATOM     80  F   UNL A   1      39.112  36.301  40.254  1.00  0.00    -0.200 F 
ENDBRANCH  46  70
BRANCH  58  81
ATOM     81  C   UNL A   1      43.960  28.824  35.137  1.00  0.00     0.064 A 
ATOM     82  C   UNL A   1      43.806  27.717  35.983  1.00  0.00     0.173 A 
ATOM     83  C   UNL A   1      45.253  29.327  34.932  1.00  0.00     0.173 A 
ATOM     84  F   UNL A   1      42.585  27.215  36.221  1.00  0.00    -0.203 F 
ATOM     85  C   UNL A   1      44.906  27.143  36.612  1.00  0.00     0.198 A 
ATOM     86  C   UNL A   1      46.354  28.738  35.548  1.00  0.00     0.198 A 
ATOM     87  F   UNL A   1      45.448  30.383  34.129  1.00  0.00    -0.203 F 
ATOM     88  F   UNL A   1      44.735  26.105  37.443  1.00  0.00    -0.200 F 
ATOM     89  C   UNL A   1      46.179  27.649  36.390  1.00  0.00     0.200 A 
ATOM     90  F   UNL A   1      47.583  29.225  35.329  1.00  0.00    -0.200 F 
ATOM     91  F   UNL A   1      47.237  27.091  36.994  1.00  0.00    -0.200 F 
ENDBRANCH  58  81
ENDBRANCH  32  33
ENDBRANCH  24  27
ENDBRANCH  22  23
ENDBRANCH  21  22
ENDBRANCH  20  21
ENDBRANCH   1  20
TORSDOF 16
ENDMDL
MODEL 3
REMARK VINA RESULT:     -11.2      1.360      7.662
REMARK SMILES CCCN(CC)S(=O)(=O)c1ccc(C(=O)NCCCCNC(=O)c2ccc(-c3c4nc(c(-c5c(F)c(F)c(F)c(F)c5F)c5ccc([nH]5)c(-c5c(F)c(F)c(F)c(F)c5F)c5nc(c(-c6c(F)c(F)c(F)c(F)c6F)c6ccc3[nH]6)C=C5)C=C4)cc2)o1
REMARK SMILES IDX 17 1 16 2 14 3 15 4 13 6 10 7 11 8 87 9 12 10 7 11 8 12 9 13
REMARK SMILES IDX 4 14 3 15 2 16 1 17 5 18 6 19 18 20 19 21 20 22 21 23 22 24
REMARK SMILES IDX 23 26 24 27 25 28 86 29 26 30 85 31 27 32 28 33 29 34 79 35
REMARK SMILES IDX 30 36 84 37 78 38 80 39 31 40 83 41 77 42 76 43 32 45 64 46
REMARK SMILES IDX 44 47 63 48 45 49 48 50 62 51 81 52 46 53 47 54 61 56 82 57
REMARK SMILES IDX 49 58 33 59 34 60 42 61 35 62 36 63 40 64 43 65 37 66 38 67
REMARK SMILES IDX 41 68 39 69 65 70 66 71 74 72 67 73 68 74 72 75 75 76 69 77
REMARK SMILES IDX 70 78 73 79 71 80 50 81 51 82 59 83 52 84 53 85 57 86 60 87
REMARK SMILES IDX 54 88 55 89 58 90 56 91
REMARK H PARENT 16 5 21 25 80 44 48 55
REMARK Flexibility Score: inf
ROOT
ATOM      1  C   UNL A   1      31.913  29.963  25.457  1.00  0.00     0.116 C 
ENDROOT
BRANCH   1   2
ATOM      2  N   UNL A   1      30.829  30.351  24.584  1.00  0.00    -0.349 N 
ATOM      3  C   UNL A   1      30.105  29.625  23.666  1.00  0.00     0.287 C 
ATOM      4  O   UNL A   1      29.215  30.251  23.085  1.00  0.00    -0.266 OA
ATOM      5  H   UNL A   1      30.564  31.296  24.658  1.00  0.00     0.163 HD
BRANCH   3   6
ATOM      6  C   UNL A   1      30.368  28.214  23.419  1.00  0.00     0.193 A 
ATOM      7  C   UNL A   1      31.626  26.568  22.551  1.00  0.00     0.234 A 
ATOM      8  C   UNL A   1      30.489  25.989  23.091  1.00  0.00     0.065 A 
ATOM      9  O   UNL A   1      31.539  27.925  22.765  1.00  0.00    -0.438 OA
ATOM     10  C   UNL A   1      29.722  27.021  23.680  1.00  0.00     0.058 A 
BRANCH   7  11
ATOM     11  S   UNL A   1      33.011  25.859  21.656  1.00  0.00     0.276 S 
ATOM     12  O   UNL A   1      34.026  26.887  21.619  1.00  0.00    -0.204 OA
ATOM     13  O   UNL A   1      32.401  25.351  20.445  1.00  0.00    -0.204 OA
BRANCH  11  14
ATOM     14  N   UNL A   1      33.635  24.525  22.540  1.00  0.00    -0.195 NA
BRANCH  14  15
ATOM     15  C   UNL A   1      33.481  24.649  24.026  1.00  0.00     0.102 C 
BRANCH  15  16
ATOM     16  C   UNL A   1      34.817  24.811  24.755  1.00  0.00     0.013 C 
ATOM     17  C   UNL A   1      35.577  23.503  24.954  1.00  0.00     0.005 C 
ENDBRANCH  15  16
ENDBRANCH  14  15
BRANCH  14  18
ATOM     18  C   UNL A   1      33.278  23.158  22.055  1.00  0.00     0.099 C 
ATOM     19  C   UNL A   1      32.289  22.410  22.932  1.00  0.00     0.022 C 
ENDBRANCH  14  18
ENDBRANCH  11  14
ENDBRANCH   7  11
ENDBRANCH   3   6
ENDBRANCH   1   2
BRANCH   1  20
ATOM     20  C   UNL A   1      31.753  30.576  26.848  1.00  0.00     0.023 C 
BRANCH  20  21
ATOM     21  C   UNL A   1      31.508  32.091  26.847  1.00  0.00     0.023 C 
BRANCH  21  22
ATOM     22  C   UNL A   1      32.747  32.945  27.105  1.00  0.00     0.116 C 
BRANCH  22  23
ATOM     23  N   UNL A   1      32.436  34.264  27.630  1.00  0.00    -0.352 N 
ATOM     24  C   UNL A   1      33.032  34.932  28.672  1.00  0.00     0.251 C 
ATOM     25  H   UNL A   1      31.704  34.744  27.179  1.00  0.00     0.163 HD
ATOM     26  O   UNL A   1      32.587  36.007  29.056  1.00  0.00    -0.269 OA
BRANCH  24  27
ATOM     27  C   UNL A   1      34.184  34.318  29.362  1.00  0.00     0.039 A 
ATOM     28  C   UNL A   1      33.934  33.448  30.428  1.00  0.00     0.014 A 
ATOM     29  C   UNL A   1      35.494  34.588  28.960  1.00  0.00     0.014 A 
ATOM     30  C   UNL A   1      34.999  32.795  31.050  1.00  0.00     0.010 A 
ATOM     31  C   UNL A   1      36.551  33.903  29.550  1.00  0.00     0.010 A 
ATOM     32  C   UNL A   1      36.311  32.997  30.595  1.00  0.00    -0.014 A 
BRANCH  32  33
ATOM     33  C   UNL A   1      37.449  32.264  31.195  1.00  0.00     0.031 A 
ATOM     34  C   UNL A   1      37.947  32.636  32.561  1.00  0.00     0.074 A 
ATOM     35  C   UNL A   1      38.079  31.316  30.477  1.00  0.00     0.049 A 
ATOM     36  N   UNL A   1      38.985  32.183  33.214  1.00  0.00    -0.248 NA
ATOM     37  C   UNL A   1      37.189  33.675  33.275  1.00  0.00     0.031 C 
ATOM     38  C   UNL A   1      37.714  30.898  29.122  1.00  0.00     0.029 A 
ATOM     39  N   UNL A   1      39.171  30.543  30.782  1.00  0.00    -0.354 N 
ATOM     40  C   UNL A   1      39.021  32.897  34.403  1.00  0.00     0.074 A 
ATOM     41  C   UNL A   1      37.917  33.832  34.372  1.00  0.00     0.031 C 
ATOM     42  C   UNL A   1      38.560  29.939  28.716  1.00  0.00     0.029 A 
ATOM     43  C   UNL A   1      39.540  29.693  29.769  1.00  0.00     0.049 A 
ATOM     44  H   UNL A   1      39.643  30.593  31.643  1.00  0.00     0.167 HD
ATOM     45  C   UNL A   1      39.891  32.774  35.434  1.00  0.00     0.037 A 
ATOM     46  C   UNL A   1      40.561  28.818  29.699  1.00  0.00     0.037 A 
ATOM     47  C   UNL A   1      40.966  31.819  35.479  1.00  0.00     0.049 A 
ATOM     48  C   UNL A   1      41.488  28.672  30.873  1.00  0.00     0.074 A 
ATOM     49  C   UNL A   1      41.866  31.578  36.503  1.00  0.00     0.029 A 
ATOM     50  N   UNL A   1      41.280  30.939  34.455  1.00  0.00    -0.354 N 
ATOM     51  N   UNL A   1      41.485  29.320  32.013  1.00  0.00    -0.248 NA
ATOM     52  C   UNL A   1      42.556  27.670  30.754  1.00  0.00     0.031 C 
ATOM     53  C   UNL A   1      42.738  30.565  36.088  1.00  0.00     0.029 A 
ATOM     54  C   UNL A   1      42.363  30.157  34.819  1.00  0.00     0.049 A 
ATOM     55  H   UNL A   1      40.802  30.879  33.595  1.00  0.00     0.167 HD
ATOM     56  C   UNL A   1      42.532  28.793  32.753  1.00  0.00     0.074 A 
ATOM     57  C   UNL A   1      43.146  27.764  31.939  1.00  0.00     0.031 C 
ATOM     58  C   UNL A   1      42.949  29.131  33.996  1.00  0.00     0.037 A 
BRANCH  45  59
ATOM     59  C   UNL A   1      39.712  33.699  36.597  1.00  0.00     0.064 A 
ATOM     60  C   UNL A   1      40.344  34.950  36.641  1.00  0.00     0.173 A 
ATOM     61  C   UNL A   1      38.880  33.341  37.669  1.00  0.00     0.173 A 
ATOM     62  F   UNL A   1      41.160  35.329  35.647  1.00  0.00    -0.203 F 
ATOM     63  C   UNL A   1      40.167  35.802  37.728  1.00  0.00     0.198 A 
ATOM     64  C   UNL A   1      38.689  34.205  38.745  1.00  0.00     0.198 A 
ATOM     65  F   UNL A   1      38.253  32.156  37.672  1.00  0.00    -0.203 F 
ATOM     66  F   UNL A   1      40.813  36.976  37.769  1.00  0.00    -0.200 F 
ATOM     67  C   UNL A   1      39.338  35.431  38.776  1.00  0.00     0.200 A 
ATOM     68  F   UNL A   1      37.883  33.848  39.754  1.00  0.00    -0.200 F 
ATOM     69  F   UNL A   1      39.168  36.252  39.822  1.00  0.00    -0.200 F 
ENDBRANCH  45  59
BRANCH  46  70
ATOM     70  C   UNL A   1      40.737  27.988  28.484  1.00  0.00     0.064 A 
ATOM     71  C   UNL A   1      40.125  26.733  28.381  1.00  0.00     0.173 A 
ATOM     72  C   UNL A   1      41.509  28.434  27.402  1.00  0.00     0.173 A 
ATOM     73  F   UNL A   1      39.394  26.259  29.400  1.00  0.00    -0.203 F 
ATOM     74  C   UNL A   1      40.289  25.946  27.243  1.00  0.00     0.198 A 
ATOM     75  C   UNL A   1      41.656  27.655  26.257  1.00  0.00     0.198 A 
ATOM     76  F   UNL A   1      42.109  29.631  27.454  1.00  0.00    -0.203 F 
ATOM     77  F   UNL A   1      39.718  24.735  27.181  1.00  0.00    -0.200 F 
ATOM     78  C   UNL A   1      41.050  26.408  26.180  1.00  0.00     0.200 A 
ATOM     79  F   UNL A   1      42.384  28.108  25.228  1.00  0.00    -0.200 F 
ATOM     80  F   UNL A   1      41.205  25.652  25.085  1.00  0.00    -0.200 F 
ENDBRANCH  46  70
BRANCH  58  81
ATOM     81  C   UNL A   1      44.103  28.363  34.562  1.00  0.00     0.064 A 
ATOM     82  C   UNL A   1      43.910  27.165  35.262  1.00  0.00     0.173 A 
ATOM     83  C   UNL A   1      45.417  28.812  34.365  1.00  0.00     0.173 A 
ATOM     84  F   UNL A   1      42.669  26.708  35.487  1.00  0.00    -0.203 F 
ATOM     85  C   UNL A   1      44.994  26.448  35.758  1.00  0.00     0.198 A 
ATOM     86  C   UNL A   1      46.500  28.083  34.847  1.00  0.00     0.198 A 
ATOM     87  F   UNL A   1      45.649  29.953  33.700  1.00  0.00    -0.203 F 
ATOM     88  F   UNL A   1      44.787  25.319  36.452  1.00  0.00    -0.200 F 
ATOM     89  C   UNL A   1      46.287  26.903  35.546  1.00  0.00     0.200 A 
ATOM     90  F   UNL A   1      47.748  28.521  34.637  1.00  0.00    -0.200 F 
ATOM     91  F   UNL A   1      47.329  26.208  36.022  1.00  0.00    -0.200 F 
ENDBRANCH  58  81
ENDBRANCH  32  33
ENDBRANCH  24  27
ENDBRANCH  22  23
ENDBRANCH  21  22
ENDBRANCH  20  21
ENDBRANCH   1  20
TORSDOF 16
ENDMDL
