MODEL 1
REMARK VINA RESULT:     -12.8      0.000      0.000
REMARK SMILES O=C(NCCCCNC(=O)c1ccc2c(c1)CCN2C(=O)c1ccn[nH]1)c1ccc(-c2c3nc(c(-c4c(F)c(F)c(F)c(F)c4F)c4ccc([nH]4)c(-c4c(F)c(F)c(F)c(F)c4F)c4nc(c(-c5c(F)c(F)c(F)c(F)c5F)c5ccc2[nH]5)C=C4)C=C3)cc1
REMARK SMILES IDX 5 1 4 2 3 3 1 4 2 5 27 7 28 8 89 9 29 10 88 11 30 12 31 13
REMARK SMILES IDX 32 14 82 15 33 16 87 17 81 18 83 19 34 20 86 21 80 22 79 23
REMARK SMILES IDX 35 25 67 26 47 27 66 28 48 29 51 30 65 31 84 32 49 33 50 34
REMARK SMILES IDX 64 36 85 37 52 38 36 39 37 40 45 41 38 42 39 43 43 44 46 45
REMARK SMILES IDX 40 46 41 47 44 48 42 49 68 50 69 51 77 52 70 53 71 54 75 55
REMARK SMILES IDX 78 56 72 57 73 58 76 59 74 60 53 61 54 62 62 63 55 64 56 65
REMARK SMILES IDX 60 66 63 67 57 68 58 69 61 70 59 71 6 72 7 73 8 74 9 75
REMARK SMILES IDX 10 77 11 78 12 79 16 80 13 81 15 82 14 83 17 84 19 85 18 86
REMARK SMILES IDX 20 87 21 88 22 89 23 90 26 91 24 92 25 93
REMARK H PARENT 3 6 83 24 51 35 8 76 26 94
REMARK Flexibility Score: inf
ROOT
ATOM      1  C   UNL A   1      37.993  19.616  25.000  1.00  0.00     0.023 C 
ENDROOT
BRANCH   1   2
ATOM      2  C   UNL A   1      39.196  20.122  25.785  1.00  0.00     0.116 C 
BRANCH   2   3
ATOM      3  N   UNL A   1      40.263  19.137  25.885  1.00  0.00    -0.352 N 
ATOM      4  O   UNL A   1      42.391  18.392  25.999  1.00  0.00    -0.269 OA
ATOM      5  C   UNL A   1      41.607  19.329  26.095  1.00  0.00     0.251 C 
ATOM      6  H   UNL A   1      39.980  18.199  25.788  1.00  0.00     0.163 HD
BRANCH   5   7
ATOM      7  C   UNL A   1      42.109  20.682  26.411  1.00  0.00     0.039 A 
ATOM      8  C   UNL A   1      42.288  21.080  27.738  1.00  0.00     0.014 A 
ATOM      9  C   UNL A   1      42.395  21.565  25.366  1.00  0.00     0.014 A 
ATOM     10  C   UNL A   1      42.596  22.403  28.024  1.00  0.00     0.010 A 
ATOM     11  C   UNL A   1      42.801  22.869  25.656  1.00  0.00     0.010 A 
ATOM     12  C   UNL A   1      42.874  23.308  26.988  1.00  0.00    -0.014 A 
BRANCH  12  13
ATOM     13  C   UNL A   1      43.309  24.686  27.322  1.00  0.00     0.031 A 
ATOM     14  C   UNL A   1      42.357  25.683  27.916  1.00  0.00     0.074 A 
ATOM     15  C   UNL A   1      44.588  25.029  27.083  1.00  0.00     0.049 A 
ATOM     16  N   UNL A   1      42.572  26.931  28.247  1.00  0.00    -0.248 NA
ATOM     17  C   UNL A   1      40.981  25.226  28.161  1.00  0.00     0.031 C 
ATOM     18  C   UNL A   1      45.597  24.147  26.491  1.00  0.00     0.029 A 
ATOM     19  N   UNL A   1      45.262  26.202  27.305  1.00  0.00    -0.354 N 
ATOM     20  C   UNL A   1      41.358  27.416  28.718  1.00  0.00     0.074 A 
ATOM     21  C   UNL A   1      40.403  26.333  28.607  1.00  0.00     0.031 C 
ATOM     22  C   UNL A   1      46.765  24.799  26.420  1.00  0.00     0.029 A 
ATOM     23  C   UNL A   1      46.572  26.163  26.899  1.00  0.00     0.049 A 
ATOM     24  H   UNL A   1      44.847  26.995  27.717  1.00  0.00     0.167 HD
ATOM     25  C   UNL A   1      41.075  28.649  29.204  1.00  0.00     0.037 A 
ATOM     26  C   UNL A   1      47.510  27.127  26.881  1.00  0.00     0.037 A 
ATOM     27  C   UNL A   1      42.038  29.715  29.320  1.00  0.00     0.049 A 
ATOM     28  C   UNL A   1      47.165  28.490  27.405  1.00  0.00     0.074 A 
ATOM     29  C   UNL A   1      41.864  30.982  29.851  1.00  0.00     0.029 A 
ATOM     30  N   UNL A   1      43.355  29.643  28.888  1.00  0.00    -0.354 N 
ATOM     31  N   UNL A   1      46.029  28.920  27.896  1.00  0.00    -0.248 NA
ATOM     32  C   UNL A   1      48.229  29.500  27.371  1.00  0.00     0.031 C 
ATOM     33  C   UNL A   1      43.057  31.694  29.686  1.00  0.00     0.029 A 
ATOM     34  C   UNL A   1      43.994  30.854  29.107  1.00  0.00     0.049 A 
ATOM     35  H   UNL A   1      43.773  28.848  28.484  1.00  0.00     0.167 HD
ATOM     36  C   UNL A   1      46.242  30.246  28.243  1.00  0.00     0.074 A 
ATOM     37  C   UNL A   1      47.624  30.543  27.924  1.00  0.00     0.031 C 
ATOM     38  C   UNL A   1      45.369  31.136  28.776  1.00  0.00     0.037 A 
BRANCH  25  39
ATOM     39  C   UNL A   1      39.657  28.925  29.620  1.00  0.00     0.064 A 
ATOM     40  C   UNL A   1      38.706  29.433  28.724  1.00  0.00     0.173 A 
ATOM     41  C   UNL A   1      39.235  28.643  30.929  1.00  0.00     0.173 A 
ATOM     42  F   UNL A   1      39.056  29.728  27.462  1.00  0.00    -0.203 F 
ATOM     43  C   UNL A   1      37.395  29.681  29.130  1.00  0.00     0.198 A 
ATOM     44  C   UNL A   1      37.918  28.863  31.324  1.00  0.00     0.198 A 
ATOM     45  F   UNL A   1      40.100  28.146  31.827  1.00  0.00    -0.203 F 
ATOM     46  F   UNL A   1      36.518  30.216  28.269  1.00  0.00    -0.200 F 
ATOM     47  C   UNL A   1      37.002  29.390  30.427  1.00  0.00     0.200 A 
ATOM     48  F   UNL A   1      37.535  28.567  32.575  1.00  0.00    -0.200 F 
ATOM     49  F   UNL A   1      35.740  29.625  30.815  1.00  0.00    -0.200 F 
ENDBRANCH  25  39
BRANCH  26  50
ATOM     50  C   UNL A   1      48.854  26.821  26.329  1.00  0.00     0.064 A 
ATOM     51  C   UNL A   1      49.849  26.236  27.123  1.00  0.00     0.173 A 
ATOM     52  C   UNL A   1      49.153  27.065  24.979  1.00  0.00     0.173 A 
ATOM     53  F   UNL A   1      49.615  25.997  28.421  1.00  0.00    -0.203 F 
ATOM     54  C   UNL A   1      51.095  25.914  26.589  1.00  0.00     0.198 A 
ATOM     55  C   UNL A   1      50.387  26.715  24.441  1.00  0.00     0.198 A 
ATOM     56  F   UNL A   1      48.229  27.613  24.177  1.00  0.00    -0.203 F 
ATOM     57  F   UNL A   1      52.041  25.383  27.377  1.00  0.00    -0.200 F 
ATOM     58  C   UNL A   1      51.359  26.145  25.247  1.00  0.00     0.200 A 
ATOM     59  F   UNL A   1      50.630  26.920  23.138  1.00  0.00    -0.200 F 
ATOM     60  F   UNL A   1      52.553  25.819  24.731  1.00  0.00    -0.200 F 
ENDBRANCH  26  50
BRANCH  38  61
ATOM     61  C   UNL A   1      45.891  32.512  29.067  1.00  0.00     0.064 A 
ATOM     62  C   UNL A   1      46.516  32.820  30.284  1.00  0.00     0.173 A 
ATOM     63  C   UNL A   1      45.799  33.526  28.100  1.00  0.00     0.173 A 
ATOM     64  F   UNL A   1      46.613  31.891  31.247  1.00  0.00    -0.203 F 
ATOM     65  C   UNL A   1      47.010  34.098  30.531  1.00  0.00     0.198 A 
ATOM     66  C   UNL A   1      46.320  34.794  28.340  1.00  0.00     0.198 A 
ATOM     67  F   UNL A   1      45.213  33.282  26.918  1.00  0.00    -0.203 F 
ATOM     68  F   UNL A   1      47.562  34.383  31.719  1.00  0.00    -0.200 F 
ATOM     69  C   UNL A   1      46.920  35.080  29.556  1.00  0.00     0.200 A 
ATOM     70  F   UNL A   1      46.243  35.738  27.391  1.00  0.00    -0.200 F 
ATOM     71  F   UNL A   1      47.403  36.308  29.793  1.00  0.00    -0.200 F 
ENDBRANCH  38  61
ENDBRANCH  12  13
ENDBRANCH   5   7
ENDBRANCH   2   3
ENDBRANCH   1   2
BRANCH   1  72
ATOM     72  C   UNL A   1      36.969  20.684  24.638  1.00  0.00     0.023 C 
BRANCH  72  73
ATOM     73  C   UNL A   1      36.711  21.724  25.722  1.00  0.00     0.116 C 
BRANCH  73  74
ATOM     74  N   UNL A   1      35.496  21.465  26.481  1.00  0.00    -0.352 N 
ATOM     75  C   UNL A   1      34.328  22.192  26.503  1.00  0.00     0.251 C 
ATOM     76  H   UNL A   1      35.512  20.665  27.052  1.00  0.00     0.163 HD
ATOM     77  O   UNL A   1      33.440  21.923  27.306  1.00  0.00    -0.269 OA
BRANCH  75  78
ATOM     78  C   UNL A   1      34.162  23.318  25.564  1.00  0.00     0.040 A 
ATOM     79  C   UNL A   1      34.309  24.636  26.018  1.00  0.00     0.016 A 
ATOM     80  C   UNL A   1      33.798  23.060  24.242  1.00  0.00     0.019 A 
ATOM     81  C   UNL A   1      33.978  25.711  25.192  1.00  0.00     0.027 A 
ATOM     82  C   UNL A   1      33.531  24.147  23.418  1.00  0.00    -0.022 A 
ATOM     83  C   UNL A   1      33.605  25.468  23.883  1.00  0.00     0.047 A 
ATOM     84  C   UNL A   1      33.030  24.089  22.010  1.00  0.00     0.059 C 
ATOM     85  N   UNL A   1      33.220  26.353  22.858  1.00  0.00    -0.306 N 
ATOM     86  C   UNL A   1      32.996  25.570  21.632  1.00  0.00     0.131 C 
BRANCH  85  87
ATOM     87  C   UNL A   1      32.995  27.726  22.832  1.00  0.00     0.276 C 
ATOM     88  O   UNL A   1      33.943  28.511  22.905  1.00  0.00    -0.267 OA
BRANCH  87  89
ATOM     89  C   UNL A   1      31.667  28.242  22.652  1.00  0.00     0.123 A 
ATOM     90  C   UNL A   1      30.440  27.859  23.160  1.00  0.00     0.055 A 
ATOM     91  N   UNL A   1      31.418  29.398  21.962  1.00  0.00    -0.273 N 
ATOM     92  C   UNL A   1      29.516  28.754  22.589  1.00  0.00     0.135 A 
ATOM     93  N   UNL A   1      30.109  29.679  21.833  1.00  0.00    -0.183 NA
ATOM     94  H   UNL A   1      32.131  29.969  21.594  1.00  0.00     0.190 HD
ENDBRANCH  87  89
ENDBRANCH  85  87
ENDBRANCH  75  78
ENDBRANCH  73  74
ENDBRANCH  72  73
ENDBRANCH   1  72
TORSDOF 13
ENDMDL
MODEL 2
REMARK VINA RESULT:     -12.7      5.207     10.980
REMARK SMILES O=C(NCCCCNC(=O)c1ccc2c(c1)CCN2C(=O)c1ccn[nH]1)c1ccc(-c2c3nc(c(-c4c(F)c(F)c(F)c(F)c4F)c4ccc([nH]4)c(-c4c(F)c(F)c(F)c(F)c4F)c4nc(c(-c5c(F)c(F)c(F)c(F)c5F)c5ccc2[nH]5)C=C4)C=C3)cc1
REMARK SMILES IDX 5 1 4 2 3 3 1 4 2 5 27 7 28 8 89 9 29 10 88 11 30 12 31 13
REMARK SMILES IDX 32 14 82 15 33 16 87 17 81 18 83 19 34 20 86 21 80 22 79 23
REMARK SMILES IDX 35 25 67 26 47 27 66 28 48 29 51 30 65 31 84 32 49 33 50 34
REMARK SMILES IDX 64 36 85 37 52 38 36 39 37 40 45 41 38 42 39 43 43 44 46 45
REMARK SMILES IDX 40 46 41 47 44 48 42 49 68 50 69 51 77 52 70 53 71 54 75 55
REMARK SMILES IDX 78 56 72 57 73 58 76 59 74 60 53 61 54 62 62 63 55 64 56 65
REMARK SMILES IDX 60 66 63 67 57 68 58 69 61 70 59 71 6 72 7 73 8 74 9 75
REMARK SMILES IDX 10 77 11 78 12 79 16 80 13 81 15 82 14 83 17 84 19 85 18 86
REMARK SMILES IDX 20 87 21 88 22 89 23 90 26 91 24 92 25 93
REMARK H PARENT 3 6 83 24 51 35 8 76 26 94
REMARK Flexibility Score: inf
ROOT
ATOM      1  C   UNL A   1      31.514  32.051  26.878  1.00  0.00     0.023 C 
ENDROOT
BRANCH   1   2
ATOM      2  C   UNL A   1      32.787  32.862  27.083  1.00  0.00     0.116 C 
BRANCH   2   3
ATOM      3  N   UNL A   1      32.533  34.190  27.622  1.00  0.00    -0.352 N 
ATOM      4  O   UNL A   1      32.671  35.884  29.108  1.00  0.00    -0.269 OA
ATOM      5  C   UNL A   1      33.115  34.818  28.697  1.00  0.00     0.251 C 
ATOM      6  H   UNL A   1      31.846  34.712  27.148  1.00  0.00     0.163 HD
BRANCH   5   7
ATOM      7  C   UNL A   1      34.264  34.185  29.376  1.00  0.00     0.039 A 
ATOM      8  C   UNL A   1      35.571  34.513  29.010  1.00  0.00     0.014 A 
ATOM      9  C   UNL A   1      34.029  33.247  30.384  1.00  0.00     0.014 A 
ATOM     10  C   UNL A   1      36.635  33.791  29.534  1.00  0.00     0.010 A 
ATOM     11  C   UNL A   1      35.108  32.591  30.982  1.00  0.00     0.010 A 
ATOM     12  C   UNL A   1      36.418  32.835  30.539  1.00  0.00    -0.014 A 
BRANCH  12  13
ATOM     13  C   UNL A   1      37.580  32.157  31.162  1.00  0.00     0.031 A 
ATOM     14  C   UNL A   1      38.366  31.116  30.420  1.00  0.00     0.074 A 
ATOM     15  C   UNL A   1      37.923  32.498  32.418  1.00  0.00     0.049 A 
ATOM     16  N   UNL A   1      39.395  30.415  30.826  1.00  0.00    -0.248 NA
ATOM     17  C   UNL A   1      37.938  30.811  29.046  1.00  0.00     0.031 C 
ATOM     18  C   UNL A   1      37.218  33.483  33.242  1.00  0.00     0.029 A 
ATOM     19  N   UNL A   1      38.943  32.060  33.223  1.00  0.00    -0.354 N 
ATOM     20  C   UNL A   1      39.724  29.573  29.771  1.00  0.00     0.074 A 
ATOM     21  C   UNL A   1      38.769  29.832  28.714  1.00  0.00     0.031 C 
ATOM     22  C   UNL A   1      37.840  33.595  34.423  1.00  0.00     0.029 A 
ATOM     23  C   UNL A   1      38.944  32.643  34.465  1.00  0.00     0.049 A 
ATOM     24  H   UNL A   1      39.609  31.394  32.937  1.00  0.00     0.167 HD
ATOM     25  C   UNL A   1      40.736  28.673  29.695  1.00  0.00     0.037 A 
ATOM     26  C   UNL A   1      39.726  32.415  35.536  1.00  0.00     0.037 A 
ATOM     27  C   UNL A   1      41.687  28.432  30.751  1.00  0.00     0.049 A 
ATOM     28  C   UNL A   1      40.825  31.398  35.433  1.00  0.00     0.074 A 
ATOM     29  C   UNL A   1      42.780  27.584  30.751  1.00  0.00     0.029 A 
ATOM     30  N   UNL A   1      41.650  29.034  32.002  1.00  0.00    -0.354 N 
ATOM     31  N   UNL A   1      41.159  30.647  34.413  1.00  0.00    -0.248 NA
ATOM     32  C   UNL A   1      41.653  31.198  36.627  1.00  0.00     0.031 C 
ATOM     33  C   UNL A   1      43.369  27.628  32.020  1.00  0.00     0.029 A 
ATOM     34  C   UNL A   1      42.681  28.549  32.793  1.00  0.00     0.049 A 
ATOM     35  H   UNL A   1      40.989  29.706  32.285  1.00  0.00     0.167 HD
ATOM     36  C   UNL A   1      42.243  29.893  34.835  1.00  0.00     0.074 A 
ATOM     37  C   UNL A   1      42.524  30.294  36.199  1.00  0.00     0.031 C 
ATOM     38  C   UNL A   1      42.942  28.952  34.152  1.00  0.00     0.037 A 
BRANCH  25  39
ATOM     39  C   UNL A   1      40.850  27.858  28.438  1.00  0.00     0.064 A 
ATOM     40  C   UNL A   1      41.630  28.277  27.350  1.00  0.00     0.173 A 
ATOM     41  C   UNL A   1      40.195  26.621  28.334  1.00  0.00     0.173 A 
ATOM     42  F   UNL A   1      42.272  29.455  27.392  1.00  0.00    -0.203 F 
ATOM     43  C   UNL A   1      41.723  27.505  26.193  1.00  0.00     0.198 A 
ATOM     44  C   UNL A   1      40.314  25.837  27.189  1.00  0.00     0.198 A 
ATOM     45  F   UNL A   1      39.443  26.166  29.347  1.00  0.00    -0.203 F 
ATOM     46  F   UNL A   1      42.433  27.950  25.147  1.00  0.00    -0.200 F 
ATOM     47  C   UNL A   1      41.070  26.284  26.116  1.00  0.00     0.200 A 
ATOM     48  F   UNL A   1      39.694  24.650  27.122  1.00  0.00    -0.200 F 
ATOM     49  F   UNL A   1      41.164  25.540  25.004  1.00  0.00    -0.200 F 
ENDBRANCH  25  39
BRANCH  26  50
ATOM     50  C   UNL A   1      39.470  33.162  36.793  1.00  0.00     0.064 A 
ATOM     51  C   UNL A   1      40.143  34.357  37.077  1.00  0.00     0.173 A 
ATOM     52  C   UNL A   1      38.508  32.718  37.714  1.00  0.00     0.173 A 
ATOM     53  F   UNL A   1      41.080  34.815  36.234  1.00  0.00    -0.203 F 
ATOM     54  C   UNL A   1      39.870  35.075  38.240  1.00  0.00     0.198 A 
ATOM     55  C   UNL A   1      38.215  33.452  38.859  1.00  0.00     0.198 A 
ATOM     56  F   UNL A   1      37.829  31.585  37.480  1.00  0.00    -0.203 F 
ATOM     57  F   UNL A   1      40.549  36.200  38.504  1.00  0.00    -0.200 F 
ATOM     58  C   UNL A   1      38.900  34.627  39.124  1.00  0.00     0.200 A 
ATOM     59  F   UNL A   1      37.261  33.026  39.699  1.00  0.00    -0.200 F 
ATOM     60  F   UNL A   1      38.626  35.328  40.233  1.00  0.00    -0.200 F 
ENDBRANCH  26  50
BRANCH  38  61
ATOM     61  C   UNL A   1      44.092  28.306  34.866  1.00  0.00     0.064 A 
ATOM     62  C   UNL A   1      43.936  27.108  35.579  1.00  0.00     0.173 A 
ATOM     63  C   UNL A   1      45.375  28.872  34.806  1.00  0.00     0.173 A 
ATOM     64  F   UNL A   1      42.726  26.537  35.682  1.00  0.00    -0.203 F 
ATOM     65  C   UNL A   1      45.017  26.512  36.222  1.00  0.00     0.198 A 
ATOM     66  C   UNL A   1      46.459  28.257  35.425  1.00  0.00     0.198 A 
ATOM     67  F   UNL A   1      45.578  30.015  34.134  1.00  0.00    -0.203 F 
ATOM     68  F   UNL A   1      44.836  25.392  36.936  1.00  0.00    -0.200 F 
ATOM     69  C   UNL A   1      46.278  27.082  36.137  1.00  0.00     0.200 A 
ATOM     70  F   UNL A   1      47.680  28.804  35.331  1.00  0.00    -0.200 F 
ATOM     71  F   UNL A   1      47.320  26.503  36.751  1.00  0.00    -0.200 F 
ENDBRANCH  38  61
ENDBRANCH  12  13
ENDBRANCH   5   7
ENDBRANCH   2   3
ENDBRANCH   1   2
BRANCH   1  72
ATOM     72  C   UNL A   1      31.712  30.541  26.865  1.00  0.00     0.023 C 
BRANCH  72  73
ATOM     73  C   UNL A   1      33.014  30.066  26.231  1.00  0.00     0.116 C 
BRANCH  73  74
ATOM     74  N   UNL A   1      32.917  29.902  24.788  1.00  0.00    -0.352 N 
ATOM     75  C   UNL A   1      32.885  28.737  24.057  1.00  0.00     0.251 C 
ATOM     76  H   UNL A   1      32.868  30.735  24.266  1.00  0.00     0.163 HD
ATOM     77  O   UNL A   1      32.945  28.765  22.832  1.00  0.00    -0.269 OA
BRANCH  75  78
ATOM     78  C   UNL A   1      32.801  27.445  24.766  1.00  0.00     0.040 A 
ATOM     79  C   UNL A   1      33.966  26.709  25.021  1.00  0.00     0.016 A 
ATOM     80  C   UNL A   1      31.550  26.939  25.121  1.00  0.00     0.019 A 
ATOM     81  C   UNL A   1      33.887  25.409  25.522  1.00  0.00     0.027 A 
ATOM     82  C   UNL A   1      31.499  25.665  25.676  1.00  0.00    -0.022 A 
ATOM     83  C   UNL A   1      32.652  24.892  25.868  1.00  0.00     0.047 A 
ATOM     84  C   UNL A   1      30.262  24.902  26.029  1.00  0.00     0.059 C 
ATOM     85  N   UNL A   1      32.296  23.629  26.380  1.00  0.00    -0.306 N 
ATOM     86  C   UNL A   1      30.847  23.629  26.640  1.00  0.00     0.131 C 
BRANCH  85  87
ATOM     87  C   UNL A   1      33.024  22.468  26.619  1.00  0.00     0.276 C 
ATOM     88  O   UNL A   1      33.787  22.402  27.585  1.00  0.00    -0.267 OA
BRANCH  87  89
ATOM     89  C   UNL A   1      32.844  21.312  25.785  1.00  0.00     0.123 A 
ATOM     90  C   UNL A   1      32.688  21.162  24.419  1.00  0.00     0.055 A 
ATOM     91  N   UNL A   1      32.932  20.037  26.273  1.00  0.00    -0.273 N 
ATOM     92  C   UNL A   1      32.538  19.777  24.222  1.00  0.00     0.135 A 
ATOM     93  N   UNL A   1      32.658  19.089  25.359  1.00  0.00    -0.183 NA
ATOM     94  H   UNL A   1      33.173  19.833  27.205  1.00  0.00     0.190 HD
ENDBRANCH  87  89
ENDBRANCH  85  87
ENDBRANCH  75  78
ENDBRANCH  73  74
ENDBRANCH  72  73
ENDBRANCH   1  72
TORSDOF 13
ENDMDL
MODEL 3
REMARK VINA RESULT:     -12.7      0.283      1.968
REMARK SMILES O=C(NCCCCNC(=O)c1ccc2c(c1)CCN2C(=O)c1ccn[nH]1)c1ccc(-c2c3nc(c(-c4c(F)c(F)c(F)c(F)c4F)c4ccc([nH]4)c(-c4c(F)c(F)c(F)c(F)c4F)c4nc(c(-c5c(F)c(F)c(F)c(F)c5F)c5ccc2[nH]5)C=C4)C=C3)cc1
REMARK SMILES IDX 5 1 4 2 3 3 1 4 2 5 27 7 28 8 89 9 29 10 88 11 30 12 31 13
REMARK SMILES IDX 32 14 82 15 33 16 87 17 81 18 83 19 34 20 86 21 80 22 79 23
REMARK SMILES IDX 35 25 67 26 47 27 66 28 48 29 51 30 65 31 84 32 49 33 50 34
REMARK SMILES IDX 64 36 85 37 52 38 36 39 37 40 45 41 38 42 39 43 43 44 46 45
REMARK SMILES IDX 40 46 41 47 44 48 42 49 68 50 69 51 77 52 70 53 71 54 75 55
REMARK SMILES IDX 78 56 72 57 73 58 76 59 74 60 53 61 54 62 62 63 55 64 56 65
REMARK SMILES IDX 60 66 63 67 57 68 58 69 61 70 59 71 6 72 7 73 8 74 9 75
REMARK SMILES IDX 10 77 11 78 12 79 16 80 13 81 15 82 14 83 17 84 19 85 18 86
REMARK SMILES IDX 20 87 21 88 22 89 23 90 26 91 24 92 25 93
REMARK H PARENT 3 6 83 24 51 35 8 76 26 94
REMARK Flexibility Score: inf
ROOT
ATOM      1  C   UNL A   1      38.170  19.616  25.001  1.00  0.00     0.023 C 
ENDROOT
BRANCH   1   2
ATOM      2  C   UNL A   1      39.239  19.947  26.034  1.00  0.00     0.116 C 
BRANCH   2   3
ATOM      3  N   UNL A   1      40.331  18.984  26.047  1.00  0.00    -0.352 N 
ATOM      4  O   UNL A   1      42.477  18.283  25.991  1.00  0.00    -0.269 OA
ATOM      5  C   UNL A   1      41.683  19.204  26.151  1.00  0.00     0.251 C 
ATOM      6  H   UNL A   1      40.061  18.040  25.970  1.00  0.00     0.163 HD
BRANCH   5   7
ATOM      7  C   UNL A   1      42.180  20.566  26.431  1.00  0.00     0.039 A 
ATOM      8  C   UNL A   1      42.325  21.012  27.746  1.00  0.00     0.014 A 
ATOM      9  C   UNL A   1      42.497  21.409  25.362  1.00  0.00     0.014 A 
ATOM     10  C   UNL A   1      42.630  22.344  27.992  1.00  0.00     0.010 A 
ATOM     11  C   UNL A   1      42.898  22.723  25.615  1.00  0.00     0.010 A 
ATOM     12  C   UNL A   1      42.937  23.210  26.931  1.00  0.00    -0.014 A 
BRANCH  12  13
ATOM     13  C   UNL A   1      43.367  24.598  27.226  1.00  0.00     0.031 A 
ATOM     14  C   UNL A   1      42.404  25.617  27.762  1.00  0.00     0.074 A 
ATOM     15  C   UNL A   1      44.652  24.932  27.004  1.00  0.00     0.049 A 
ATOM     16  N   UNL A   1      42.613  26.876  28.054  1.00  0.00    -0.248 NA
ATOM     17  C   UNL A   1      41.022  25.170  27.993  1.00  0.00     0.031 C 
ATOM     18  C   UNL A   1      45.672  24.028  26.466  1.00  0.00     0.029 A 
ATOM     19  N   UNL A   1      45.323  26.111  27.199  1.00  0.00    -0.354 N 
ATOM     20  C   UNL A   1      41.391  27.378  28.481  1.00  0.00     0.074 A 
ATOM     21  C   UNL A   1      40.436  26.293  28.386  1.00  0.00     0.031 C 
ATOM     22  C   UNL A   1      46.843  24.676  26.398  1.00  0.00     0.029 A 
ATOM     23  C   UNL A   1      46.642  26.057  26.824  1.00  0.00     0.049 A 
ATOM     24  H   UNL A   1      44.900  26.918  27.573  1.00  0.00     0.167 HD
ATOM     25  C   UNL A   1      41.099  28.628  28.916  1.00  0.00     0.037 A 
ATOM     26  C   UNL A   1      47.582  27.018  26.794  1.00  0.00     0.037 A 
ATOM     27  C   UNL A   1      42.061  29.697  29.016  1.00  0.00     0.049 A 
ATOM     28  C   UNL A   1      47.227  28.399  27.260  1.00  0.00     0.074 A 
ATOM     29  C   UNL A   1      41.877  30.981  29.498  1.00  0.00     0.029 A 
ATOM     30  N   UNL A   1      43.387  29.608  28.616  1.00  0.00    -0.354 N 
ATOM     31  N   UNL A   1      46.081  28.848  27.711  1.00  0.00    -0.248 NA
ATOM     32  C   UNL A   1      48.293  29.406  27.215  1.00  0.00     0.031 C 
ATOM     33  C   UNL A   1      43.075  31.686  29.334  1.00  0.00     0.029 A 
ATOM     34  C   UNL A   1      44.023  30.825  28.807  1.00  0.00     0.049 A 
ATOM     35  H   UNL A   1      43.813  28.799  28.250  1.00  0.00     0.167 HD
ATOM     36  C   UNL A   1      46.288  30.185  28.015  1.00  0.00     0.074 A 
ATOM     37  C   UNL A   1      47.678  30.469  27.717  1.00  0.00     0.031 C 
ATOM     38  C   UNL A   1      45.406  31.094  28.497  1.00  0.00     0.037 A 
BRANCH  25  39
ATOM     39  C   UNL A   1      39.673  28.920  29.290  1.00  0.00     0.064 A 
ATOM     40  C   UNL A   1      39.209  28.789  30.608  1.00  0.00     0.173 A 
ATOM     41  C   UNL A   1      38.764  29.372  28.321  1.00  0.00     0.173 A 
ATOM     42  F   UNL A   1      40.032  28.353  31.574  1.00  0.00    -0.203 F 
ATOM     43  C   UNL A   1      37.882  29.065  30.934  1.00  0.00     0.198 A 
ATOM     44  C   UNL A   1      37.447  29.677  28.655  1.00  0.00     0.198 A 
ATOM     45  F   UNL A   1      39.154  29.526  27.047  1.00  0.00    -0.203 F 
ATOM     46  F   UNL A   1      37.450  28.883  32.190  1.00  0.00    -0.200 F 
ATOM     47  C   UNL A   1      37.005  29.515  29.959  1.00  0.00     0.200 A 
ATOM     48  F   UNL A   1      36.604  30.125  27.714  1.00  0.00    -0.200 F 
ATOM     49  F   UNL A   1      35.730  29.785  30.275  1.00  0.00    -0.200 F 
ENDBRANCH  25  39
BRANCH  26  50
ATOM     50  C   UNL A   1      48.937  26.691  26.283  1.00  0.00     0.064 A 
ATOM     51  C   UNL A   1      49.271  26.885  24.936  1.00  0.00     0.173 A 
ATOM     52  C   UNL A   1      49.941  26.224  27.146  1.00  0.00     0.173 A 
ATOM     53  F   UNL A   1      48.342  27.316  24.071  1.00  0.00    -0.203 F 
ATOM     54  C   UNL A   1      50.556  26.615  24.470  1.00  0.00     0.198 A 
ATOM     55  C   UNL A   1      51.232  25.985  26.685  1.00  0.00     0.198 A 
ATOM     56  F   UNL A   1      49.673  26.035  28.446  1.00  0.00    -0.203 F 
ATOM     57  F   UNL A   1      50.842  26.778  23.171  1.00  0.00    -0.200 F 
ATOM     58  C   UNL A   1      51.537  26.175  25.346  1.00  0.00     0.200 A 
ATOM     59  F   UNL A   1      52.182  25.581  27.539  1.00  0.00    -0.200 F 
ATOM     60  F   UNL A   1      52.777  25.932  24.900  1.00  0.00    -0.200 F 
ENDBRANCH  26  50
BRANCH  38  61
ATOM     61  C   UNL A   1      45.924  32.479  28.750  1.00  0.00     0.064 A 
ATOM     62  C   UNL A   1      45.828  33.489  27.782  1.00  0.00     0.173 A 
ATOM     63  C   UNL A   1      46.489  32.810  29.991  1.00  0.00     0.173 A 
ATOM     64  F   UNL A   1      45.313  33.218  26.573  1.00  0.00    -0.203 F 
ATOM     65  C   UNL A   1      46.299  34.773  28.039  1.00  0.00     0.198 A 
ATOM     66  C   UNL A   1      46.931  34.103  30.256  1.00  0.00     0.198 A 
ATOM     67  F   UNL A   1      46.600  31.881  30.953  1.00  0.00    -0.203 F 
ATOM     68  F   UNL A   1      46.239  35.711  27.083  1.00  0.00    -0.200 F 
ATOM     69  C   UNL A   1      46.841  35.082  29.278  1.00  0.00     0.200 A 
ATOM     70  F   UNL A   1      47.443  34.402  31.458  1.00  0.00    -0.200 F 
ATOM     71  F   UNL A   1      47.287  36.321  29.526  1.00  0.00    -0.200 F 
ENDBRANCH  38  61
ENDBRANCH  12  13
ENDBRANCH   5   7
ENDBRANCH   2   3
ENDBRANCH   1   2
BRANCH   1  72
ATOM     72  C   UNL A   1      37.325  20.802  24.552  1.00  0.00     0.023 C 
BRANCH  72  73
ATOM     73  C   UNL A   1      36.929  21.769  25.661  1.00  0.00     0.116 C 
BRANCH  73  74
ATOM     74  N   UNL A   1      35.719  21.365  26.362  1.00  0.00    -0.352 N 
ATOM     75  C   UNL A   1      34.500  22.000  26.405  1.00  0.00     0.251 C 
ATOM     76  H   UNL A   1      35.781  20.526  26.873  1.00  0.00     0.163 HD
ATOM     77  O   UNL A   1      33.615  21.606  27.159  1.00  0.00    -0.269 OA
BRANCH  75  78
ATOM     78  C   UNL A   1      34.272  23.180  25.548  1.00  0.00     0.040 A 
ATOM     79  C   UNL A   1      34.404  24.469  26.082  1.00  0.00     0.016 A 
ATOM     80  C   UNL A   1      33.867  23.000  24.226  1.00  0.00     0.019 A 
ATOM     81  C   UNL A   1      34.017  25.587  25.341  1.00  0.00     0.027 A 
ATOM     82  C   UNL A   1      33.544  24.130  23.485  1.00  0.00    -0.022 A 
ATOM     83  C   UNL A   1      33.603  25.419  24.033  1.00  0.00     0.047 A 
ATOM     84  C   UNL A   1      32.995  24.150  22.094  1.00  0.00     0.059 C 
ATOM     85  N   UNL A   1      33.160  26.359  23.082  1.00  0.00    -0.306 N 
ATOM     86  C   UNL A   1      32.911  25.651  21.816  1.00  0.00     0.131 C 
BRANCH  85  87
ATOM     87  C   UNL A   1      32.901  27.724  23.154  1.00  0.00     0.276 C 
ATOM     88  O   UNL A   1      33.822  28.520  23.347  1.00  0.00    -0.267 OA
BRANCH  87  89
ATOM     89  C   UNL A   1      31.572  28.224  22.937  1.00  0.00     0.123 A 
ATOM     90  C   UNL A   1      30.377  28.019  23.602  1.00  0.00     0.055 A 
ATOM     91  N   UNL A   1      31.295  29.184  22.001  1.00  0.00    -0.273 N 
ATOM     92  C   UNL A   1      29.431  28.777  22.888  1.00  0.00     0.135 A 
ATOM     93  N   UNL A   1      29.986  29.469  21.891  1.00  0.00    -0.183 NA
ATOM     94  H   UNL A   1      31.990  29.624  21.460  1.00  0.00     0.190 HD
ENDBRANCH  87  89
ENDBRANCH  85  87
ENDBRANCH  75  78
ENDBRANCH  73  74
ENDBRANCH  72  73
ENDBRANCH   1  72
TORSDOF 13
ENDMDL
