MODEL 1
REMARK VINA RESULT:     -12.0      0.000      0.000
REMARK SMILES O=C(NCCCCNC(=O)c1cc(S(=O)(=O)C/C(Cl)=C/Cl)ccc1Cl)c1ccc(-c2c3nc(c(-c4c(F)c(F)c(F)c(F)c4F)c4ccc([nH]4)c(-c4c(F)c(F)c(F)c(F)c4F)c4nc(c(-c5c(F)c(F)c(F)c(F)c5F)c5ccc2[nH]5)C=C4)C=C3)cc1
REMARK SMILES IDX 6 1 5 2 4 3 3 4 1 5 2 6 26 8 27 9 88 10 28 11 87 12 29 13
REMARK SMILES IDX 30 14 31 15 81 16 32 17 86 18 80 19 82 20 33 21 85 22 79 23
REMARK SMILES IDX 78 24 34 26 66 27 46 28 65 29 47 30 50 31 64 32 83 33 48 34
REMARK SMILES IDX 49 35 63 37 84 38 51 39 35 40 36 41 44 42 37 43 38 44 42 45
REMARK SMILES IDX 45 46 39 47 40 48 43 49 41 50 67 51 68 52 76 53 69 54 70 55
REMARK SMILES IDX 74 56 77 57 71 58 72 59 75 60 73 61 52 62 53 63 61 64 54 65
REMARK SMILES IDX 55 66 59 67 62 68 56 69 57 70 60 71 58 72 7 73 8 74 9 75
REMARK SMILES IDX 10 77 11 78 12 79 24 80 13 81 23 82 25 83 22 84 14 85 15 86
REMARK SMILES IDX 16 87 17 88 18 89 19 90 20 91 21 92
REMARK H PARENT 3 7 82 25 50 36 8 76
REMARK Flexibility Score: inf
ROOT
ATOM      1  C   UNL A   1      31.400  30.888  25.771  1.00  0.00     0.023 C 
ENDROOT
BRANCH   1   2
ATOM      2  C   UNL A   1      31.307  32.013  26.800  1.00  0.00     0.023 C 
BRANCH   2   3
ATOM      3  C   UNL A   1      32.621  32.708  27.133  1.00  0.00     0.116 C 
BRANCH   3   4
ATOM      4  N   UNL A   1      32.443  34.080  27.583  1.00  0.00    -0.352 N 
ATOM      5  O   UNL A   1      32.721  35.887  28.906  1.00  0.00    -0.269 OA
ATOM      6  C   UNL A   1      33.103  34.769  28.573  1.00  0.00     0.251 C 
ATOM      7  H   UNL A   1      31.747  34.590  27.110  1.00  0.00     0.163 HD
BRANCH   6   8
ATOM      8  C   UNL A   1      34.258  34.151  29.259  1.00  0.00     0.039 A 
ATOM      9  C   UNL A   1      35.562  34.548  28.960  1.00  0.00     0.014 A 
ATOM     10  C   UNL A   1      34.030  33.161  30.220  1.00  0.00     0.014 A 
ATOM     11  C   UNL A   1      36.637  33.849  29.499  1.00  0.00     0.010 A 
ATOM     12  C   UNL A   1      35.113  32.520  30.830  1.00  0.00     0.010 A 
ATOM     13  C   UNL A   1      36.426  32.835  30.448  1.00  0.00    -0.014 A 
BRANCH  13  14
ATOM     14  C   UNL A   1      37.596  32.163  31.065  1.00  0.00     0.031 A 
ATOM     15  C   UNL A   1      38.043  32.496  32.461  1.00  0.00     0.074 A 
ATOM     16  C   UNL A   1      38.243  31.218  30.355  1.00  0.00     0.049 A 
ATOM     17  N   UNL A   1      39.032  31.987  33.153  1.00  0.00    -0.248 NA
ATOM     18  C   UNL A   1      37.291  33.540  33.172  1.00  0.00     0.031 C 
ATOM     19  C   UNL A   1      37.911  30.823  28.985  1.00  0.00     0.029 A 
ATOM     20  N   UNL A   1      39.297  30.408  30.689  1.00  0.00    -0.354 N 
ATOM     21  C   UNL A   1      39.034  32.659  34.367  1.00  0.00     0.074 A 
ATOM     22  C   UNL A   1      37.962  33.630  34.313  1.00  0.00     0.031 C 
ATOM     23  C   UNL A   1      38.715  29.819  28.609  1.00  0.00     0.029 A 
ATOM     24  C   UNL A   1      39.656  29.539  29.688  1.00  0.00     0.049 A 
ATOM     25  H   UNL A   1      39.753  30.445  31.560  1.00  0.00     0.167 HD
ATOM     26  C   UNL A   1      39.855  32.475  35.431  1.00  0.00     0.037 A 
ATOM     27  C   UNL A   1      40.643  28.626  29.635  1.00  0.00     0.037 A 
ATOM     28  C   UNL A   1      40.906  31.490  35.488  1.00  0.00     0.049 A 
ATOM     29  C   UNL A   1      41.537  28.448  30.828  1.00  0.00     0.074 A 
ATOM     30  C   UNL A   1      41.756  31.195  36.540  1.00  0.00     0.029 A 
ATOM     31  N   UNL A   1      41.251  30.641  34.447  1.00  0.00    -0.354 N 
ATOM     32  N   UNL A   1      41.503  29.064  31.983  1.00  0.00    -0.248 NA
ATOM     33  C   UNL A   1      42.605  27.446  30.708  1.00  0.00     0.031 C 
ATOM     34  C   UNL A   1      42.645  30.200  36.120  1.00  0.00     0.029 A 
ATOM     35  C   UNL A   1      42.318  29.840  34.824  1.00  0.00     0.049 A 
ATOM     36  H   UNL A   1      40.804  30.611  33.570  1.00  0.00     0.167 HD
ATOM     37  C   UNL A   1      42.537  28.522  32.733  1.00  0.00     0.074 A 
ATOM     38  C   UNL A   1      43.164  27.508  31.909  1.00  0.00     0.031 C 
ATOM     39  C   UNL A   1      42.934  28.840  33.989  1.00  0.00     0.037 A 
BRANCH  26  40
ATOM     40  C   UNL A   1      39.665  33.366  36.624  1.00  0.00     0.064 A 
ATOM     41  C   UNL A   1      40.294  34.616  36.721  1.00  0.00     0.173 A 
ATOM     42  C   UNL A   1      38.791  32.991  37.657  1.00  0.00     0.173 A 
ATOM     43  F   UNL A   1      41.146  35.018  35.766  1.00  0.00    -0.203 F 
ATOM     44  C   UNL A   1      40.069  35.449  37.814  1.00  0.00     0.198 A 
ATOM     45  C   UNL A   1      38.550  33.837  38.736  1.00  0.00     0.198 A 
ATOM     46  F   UNL A   1      38.157  31.810  37.611  1.00  0.00    -0.203 F 
ATOM     47  F   UNL A   1      40.708  36.624  37.901  1.00  0.00    -0.200 F 
ATOM     48  C   UNL A   1      39.192  35.063  38.817  1.00  0.00     0.200 A 
ATOM     49  F   UNL A   1      37.692  33.467  39.697  1.00  0.00    -0.200 F 
ATOM     50  F   UNL A   1      38.970  35.870  39.863  1.00  0.00    -0.200 F 
ENDBRANCH  26  40
BRANCH  27  51
ATOM     51  C   UNL A   1      40.829  27.821  28.402  1.00  0.00     0.064 A 
ATOM     52  C   UNL A   1      41.618  28.290  27.345  1.00  0.00     0.173 A 
ATOM     53  C   UNL A   1      40.243  26.552  28.271  1.00  0.00     0.173 A 
ATOM     54  F   UNL A   1      42.182  29.505  27.418  1.00  0.00    -0.203 F 
ATOM     55  C   UNL A   1      41.808  27.524  26.196  1.00  0.00     0.198 A 
ATOM     56  C   UNL A   1      40.458  25.776  27.135  1.00  0.00     0.198 A 
ATOM     57  F   UNL A   1      39.485  26.057  29.260  1.00  0.00    -0.203 F 
ATOM     58  F   UNL A   1      42.540  28.009  25.185  1.00  0.00    -0.200 F 
ATOM     59  C   UNL A   1      41.236  26.265  26.096  1.00  0.00     0.200 A 
ATOM     60  F   UNL A   1      39.918  24.553  27.051  1.00  0.00    -0.200 F 
ATOM     61  F   UNL A   1      41.429  25.525  24.997  1.00  0.00    -0.200 F 
ENDBRANCH  27  51
BRANCH  39  62
ATOM     62  C   UNL A   1      44.091  28.070  34.552  1.00  0.00     0.064 A 
ATOM     63  C   UNL A   1      45.409  28.532  34.426  1.00  0.00     0.173 A 
ATOM     64  C   UNL A   1      43.877  26.869  35.245  1.00  0.00     0.173 A 
ATOM     65  F   UNL A   1      45.665  29.667  33.757  1.00  0.00    -0.203 F 
ATOM     66  C   UNL A   1      46.474  27.807  34.953  1.00  0.00     0.198 A 
ATOM     67  C   UNL A   1      44.942  26.161  35.794  1.00  0.00     0.198 A 
ATOM     68  F   UNL A   1      42.634  26.387  35.396  1.00  0.00    -0.203 F 
ATOM     69  F   UNL A   1      47.730  28.243  34.779  1.00  0.00    -0.200 F 
ATOM     70  C   UNL A   1      46.239  26.626  35.641  1.00  0.00     0.200 A 
ATOM     71  F   UNL A   1      44.713  25.026  36.468  1.00  0.00    -0.200 F 
ATOM     72  F   UNL A   1      47.266  25.931  36.150  1.00  0.00    -0.200 F 
ENDBRANCH  39  62
ENDBRANCH  13  14
ENDBRANCH   6   8
ENDBRANCH   3   4
ENDBRANCH   2   3
ENDBRANCH   1   2
BRANCH   1  73
ATOM     73  C   UNL A   1      32.617  29.978  25.910  1.00  0.00     0.116 C 
BRANCH  73  74
ATOM     74  N   UNL A   1      33.263  29.707  24.639  1.00  0.00    -0.352 N 
ATOM     75  C   UNL A   1      32.968  28.732  23.721  1.00  0.00     0.252 C 
ATOM     76  H   UNL A   1      34.012  30.301  24.405  1.00  0.00     0.163 HD
ATOM     77  O   UNL A   1      33.627  28.614  22.694  1.00  0.00    -0.269 OA
BRANCH  75  78
ATOM     78  C   UNL A   1      31.891  27.771  24.004  1.00  0.00     0.059 A 
ATOM     79  C   UNL A   1      32.238  26.619  24.722  1.00  0.00     0.035 A 
ATOM     80  C   UNL A   1      30.580  27.952  23.553  1.00  0.00     0.053 A 
ATOM     81  C   UNL A   1      31.262  25.659  25.012  1.00  0.00     0.068 A 
ATOM     82  C   UNL A   1      29.608  26.998  23.869  1.00  0.00     0.022 A 
ATOM     83  Cl  UNL A   1      30.102  29.298  22.584  1.00  0.00    -0.083 Cl
ATOM     84  C   UNL A   1      29.946  25.846  24.591  1.00  0.00     0.022 A 
BRANCH  81  85
ATOM     85  S   UNL A   1      31.799  24.199  25.872  1.00  0.00     0.183 S 
ATOM     86  O   UNL A   1      31.401  24.410  27.254  1.00  0.00    -0.223 OA
ATOM     87  O   UNL A   1      31.269  23.072  25.128  1.00  0.00    -0.223 OA
BRANCH  85  88
ATOM     88  C   UNL A   1      33.572  24.097  25.857  1.00  0.00     0.191 C 
BRANCH  88  89
ATOM     89  C   UNL A   1      34.085  22.689  25.962  1.00  0.00     0.045 C 
ATOM     90  Cl  UNL A   1      33.878  21.972  27.534  1.00  0.00    -0.087 Cl
ATOM     91  C   UNL A   1      34.544  21.967  24.930  1.00  0.00     0.097 C 
ATOM     92  Cl  UNL A   1      35.066  20.335  25.002  1.00  0.00    -0.092 Cl
ENDBRANCH  88  89
ENDBRANCH  85  88
ENDBRANCH  81  85
ENDBRANCH  75  78
ENDBRANCH  73  74
ENDBRANCH   1  73
TORSDOF 14
ENDMDL
MODEL 2
REMARK VINA RESULT:     -12.0      0.788      1.420
REMARK SMILES O=C(NCCCCNC(=O)c1cc(S(=O)(=O)C/C(Cl)=C/Cl)ccc1Cl)c1ccc(-c2c3nc(c(-c4c(F)c(F)c(F)c(F)c4F)c4ccc([nH]4)c(-c4c(F)c(F)c(F)c(F)c4F)c4nc(c(-c5c(F)c(F)c(F)c(F)c5F)c5ccc2[nH]5)C=C4)C=C3)cc1
REMARK SMILES IDX 6 1 5 2 4 3 3 4 1 5 2 6 26 8 27 9 88 10 28 11 87 12 29 13
REMARK SMILES IDX 30 14 31 15 81 16 32 17 86 18 80 19 82 20 33 21 85 22 79 23
REMARK SMILES IDX 78 24 34 26 66 27 46 28 65 29 47 30 50 31 64 32 83 33 48 34
REMARK SMILES IDX 49 35 63 37 84 38 51 39 35 40 36 41 44 42 37 43 38 44 42 45
REMARK SMILES IDX 45 46 39 47 40 48 43 49 41 50 67 51 68 52 76 53 69 54 70 55
REMARK SMILES IDX 74 56 77 57 71 58 72 59 75 60 73 61 52 62 53 63 61 64 54 65
REMARK SMILES IDX 55 66 59 67 62 68 56 69 57 70 60 71 58 72 7 73 8 74 9 75
REMARK SMILES IDX 10 77 11 78 12 79 24 80 13 81 23 82 25 83 22 84 14 85 15 86
REMARK SMILES IDX 16 87 17 88 18 89 19 90 20 91 21 92
REMARK H PARENT 3 7 82 25 50 36 8 76
REMARK Flexibility Score: inf
ROOT
ATOM      1  C   UNL A   1      31.428  30.549  26.202  1.00  0.00     0.023 C 
ENDROOT
BRANCH   1   2
ATOM      2  C   UNL A   1      31.375  32.051  26.473  1.00  0.00     0.023 C 
BRANCH   2   3
ATOM      3  C   UNL A   1      32.592  32.632  27.181  1.00  0.00     0.116 C 
BRANCH   3   4
ATOM      4  N   UNL A   1      32.407  34.016  27.591  1.00  0.00    -0.352 N 
ATOM      5  O   UNL A   1      32.688  35.867  28.850  1.00  0.00    -0.269 OA
ATOM      6  C   UNL A   1      33.077  34.742  28.547  1.00  0.00     0.251 C 
ATOM      7  H   UNL A   1      31.699  34.503  27.112  1.00  0.00     0.163 HD
BRANCH   6   8
ATOM      8  C   UNL A   1      34.248  34.159  29.233  1.00  0.00     0.039 A 
ATOM      9  C   UNL A   1      35.545  34.531  28.875  1.00  0.00     0.014 A 
ATOM     10  C   UNL A   1      34.044  33.226  30.255  1.00  0.00     0.014 A 
ATOM     11  C   UNL A   1      36.633  33.858  29.422  1.00  0.00     0.010 A 
ATOM     12  C   UNL A   1      35.142  32.615  30.869  1.00  0.00     0.010 A 
ATOM     13  C   UNL A   1      36.445  32.900  30.432  1.00  0.00    -0.014 A 
BRANCH  13  14
ATOM     14  C   UNL A   1      37.630  32.258  31.053  1.00  0.00     0.031 A 
ATOM     15  C   UNL A   1      38.084  32.627  32.437  1.00  0.00     0.074 A 
ATOM     16  C   UNL A   1      38.284  31.307  30.357  1.00  0.00     0.049 A 
ATOM     17  N   UNL A   1      39.086  32.146  33.130  1.00  0.00    -0.248 NA
ATOM     18  C   UNL A   1      37.324  33.675  33.133  1.00  0.00     0.031 C 
ATOM     19  C   UNL A   1      37.945  30.879  28.998  1.00  0.00     0.029 A 
ATOM     20  N   UNL A   1      39.353  30.519  30.698  1.00  0.00    -0.354 N 
ATOM     21  C   UNL A   1      39.090  32.844  34.330  1.00  0.00     0.074 A 
ATOM     22  C   UNL A   1      38.004  33.798  34.265  1.00  0.00     0.031 C 
ATOM     23  C   UNL A   1      38.761  29.879  28.636  1.00  0.00     0.029 A 
ATOM     24  C   UNL A   1      39.714  29.634  29.712  1.00  0.00     0.049 A 
ATOM     25  H   UNL A   1      39.816  30.581  31.564  1.00  0.00     0.167 HD
ATOM     26  C   UNL A   1      39.923  32.694  35.390  1.00  0.00     0.037 A 
ATOM     27  C   UNL A   1      40.714  28.734  29.669  1.00  0.00     0.037 A 
ATOM     28  C   UNL A   1      40.988  31.725  35.458  1.00  0.00     0.049 A 
ATOM     29  C   UNL A   1      41.621  28.594  30.857  1.00  0.00     0.074 A 
ATOM     30  C   UNL A   1      41.852  31.465  36.508  1.00  0.00     0.029 A 
ATOM     31  N   UNL A   1      41.336  30.859  34.431  1.00  0.00    -0.354 N 
ATOM     32  N   UNL A   1      41.589  29.234  31.999  1.00  0.00    -0.248 NA
ATOM     33  C   UNL A   1      42.702  27.605  30.749  1.00  0.00     0.031 C 
ATOM     34  C   UNL A   1      42.751  30.473  36.101  1.00  0.00     0.029 A 
ATOM     35  C   UNL A   1      42.418  30.081  34.815  1.00  0.00     0.049 A 
ATOM     36  H   UNL A   1      40.882  30.805  33.560  1.00  0.00     0.167 HD
ATOM     37  C   UNL A   1      42.637  28.722  32.751  1.00  0.00     0.074 A 
ATOM     38  C   UNL A   1      43.271  27.700  31.943  1.00  0.00     0.031 C 
ATOM     39  C   UNL A   1      43.040  29.072  33.997  1.00  0.00     0.037 A 
BRANCH  26  40
ATOM     40  C   UNL A   1      39.731  33.607  36.566  1.00  0.00     0.064 A 
ATOM     41  C   UNL A   1      40.334  34.873  36.625  1.00  0.00     0.173 A 
ATOM     42  C   UNL A   1      38.881  33.237  37.620  1.00  0.00     0.173 A 
ATOM     43  F   UNL A   1      41.163  35.271  35.648  1.00  0.00    -0.203 F 
ATOM     44  C   UNL A   1      40.107  35.725  37.703  1.00  0.00     0.198 A 
ATOM     45  C   UNL A   1      38.637  34.101  38.683  1.00  0.00     0.198 A 
ATOM     46  F   UNL A   1      38.272  32.042  37.609  1.00  0.00    -0.203 F 
ATOM     47  F   UNL A   1      40.721  36.915  37.754  1.00  0.00    -0.200 F 
ATOM     48  C   UNL A   1      39.253  35.343  38.727  1.00  0.00     0.200 A 
ATOM     49  F   UNL A   1      37.801  33.735  39.665  1.00  0.00    -0.200 F 
ATOM     50  F   UNL A   1      39.029  36.168  39.758  1.00  0.00    -0.200 F 
ENDBRANCH  26  40
BRANCH  27  51
ATOM     51  C   UNL A   1      40.900  27.906  28.452  1.00  0.00     0.064 A 
ATOM     52  C   UNL A   1      40.274  26.660  28.324  1.00  0.00     0.173 A 
ATOM     53  C   UNL A   1      41.685  28.358  27.381  1.00  0.00     0.173 A 
ATOM     54  F   UNL A   1      39.529  26.177  29.329  1.00  0.00    -0.203 F 
ATOM     55  C   UNL A   1      40.433  25.892  27.172  1.00  0.00     0.198 A 
ATOM     56  C   UNL A   1      41.820  27.603  26.219  1.00  0.00     0.198 A 
ATOM     57  F   UNL A   1      42.299  29.548  27.454  1.00  0.00    -0.203 F 
ATOM     58  F   UNL A   1      39.851  24.688  27.087  1.00  0.00    -0.200 F 
ATOM     59  C   UNL A   1      41.198  26.368  26.118  1.00  0.00     0.200 A 
ATOM     60  F   UNL A   1      42.545  28.076  25.196  1.00  0.00    -0.200 F 
ATOM     61  F   UNL A   1      41.341  25.634  25.006  1.00  0.00    -0.200 F 
ENDBRANCH  27  51
BRANCH  39  62
ATOM     62  C   UNL A   1      44.213  28.331  34.565  1.00  0.00     0.064 A 
ATOM     63  C   UNL A   1      45.523  28.812  34.423  1.00  0.00     0.173 A 
ATOM     64  C   UNL A   1      44.023  27.139  35.280  1.00  0.00     0.173 A 
ATOM     65  F   UNL A   1      45.756  29.939  33.732  1.00  0.00    -0.203 F 
ATOM     66  C   UNL A   1      46.603  28.114  34.955  1.00  0.00     0.198 A 
ATOM     67  C   UNL A   1      45.103  26.458  35.834  1.00  0.00     0.198 A 
ATOM     68  F   UNL A   1      42.789  26.640  35.446  1.00  0.00    -0.203 F 
ATOM     69  F   UNL A   1      47.850  28.567  34.766  1.00  0.00    -0.200 F 
ATOM     70  C   UNL A   1      46.391  26.941  35.665  1.00  0.00     0.200 A 
ATOM     71  F   UNL A   1      44.896  25.330  36.528  1.00  0.00    -0.200 F 
ATOM     72  F   UNL A   1      47.432  26.271  36.178  1.00  0.00    -0.200 F 
ENDBRANCH  39  62
ENDBRANCH  13  14
ENDBRANCH   6   8
ENDBRANCH   3   4
ENDBRANCH   2   3
ENDBRANCH   1   2
BRANCH   1  73
ATOM     73  C   UNL A   1      32.828  29.946  26.145  1.00  0.00     0.116 C 
BRANCH  73  74
ATOM     74  N   UNL A   1      33.328  29.813  24.789  1.00  0.00    -0.352 N 
ATOM     75  C   UNL A   1      33.005  28.870  23.847  1.00  0.00     0.252 C 
ATOM     76  H   UNL A   1      33.987  30.488  24.509  1.00  0.00     0.163 HD
ATOM     77  O   UNL A   1      33.536  28.876  22.742  1.00  0.00    -0.269 OA
BRANCH  75  78
ATOM     78  C   UNL A   1      32.061  27.795  24.190  1.00  0.00     0.059 A 
ATOM     79  C   UNL A   1      32.571  26.705  24.908  1.00  0.00     0.035 A 
ATOM     80  C   UNL A   1      30.720  27.814  23.795  1.00  0.00     0.053 A 
ATOM     81  C   UNL A   1      31.727  25.643  25.254  1.00  0.00     0.068 A 
ATOM     82  C   UNL A   1      29.881  26.759  24.167  1.00  0.00     0.022 A 
ATOM     83  Cl  UNL A   1      30.047  29.076  22.830  1.00  0.00    -0.083 Cl
ATOM     84  C   UNL A   1      30.382  25.668  24.888  1.00  0.00     0.022 A 
BRANCH  81  85
ATOM     85  S   UNL A   1      32.468  24.272  26.109  1.00  0.00     0.183 S 
ATOM     86  O   UNL A   1      33.824  24.702  26.402  1.00  0.00    -0.223 OA
ATOM     87  O   UNL A   1      31.563  23.932  27.190  1.00  0.00    -0.223 OA
BRANCH  85  88
ATOM     88  C   UNL A   1      32.595  22.871  25.023  1.00  0.00     0.191 C 
BRANCH  88  89
ATOM     89  C   UNL A   1      33.713  22.994  24.028  1.00  0.00     0.045 C 
ATOM     90  Cl  UNL A   1      33.302  23.908  22.605  1.00  0.00    -0.087 Cl
ATOM     91  C   UNL A   1      34.968  22.570  24.236  1.00  0.00     0.097 C 
ATOM     92  Cl  UNL A   1      36.283  22.762  23.152  1.00  0.00    -0.092 Cl
ENDBRANCH  88  89
ENDBRANCH  85  88
ENDBRANCH  81  85
ENDBRANCH  75  78
ENDBRANCH  73  74
ENDBRANCH   1  73
TORSDOF 14
ENDMDL
MODEL 3
REMARK VINA RESULT:     -11.9      0.453      7.275
REMARK SMILES O=C(NCCCCNC(=O)c1cc(S(=O)(=O)C/C(Cl)=C/Cl)ccc1Cl)c1ccc(-c2c3nc(c(-c4c(F)c(F)c(F)c(F)c4F)c4ccc([nH]4)c(-c4c(F)c(F)c(F)c(F)c4F)c4nc(c(-c5c(F)c(F)c(F)c(F)c5F)c5ccc2[nH]5)C=C4)C=C3)cc1
REMARK SMILES IDX 6 1 5 2 4 3 3 4 1 5 2 6 26 8 27 9 88 10 28 11 87 12 29 13
REMARK SMILES IDX 30 14 31 15 81 16 32 17 86 18 80 19 82 20 33 21 85 22 79 23
REMARK SMILES IDX 78 24 34 26 66 27 46 28 65 29 47 30 50 31 64 32 83 33 48 34
REMARK SMILES IDX 49 35 63 37 84 38 51 39 35 40 36 41 44 42 37 43 38 44 42 45
REMARK SMILES IDX 45 46 39 47 40 48 43 49 41 50 67 51 68 52 76 53 69 54 70 55
REMARK SMILES IDX 74 56 77 57 71 58 72 59 75 60 73 61 52 62 53 63 61 64 54 65
REMARK SMILES IDX 55 66 59 67 62 68 56 69 57 70 60 71 58 72 7 73 8 74 9 75
REMARK SMILES IDX 10 77 11 78 12 79 24 80 13 81 23 82 25 83 22 84 14 85 15 86
REMARK SMILES IDX 16 87 17 88 18 89 19 90 20 91 21 92
REMARK H PARENT 3 7 82 25 50 36 8 76
REMARK Flexibility Score: inf
ROOT
ATOM      1  C   UNL A   1      31.403  31.002  25.801  1.00  0.00     0.023 C 
ENDROOT
BRANCH   1   2
ATOM      2  C   UNL A   1      31.319  32.091  26.869  1.00  0.00     0.023 C 
BRANCH   2   3
ATOM      3  C   UNL A   1      32.613  32.853  27.131  1.00  0.00     0.116 C 
BRANCH   3   4
ATOM      4  N   UNL A   1      32.389  34.203  27.626  1.00  0.00    -0.352 N 
ATOM      5  O   UNL A   1      32.582  35.963  29.025  1.00  0.00    -0.269 OA
ATOM      6  C   UNL A   1      32.999  34.866  28.664  1.00  0.00     0.251 C 
ATOM      7  H   UNL A   1      31.700  34.716  27.146  1.00  0.00     0.163 HD
BRANCH   6   8
ATOM      8  C   UNL A   1      34.142  34.247  29.368  1.00  0.00     0.039 A 
ATOM      9  C   UNL A   1      35.453  34.503  28.965  1.00  0.00     0.014 A 
ATOM     10  C   UNL A   1      33.895  33.397  30.450  1.00  0.00     0.014 A 
ATOM     11  C   UNL A   1      36.503  33.792  29.537  1.00  0.00     0.010 A 
ATOM     12  C   UNL A   1      34.960  32.750  31.085  1.00  0.00     0.010 A 
ATOM     13  C   UNL A   1      36.270  32.916  30.610  1.00  0.00    -0.014 A 
BRANCH  13  14
ATOM     14  C   UNL A   1      37.421  32.232  31.251  1.00  0.00     0.031 A 
ATOM     15  C   UNL A   1      38.187  31.154  30.537  1.00  0.00     0.074 A 
ATOM     16  C   UNL A   1      37.791  32.619  32.488  1.00  0.00     0.049 A 
ATOM     17  N   UNL A   1      39.228  30.473  30.948  1.00  0.00    -0.248 NA
ATOM     18  C   UNL A   1      37.723  30.783  29.192  1.00  0.00     0.031 C 
ATOM     19  C   UNL A   1      37.112  33.642  33.285  1.00  0.00     0.029 A 
ATOM     20  N   UNL A   1      38.831  32.213  33.283  1.00  0.00    -0.354 N 
ATOM     21  C   UNL A   1      39.530  29.583  29.927  1.00  0.00     0.074 A 
ATOM     22  C   UNL A   1      38.550  29.794  28.882  1.00  0.00     0.031 C 
ATOM     23  C   UNL A   1      37.776  33.815  34.437  1.00  0.00     0.029 A 
ATOM     24  C   UNL A   1      38.892  32.877  34.484  1.00  0.00     0.049 A 
ATOM     25  H   UNL A   1      39.473  31.515  33.019  1.00  0.00     0.167 HD
ATOM     26  C   UNL A   1      40.539  28.679  29.867  1.00  0.00     0.037 A 
ATOM     27  C   UNL A   1      39.741  32.736  35.518  1.00  0.00     0.037 A 
ATOM     28  C   UNL A   1      41.526  28.491  30.900  1.00  0.00     0.049 A 
ATOM     29  C   UNL A   1      40.846  31.724  35.423  1.00  0.00     0.074 A 
ATOM     30  C   UNL A   1      42.614  27.635  30.908  1.00  0.00     0.029 A 
ATOM     31  N   UNL A   1      41.542  29.169  32.110  1.00  0.00    -0.354 N 
ATOM     32  N   UNL A   1      41.142  30.917  34.436  1.00  0.00    -0.248 NA
ATOM     33  C   UNL A   1      41.734  31.606  36.587  1.00  0.00     0.031 C 
ATOM     34  C   UNL A   1      43.262  27.762  32.142  1.00  0.00     0.029 A 
ATOM     35  C   UNL A   1      42.608  28.731  32.883  1.00  0.00     0.049 A 
ATOM     36  H   UNL A   1      40.894  29.858  32.381  1.00  0.00     0.167 HD
ATOM     37  C   UNL A   1      42.255  30.199  34.851  1.00  0.00     0.074 A 
ATOM     38  C   UNL A   1      42.595  30.686  36.173  1.00  0.00     0.031 C 
ATOM     39  C   UNL A   1      42.929  29.222  34.198  1.00  0.00     0.037 A 
BRANCH  26  40
ATOM     40  C   UNL A   1      40.625  27.806  28.649  1.00  0.00     0.064 A 
ATOM     41  C   UNL A   1      41.410  28.158  27.540  1.00  0.00     0.173 A 
ATOM     42  C   UNL A   1      39.961  26.570  28.614  1.00  0.00     0.173 A 
ATOM     43  F   UNL A   1      42.057  29.333  27.519  1.00  0.00    -0.203 F 
ATOM     44  C   UNL A   1      41.514  27.313  26.438  1.00  0.00     0.198 A 
ATOM     45  C   UNL A   1      40.087  25.717  27.521  1.00  0.00     0.198 A 
ATOM     46  F   UNL A   1      39.203  26.180  29.650  1.00  0.00    -0.203 F 
ATOM     47  F   UNL A   1      42.243  27.686  25.377  1.00  0.00    -0.200 F 
ATOM     48  C   UNL A   1      40.860  26.090  26.432  1.00  0.00     0.200 A 
ATOM     49  F   UNL A   1      39.464  24.530  27.523  1.00  0.00    -0.200 F 
ATOM     50  F   UNL A   1      40.969  25.275  25.375  1.00  0.00    -0.200 F 
ENDBRANCH  26  40
BRANCH  27  51
ATOM     51  C   UNL A   1      39.566  33.579  36.727  1.00  0.00     0.064 A 
ATOM     52  C   UNL A   1      40.169  34.839  36.823  1.00  0.00     0.173 A 
ATOM     53  C   UNL A   1      38.767  33.151  37.799  1.00  0.00     0.173 A 
ATOM     54  F   UNL A   1      40.956  35.282  35.832  1.00  0.00    -0.203 F 
ATOM     55  C   UNL A   1      39.987  35.638  37.950  1.00  0.00     0.198 A 
ATOM     56  C   UNL A   1      38.563  33.962  38.911  1.00  0.00     0.198 A 
ATOM     57  F   UNL A   1      38.163  31.954  37.749  1.00  0.00    -0.203 F 
ATOM     58  F   UNL A   1      40.601  36.825  38.033  1.00  0.00    -0.200 F 
ATOM     59  C   UNL A   1      39.177  35.202  38.989  1.00  0.00     0.200 A 
ATOM     60  F   UNL A   1      37.765  33.544  39.904  1.00  0.00    -0.200 F 
ATOM     61  F   UNL A   1      38.994  35.976  40.067  1.00  0.00    -0.200 F 
ENDBRANCH  27  51
BRANCH  39  62
ATOM     62  C   UNL A   1      44.113  28.627  34.901  1.00  0.00     0.064 A 
ATOM     63  C   UNL A   1      45.403  29.154  34.737  1.00  0.00     0.173 A 
ATOM     64  C   UNL A   1      43.952  27.536  35.767  1.00  0.00     0.173 A 
ATOM     65  F   UNL A   1      45.609  30.187  33.906  1.00  0.00    -0.203 F 
ATOM     66  C   UNL A   1      46.493  28.592  35.395  1.00  0.00     0.198 A 
ATOM     67  C   UNL A   1      45.040  26.994  36.444  1.00  0.00     0.198 A 
ATOM     68  F   UNL A   1      42.737  26.999  35.960  1.00  0.00    -0.203 F 
ATOM     69  F   UNL A   1      47.723  29.080  35.187  1.00  0.00    -0.200 F 
ATOM     70  C   UNL A   1      46.309  27.516  36.252  1.00  0.00     0.200 A 
ATOM     71  F   UNL A   1      44.860  25.962  37.280  1.00  0.00    -0.200 F 
ATOM     72  F   UNL A   1      47.360  26.978  36.887  1.00  0.00    -0.200 F 
ENDBRANCH  39  62
ENDBRANCH  13  14
ENDBRANCH   6   8
ENDBRANCH   3   4
ENDBRANCH   2   3
ENDBRANCH   1   2
BRANCH   1  73
ATOM     73  C   UNL A   1      32.542  30.003  25.978  1.00  0.00     0.116 C 
BRANCH  73  74
ATOM     74  N   UNL A   1      33.225  29.703  24.733  1.00  0.00    -0.352 N 
ATOM     75  C   UNL A   1      32.985  28.681  23.851  1.00  0.00     0.252 C 
ATOM     76  H   UNL A   1      33.958  30.313  24.490  1.00  0.00     0.163 HD
ATOM     77  O   UNL A   1      33.670  28.545  22.843  1.00  0.00    -0.269 OA
BRANCH  75  78
ATOM     78  C   UNL A   1      31.936  27.694  24.151  1.00  0.00     0.059 A 
ATOM     79  C   UNL A   1      32.331  26.529  24.821  1.00  0.00     0.035 A 
ATOM     80  C   UNL A   1      30.605  27.866  23.761  1.00  0.00     0.053 A 
ATOM     81  C   UNL A   1      31.384  25.545  25.125  1.00  0.00     0.068 A 
ATOM     82  C   UNL A   1      29.662  26.887  24.091  1.00  0.00     0.022 A 
ATOM     83  Cl  UNL A   1      30.065  29.229  22.851  1.00  0.00    -0.083 Cl
ATOM     84  C   UNL A   1      30.048  25.722  24.765  1.00  0.00     0.022 A 
BRANCH  81  85
ATOM     85  S   UNL A   1      31.980  24.071  25.920  1.00  0.00     0.183 S 
ATOM     86  O   UNL A   1      31.399  24.102  27.251  1.00  0.00    -0.223 OA
ATOM     87  O   UNL A   1      31.677  22.975  25.020  1.00  0.00    -0.223 OA
BRANCH  85  88
ATOM     88  C   UNL A   1      33.743  24.157  26.126  1.00  0.00     0.191 C 
BRANCH  88  89
ATOM     89  C   UNL A   1      34.401  22.807  26.151  1.00  0.00     0.045 C 
ATOM     90  Cl  UNL A   1      34.007  21.848  27.548  1.00  0.00    -0.087 Cl
ATOM     91  C   UNL A   1      35.126  22.295  25.145  1.00  0.00     0.097 C 
ATOM     92  Cl  UNL A   1      35.828  20.731  25.112  1.00  0.00    -0.092 Cl
ENDBRANCH  88  89
ENDBRANCH  85  88
ENDBRANCH  81  85
ENDBRANCH  75  78
ENDBRANCH  73  74
ENDBRANCH   1  73
TORSDOF 14
ENDMDL
