MODEL 1
REMARK VINA RESULT:     -10.5      0.000      0.000
REMARK SMILES CS(=O)(=O)c1ccc(/C=C(/C(=O)NCCCCNC(=O)c2ccc(-c3c4nc(c(-c5c(F)c(F)c(F)c(F)c5F)c5ccc([nH]5)c(-c5c(F)c(F)c(F)c(F)c5F)c5nc(c(-c6c(F)c(F)c(F)c(F)c6F)c6ccc3[nH]6)C=C5)C=C4)cc2)c2cccc(-c3ccc(S(C)(=O)=O)cc3)c2)cc1
REMARK SMILES IDX 15 1 14 2 13 3 11 4 12 5 10 7 9 8 8 9 5 10 6 11 101 12 7 13
REMARK SMILES IDX 100 14 2 15 1 16 3 17 4 18 84 19 85 20 99 21 86 22 88 23
REMARK SMILES IDX 87 24 89 25 90 26 98 27 91 28 97 29 92 30 93 31 94 32 95 33
REMARK SMILES IDX 96 34 16 35 17 36 18 37 19 38 20 40 21 41 22 42 83 43 23 44
REMARK SMILES IDX 82 45 24 46 25 47 26 48 76 49 27 50 81 51 75 52 77 53 28 54
REMARK SMILES IDX 80 55 74 56 73 57 29 59 61 60 41 61 60 62 42 63 45 64 59 65
REMARK SMILES IDX 78 66 43 67 44 68 58 70 79 71 46 72 30 73 31 74 39 75 32 76
REMARK SMILES IDX 33 77 37 78 40 79 34 80 35 81 38 82 36 83 62 84 63 85 71 86
REMARK SMILES IDX 64 87 65 88 69 89 72 90 66 91 67 92 70 93 68 94 47 95 48 96
REMARK SMILES IDX 56 97 49 98 50 99 54 100 57 101 51 102 52 103 55 104 53 105
REMARK H PARENT 13 6 18 39 77 58 45 69
REMARK Flexibility Score: inf
ROOT
ATOM      1  C   UNL A   1      45.692  24.190  26.621  1.00  0.00     0.023 C 
ENDROOT
BRANCH   1   2
ATOM      2  C   UNL A   1      44.988  22.848  26.848  1.00  0.00     0.116 C 
BRANCH   2   3
ATOM      3  N   UNL A   1      44.436  22.796  28.187  1.00  0.00    -0.352 N 
ATOM      4  C   UNL A   1      43.210  23.073  28.707  1.00  0.00     0.251 C 
ATOM      5  O   UNL A   1      43.110  22.979  29.933  1.00  0.00    -0.269 OA
ATOM      6  H   UNL A   1      45.085  22.496  28.864  1.00  0.00     0.163 HD
BRANCH   4   7
ATOM      7  C   UNL A   1      41.997  23.393  27.859  1.00  0.00     0.047 C 
ATOM      8  C   UNL A   1      41.123  22.437  27.465  1.00  0.00     0.022 C 
BRANCH   8   9
ATOM      9  C   UNL A   1      39.828  22.567  26.758  1.00  0.00    -0.025 A 
ATOM     10  C   UNL A   1      37.305  22.583  25.530  1.00  0.00     0.067 A 
ATOM     11  C   UNL A   1      37.738  23.699  26.247  1.00  0.00     0.021 A 
ATOM     12  C   UNL A   1      38.133  21.472  25.384  1.00  0.00     0.021 A 
ATOM     13  C   UNL A   1      39.012  23.702  26.819  1.00  0.00     0.009 A 
ATOM     14  C   UNL A   1      39.387  21.465  26.003  1.00  0.00     0.009 A 
BRANCH  10  15
ATOM     15  S   UNL A   1      35.684  22.583  24.807  1.00  0.00     0.175 S 
ATOM     16  C   UNL A   1      35.113  20.916  25.002  1.00  0.00     0.163 C 
ATOM     17  O   UNL A   1      35.859  22.841  23.391  1.00  0.00    -0.224 OA
ATOM     18  O   UNL A   1      34.838  23.426  25.630  1.00  0.00    -0.224 OA
ENDBRANCH  10  15
ENDBRANCH   8   9
BRANCH   7  19
ATOM     19  C   UNL A   1      41.893  24.778  27.327  1.00  0.00    -0.012 A 
ATOM     20  C   UNL A   1      42.090  24.991  25.954  1.00  0.00     0.009 A 
ATOM     21  C   UNL A   1      41.460  25.848  28.122  1.00  0.00     0.017 A 
ATOM     22  C   UNL A   1      41.827  26.233  25.379  1.00  0.00     0.001 A 
ATOM     23  C   UNL A   1      41.124  27.087  27.548  1.00  0.00    -0.018 A 
ATOM     24  C   UNL A   1      41.329  27.267  26.170  1.00  0.00     0.009 A 
BRANCH  23  25
ATOM     25  C   UNL A   1      40.460  28.119  28.356  1.00  0.00    -0.018 A 
ATOM     26  C   UNL A   1      40.857  28.337  29.689  1.00  0.00     0.010 A 
ATOM     27  C   UNL A   1      39.479  28.958  27.805  1.00  0.00     0.010 A 
ATOM     28  C   UNL A   1      40.308  29.376  30.445  1.00  0.00     0.021 A 
ATOM     29  C   UNL A   1      38.917  29.994  28.555  1.00  0.00     0.021 A 
ATOM     30  C   UNL A   1      39.335  30.194  29.872  1.00  0.00     0.067 A 
BRANCH  30  31
ATOM     31  S   UNL A   1      38.658  31.532  30.825  1.00  0.00     0.175 S 
ATOM     32  C   UNL A   1      37.862  32.548  29.610  1.00  0.00     0.163 C 
ATOM     33  O   UNL A   1      37.634  30.976  31.686  1.00  0.00    -0.224 OA
ATOM     34  O   UNL A   1      39.766  32.293  31.372  1.00  0.00    -0.224 OA
ENDBRANCH  30  31
ENDBRANCH  23  25
ENDBRANCH   7  19
ENDBRANCH   4   7
ENDBRANCH   2   3
ENDBRANCH   1   2
BRANCH   1  35
ATOM     35  C   UNL A   1      46.464  24.278  25.300  1.00  0.00     0.023 C 
BRANCH  35  36
ATOM     36  C   UNL A   1      47.682  25.193  25.328  1.00  0.00     0.116 C 
BRANCH  36  37
ATOM     37  N   UNL A   1      47.681  26.175  24.254  1.00  0.00    -0.352 N 
ATOM     38  C   UNL A   1      47.119  27.428  24.243  1.00  0.00     0.251 C 
ATOM     39  H   UNL A   1      48.143  25.906  23.428  1.00  0.00     0.163 HD
ATOM     40  O   UNL A   1      47.105  28.094  23.213  1.00  0.00    -0.269 OA
BRANCH  38  41
ATOM     41  C   UNL A   1      46.499  27.952  25.474  1.00  0.00     0.039 A 
ATOM     42  C   UNL A   1      47.303  28.616  26.404  1.00  0.00     0.014 A 
ATOM     43  C   UNL A   1      45.126  27.814  25.696  1.00  0.00     0.014 A 
ATOM     44  C   UNL A   1      46.719  29.197  27.530  1.00  0.00     0.010 A 
ATOM     45  C   UNL A   1      44.536  28.450  26.782  1.00  0.00     0.010 A 
ATOM     46  C   UNL A   1      45.327  29.146  27.710  1.00  0.00    -0.014 A 
BRANCH  46  47
ATOM     47  C   UNL A   1      44.674  29.800  28.870  1.00  0.00     0.031 A 
ATOM     48  C   UNL A   1      44.371  31.271  28.825  1.00  0.00     0.074 A 
ATOM     49  C   UNL A   1      44.425  29.089  29.986  1.00  0.00     0.049 A 
ATOM     50  N   UNL A   1      43.903  32.050  29.766  1.00  0.00    -0.248 NA
ATOM     51  C   UNL A   1      44.665  31.964  27.561  1.00  0.00     0.031 C 
ATOM     52  C   UNL A   1      44.713  27.665  30.165  1.00  0.00     0.029 A 
ATOM     53  N   UNL A   1      43.888  29.472  31.189  1.00  0.00    -0.354 N 
ATOM     54  C   UNL A   1      43.865  33.324  29.215  1.00  0.00     0.074 A 
ATOM     55  C   UNL A   1      44.405  33.224  27.877  1.00  0.00     0.031 C 
ATOM     56  C   UNL A   1      44.336  27.292  31.398  1.00  0.00     0.029 A 
ATOM     57  C   UNL A   1      43.815  28.455  32.110  1.00  0.00     0.049 A 
ATOM     58  H   UNL A   1      43.584  30.390  31.375  1.00  0.00     0.167 HD
ATOM     59  C   UNL A   1      43.401  34.469  29.769  1.00  0.00     0.037 A 
ATOM     60  C   UNL A   1      43.386  28.466  33.386  1.00  0.00     0.037 A 
ATOM     61  C   UNL A   1      42.836  34.557  31.089  1.00  0.00     0.049 A 
ATOM     62  C   UNL A   1      42.873  29.751  33.976  1.00  0.00     0.074 A 
ATOM     63  C   UNL A   1      42.286  35.657  31.722  1.00  0.00     0.029 A 
ATOM     64  N   UNL A   1      42.748  33.496  31.981  1.00  0.00    -0.354 N 
ATOM     65  N   UNL A   1      42.784  30.938  33.426  1.00  0.00    -0.248 NA
ATOM     66  C   UNL A   1      42.391  29.697  35.365  1.00  0.00     0.031 C 
ATOM     67  C   UNL A   1      41.902  35.273  33.011  1.00  0.00     0.029 A 
ATOM     68  C   UNL A   1      42.167  33.922  33.164  1.00  0.00     0.049 A 
ATOM     69  H   UNL A   1      43.055  32.578  31.798  1.00  0.00     0.167 HD
ATOM     70  C   UNL A   1      42.207  31.761  34.384  1.00  0.00     0.074 A 
ATOM     71  C   UNL A   1      41.960  30.937  35.548  1.00  0.00     0.031 C 
ATOM     72  C   UNL A   1      41.909  33.081  34.305  1.00  0.00     0.037 A 
BRANCH  59  73
ATOM     73  C   UNL A   1      43.482  35.721  28.944  1.00  0.00     0.064 A 
ATOM     74  C   UNL A   1      42.433  36.113  28.099  1.00  0.00     0.173 A 
ATOM     75  C   UNL A   1      44.607  36.554  29.023  1.00  0.00     0.173 A 
ATOM     76  F   UNL A   1      41.339  35.345  27.979  1.00  0.00    -0.203 F 
ATOM     77  C   UNL A   1      42.520  37.278  27.341  1.00  0.00     0.198 A 
ATOM     78  C   UNL A   1      44.678  37.734  28.287  1.00  0.00     0.198 A 
ATOM     79  F   UNL A   1      45.637  36.228  29.819  1.00  0.00    -0.203 F 
ATOM     80  F   UNL A   1      41.528  37.605  26.502  1.00  0.00    -0.200 F 
ATOM     81  C   UNL A   1      43.639  38.090  27.440  1.00  0.00     0.200 A 
ATOM     82  F   UNL A   1      45.754  38.525  28.394  1.00  0.00    -0.200 F 
ATOM     83  F   UNL A   1      43.719  39.214  26.714  1.00  0.00    -0.200 F 
ENDBRANCH  59  73
BRANCH  60  84
ATOM     84  C   UNL A   1      43.398  27.213  34.184  1.00  0.00     0.064 A 
ATOM     85  C   UNL A   1      44.598  26.692  34.687  1.00  0.00     0.173 A 
ATOM     86  C   UNL A   1      42.217  26.506  34.454  1.00  0.00     0.173 A 
ATOM     87  F   UNL A   1      45.756  27.322  34.438  1.00  0.00    -0.203 F 
ATOM     88  C   UNL A   1      44.622  25.502  35.411  1.00  0.00     0.198 A 
ATOM     89  C   UNL A   1      42.237  25.331  35.202  1.00  0.00     0.198 A 
ATOM     90  F   UNL A   1      41.041  26.964  34.001  1.00  0.00    -0.203 F 
ATOM     91  F   UNL A   1      45.789  25.004  35.839  1.00  0.00    -0.200 F 
ATOM     92  C   UNL A   1      43.441  24.825  35.672  1.00  0.00     0.200 A 
ATOM     93  F   UNL A   1      41.092  24.686  35.465  1.00  0.00    -0.200 F 
ATOM     94  F   UNL A   1      43.462  23.681  36.370  1.00  0.00    -0.200 F 
ENDBRANCH  60  84
BRANCH  72  95
ATOM     95  C   UNL A   1      41.234  33.708  35.489  1.00  0.00     0.064 A 
ATOM     96  C   UNL A   1      41.954  34.421  36.457  1.00  0.00     0.173 A 
ATOM     97  C   UNL A   1      39.839  33.637  35.626  1.00  0.00     0.173 A 
ATOM     98  F   UNL A   1      43.290  34.506  36.379  1.00  0.00    -0.203 F 
ATOM     99  C   UNL A   1      41.303  35.023  37.531  1.00  0.00     0.198 A 
ATOM    100  C   UNL A   1      39.189  34.263  36.684  1.00  0.00     0.198 A 
ATOM    101  F   UNL A   1      39.104  32.971  34.721  1.00  0.00    -0.203 F 
ATOM    102  F   UNL A   1      42.015  35.664  38.469  1.00  0.00    -0.200 F 
ATOM    103  C   UNL A   1      39.922  34.951  37.640  1.00  0.00     0.200 A 
ATOM    104  F   UNL A   1      37.853  34.204  36.779  1.00  0.00    -0.200 F 
ATOM    105  F   UNL A   1      39.297  35.540  38.668  1.00  0.00    -0.200 F 
ENDBRANCH  72  95
ENDBRANCH  46  47
ENDBRANCH  38  41
ENDBRANCH  36  37
ENDBRANCH  35  36
ENDBRANCH   1  35
TORSDOF 16
ENDMDL
MODEL 2
REMARK VINA RESULT:     -10.4      3.538      9.220
REMARK SMILES CS(=O)(=O)c1ccc(/C=C(/C(=O)NCCCCNC(=O)c2ccc(-c3c4nc(c(-c5c(F)c(F)c(F)c(F)c5F)c5ccc([nH]5)c(-c5c(F)c(F)c(F)c(F)c5F)c5nc(c(-c6c(F)c(F)c(F)c(F)c6F)c6ccc3[nH]6)C=C5)C=C4)cc2)c2cccc(-c3ccc(S(C)(=O)=O)cc3)c2)cc1
REMARK SMILES IDX 15 1 14 2 13 3 11 4 12 5 10 7 9 8 8 9 5 10 6 11 101 12 7 13
REMARK SMILES IDX 100 14 2 15 1 16 3 17 4 18 84 19 85 20 99 21 86 22 88 23
REMARK SMILES IDX 87 24 89 25 90 26 98 27 91 28 97 29 92 30 93 31 94 32 95 33
REMARK SMILES IDX 96 34 16 35 17 36 18 37 19 38 20 40 21 41 22 42 83 43 23 44
REMARK SMILES IDX 82 45 24 46 25 47 26 48 76 49 27 50 81 51 75 52 77 53 28 54
REMARK SMILES IDX 80 55 74 56 73 57 29 59 61 60 41 61 60 62 42 63 45 64 59 65
REMARK SMILES IDX 78 66 43 67 44 68 58 70 79 71 46 72 30 73 31 74 39 75 32 76
REMARK SMILES IDX 33 77 37 78 40 79 34 80 35 81 38 82 36 83 62 84 63 85 71 86
REMARK SMILES IDX 64 87 65 88 69 89 72 90 66 91 67 92 70 93 68 94 47 95 48 96
REMARK SMILES IDX 56 97 49 98 50 99 54 100 57 101 51 102 52 103 55 104 53 105
REMARK H PARENT 13 6 18 39 77 58 45 69
REMARK Flexibility Score: inf
ROOT
ATOM      1  C   UNL A   1      42.954  23.255  28.024  1.00  0.00     0.023 C 
ENDROOT
BRANCH   1   2
ATOM      2  C   UNL A   1      44.451  23.152  27.711  1.00  0.00     0.116 C 
BRANCH   2   3
ATOM      3  N   UNL A   1      44.659  23.126  26.277  1.00  0.00    -0.352 N 
ATOM      4  C   UNL A   1      44.911  24.088  25.350  1.00  0.00     0.251 C 
ATOM      5  O   UNL A   1      44.968  23.706  24.178  1.00  0.00    -0.269 OA
ATOM      6  H   UNL A   1      44.609  22.221  25.893  1.00  0.00     0.163 HD
BRANCH   4   7
ATOM      7  C   UNL A   1      45.197  25.532  25.702  1.00  0.00     0.047 C 
ATOM      8  C   UNL A   1      44.210  26.451  25.826  1.00  0.00     0.022 C 
BRANCH   8   9
ATOM      9  C   UNL A   1      44.275  27.857  26.287  1.00  0.00    -0.025 A 
ATOM     10  C   UNL A   1      44.180  30.471  27.304  1.00  0.00     0.067 A 
ATOM     11  C   UNL A   1      45.363  29.735  27.384  1.00  0.00     0.021 A 
ATOM     12  C   UNL A   1      43.052  29.933  26.687  1.00  0.00     0.021 A 
ATOM     13  C   UNL A   1      45.417  28.451  26.836  1.00  0.00     0.009 A 
ATOM     14  C   UNL A   1      43.101  28.628  26.187  1.00  0.00     0.009 A 
BRANCH  10  15
ATOM     15  S   UNL A   1      44.116  32.101  28.004  1.00  0.00     0.175 S 
ATOM     16  C   UNL A   1      45.646  32.265  28.885  1.00  0.00     0.163 C 
ATOM     17  O   UNL A   1      43.034  32.097  28.970  1.00  0.00    -0.224 OA
ATOM     18  O   UNL A   1      44.147  33.050  26.908  1.00  0.00    -0.224 OA
ENDBRANCH  10  15
ENDBRANCH   8   9
BRANCH   7  19
ATOM     19  C   UNL A   1      46.625  25.947  25.738  1.00  0.00    -0.012 A 
ATOM     20  C   UNL A   1      47.398  25.614  26.861  1.00  0.00     0.009 A 
ATOM     21  C   UNL A   1      47.258  26.526  24.630  1.00  0.00     0.017 A 
ATOM     22  C   UNL A   1      48.776  25.819  26.866  1.00  0.00     0.001 A 
ATOM     23  C   UNL A   1      48.656  26.676  24.591  1.00  0.00    -0.018 A 
ATOM     24  C   UNL A   1      49.401  26.330  25.730  1.00  0.00     0.009 A 
BRANCH  23  25
ATOM     25  C   UNL A   1      49.320  27.071  23.342  1.00  0.00    -0.018 A 
ATOM     26  C   UNL A   1      50.725  27.080  23.259  1.00  0.00     0.010 A 
ATOM     27  C   UNL A   1      48.581  27.370  22.186  1.00  0.00     0.010 A 
ATOM     28  C   UNL A   1      51.377  27.357  22.056  1.00  0.00     0.021 A 
ATOM     29  C   UNL A   1      49.224  27.658  20.979  1.00  0.00     0.021 A 
ATOM     30  C   UNL A   1      50.619  27.651  20.923  1.00  0.00     0.067 A 
BRANCH  30  31
ATOM     31  S   UNL A   1      51.447  27.976  19.386  1.00  0.00     0.175 S 
ATOM     32  C   UNL A   1      53.037  27.223  19.601  1.00  0.00     0.163 C 
ATOM     33  O   UNL A   1      50.741  27.248  18.350  1.00  0.00    -0.224 OA
ATOM     34  O   UNL A   1      51.653  29.409  19.287  1.00  0.00    -0.224 OA
ENDBRANCH  30  31
ENDBRANCH  23  25
ENDBRANCH   7  19
ENDBRANCH   4   7
ENDBRANCH   2   3
ENDBRANCH   1   2
BRANCH   1  35
ATOM     35  C   UNL A   1      42.102  22.148  27.392  1.00  0.00     0.023 C 
BRANCH  35  36
ATOM     36  C   UNL A   1      41.662  22.416  25.958  1.00  0.00     0.116 C 
BRANCH  36  37
ATOM     37  N   UNL A   1      40.238  22.201  25.751  1.00  0.00    -0.352 N 
ATOM     38  C   UNL A   1      39.186  22.976  26.175  1.00  0.00     0.251 C 
ATOM     39  H   UNL A   1      39.997  21.395  25.241  1.00  0.00     0.163 HD
ATOM     40  O   UNL A   1      38.031  22.596  26.018  1.00  0.00    -0.269 OA
BRANCH  38  41
ATOM     41  C   UNL A   1      39.460  24.256  26.856  1.00  0.00     0.039 A 
ATOM     42  C   UNL A   1      39.116  24.389  28.203  1.00  0.00     0.014 A 
ATOM     43  C   UNL A   1      40.079  25.308  26.174  1.00  0.00     0.014 A 
ATOM     44  C   UNL A   1      39.449  25.559  28.886  1.00  0.00     0.010 A 
ATOM     45  C   UNL A   1      40.470  26.444  26.872  1.00  0.00     0.010 A 
ATOM     46  C   UNL A   1      40.157  26.582  28.234  1.00  0.00    -0.014 A 
BRANCH  46  47
ATOM     47  C   UNL A   1      40.571  27.813  28.950  1.00  0.00     0.031 A 
ATOM     48  C   UNL A   1      41.951  27.908  29.537  1.00  0.00     0.074 A 
ATOM     49  C   UNL A   1      39.683  28.808  29.137  1.00  0.00     0.049 A 
ATOM     50  N   UNL A   1      42.470  28.847  30.285  1.00  0.00    -0.248 NA
ATOM     51  C   UNL A   1      42.857  26.779  29.272  1.00  0.00     0.031 C 
ATOM     52  C   UNL A   1      38.302  28.813  28.652  1.00  0.00     0.029 A 
ATOM     53  N   UNL A   1      39.805  30.002  29.802  1.00  0.00    -0.354 N 
ATOM     54  C   UNL A   1      43.752  28.414  30.595  1.00  0.00     0.074 A 
ATOM     55  C   UNL A   1      43.915  27.107  29.999  1.00  0.00     0.031 C 
ATOM     56  C   UNL A   1      37.710  29.960  29.021  1.00  0.00     0.029 A 
ATOM     57  C   UNL A   1      38.656  30.755  29.800  1.00  0.00     0.049 A 
ATOM     58  H   UNL A   1      40.639  30.293  30.238  1.00  0.00     0.167 HD
ATOM     59  C   UNL A   1      44.714  29.060  31.297  1.00  0.00     0.037 A 
ATOM     60  C   UNL A   1      38.394  31.945  30.372  1.00  0.00     0.037 A 
ATOM     61  C   UNL A   1      44.557  30.374  31.861  1.00  0.00     0.049 A 
ATOM     62  C   UNL A   1      39.482  32.643  31.143  1.00  0.00     0.074 A 
ATOM     63  C   UNL A   1      45.489  31.139  32.540  1.00  0.00     0.029 A 
ATOM     64  N   UNL A   1      43.388  31.120  31.810  1.00  0.00    -0.354 N 
ATOM     65  N   UNL A   1      40.710  32.252  31.379  1.00  0.00    -0.248 NA
ATOM     66  C   UNL A   1      39.148  33.952  31.722  1.00  0.00     0.031 C 
ATOM     67  C   UNL A   1      44.872  32.331  32.934  1.00  0.00     0.029 A 
ATOM     68  C   UNL A   1      43.571  32.330  32.459  1.00  0.00     0.049 A 
ATOM     69  H   UNL A   1      42.552  30.830  31.376  1.00  0.00     0.167 HD
ATOM     70  C   UNL A   1      41.306  33.278  32.100  1.00  0.00     0.074 A 
ATOM     71  C   UNL A   1      40.305  34.313  32.258  1.00  0.00     0.031 C 
ATOM     72  C   UNL A   1      42.569  33.356  32.587  1.00  0.00     0.037 A 
BRANCH  59  73
ATOM     73  C   UNL A   1      46.025  28.354  31.488  1.00  0.00     0.064 A 
ATOM     74  C   UNL A   1      46.205  27.401  32.502  1.00  0.00     0.173 A 
ATOM     75  C   UNL A   1      47.103  28.608  30.628  1.00  0.00     0.173 A 
ATOM     76  F   UNL A   1      45.208  27.130  33.359  1.00  0.00    -0.203 F 
ATOM     77  C   UNL A   1      47.426  26.752  32.667  1.00  0.00     0.198 A 
ATOM     78  C   UNL A   1      48.312  27.934  30.777  1.00  0.00     0.198 A 
ATOM     79  F   UNL A   1      46.983  29.506  29.639  1.00  0.00    -0.203 F 
ATOM     80  F   UNL A   1      47.590  25.884  33.675  1.00  0.00    -0.200 F 
ATOM     81  C   UNL A   1      48.476  27.013  31.801  1.00  0.00     0.200 A 
ATOM     82  F   UNL A   1      49.322  28.178  29.930  1.00  0.00    -0.200 F 
ATOM     83  F   UNL A   1      49.648  26.384  31.957  1.00  0.00    -0.200 F 
ENDBRANCH  59  73
BRANCH  60  84
ATOM     84  C   UNL A   1      37.054  32.566  30.214  1.00  0.00     0.064 A 
ATOM     85  C   UNL A   1      36.079  32.435  31.214  1.00  0.00     0.173 A 
ATOM     86  C   UNL A   1      36.715  33.295  29.065  1.00  0.00     0.173 A 
ATOM     87  F   UNL A   1      36.349  31.731  32.322  1.00  0.00    -0.203 F 
ATOM     88  C   UNL A   1      34.810  32.990  31.061  1.00  0.00     0.198 A 
ATOM     89  C   UNL A   1      35.455  33.873  28.925  1.00  0.00     0.198 A 
ATOM     90  F   UNL A   1      37.612  33.454  28.082  1.00  0.00    -0.203 F 
ATOM     91  F   UNL A   1      33.884  32.809  32.011  1.00  0.00    -0.200 F 
ATOM     92  C   UNL A   1      34.501  33.712  29.918  1.00  0.00     0.200 A 
ATOM     93  F   UNL A   1      35.164  34.582  27.826  1.00  0.00    -0.200 F 
ATOM     94  F   UNL A   1      33.281  34.247  29.772  1.00  0.00    -0.200 F 
ENDBRANCH  60  84
BRANCH  72  95
ATOM     95  C   UNL A   1      42.959  34.622  33.292  1.00  0.00     0.064 A 
ATOM     96  C   UNL A   1      43.386  35.756  32.588  1.00  0.00     0.173 A 
ATOM     97  C   UNL A   1      42.852  34.715  34.688  1.00  0.00     0.173 A 
ATOM     98  F   UNL A   1      43.518  35.714  31.254  1.00  0.00    -0.203 F 
ATOM     99  C   UNL A   1      43.713  36.932  33.260  1.00  0.00     0.198 A 
ATOM    100  C   UNL A   1      43.152  35.899  35.353  1.00  0.00     0.198 A 
ATOM    101  F   UNL A   1      42.442  33.658  35.407  1.00  0.00    -0.203 F 
ATOM    102  F   UNL A   1      44.160  37.992  32.572  1.00  0.00    -0.200 F 
ATOM    103  C   UNL A   1      43.587  37.006  34.639  1.00  0.00     0.200 A 
ATOM    104  F   UNL A   1      43.016  35.973  36.685  1.00  0.00    -0.200 F 
ATOM    105  F   UNL A   1      43.892  38.141  35.282  1.00  0.00    -0.200 F 
ENDBRANCH  72  95
ENDBRANCH  46  47
ENDBRANCH  38  41
ENDBRANCH  36  37
ENDBRANCH  35  36
ENDBRANCH   1  35
TORSDOF 16
ENDMDL
MODEL 3
REMARK VINA RESULT:     -10.4      5.035     11.047
REMARK SMILES CS(=O)(=O)c1ccc(/C=C(/C(=O)NCCCCNC(=O)c2ccc(-c3c4nc(c(-c5c(F)c(F)c(F)c(F)c5F)c5ccc([nH]5)c(-c5c(F)c(F)c(F)c(F)c5F)c5nc(c(-c6c(F)c(F)c(F)c(F)c6F)c6ccc3[nH]6)C=C5)C=C4)cc2)c2cccc(-c3ccc(S(C)(=O)=O)cc3)c2)cc1
REMARK SMILES IDX 15 1 14 2 13 3 11 4 12 5 10 7 9 8 8 9 5 10 6 11 101 12 7 13
REMARK SMILES IDX 100 14 2 15 1 16 3 17 4 18 84 19 85 20 99 21 86 22 88 23
REMARK SMILES IDX 87 24 89 25 90 26 98 27 91 28 97 29 92 30 93 31 94 32 95 33
REMARK SMILES IDX 96 34 16 35 17 36 18 37 19 38 20 40 21 41 22 42 83 43 23 44
REMARK SMILES IDX 82 45 24 46 25 47 26 48 76 49 27 50 81 51 75 52 77 53 28 54
REMARK SMILES IDX 80 55 74 56 73 57 29 59 61 60 41 61 60 62 42 63 45 64 59 65
REMARK SMILES IDX 78 66 43 67 44 68 58 70 79 71 46 72 30 73 31 74 39 75 32 76
REMARK SMILES IDX 33 77 37 78 40 79 34 80 35 81 38 82 36 83 62 84 63 85 71 86
REMARK SMILES IDX 64 87 65 88 69 89 72 90 66 91 67 92 70 93 68 94 47 95 48 96
REMARK SMILES IDX 56 97 49 98 50 99 54 100 57 101 51 102 52 103 55 104 53 105
REMARK H PARENT 13 6 18 39 77 58 45 69
REMARK Flexibility Score: inf
ROOT
ATOM      1  C   UNL A   1      41.695  34.109  33.961  1.00  0.00     0.023 C 
ENDROOT
BRANCH   1   2
ATOM      2  C   UNL A   1      40.676  33.467  34.908  1.00  0.00     0.116 C 
BRANCH   2   3
ATOM      3  N   UNL A   1      40.368  32.120  34.470  1.00  0.00    -0.352 N 
ATOM      4  C   UNL A   1      39.316  31.568  33.808  1.00  0.00     0.251 C 
ATOM      5  O   UNL A   1      39.357  30.345  33.655  1.00  0.00    -0.269 OA
ATOM      6  H   UNL A   1      41.068  31.468  34.699  1.00  0.00     0.163 HD
BRANCH   4   7
ATOM      7  C   UNL A   1      38.191  32.381  33.202  1.00  0.00     0.047 C 
ATOM      8  C   UNL A   1      37.044  32.634  33.877  1.00  0.00     0.022 C 
BRANCH   8   9
ATOM      9  C   UNL A   1      35.903  33.505  33.514  1.00  0.00    -0.025 A 
ATOM     10  C   UNL A   1      33.904  35.279  32.660  1.00  0.00     0.067 A 
ATOM     11  C   UNL A   1      33.663  33.905  32.656  1.00  0.00     0.021 A 
ATOM     12  C   UNL A   1      35.118  35.784  33.123  1.00  0.00     0.021 A 
ATOM     13  C   UNL A   1      34.646  33.030  33.124  1.00  0.00     0.009 A 
ATOM     14  C   UNL A   1      36.114  34.896  33.542  1.00  0.00     0.009 A 
BRANCH  10  15
ATOM     15  S   UNL A   1      32.652  36.388  32.062  1.00  0.00     0.175 S 
ATOM     16  C   UNL A   1      32.662  36.158  30.304  1.00  0.00     0.163 C 
ATOM     17  O   UNL A   1      33.116  37.732  32.347  1.00  0.00    -0.224 OA
ATOM     18  O   UNL A   1      31.374  35.909  32.551  1.00  0.00    -0.224 OA
ENDBRANCH  10  15
ENDBRANCH   8   9
BRANCH   7  19
ATOM     19  C   UNL A   1      38.321  32.747  31.767  1.00  0.00    -0.012 A 
ATOM     20  C   UNL A   1      37.204  32.606  30.929  1.00  0.00     0.009 A 
ATOM     21  C   UNL A   1      39.472  33.366  31.261  1.00  0.00     0.017 A 
ATOM     22  C   UNL A   1      37.221  33.102  29.628  1.00  0.00     0.001 A 
ATOM     23  C   UNL A   1      39.482  33.934  29.974  1.00  0.00    -0.018 A 
ATOM     24  C   UNL A   1      38.347  33.778  29.161  1.00  0.00     0.009 A 
BRANCH  23  25
ATOM     25  C   UNL A   1      40.611  34.772  29.546  1.00  0.00    -0.018 A 
ATOM     26  C   UNL A   1      41.836  34.715  30.237  1.00  0.00     0.010 A 
ATOM     27  C   UNL A   1      40.525  35.581  28.403  1.00  0.00     0.010 A 
ATOM     28  C   UNL A   1      42.951  35.428  29.791  1.00  0.00     0.021 A 
ATOM     29  C   UNL A   1      41.632  36.307  27.954  1.00  0.00     0.021 A 
ATOM     30  C   UNL A   1      42.838  36.226  28.653  1.00  0.00     0.067 A 
BRANCH  30  31
ATOM     31  S   UNL A   1      44.263  37.110  28.070  1.00  0.00     0.175 S 
ATOM     32  C   UNL A   1      43.587  38.284  26.927  1.00  0.00     0.163 C 
ATOM     33  O   UNL A   1      44.810  37.842  29.195  1.00  0.00    -0.224 OA
ATOM     34  O   UNL A   1      45.081  36.183  27.311  1.00  0.00    -0.224 OA
ENDBRANCH  30  31
ENDBRANCH  23  25
ENDBRANCH   7  19
ENDBRANCH   4   7
ENDBRANCH   2   3
ENDBRANCH   1   2
BRANCH   1  35
ATOM     35  C   UNL A   1      42.112  35.529  34.356  1.00  0.00     0.023 C 
BRANCH  35  36
ATOM     36  C   UNL A   1      43.076  36.208  33.390  1.00  0.00     0.116 C 
BRANCH  36  37
ATOM     37  N   UNL A   1      44.379  36.473  33.979  1.00  0.00    -0.352 N 
ATOM     38  C   UNL A   1      45.500  35.680  33.966  1.00  0.00     0.251 C 
ATOM     39  H   UNL A   1      44.469  37.333  34.449  1.00  0.00     0.163 HD
ATOM     40  O   UNL A   1      46.494  35.996  34.611  1.00  0.00    -0.269 OA
BRANCH  38  41
ATOM     41  C   UNL A   1      45.486  34.422  33.195  1.00  0.00     0.039 A 
ATOM     42  C   UNL A   1      45.176  33.231  33.856  1.00  0.00     0.014 A 
ATOM     43  C   UNL A   1      45.749  34.423  31.823  1.00  0.00     0.014 A 
ATOM     44  C   UNL A   1      45.069  32.046  33.127  1.00  0.00     0.010 A 
ATOM     45  C   UNL A   1      45.576  33.256  31.087  1.00  0.00     0.010 A 
ATOM     46  C   UNL A   1      45.237  32.056  31.733  1.00  0.00    -0.014 A 
BRANCH  46  47
ATOM     47  C   UNL A   1      45.077  30.822  30.927  1.00  0.00     0.031 A 
ATOM     48  C   UNL A   1      43.709  30.397  30.475  1.00  0.00     0.074 A 
ATOM     49  C   UNL A   1      46.149  30.048  30.668  1.00  0.00     0.049 A 
ATOM     50  N   UNL A   1      43.342  29.304  29.856  1.00  0.00    -0.248 NA
ATOM     51  C   UNL A   1      42.599  31.309  30.792  1.00  0.00     0.031 C 
ATOM     52  C   UNL A   1      47.521  30.334  31.089  1.00  0.00     0.029 A 
ATOM     53  N   UNL A   1      46.249  28.853  30.002  1.00  0.00    -0.354 N 
ATOM     54  C   UNL A   1      41.962  29.389  29.728  1.00  0.00     0.074 A 
ATOM     55  C   UNL A   1      41.551  30.614  30.377  1.00  0.00     0.031 C 
ATOM     56  C   UNL A   1      48.327  29.351  30.659  1.00  0.00     0.029 A 
ATOM     57  C   UNL A   1      47.525  28.347  29.965  1.00  0.00     0.049 A 
ATOM     58  H   UNL A   1      45.478  28.400  29.589  1.00  0.00     0.167 HD
ATOM     59  C   UNL A   1      41.119  28.532  29.104  1.00  0.00     0.037 A 
ATOM     60  C   UNL A   1      47.992  27.198  29.440  1.00  0.00     0.037 A 
ATOM     61  C   UNL A   1      41.538  27.331  28.432  1.00  0.00     0.049 A 
ATOM     62  C   UNL A   1      47.033  26.266  28.750  1.00  0.00     0.074 A 
ATOM     63  C   UNL A   1      40.770  26.426  27.722  1.00  0.00     0.029 A 
ATOM     64  N   UNL A   1      42.846  26.869  28.388  1.00  0.00    -0.354 N 
ATOM     65  N   UNL A   1      45.739  26.386  28.580  1.00  0.00    -0.248 NA
ATOM     66  C   UNL A   1      47.602  25.040  28.171  1.00  0.00     0.031 C 
ATOM     67  C   UNL A   1      41.606  25.395  27.281  1.00  0.00     0.029 A 
ATOM     68  C   UNL A   1      42.903  25.683  27.674  1.00  0.00     0.049 A 
ATOM     69  H   UNL A   1      43.619  27.318  28.802  1.00  0.00     0.167 HD
ATOM     70  C   UNL A   1      45.345  25.274  27.847  1.00  0.00     0.074 A 
ATOM     71  C   UNL A   1      46.539  24.494  27.598  1.00  0.00     0.031 C 
ATOM     72  C   UNL A   1      44.105  24.931  27.419  1.00  0.00     0.037 A 
BRANCH  59  73
ATOM     73  C   UNL A   1      39.656  28.868  29.117  1.00  0.00     0.064 A 
ATOM     74  C   UNL A   1      38.996  29.325  27.966  1.00  0.00     0.173 A 
ATOM     75  C   UNL A   1      38.897  28.701  30.284  1.00  0.00     0.173 A 
ATOM     76  F   UNL A   1      39.680  29.513  26.826  1.00  0.00    -0.203 F 
ATOM     77  C   UNL A   1      37.639  29.631  27.991  1.00  0.00     0.198 A 
ATOM     78  C   UNL A   1      37.532  28.979  30.298  1.00  0.00     0.198 A 
ATOM     79  F   UNL A   1      39.476  28.263  31.412  1.00  0.00    -0.203 F 
ATOM     80  F   UNL A   1      37.042  30.115  26.893  1.00  0.00    -0.200 F 
ATOM     81  C   UNL A   1      36.906  29.452  29.154  1.00  0.00     0.200 A 
ATOM     82  F   UNL A   1      36.823  28.792  31.419  1.00  0.00    -0.200 F 
ATOM     83  F   UNL A   1      35.598  29.741  29.176  1.00  0.00    -0.200 F 
ENDBRANCH  59  73
BRANCH  60  84
ATOM     84  C   UNL A   1      49.440  26.878  29.521  1.00  0.00     0.064 A 
ATOM     85  C   UNL A   1      49.949  26.119  30.584  1.00  0.00     0.173 A 
ATOM     86  C   UNL A   1      50.344  27.327  28.548  1.00  0.00     0.173 A 
ATOM     87  F   UNL A   1      49.126  25.683  31.549  1.00  0.00    -0.203 F 
ATOM     88  C   UNL A   1      51.310  25.839  30.683  1.00  0.00     0.198 A 
ATOM     89  C   UNL A   1      51.702  27.024  28.633  1.00  0.00     0.198 A 
ATOM     90  F   UNL A   1      49.908  28.053  27.509  1.00  0.00    -0.203 F 
ATOM     91  F   UNL A   1      51.775  25.151  31.734  1.00  0.00    -0.200 F 
ATOM     92  C   UNL A   1      52.185  26.288  29.705  1.00  0.00     0.200 A 
ATOM     93  F   UNL A   1      52.542  27.447  27.679  1.00  0.00    -0.200 F 
ATOM     94  F   UNL A   1      53.494  26.018  29.799  1.00  0.00    -0.200 F 
ENDBRANCH  60  84
BRANCH  72  95
ATOM     95  C   UNL A   1      43.981  23.685  26.592  1.00  0.00     0.064 A 
ATOM     96  C   UNL A   1      44.431  23.633  25.266  1.00  0.00     0.173 A 
ATOM     97  C   UNL A   1      43.453  22.514  27.155  1.00  0.00     0.173 A 
ATOM     98  F   UNL A   1      44.930  24.730  24.677  1.00  0.00    -0.203 F 
ATOM     99  C   UNL A   1      44.336  22.457  24.526  1.00  0.00     0.198 A 
ATOM    100  C   UNL A   1      43.385  21.333  26.422  1.00  0.00     0.198 A 
ATOM    101  F   UNL A   1      43.014  22.511  28.424  1.00  0.00    -0.203 F 
ATOM    102  F   UNL A   1      44.732  22.440  23.245  1.00  0.00    -0.200 F 
ATOM    103  C   UNL A   1      43.822  21.306  25.106  1.00  0.00     0.200 A 
ATOM    104  F   UNL A   1      42.902  20.219  26.990  1.00  0.00    -0.200 F 
ATOM    105  F   UNL A   1      43.742  20.174  24.395  1.00  0.00    -0.200 F 
ENDBRANCH  72  95
ENDBRANCH  46  47
ENDBRANCH  38  41
ENDBRANCH  36  37
ENDBRANCH  35  36
ENDBRANCH   1  35
TORSDOF 16
ENDMDL
