MODEL 1
REMARK VINA RESULT:     -13.9      0.000      0.000
REMARK SMILES COc1ccc2c(c1)c(CC(=O)NCCCCNC(=O)c1ccc(-c3c4nc(c(-c5c(F)c(F)c(F)c(F)c5F)c5ccc([nH]5)c(-c5c(F)c(F)c(F)c(F)c5F)c5nc(c(-c6c(F)c(F)c(F)c(F)c6F)c6ccc3[nH]6)C=C5)C=C4)cc1)c(C)n2C(=O)c1ccc(Cl)cc1
REMARK SMILES IDX 15 1 14 2 13 3 11 4 12 5 10 7 9 8 3 9 4 10 8 11 5 12 7 13
REMARK SMILES IDX 6 14 86 15 84 16 85 17 2 18 1 19 87 20 88 21 89 22 90 23
REMARK SMILES IDX 95 24 91 25 94 26 92 27 93 28 16 29 17 30 18 31 19 32 20 34
REMARK SMILES IDX 21 35 22 36 83 37 23 38 82 39 24 40 25 41 26 42 76 43 27 44
REMARK SMILES IDX 81 45 75 46 77 47 28 48 80 49 74 50 73 51 29 53 61 54 41 55
REMARK SMILES IDX 60 56 42 57 45 58 59 59 78 60 43 61 44 62 58 64 79 65 46 66
REMARK SMILES IDX 30 67 31 68 39 69 32 70 33 71 37 72 40 73 34 74 35 75 38 76
REMARK SMILES IDX 36 77 62 78 63 79 71 80 64 81 65 82 69 83 72 84 66 85 67 86
REMARK SMILES IDX 70 87 68 88 47 89 48 90 56 91 49 92 50 93 54 94 57 95 51 96
REMARK SMILES IDX 52 97 55 98 53 99
REMARK H PARENT 13 6 18 33 77 52 45 63
REMARK Flexibility Score: inf
ROOT
ATOM      1  C   UNL A   1      31.619  27.733  27.029  1.00  0.00     0.023 C 
ENDROOT
BRANCH   1   2
ATOM      2  C   UNL A   1      31.304  26.551  26.115  1.00  0.00     0.116 C 
BRANCH   2   3
ATOM      3  N   UNL A   1      31.053  25.337  26.861  1.00  0.00    -0.356 N 
ATOM      4  C   UNL A   1      31.156  24.046  26.427  1.00  0.00     0.224 C 
ATOM      5  O   UNL A   1      30.915  23.139  27.227  1.00  0.00    -0.275 OA
ATOM      6  H   UNL A   1      30.771  25.456  27.797  1.00  0.00     0.163 HD
BRANCH   4   7
ATOM      7  C   UNL A   1      31.622  23.755  25.006  1.00  0.00     0.138 C 
BRANCH   7   8
ATOM      8  C   UNL A   1      32.972  23.095  24.944  1.00  0.00    -0.009 A 
ATOM      9  C   UNL A   1      32.869  19.284  24.846  1.00  0.00     0.119 A 
ATOM     10  C   UNL A   1      34.241  19.094  24.868  1.00  0.00     0.048 A 
ATOM     11  C   UNL A   1      32.347  20.576  24.831  1.00  0.00     0.057 A 
ATOM     12  C   UNL A   1      35.112  20.186  24.904  1.00  0.00     0.031 A 
ATOM     13  C   UNL A   1      33.209  21.696  24.865  1.00  0.00     0.008 A 
ATOM     14  C   UNL A   1      34.593  21.497  24.864  1.00  0.00     0.057 A 
ATOM     15  N   UNL A   1      35.209  22.759  24.783  1.00  0.00    -0.280 N 
ATOM     16  C   UNL A   1      34.213  23.720  25.018  1.00  0.00     0.028 A 
ATOM     17  C   UNL A   1      34.477  25.175  25.261  1.00  0.00     0.065 C 
BRANCH   9  18
ATOM     18  O   UNL A   1      31.963  18.261  24.808  1.00  0.00    -0.497 OA
ATOM     19  C   UNL A   1      32.495  17.017  25.261  1.00  0.00     0.278 C 
ENDBRANCH   9  18
BRANCH  15  20
ATOM     20  C   UNL A   1      36.584  23.026  24.502  1.00  0.00     0.262 C 
ATOM     21  O   UNL A   1      36.917  23.336  23.371  1.00  0.00    -0.268 OA
BRANCH  20  22
ATOM     22  C   UNL A   1      37.677  22.949  25.492  1.00  0.00     0.040 A 
ATOM     23  C   UNL A   1      37.986  24.044  26.305  1.00  0.00     0.015 A 
ATOM     24  C   UNL A   1      38.414  21.762  25.572  1.00  0.00     0.015 A 
ATOM     25  C   UNL A   1      39.104  23.977  27.141  1.00  0.00     0.021 A 
ATOM     26  C   UNL A   1      39.523  21.700  26.418  1.00  0.00     0.021 A 
ATOM     27  C   UNL A   1      39.874  22.813  27.182  1.00  0.00     0.041 A 
ATOM     28  Cl  UNL A   1      41.285  22.758  28.163  1.00  0.00    -0.084 Cl
ENDBRANCH  20  22
ENDBRANCH  15  20
ENDBRANCH   7   8
ENDBRANCH   4   7
ENDBRANCH   2   3
ENDBRANCH   1   2
BRANCH   1  29
ATOM     29  C   UNL A   1      32.169  28.964  26.293  1.00  0.00     0.023 C 
BRANCH  29  30
ATOM     30  C   UNL A   1      33.615  29.310  26.655  1.00  0.00     0.116 C 
BRANCH  30  31
ATOM     31  N   UNL A   1      33.716  30.445  27.551  1.00  0.00    -0.352 N 
ATOM     32  C   UNL A   1      34.741  31.093  28.175  1.00  0.00     0.251 C 
ATOM     33  H   UNL A   1      32.839  30.843  27.756  1.00  0.00     0.163 HD
ATOM     34  O   UNL A   1      34.442  32.115  28.799  1.00  0.00    -0.269 OA
BRANCH  32  35
ATOM     35  C   UNL A   1      36.152  30.629  28.205  1.00  0.00     0.039 A 
ATOM     36  C   UNL A   1      36.601  29.375  27.792  1.00  0.00     0.014 A 
ATOM     37  C   UNL A   1      37.081  31.525  28.771  1.00  0.00     0.014 A 
ATOM     38  C   UNL A   1      37.909  28.982  28.027  1.00  0.00     0.010 A 
ATOM     39  C   UNL A   1      38.394  31.145  28.999  1.00  0.00     0.010 A 
ATOM     40  C   UNL A   1      38.785  29.851  28.675  1.00  0.00    -0.014 A 
BRANCH  40  41
ATOM     41  C   UNL A   1      40.122  29.354  28.954  1.00  0.00     0.031 A 
ATOM     42  C   UNL A   1      40.418  29.075  30.388  1.00  0.00     0.074 A 
ATOM     43  C   UNL A   1      41.001  29.091  27.968  1.00  0.00     0.049 A 
ATOM     44  N   UNL A   1      41.371  29.554  31.124  1.00  0.00    -0.248 NA
ATOM     45  C   UNL A   1      39.469  28.219  31.118  1.00  0.00     0.031 C 
ATOM     46  C   UNL A   1      40.768  29.075  26.522  1.00  0.00     0.029 A 
ATOM     47  N   UNL A   1      42.291  28.677  28.075  1.00  0.00    -0.354 N 
ATOM     48  C   UNL A   1      41.234  28.945  32.370  1.00  0.00     0.074 A 
ATOM     49  C   UNL A   1      39.987  28.226  32.346  1.00  0.00     0.031 C 
ATOM     50  C   UNL A   1      41.798  28.443  25.915  1.00  0.00     0.029 A 
ATOM     51  C   UNL A   1      42.808  28.133  26.912  1.00  0.00     0.049 A 
ATOM     52  H   UNL A   1      42.812  28.757  28.907  1.00  0.00     0.167 HD
ATOM     53  C   UNL A   1      42.246  28.921  33.281  1.00  0.00     0.037 A 
ATOM     54  C   UNL A   1      43.936  27.390  26.812  1.00  0.00     0.037 A 
ATOM     55  C   UNL A   1      43.206  29.963  33.048  1.00  0.00     0.049 A 
ATOM     56  C   UNL A   1      44.772  27.687  28.006  1.00  0.00     0.074 A 
ATOM     57  C   UNL A   1      43.139  31.342  33.039  1.00  0.00     0.029 A 
ATOM     58  N   UNL A   1      44.388  29.651  32.425  1.00  0.00    -0.354 N 
ATOM     59  N   UNL A   1      45.325  28.848  28.233  1.00  0.00    -0.248 NA
ATOM     60  C   UNL A   1      44.601  26.837  29.176  1.00  0.00     0.031 C 
ATOM     61  C   UNL A   1      43.995  31.744  31.972  1.00  0.00     0.029 A 
ATOM     62  C   UNL A   1      44.566  30.588  31.439  1.00  0.00     0.049 A 
ATOM     63  H   UNL A   1      44.991  28.903  32.643  1.00  0.00     0.167 HD
ATOM     64  C   UNL A   1      45.196  29.043  29.601  1.00  0.00     0.074 A 
ATOM     65  C   UNL A   1      44.809  27.740  30.137  1.00  0.00     0.031 C 
ATOM     66  C   UNL A   1      45.133  30.295  30.143  1.00  0.00     0.037 A 
BRANCH  53  67
ATOM     67  C   UNL A   1      42.505  27.762  34.206  1.00  0.00     0.064 A 
ATOM     68  C   UNL A   1      43.135  26.599  33.723  1.00  0.00     0.173 A 
ATOM     69  C   UNL A   1      41.904  27.648  35.479  1.00  0.00     0.173 A 
ATOM     70  F   UNL A   1      43.704  26.583  32.508  1.00  0.00    -0.203 F 
ATOM     71  C   UNL A   1      43.122  25.401  34.444  1.00  0.00     0.198 A 
ATOM     72  C   UNL A   1      41.939  26.469  36.218  1.00  0.00     0.198 A 
ATOM     73  F   UNL A   1      41.168  28.636  36.003  1.00  0.00    -0.203 F 
ATOM     74  F   UNL A   1      43.637  24.290  33.900  1.00  0.00    -0.200 F 
ATOM     75  C   UNL A   1      42.524  25.337  35.691  1.00  0.00     0.200 A 
ATOM     76  F   UNL A   1      41.333  26.422  37.413  1.00  0.00    -0.200 F 
ATOM     77  F   UNL A   1      42.465  24.178  36.360  1.00  0.00    -0.200 F 
ENDBRANCH  53  67
BRANCH  54  78
ATOM     78  C   UNL A   1      44.111  26.183  25.966  1.00  0.00     0.064 A 
ATOM     79  C   UNL A   1      45.358  25.846  25.420  1.00  0.00     0.173 A 
ATOM     80  C   UNL A   1      43.104  25.198  25.873  1.00  0.00     0.173 A 
ATOM     81  F   UNL A   1      46.390  26.697  25.520  1.00  0.00    -0.203 F 
ATOM     82  C   UNL A   1      45.582  24.602  24.816  1.00  0.00     0.198 A 
ATOM     83  C   UNL A   1      43.324  23.966  25.259  1.00  0.00     0.198 A 
ATOM     84  F   UNL A   1      41.909  25.374  26.454  1.00  0.00    -0.203 F 
ATOM     85  F   UNL A   1      46.801  24.295  24.349  1.00  0.00    -0.200 F 
ATOM     86  C   UNL A   1      44.565  23.664  24.738  1.00  0.00     0.200 A 
ATOM     87  F   UNL A   1      42.340  23.055  25.229  1.00  0.00    -0.200 F 
ATOM     88  F   UNL A   1      44.792  22.456  24.201  1.00  0.00    -0.200 F 
ENDBRANCH  54  78
BRANCH  66  89
ATOM     89  C   UNL A   1      45.400  31.475  29.251  1.00  0.00     0.064 A 
ATOM     90  C   UNL A   1      46.687  31.991  29.016  1.00  0.00     0.173 A 
ATOM     91  C   UNL A   1      44.359  31.961  28.447  1.00  0.00     0.173 A 
ATOM     92  F   UNL A   1      47.752  31.505  29.663  1.00  0.00    -0.203 F 
ATOM     93  C   UNL A   1      46.915  32.964  28.045  1.00  0.00     0.198 A 
ATOM     94  C   UNL A   1      44.595  32.909  27.454  1.00  0.00     0.198 A 
ATOM     95  F   UNL A   1      43.120  31.463  28.580  1.00  0.00    -0.203 F 
ATOM     96  F   UNL A   1      48.156  33.430  27.838  1.00  0.00    -0.200 F 
ATOM     97  C   UNL A   1      45.870  33.414  27.257  1.00  0.00     0.200 A 
ATOM     98  F   UNL A   1      43.592  33.300  26.656  1.00  0.00    -0.200 F 
ATOM     99  F   UNL A   1      46.099  34.306  26.283  1.00  0.00    -0.200 F 
ENDBRANCH  66  89
ENDBRANCH  40  41
ENDBRANCH  32  35
ENDBRANCH  30  31
ENDBRANCH  29  30
ENDBRANCH   1  29
TORSDOF 15
ENDMDL
MODEL 2
REMARK VINA RESULT:     -13.6      3.520      9.330
REMARK SMILES COc1ccc2c(c1)c(CC(=O)NCCCCNC(=O)c1ccc(-c3c4nc(c(-c5c(F)c(F)c(F)c(F)c5F)c5ccc([nH]5)c(-c5c(F)c(F)c(F)c(F)c5F)c5nc(c(-c6c(F)c(F)c(F)c(F)c6F)c6ccc3[nH]6)C=C5)C=C4)cc1)c(C)n2C(=O)c1ccc(Cl)cc1
REMARK SMILES IDX 15 1 14 2 13 3 11 4 12 5 10 7 9 8 3 9 4 10 8 11 5 12 7 13
REMARK SMILES IDX 6 14 86 15 84 16 85 17 2 18 1 19 87 20 88 21 89 22 90 23
REMARK SMILES IDX 95 24 91 25 94 26 92 27 93 28 16 29 17 30 18 31 19 32 20 34
REMARK SMILES IDX 21 35 22 36 83 37 23 38 82 39 24 40 25 41 26 42 76 43 27 44
REMARK SMILES IDX 81 45 75 46 77 47 28 48 80 49 74 50 73 51 29 53 61 54 41 55
REMARK SMILES IDX 60 56 42 57 45 58 59 59 78 60 43 61 44 62 58 64 79 65 46 66
REMARK SMILES IDX 30 67 31 68 39 69 32 70 33 71 37 72 40 73 34 74 35 75 38 76
REMARK SMILES IDX 36 77 62 78 63 79 71 80 64 81 65 82 69 83 72 84 66 85 67 86
REMARK SMILES IDX 70 87 68 88 47 89 48 90 56 91 49 92 50 93 54 94 57 95 51 96
REMARK SMILES IDX 52 97 55 98 53 99
REMARK H PARENT 13 6 18 33 77 52 45 63
REMARK Flexibility Score: inf
ROOT
ATOM      1  C   UNL A   1      37.032  22.509  24.356  1.00  0.00     0.023 C 
ENDROOT
BRANCH   1   2
ATOM      2  C   UNL A   1      36.826  23.705  25.284  1.00  0.00     0.116 C 
BRANCH   2   3
ATOM      3  N   UNL A   1      35.595  23.605  26.037  1.00  0.00    -0.356 N 
ATOM      4  C   UNL A   1      34.426  24.282  25.832  1.00  0.00     0.224 C 
ATOM      5  O   UNL A   1      33.473  24.042  26.577  1.00  0.00    -0.275 OA
ATOM      6  H   UNL A   1      35.601  22.973  26.792  1.00  0.00     0.163 HD
BRANCH   4   7
ATOM      7  C   UNL A   1      34.303  25.255  24.667  1.00  0.00     0.138 C 
BRANCH   7   8
ATOM      8  C   UNL A   1      33.086  26.135  24.749  1.00  0.00    -0.009 A 
ATOM      9  C   UNL A   1      33.633  29.425  26.598  1.00  0.00     0.119 A 
ATOM     10  C   UNL A   1      32.323  29.867  26.514  1.00  0.00     0.048 A 
ATOM     11  C   UNL A   1      33.997  28.214  26.012  1.00  0.00     0.057 A 
ATOM     12  C   UNL A   1      31.351  29.097  25.869  1.00  0.00     0.031 A 
ATOM     13  C   UNL A   1      33.031  27.421  25.352  1.00  0.00     0.008 A 
ATOM     14  C   UNL A   1      31.715  27.884  25.250  1.00  0.00     0.057 A 
ATOM     15  N   UNL A   1      30.999  26.971  24.457  1.00  0.00    -0.280 N 
ATOM     16  C   UNL A   1      31.799  25.826  24.318  1.00  0.00     0.028 A 
ATOM     17  C   UNL A   1      31.326  24.521  23.754  1.00  0.00     0.065 C 
BRANCH   9  18
ATOM     18  O   UNL A   1      34.632  30.128  27.213  1.00  0.00    -0.497 OA
ATOM     19  C   UNL A   1      35.700  29.305  27.678  1.00  0.00     0.278 C 
ENDBRANCH   9  18
BRANCH  15  20
ATOM     20  C   UNL A   1      29.704  27.164  23.883  1.00  0.00     0.262 C 
ATOM     21  O   UNL A   1      28.833  26.333  24.072  1.00  0.00    -0.268 OA
BRANCH  20  22
ATOM     22  C   UNL A   1      29.319  28.316  23.043  1.00  0.00     0.040 A 
ATOM     23  C   UNL A   1      30.275  29.002  22.286  1.00  0.00     0.015 A 
ATOM     24  C   UNL A   1      27.981  28.724  23.052  1.00  0.00     0.015 A 
ATOM     25  C   UNL A   1      29.898  30.162  21.604  1.00  0.00     0.021 A 
ATOM     26  C   UNL A   1      27.611  29.877  22.359  1.00  0.00     0.021 A 
ATOM     27  C   UNL A   1      28.574  30.601  21.656  1.00  0.00     0.041 A 
ATOM     28  Cl  UNL A   1      28.129  32.063  20.867  1.00  0.00    -0.084 Cl
ENDBRANCH  20  22
ENDBRANCH  15  20
ENDBRANCH   7   8
ENDBRANCH   4   7
ENDBRANCH   2   3
ENDBRANCH   1   2
BRANCH   1  29
ATOM     29  C   UNL A   1      37.914  21.401  24.949  1.00  0.00     0.023 C 
BRANCH  29  30
ATOM     30  C   UNL A   1      38.783  21.859  26.123  1.00  0.00     0.116 C 
BRANCH  30  31
ATOM     31  N   UNL A   1      40.185  21.977  25.773  1.00  0.00    -0.352 N 
ATOM     32  C   UNL A   1      41.184  22.855  26.078  1.00  0.00     0.251 C 
ATOM     33  H   UNL A   1      40.488  21.253  25.178  1.00  0.00     0.163 HD
ATOM     34  O   UNL A   1      42.309  22.564  25.664  1.00  0.00    -0.269 OA
BRANCH  32  35
ATOM     35  C   UNL A   1      41.001  24.138  26.802  1.00  0.00     0.039 A 
ATOM     36  C   UNL A   1      40.091  25.139  26.462  1.00  0.00     0.014 A 
ATOM     37  C   UNL A   1      41.885  24.368  27.876  1.00  0.00     0.014 A 
ATOM     38  C   UNL A   1      40.125  26.368  27.099  1.00  0.00     0.010 A 
ATOM     39  C   UNL A   1      41.918  25.591  28.526  1.00  0.00     0.010 A 
ATOM     40  C   UNL A   1      41.073  26.605  28.093  1.00  0.00    -0.014 A 
BRANCH  40  41
ATOM     41  C   UNL A   1      41.101  27.938  28.674  1.00  0.00     0.031 A 
ATOM     42  C   UNL A   1      42.204  28.821  28.198  1.00  0.00     0.074 A 
ATOM     43  C   UNL A   1      40.146  28.363  29.522  1.00  0.00     0.049 A 
ATOM     44  N   UNL A   1      43.110  29.429  28.898  1.00  0.00    -0.248 NA
ATOM     45  C   UNL A   1      42.369  28.971  26.743  1.00  0.00     0.031 C 
ATOM     46  C   UNL A   1      38.885  27.706  29.876  1.00  0.00     0.029 A 
ATOM     47  N   UNL A   1      40.068  29.550  30.180  1.00  0.00    -0.354 N 
ATOM     48  C   UNL A   1      43.870  30.160  27.987  1.00  0.00     0.074 A 
ATOM     49  C   UNL A   1      43.446  29.753  26.672  1.00  0.00     0.031 C 
ATOM     50  C   UNL A   1      38.074  28.603  30.480  1.00  0.00     0.029 A 
ATOM     51  C   UNL A   1      38.806  29.843  30.667  1.00  0.00     0.049 A 
ATOM     52  H   UNL A   1      40.841  30.148  30.298  1.00  0.00     0.167 HD
ATOM     53  C   UNL A   1      44.673  31.190  28.372  1.00  0.00     0.037 A 
ATOM     54  C   UNL A   1      38.378  31.056  31.092  1.00  0.00     0.037 A 
ATOM     55  C   UNL A   1      45.031  31.103  29.760  1.00  0.00     0.049 A 
ATOM     56  C   UNL A   1      39.582  31.859  31.433  1.00  0.00     0.074 A 
ATOM     57  C   UNL A   1      45.721  30.176  30.516  1.00  0.00     0.029 A 
ATOM     58  N   UNL A   1      44.372  31.895  30.668  1.00  0.00    -0.354 N 
ATOM     59  N   UNL A   1      40.384  31.579  32.424  1.00  0.00    -0.248 NA
ATOM     60  C   UNL A   1      40.153  32.694  30.384  1.00  0.00     0.031 C 
ATOM     61  C   UNL A   1      45.032  30.134  31.763  1.00  0.00     0.029 A 
ATOM     62  C   UNL A   1      44.004  31.074  31.704  1.00  0.00     0.049 A 
ATOM     63  H   UNL A   1      44.199  32.862  30.591  1.00  0.00     0.167 HD
ATOM     64  C   UNL A   1      41.657  31.847  31.940  1.00  0.00     0.074 A 
ATOM     65  C   UNL A   1      41.446  32.599  30.706  1.00  0.00     0.031 C 
ATOM     66  C   UNL A   1      42.757  31.196  32.422  1.00  0.00     0.037 A 
BRANCH  53  67
ATOM     67  C   UNL A   1      44.889  32.430  27.547  1.00  0.00     0.064 A 
ATOM     68  C   UNL A   1      46.093  32.607  26.838  1.00  0.00     0.173 A 
ATOM     69  C   UNL A   1      44.069  33.575  27.655  1.00  0.00     0.173 A 
ATOM     70  F   UNL A   1      46.966  31.597  26.709  1.00  0.00    -0.203 F 
ATOM     71  C   UNL A   1      46.464  33.850  26.318  1.00  0.00     0.198 A 
ATOM     72  C   UNL A   1      44.417  34.798  27.089  1.00  0.00     0.198 A 
ATOM     73  F   UNL A   1      42.959  33.580  28.403  1.00  0.00    -0.203 F 
ATOM     74  F   UNL A   1      47.667  34.001  25.747  1.00  0.00    -0.200 F 
ATOM     75  C   UNL A   1      45.626  34.945  26.444  1.00  0.00     0.200 A 
ATOM     76  F   UNL A   1      43.601  35.851  27.243  1.00  0.00    -0.200 F 
ATOM     77  F   UNL A   1      46.003  36.148  25.991  1.00  0.00    -0.200 F 
ENDBRANCH  53  67
BRANCH  54  78
ATOM     78  C   UNL A   1      37.042  31.649  30.830  1.00  0.00     0.064 A 
ATOM     79  C   UNL A   1      36.144  31.921  31.872  1.00  0.00     0.173 A 
ATOM     80  C   UNL A   1      36.712  32.185  29.567  1.00  0.00     0.173 A 
ATOM     81  F   UNL A   1      36.412  31.503  33.118  1.00  0.00    -0.203 F 
ATOM     82  C   UNL A   1      34.986  32.680  31.662  1.00  0.00     0.198 A 
ATOM     83  C   UNL A   1      35.552  32.929  29.356  1.00  0.00     0.198 A 
ATOM     84  F   UNL A   1      37.551  32.076  28.528  1.00  0.00    -0.203 F 
ATOM     85  F   UNL A   1      34.176  32.963  32.693  1.00  0.00    -0.200 F 
ATOM     86  C   UNL A   1      34.693  33.185  30.405  1.00  0.00     0.200 A 
ATOM     87  F   UNL A   1      35.305  33.443  28.142  1.00  0.00    -0.200 F 
ATOM     88  F   UNL A   1      33.608  33.950  30.214  1.00  0.00    -0.200 F 
ENDBRANCH  54  78
BRANCH  66  89
ATOM     89  C   UNL A   1      42.596  30.315  33.629  1.00  0.00     0.064 A 
ATOM     90  C   UNL A   1      42.632  30.799  34.949  1.00  0.00     0.173 A 
ATOM     91  C   UNL A   1      42.183  28.988  33.445  1.00  0.00     0.173 A 
ATOM     92  F   UNL A   1      42.910  32.082  35.205  1.00  0.00    -0.203 F 
ATOM     93  C   UNL A   1      42.297  29.986  36.031  1.00  0.00     0.198 A 
ATOM     94  C   UNL A   1      41.816  28.188  34.525  1.00  0.00     0.198 A 
ATOM     95  F   UNL A   1      42.068  28.487  32.205  1.00  0.00    -0.203 F 
ATOM     96  F   UNL A   1      42.332  30.479  37.278  1.00  0.00    -0.200 F 
ATOM     97  C   UNL A   1      41.879  28.685  35.816  1.00  0.00     0.200 A 
ATOM     98  F   UNL A   1      41.357  26.948  34.308  1.00  0.00    -0.200 F 
ATOM     99  F   UNL A   1      41.499  27.922  36.851  1.00  0.00    -0.200 F 
ENDBRANCH  66  89
ENDBRANCH  40  41
ENDBRANCH  32  35
ENDBRANCH  30  31
ENDBRANCH  29  30
ENDBRANCH   1  29
TORSDOF 15
ENDMDL
MODEL 3
REMARK VINA RESULT:     -13.5      3.481      9.284
REMARK SMILES COc1ccc2c(c1)c(CC(=O)NCCCCNC(=O)c1ccc(-c3c4nc(c(-c5c(F)c(F)c(F)c(F)c5F)c5ccc([nH]5)c(-c5c(F)c(F)c(F)c(F)c5F)c5nc(c(-c6c(F)c(F)c(F)c(F)c6F)c6ccc3[nH]6)C=C5)C=C4)cc1)c(C)n2C(=O)c1ccc(Cl)cc1
REMARK SMILES IDX 15 1 14 2 13 3 11 4 12 5 10 7 9 8 3 9 4 10 8 11 5 12 7 13
REMARK SMILES IDX 6 14 86 15 84 16 85 17 2 18 1 19 87 20 88 21 89 22 90 23
REMARK SMILES IDX 95 24 91 25 94 26 92 27 93 28 16 29 17 30 18 31 19 32 20 34
REMARK SMILES IDX 21 35 22 36 83 37 23 38 82 39 24 40 25 41 26 42 76 43 27 44
REMARK SMILES IDX 81 45 75 46 77 47 28 48 80 49 74 50 73 51 29 53 61 54 41 55
REMARK SMILES IDX 60 56 42 57 45 58 59 59 78 60 43 61 44 62 58 64 79 65 46 66
REMARK SMILES IDX 30 67 31 68 39 69 32 70 33 71 37 72 40 73 34 74 35 75 38 76
REMARK SMILES IDX 36 77 62 78 63 79 71 80 64 81 65 82 69 83 72 84 66 85 67 86
REMARK SMILES IDX 70 87 68 88 47 89 48 90 56 91 49 92 50 93 54 94 57 95 51 96
REMARK SMILES IDX 52 97 55 98 53 99
REMARK H PARENT 13 6 18 33 77 52 45 63
REMARK Flexibility Score: inf
ROOT
ATOM      1  C   UNL A   1      36.964  22.370  24.242  1.00  0.00     0.023 C 
ENDROOT
BRANCH   1   2
ATOM      2  C   UNL A   1      36.754  23.605  25.117  1.00  0.00     0.116 C 
BRANCH   2   3
ATOM      3  N   UNL A   1      35.573  23.491  25.945  1.00  0.00    -0.356 N 
ATOM      4  C   UNL A   1      34.381  24.143  25.803  1.00  0.00     0.224 C 
ATOM      5  O   UNL A   1      33.479  23.895  26.607  1.00  0.00    -0.275 OA
ATOM      6  H   UNL A   1      35.636  22.869  26.705  1.00  0.00     0.163 HD
BRANCH   4   7
ATOM      7  C   UNL A   1      34.169  25.099  24.636  1.00  0.00     0.138 C 
BRANCH   7   8
ATOM      8  C   UNL A   1      32.949  25.967  24.789  1.00  0.00    -0.009 A 
ATOM      9  C   UNL A   1      33.448  29.016  27.024  1.00  0.00     0.119 A 
ATOM     10  C   UNL A   1      32.141  29.469  26.957  1.00  0.00     0.048 A 
ATOM     11  C   UNL A   1      33.827  27.881  26.309  1.00  0.00     0.057 A 
ATOM     12  C   UNL A   1      31.186  28.784  26.201  1.00  0.00     0.031 A 
ATOM     13  C   UNL A   1      32.879  27.174  25.536  1.00  0.00     0.008 A 
ATOM     14  C   UNL A   1      31.567  27.650  25.454  1.00  0.00     0.057 A 
ATOM     15  N   UNL A   1      30.871  26.838  24.542  1.00  0.00    -0.280 N 
ATOM     16  C   UNL A   1      31.675  25.715  24.291  1.00  0.00     0.028 A 
ATOM     17  C   UNL A   1      31.216  24.486  23.566  1.00  0.00     0.065 C 
BRANCH   9  18
ATOM     18  O   UNL A   1      34.430  29.640  27.742  1.00  0.00    -0.497 OA
ATOM     19  C   UNL A   1      35.747  29.323  27.295  1.00  0.00     0.278 C 
ENDBRANCH   9  18
BRANCH  15  20
ATOM     20  C   UNL A   1      29.592  27.101  23.960  1.00  0.00     0.262 C 
ATOM     21  O   UNL A   1      28.674  26.322  24.150  1.00  0.00    -0.268 OA
BRANCH  20  22
ATOM     22  C   UNL A   1      29.277  28.269  23.113  1.00  0.00     0.040 A 
ATOM     23  C   UNL A   1      30.276  28.903  22.367  1.00  0.00     0.015 A 
ATOM     24  C   UNL A   1      27.961  28.742  23.102  1.00  0.00     0.015 A 
ATOM     25  C   UNL A   1      29.968  30.078  21.677  1.00  0.00     0.021 A 
ATOM     26  C   UNL A   1      27.658  29.911  22.401  1.00  0.00     0.021 A 
ATOM     27  C   UNL A   1      28.667  30.583  21.709  1.00  0.00     0.041 A 
ATOM     28  Cl  UNL A   1      28.306  32.064  20.911  1.00  0.00    -0.084 Cl
ENDBRANCH  20  22
ENDBRANCH  15  20
ENDBRANCH   7   8
ENDBRANCH   4   7
ENDBRANCH   2   3
ENDBRANCH   1   2
BRANCH   1  29
ATOM     29  C   UNL A   1      37.792  21.263  24.910  1.00  0.00     0.023 C 
BRANCH  29  30
ATOM     30  C   UNL A   1      38.640  21.746  26.089  1.00  0.00     0.116 C 
BRANCH  30  31
ATOM     31  N   UNL A   1      40.052  21.828  25.772  1.00  0.00    -0.352 N 
ATOM     32  C   UNL A   1      41.069  22.670  26.114  1.00  0.00     0.251 C 
ATOM     33  H   UNL A   1      40.346  21.106  25.171  1.00  0.00     0.163 HD
ATOM     34  O   UNL A   1      42.194  22.353  25.719  1.00  0.00    -0.269 OA
BRANCH  32  35
ATOM     35  C   UNL A   1      40.908  23.946  26.857  1.00  0.00     0.039 A 
ATOM     36  C   UNL A   1      39.965  24.934  26.576  1.00  0.00     0.014 A 
ATOM     37  C   UNL A   1      41.849  24.182  27.880  1.00  0.00     0.014 A 
ATOM     38  C   UNL A   1      40.017  26.160  27.220  1.00  0.00     0.010 A 
ATOM     39  C   UNL A   1      41.900  25.402  28.537  1.00  0.00     0.010 A 
ATOM     40  C   UNL A   1      41.015  26.406  28.160  1.00  0.00    -0.014 A 
BRANCH  40  41
ATOM     41  C   UNL A   1      41.057  27.734  28.748  1.00  0.00     0.031 A 
ATOM     42  C   UNL A   1      42.194  28.593  28.313  1.00  0.00     0.074 A 
ATOM     43  C   UNL A   1      40.085  28.178  29.568  1.00  0.00     0.049 A 
ATOM     44  N   UNL A   1      43.091  29.177  29.044  1.00  0.00    -0.248 NA
ATOM     45  C   UNL A   1      42.410  28.746  26.864  1.00  0.00     0.031 C 
ATOM     46  C   UNL A   1      38.799  27.550  29.878  1.00  0.00     0.029 A 
ATOM     47  N   UNL A   1      40.014  29.364  30.228  1.00  0.00    -0.354 N 
ATOM     48  C   UNL A   1      43.897  29.893  28.161  1.00  0.00     0.074 A 
ATOM     49  C   UNL A   1      43.506  29.503  26.831  1.00  0.00     0.031 C 
ATOM     50  C   UNL A   1      37.990  28.462  30.460  1.00  0.00     0.029 A 
ATOM     51  C   UNL A   1      38.745  29.685  30.677  1.00  0.00     0.049 A 
ATOM     52  H   UNL A   1      40.796  29.943  30.374  1.00  0.00     0.167 HD
ATOM     53  C   UNL A   1      44.712  30.903  28.577  1.00  0.00     0.037 A 
ATOM     54  C   UNL A   1      38.331  30.905  31.094  1.00  0.00     0.037 A 
ATOM     55  C   UNL A   1      45.022  30.802  29.975  1.00  0.00     0.049 A 
ATOM     56  C   UNL A   1      39.543  31.679  31.477  1.00  0.00     0.074 A 
ATOM     57  C   UNL A   1      45.667  29.855  30.747  1.00  0.00     0.029 A 
ATOM     58  N   UNL A   1      44.354  31.605  30.865  1.00  0.00    -0.354 N 
ATOM     59  N   UNL A   1      40.306  31.375  32.492  1.00  0.00    -0.248 NA
ATOM     60  C   UNL A   1      40.166  32.505  30.452  1.00  0.00     0.031 C 
ATOM     61  C   UNL A   1      44.937  29.824  31.972  1.00  0.00     0.029 A 
ATOM     62  C   UNL A   1      43.934  30.789  31.885  1.00  0.00     0.049 A 
ATOM     63  H   UNL A   1      44.206  32.576  30.787  1.00  0.00     0.167 HD
ATOM     64  C   UNL A   1      41.599  31.615  32.050  1.00  0.00     0.074 A 
ATOM     65  C   UNL A   1      41.445  32.377  30.813  1.00  0.00     0.031 C 
ATOM     66  C   UNL A   1      42.668  30.937  32.563  1.00  0.00     0.037 A 
BRANCH  53  67
ATOM     67  C   UNL A   1      44.983  32.141  27.766  1.00  0.00     0.064 A 
ATOM     68  C   UNL A   1      46.224  32.306  27.120  1.00  0.00     0.173 A 
ATOM     69  C   UNL A   1      44.170  33.294  27.832  1.00  0.00     0.173 A 
ATOM     70  F   UNL A   1      47.091  31.286  27.035  1.00  0.00    -0.203 F 
ATOM     71  C   UNL A   1      46.634  33.545  26.620  1.00  0.00     0.198 A 
ATOM     72  C   UNL A   1      44.559  34.514  27.286  1.00  0.00     0.198 A 
ATOM     73  F   UNL A   1      43.023  33.310  28.521  1.00  0.00    -0.203 F 
ATOM     74  F   UNL A   1      47.866  33.684  26.112  1.00  0.00    -0.200 F 
ATOM     75  C   UNL A   1      45.802  34.648  26.704  1.00  0.00     0.200 A 
ATOM     76  F   UNL A   1      43.748  35.576  27.399  1.00  0.00    -0.200 F 
ATOM     77  F   UNL A   1      46.214  35.848  26.272  1.00  0.00    -0.200 F 
ENDBRANCH  53  67
BRANCH  54  78
ATOM     78  C   UNL A   1      37.019  31.530  30.793  1.00  0.00     0.064 A 
ATOM     79  C   UNL A   1      36.105  31.841  31.810  1.00  0.00     0.173 A 
ATOM     80  C   UNL A   1      36.733  32.058  29.515  1.00  0.00     0.173 A 
ATOM     81  F   UNL A   1      36.331  31.434  33.067  1.00  0.00    -0.203 F 
ATOM     82  C   UNL A   1      34.973  32.629  31.562  1.00  0.00     0.198 A 
ATOM     83  C   UNL A   1      35.599  32.831  29.267  1.00  0.00     0.198 A 
ATOM     84  F   UNL A   1      37.593  31.911  28.498  1.00  0.00    -0.203 F 
ATOM     85  F   UNL A   1      34.147  32.948  32.569  1.00  0.00    -0.200 F 
ATOM     86  C   UNL A   1      34.723  33.124  30.292  1.00  0.00     0.200 A 
ATOM     87  F   UNL A   1      35.395  33.333  28.041  1.00  0.00    -0.200 F 
ATOM     88  F   UNL A   1      33.665  33.915  30.065  1.00  0.00    -0.200 F 
ENDBRANCH  54  78
BRANCH  66  89
ATOM     89  C   UNL A   1      42.447  30.055  33.761  1.00  0.00     0.064 A 
ATOM     90  C   UNL A   1      42.015  28.720  33.669  1.00  0.00     0.173 A 
ATOM     91  C   UNL A   1      42.887  30.500  35.015  1.00  0.00     0.173 A 
ATOM     92  F   UNL A   1      41.681  28.184  32.489  1.00  0.00    -0.203 F 
ATOM     93  C   UNL A   1      41.998  27.882  34.782  1.00  0.00     0.198 A 
ATOM     94  C   UNL A   1      42.902  29.651  36.120  1.00  0.00     0.198 A 
ATOM     95  F   UNL A   1      43.371  31.745  35.155  1.00  0.00    -0.203 F 
ATOM     96  F   UNL A   1      41.588  26.610  34.661  1.00  0.00    -0.200 F 
ATOM     97  C   UNL A   1      42.452  28.346  36.004  1.00  0.00     0.200 A 
ATOM     98  F   UNL A   1      43.395  30.086  37.287  1.00  0.00    -0.200 F 
ATOM     99  F   UNL A   1      42.492  27.523  37.062  1.00  0.00    -0.200 F 
ENDBRANCH  66  89
ENDBRANCH  40  41
ENDBRANCH  32  35
ENDBRANCH  30  31
ENDBRANCH  29  30
ENDBRANCH   1  29
TORSDOF 15
ENDMDL
