MODEL 1
REMARK VINA RESULT:     -13.3      0.000      0.000
REMARK SMILES CCSc1ccc(-c2cc(Cl)cc3c2O[C@H](C(F)(F)F)C(C(=O)NCCCCNC(=O)c2ccc(-c4c5nc(c(-c6c(F)c(F)c(F)c(F)c6F)c6ccc([nH]6)c(-c6c(F)c(F)c(F)c(F)c6F)c6nc(c(-c7c(F)c(F)c(F)c(F)c7F)c7ccc4[nH]7)C=C6)C=C5)cc2)=C3)cc1
REMARK SMILES IDX 26 1 25 2 24 3 22 4 23 5 21 7 8 8 9 9 14 10 10 11 13 12
REMARK SMILES IDX 15 13 11 14 12 15 95 16 16 17 7 18 4 19 5 20 97 21 6 22
REMARK SMILES IDX 96 23 3 24 2 25 1 26 17 27 18 28 19 29 20 30 27 31 28 32
REMARK SMILES IDX 29 33 30 34 31 36 32 37 33 38 94 39 34 40 93 41 35 42 36 43
REMARK SMILES IDX 37 44 87 45 38 46 92 47 86 48 88 49 39 50 91 51 85 52 84 53
REMARK SMILES IDX 40 55 72 56 52 57 71 58 53 59 56 60 70 61 89 62 54 63 55 64
REMARK SMILES IDX 69 66 90 67 57 68 41 69 42 70 50 71 43 72 44 73 48 74 51 75
REMARK SMILES IDX 45 76 46 77 49 78 47 79 73 80 74 81 82 82 75 83 76 84 80 85
REMARK SMILES IDX 83 86 77 87 78 88 81 89 79 90 58 91 59 92 67 93 60 94 61 95
REMARK SMILES IDX 65 96 68 97 62 98 63 99 66 100 64 101
REMARK H PARENT 24 6 29 35 88 54 56 65
REMARK Flexibility Score: inf
ROOT
ATOM      1  C   UNL A   1      31.648  30.511  26.498  1.00  0.00     0.023 C 
ENDROOT
BRANCH   1   2
ATOM      2  C   UNL A   1      33.004  29.869  26.173  1.00  0.00     0.116 C 
BRANCH   2   3
ATOM      3  N   UNL A   1      33.057  28.540  26.739  1.00  0.00    -0.352 N 
ATOM      4  C   UNL A   1      32.384  27.422  26.391  1.00  0.00     0.251 C 
ATOM      5  O   UNL A   1      32.177  26.583  27.263  1.00  0.00    -0.270 OA
ATOM      6  H   UNL A   1      33.679  28.433  27.494  1.00  0.00     0.163 HD
BRANCH   4   7
ATOM      7  C   UNL A   1      32.023  27.211  24.956  1.00  0.00     0.067 C 
ATOM      8  C   UNL A   1      32.881  23.245  24.699  1.00  0.00     0.026 A 
ATOM      9  C   UNL A   1      34.140  23.047  25.322  1.00  0.00     0.033 A 
ATOM     10  C   UNL A   1      32.525  24.572  24.413  1.00  0.00     0.135 A 
ATOM     11  C   UNL A   1      35.062  24.077  25.487  1.00  0.00     0.042 A 
ATOM     12  C   UNL A   1      33.516  25.582  24.477  1.00  0.00     0.019 A 
ATOM     13  O   UNL A   1      31.226  24.958  24.121  1.00  0.00    -0.475 OA
ATOM     14  Cl  UNL A   1      36.556  23.769  26.278  1.00  0.00    -0.084 Cl
ATOM     15  C   UNL A   1      34.786  25.338  24.993  1.00  0.00     0.032 A 
ATOM     16  C   UNL A   1      33.100  26.971  24.181  1.00  0.00     0.025 C 
ATOM     17  C   UNL A   1      30.843  26.266  24.732  1.00  0.00     0.314 C 
BRANCH   8  18
ATOM     18  C   UNL A   1      32.226  22.003  24.217  1.00  0.00    -0.015 A 
ATOM     19  C   UNL A   1      32.223  19.372  23.131  1.00  0.00     0.007 A 
ATOM     20  C   UNL A   1      32.164  19.579  24.513  1.00  0.00     0.015 A 
ATOM     21  C   UNL A   1      32.153  20.486  22.293  1.00  0.00     0.015 A 
ATOM     22  C   UNL A   1      32.140  20.874  25.050  1.00  0.00     0.010 A 
ATOM     23  C   UNL A   1      32.133  21.787  22.830  1.00  0.00     0.010 A 
BRANCH  19  24
ATOM     24  S   UNL A   1      32.564  17.704  22.584  1.00  0.00    -0.126 SA
BRANCH  24  25
ATOM     25  C   UNL A   1      33.223  16.866  24.061  1.00  0.00     0.071 C 
ATOM     26  C   UNL A   1      34.727  17.027  24.165  1.00  0.00     0.016 C 
ENDBRANCH  24  25
ENDBRANCH  19  24
ENDBRANCH   8  18
BRANCH  17  27
ATOM     27  C   UNL A   1      29.780  26.995  23.880  1.00  0.00     0.429 C 
ATOM     28  F   UNL A   1      29.993  26.864  22.552  1.00  0.00    -0.167 F 
ATOM     29  F   UNL A   1      28.536  26.530  24.147  1.00  0.00    -0.167 F 
ATOM     30  F   UNL A   1      29.745  28.331  24.133  1.00  0.00    -0.167 F 
ENDBRANCH  17  27
ENDBRANCH   4   7
ENDBRANCH   2   3
ENDBRANCH   1   2
BRANCH   1  31
ATOM     31  C   UNL A   1      31.633  32.048  26.498  1.00  0.00     0.023 C 
BRANCH  31  32
ATOM     32  C   UNL A   1      32.703  32.700  27.366  1.00  0.00     0.116 C 
BRANCH  32  33
ATOM     33  N   UNL A   1      32.408  34.098  27.632  1.00  0.00    -0.352 N 
ATOM     34  C   UNL A   1      32.969  34.946  28.554  1.00  0.00     0.251 C 
ATOM     35  H   UNL A   1      31.705  34.496  27.069  1.00  0.00     0.163 HD
ATOM     36  O   UNL A   1      32.458  36.042  28.779  1.00  0.00    -0.269 OA
BRANCH  34  37
ATOM     37  C   UNL A   1      34.171  34.529  29.306  1.00  0.00     0.039 A 
ATOM     38  C   UNL A   1      34.017  34.002  30.590  1.00  0.00     0.014 A 
ATOM     39  C   UNL A   1      35.445  34.641  28.740  1.00  0.00     0.014 A 
ATOM     40  C   UNL A   1      35.130  33.500  31.270  1.00  0.00     0.010 A 
ATOM     41  C   UNL A   1      36.542  34.081  29.390  1.00  0.00     0.010 A 
ATOM     42  C   UNL A   1      36.391  33.486  30.653  1.00  0.00    -0.014 A 
BRANCH  42  43
ATOM     43  C   UNL A   1      37.550  32.797  31.280  1.00  0.00     0.031 A 
ATOM     44  C   UNL A   1      38.196  31.620  30.606  1.00  0.00     0.074 A 
ATOM     45  C   UNL A   1      37.954  33.177  32.509  1.00  0.00     0.049 A 
ATOM     46  N   UNL A   1      39.141  30.830  31.051  1.00  0.00    -0.248 NA
ATOM     47  C   UNL A   1      37.701  31.269  29.266  1.00  0.00     0.031 C 
ATOM     48  C   UNL A   1      37.372  34.272  33.289  1.00  0.00     0.029 A 
ATOM     49  N   UNL A   1      38.932  32.670  33.331  1.00  0.00    -0.354 N 
ATOM     50  C   UNL A   1      39.338  29.880  30.058  1.00  0.00     0.074 A 
ATOM     51  C   UNL A   1      38.393  30.170  29.000  1.00  0.00     0.031 C 
ATOM     52  C   UNL A   1      38.002  34.354  34.471  1.00  0.00     0.029 A 
ATOM     53  C   UNL A   1      39.000  33.293  34.555  1.00  0.00     0.049 A 
ATOM     54  H   UNL A   1      39.527  31.931  33.069  1.00  0.00     0.167 HD
ATOM     55  C   UNL A   1      40.236  28.866  30.029  1.00  0.00     0.037 A 
ATOM     56  C   UNL A   1      39.758  33.022  35.635  1.00  0.00     0.037 A 
ATOM     57  C   UNL A   1      41.197  28.604  31.069  1.00  0.00     0.049 A 
ATOM     58  C   UNL A   1      40.737  31.879  35.578  1.00  0.00     0.074 A 
ATOM     59  C   UNL A   1      42.218  27.669  31.081  1.00  0.00     0.029 A 
ATOM     60  N   UNL A   1      41.246  29.266  32.287  1.00  0.00    -0.354 N 
ATOM     61  N   UNL A   1      40.986  31.054  34.591  1.00  0.00    -0.248 NA
ATOM     62  C   UNL A   1      41.538  31.628  36.784  1.00  0.00     0.031 C 
ATOM     63  C   UNL A   1      42.843  27.721  32.330  1.00  0.00     0.029 A 
ATOM     64  C   UNL A   1      42.248  28.726  33.076  1.00  0.00     0.049 A 
ATOM     65  H   UNL A   1      40.657  30.010  32.551  1.00  0.00     0.167 HD
ATOM     66  C   UNL A   1      41.979  30.199  35.049  1.00  0.00     0.074 A 
ATOM     67  C   UNL A   1      42.307  30.621  36.394  1.00  0.00     0.031 C 
ATOM     68  C   UNL A   1      42.563  29.154  34.416  1.00  0.00     0.037 A 
BRANCH  55  69
ATOM     69  C   UNL A   1      40.234  27.952  28.839  1.00  0.00     0.064 A 
ATOM     70  C   UNL A   1      40.941  28.262  27.669  1.00  0.00     0.173 A 
ATOM     71  C   UNL A   1      39.586  26.708  28.906  1.00  0.00     0.173 A 
ATOM     72  F   UNL A   1      41.572  29.440  27.552  1.00  0.00    -0.203 F 
ATOM     73  C   UNL A   1      40.986  27.368  26.602  1.00  0.00     0.198 A 
ATOM     74  C   UNL A   1      39.657  25.806  27.849  1.00  0.00     0.198 A 
ATOM     75  F   UNL A   1      38.903  26.360  30.006  1.00  0.00    -0.203 F 
ATOM     76  F   UNL A   1      41.641  27.697  25.480  1.00  0.00    -0.200 F 
ATOM     77  C   UNL A   1      40.354  26.136  26.697  1.00  0.00     0.200 A 
ATOM     78  F   UNL A   1      39.059  24.610  27.950  1.00  0.00    -0.200 F 
ATOM     79  F   UNL A   1      40.414  25.269  25.677  1.00  0.00    -0.200 F 
ENDBRANCH  55  69
BRANCH  56  80
ATOM     80  C   UNL A   1      39.608  33.830  36.876  1.00  0.00     0.064 A 
ATOM     81  C   UNL A   1      38.767  33.411  37.916  1.00  0.00     0.173 A 
ATOM     82  C   UNL A   1      40.282  35.051  37.035  1.00  0.00     0.173 A 
ATOM     83  F   UNL A   1      38.083  32.262  37.802  1.00  0.00    -0.203 F 
ATOM     84  C   UNL A   1      38.582  34.196  39.053  1.00  0.00     0.198 A 
ATOM     85  C   UNL A   1      40.123  35.817  38.187  1.00  0.00     0.198 A 
ATOM     86  F   UNL A   1      41.102  35.496  36.072  1.00  0.00    -0.203 F 
ATOM     87  F   UNL A   1      37.726  33.798  40.004  1.00  0.00    -0.200 F 
ATOM     88  C   UNL A   1      39.264  35.395  39.190  1.00  0.00     0.200 A 
ATOM     89  F   UNL A   1      40.796  36.967  38.322  1.00  0.00    -0.200 F 
ATOM     90  F   UNL A   1      39.085  36.148  40.283  1.00  0.00    -0.200 F 
ENDBRANCH  56  80
BRANCH  68  91
ATOM     91  C   UNL A   1      43.621  28.395  35.161  1.00  0.00     0.064 A 
ATOM     92  C   UNL A   1      44.948  28.846  35.207  1.00  0.00     0.173 A 
ATOM     93  C   UNL A   1      43.294  27.239  35.887  1.00  0.00     0.173 A 
ATOM     94  F   UNL A   1      45.314  29.937  34.516  1.00  0.00    -0.203 F 
ATOM     95  C   UNL A   1      45.913  28.159  35.938  1.00  0.00     0.198 A 
ATOM     96  C   UNL A   1      44.255  26.573  36.642  1.00  0.00     0.198 A 
ATOM     97  F   UNL A   1      42.038  26.769  35.881  1.00  0.00    -0.203 F 
ATOM     98  F   UNL A   1      47.183  28.587  35.934  1.00  0.00    -0.200 F 
ATOM     99  C   UNL A   1      45.564  27.030  36.663  1.00  0.00     0.200 A 
ATOM    100  F   UNL A   1      43.912  25.490  37.355  1.00  0.00    -0.200 F 
ATOM    101  F   UNL A   1      46.491  26.379  37.380  1.00  0.00    -0.200 F 
ENDBRANCH  68  91
ENDBRANCH  42  43
ENDBRANCH  34  37
ENDBRANCH  32  33
ENDBRANCH  31  32
ENDBRANCH   1  31
TORSDOF 15
ENDMDL
MODEL 2
REMARK VINA RESULT:     -13.1      0.564      7.110
REMARK SMILES CCSc1ccc(-c2cc(Cl)cc3c2O[C@H](C(F)(F)F)C(C(=O)NCCCCNC(=O)c2ccc(-c4c5nc(c(-c6c(F)c(F)c(F)c(F)c6F)c6ccc([nH]6)c(-c6c(F)c(F)c(F)c(F)c6F)c6nc(c(-c7c(F)c(F)c(F)c(F)c7F)c7ccc4[nH]7)C=C6)C=C5)cc2)=C3)cc1
REMARK SMILES IDX 26 1 25 2 24 3 22 4 23 5 21 7 8 8 9 9 14 10 10 11 13 12
REMARK SMILES IDX 15 13 11 14 12 15 95 16 16 17 7 18 4 19 5 20 97 21 6 22
REMARK SMILES IDX 96 23 3 24 2 25 1 26 17 27 18 28 19 29 20 30 27 31 28 32
REMARK SMILES IDX 29 33 30 34 31 36 32 37 33 38 94 39 34 40 93 41 35 42 36 43
REMARK SMILES IDX 37 44 87 45 38 46 92 47 86 48 88 49 39 50 91 51 85 52 84 53
REMARK SMILES IDX 40 55 72 56 52 57 71 58 53 59 56 60 70 61 89 62 54 63 55 64
REMARK SMILES IDX 69 66 90 67 57 68 41 69 42 70 50 71 43 72 44 73 48 74 51 75
REMARK SMILES IDX 45 76 46 77 49 78 47 79 73 80 74 81 82 82 75 83 76 84 80 85
REMARK SMILES IDX 83 86 77 87 78 88 81 89 79 90 58 91 59 92 67 93 60 94 61 95
REMARK SMILES IDX 65 96 68 97 62 98 63 99 66 100 64 101
REMARK H PARENT 24 6 29 35 88 54 56 65
REMARK Flexibility Score: inf
ROOT
ATOM      1  C   UNL A   1      31.615  30.573  25.980  1.00  0.00     0.023 C 
ENDROOT
BRANCH   1   2
ATOM      2  C   UNL A   1      33.041  30.007  26.052  1.00  0.00     0.116 C 
BRANCH   2   3
ATOM      3  N   UNL A   1      33.009  28.693  26.653  1.00  0.00    -0.352 N 
ATOM      4  C   UNL A   1      32.308  27.594  26.298  1.00  0.00     0.251 C 
ATOM      5  O   UNL A   1      32.023  26.788  27.179  1.00  0.00    -0.270 OA
ATOM      6  H   UNL A   1      33.587  28.582  27.442  1.00  0.00     0.163 HD
BRANCH   4   7
ATOM      7  C   UNL A   1      32.013  27.359  24.852  1.00  0.00     0.067 C 
ATOM      8  C   UNL A   1      32.845  23.382  24.709  1.00  0.00     0.026 A 
ATOM      9  C   UNL A   1      34.072  23.185  25.395  1.00  0.00     0.033 A 
ATOM     10  C   UNL A   1      32.515  24.706  24.382  1.00  0.00     0.135 A 
ATOM     11  C   UNL A   1      34.995  24.210  25.583  1.00  0.00     0.042 A 
ATOM     12  C   UNL A   1      33.511  25.708  24.474  1.00  0.00     0.019 A 
ATOM     13  O   UNL A   1      31.235  25.097  24.023  1.00  0.00    -0.475 OA
ATOM     14  Cl  UNL A   1      36.447  23.905  26.449  1.00  0.00    -0.084 Cl
ATOM     15  C   UNL A   1      34.754  25.464  25.053  1.00  0.00     0.032 A 
ATOM     16  C   UNL A   1      33.123  27.095  24.133  1.00  0.00     0.025 C 
ATOM     17  C   UNL A   1      30.836  26.420  24.591  1.00  0.00     0.314 C 
BRANCH   8  18
ATOM     18  C   UNL A   1      32.202  22.137  24.220  1.00  0.00    -0.015 A 
ATOM     19  C   UNL A   1      32.218  19.545  23.043  1.00  0.00     0.007 A 
ATOM     20  C   UNL A   1      32.231  19.703  24.433  1.00  0.00     0.015 A 
ATOM     21  C   UNL A   1      32.067  20.684  22.251  1.00  0.00     0.015 A 
ATOM     22  C   UNL A   1      32.198  20.977  25.016  1.00  0.00     0.010 A 
ATOM     23  C   UNL A   1      32.038  21.965  22.834  1.00  0.00     0.010 A 
BRANCH  19  24
ATOM     24  S   UNL A   1      32.578  17.908  22.418  1.00  0.00    -0.126 SA
BRANCH  24  25
ATOM     25  C   UNL A   1      33.954  17.319  23.455  1.00  0.00     0.071 C 
ATOM     26  C   UNL A   1      33.514  16.197  24.374  1.00  0.00     0.016 C 
ENDBRANCH  24  25
ENDBRANCH  19  24
ENDBRANCH   8  18
BRANCH  17  27
ATOM     27  C   UNL A   1      29.821  27.141  23.677  1.00  0.00     0.429 C 
ATOM     28  F   UNL A   1      28.583  26.604  23.742  1.00  0.00    -0.167 F 
ATOM     29  F   UNL A   1      29.719  28.453  24.000  1.00  0.00    -0.167 F 
ATOM     30  F   UNL A   1      30.189  27.104  22.368  1.00  0.00    -0.167 F 
ENDBRANCH  17  27
ENDBRANCH   4   7
ENDBRANCH   2   3
ENDBRANCH   1   2
BRANCH   1  31
ATOM     31  C   UNL A   1      31.393  31.889  26.742  1.00  0.00     0.023 C 
BRANCH  31  32
ATOM     32  C   UNL A   1      32.666  32.560  27.247  1.00  0.00     0.116 C 
BRANCH  32  33
ATOM     33  N   UNL A   1      32.462  33.975  27.515  1.00  0.00    -0.352 N 
ATOM     34  C   UNL A   1      33.047  34.773  28.467  1.00  0.00     0.251 C 
ATOM     35  H   UNL A   1      31.812  34.426  26.930  1.00  0.00     0.163 HD
ATOM     36  O   UNL A   1      32.608  35.901  28.683  1.00  0.00    -0.269 OA
BRANCH  34  37
ATOM     37  C   UNL A   1      34.186  34.264  29.259  1.00  0.00     0.039 A 
ATOM     38  C   UNL A   1      33.931  33.605  30.464  1.00  0.00     0.014 A 
ATOM     39  C   UNL A   1      35.500  34.421  28.809  1.00  0.00     0.014 A 
ATOM     40  C   UNL A   1      34.985  33.019  31.170  1.00  0.00     0.010 A 
ATOM     41  C   UNL A   1      36.541  33.782  29.477  1.00  0.00     0.010 A 
ATOM     42  C   UNL A   1      36.291  33.058  30.654  1.00  0.00    -0.014 A 
BRANCH  42  43
ATOM     43  C   UNL A   1      37.395  32.292  31.290  1.00  0.00     0.031 A 
ATOM     44  C   UNL A   1      37.942  32.707  32.627  1.00  0.00     0.074 A 
ATOM     45  C   UNL A   1      37.970  31.279  30.611  1.00  0.00     0.049 A 
ATOM     46  N   UNL A   1      38.970  32.230  33.283  1.00  0.00    -0.248 NA
ATOM     47  C   UNL A   1      37.260  33.820  33.306  1.00  0.00     0.031 C 
ATOM     48  C   UNL A   1      37.563  30.815  29.282  1.00  0.00     0.029 A 
ATOM     49  N   UNL A   1      39.035  30.472  30.930  1.00  0.00    -0.354 N 
ATOM     50  C   UNL A   1      39.070  32.994  34.437  1.00  0.00     0.074 A 
ATOM     51  C   UNL A   1      38.020  33.988  34.380  1.00  0.00     0.031 C 
ATOM     52  C   UNL A   1      38.365  29.809  28.902  1.00  0.00     0.029 A 
ATOM     53  C   UNL A   1      39.372  29.584  29.935  1.00  0.00     0.049 A 
ATOM     54  H   UNL A   1      39.513  30.524  31.788  1.00  0.00     0.167 HD
ATOM     55  C   UNL A   1      39.952  32.865  35.458  1.00  0.00     0.037 A 
ATOM     56  C   UNL A   1      40.392  28.709  29.849  1.00  0.00     0.037 A 
ATOM     57  C   UNL A   1      40.972  31.852  35.525  1.00  0.00     0.049 A 
ATOM     58  C   UNL A   1      41.364  28.600  30.993  1.00  0.00     0.074 A 
ATOM     59  C   UNL A   1      41.842  31.575  36.566  1.00  0.00     0.029 A 
ATOM     60  N   UNL A   1      41.273  30.961  34.505  1.00  0.00    -0.354 N 
ATOM     61  N   UNL A   1      41.383  29.259  32.126  1.00  0.00    -0.248 NA
ATOM     62  C   UNL A   1      42.459  27.630  30.846  1.00  0.00     0.031 C 
ATOM     63  C   UNL A   1      42.709  30.560  36.153  1.00  0.00     0.029 A 
ATOM     64  C   UNL A   1      42.345  30.166  34.875  1.00  0.00     0.049 A 
ATOM     65  H   UNL A   1      40.794  30.901  33.647  1.00  0.00     0.167 HD
ATOM     66  C   UNL A   1      42.476  28.773  32.831  1.00  0.00     0.074 A 
ATOM     67  C   UNL A   1      43.082  27.747  32.010  1.00  0.00     0.031 C 
ATOM     68  C   UNL A   1      42.941  29.149  34.047  1.00  0.00     0.037 A 
BRANCH  55  69
ATOM     69  C   UNL A   1      39.866  33.841  36.594  1.00  0.00     0.064 A 
ATOM     70  C   UNL A   1      39.050  33.605  37.710  1.00  0.00     0.173 A 
ATOM     71  C   UNL A   1      40.679  34.986  36.605  1.00  0.00     0.173 A 
ATOM     72  F   UNL A   1      38.250  32.529  37.746  1.00  0.00    -0.203 F 
ATOM     73  C   UNL A   1      39.039  34.488  38.788  1.00  0.00     0.198 A 
ATOM     74  C   UNL A   1      40.685  35.850  37.696  1.00  0.00     0.198 A 
ATOM     75  F   UNL A   1      41.484  35.253  35.566  1.00  0.00    -0.203 F 
ATOM     76  F   UNL A   1      38.228  34.260  39.830  1.00  0.00    -0.200 F 
ATOM     77  C   UNL A   1      39.864  35.603  38.785  1.00  0.00     0.200 A 
ATOM     78  F   UNL A   1      41.496  36.918  37.697  1.00  0.00    -0.200 F 
ATOM     79  F   UNL A   1      39.866  36.441  39.831  1.00  0.00    -0.200 F 
ENDBRANCH  55  69
BRANCH  56  80
ATOM     80  C   UNL A   1      40.566  27.881  28.625  1.00  0.00     0.064 A 
ATOM     81  C   UNL A   1      41.320  28.344  27.538  1.00  0.00     0.173 A 
ATOM     82  C   UNL A   1      39.958  26.622  28.507  1.00  0.00     0.173 A 
ATOM     83  F   UNL A   1      41.902  29.551  27.592  1.00  0.00    -0.203 F 
ATOM     84  C   UNL A   1      41.435  27.593  26.369  1.00  0.00     0.198 A 
ATOM     85  C   UNL A   1      40.104  25.857  27.351  1.00  0.00     0.198 A 
ATOM     86  F   UNL A   1      39.230  26.129  29.519  1.00  0.00    -0.203 F 
ATOM     87  F   UNL A   1      42.113  28.086  25.324  1.00  0.00    -0.200 F 
ATOM     88  C   UNL A   1      40.832  26.348  26.279  1.00  0.00     0.200 A 
ATOM     89  F   UNL A   1      39.531  24.648  27.275  1.00  0.00    -0.200 F 
ATOM     90  F   UNL A   1      40.943  25.627  25.155  1.00  0.00    -0.200 F 
ENDBRANCH  56  80
BRANCH  68  91
ATOM     91  C   UNL A   1      44.158  28.445  34.571  1.00  0.00     0.064 A 
ATOM     92  C   UNL A   1      45.444  28.976  34.390  1.00  0.00     0.173 A 
ATOM     93  C   UNL A   1      44.034  27.260  35.312  1.00  0.00     0.173 A 
ATOM     94  F   UNL A   1      45.617  30.097  33.674  1.00  0.00    -0.203 F 
ATOM     95  C   UNL A   1      46.562  28.337  34.918  1.00  0.00     0.198 A 
ATOM     96  C   UNL A   1      45.151  26.642  35.866  1.00  0.00     0.198 A 
ATOM     97  F   UNL A   1      42.826  26.715  35.519  1.00  0.00    -0.203 F 
ATOM     98  F   UNL A   1      47.784  28.841  34.698  1.00  0.00    -0.200 F 
ATOM     99  C   UNL A   1      46.414  27.177  35.664  1.00  0.00     0.200 A 
ATOM    100  F   UNL A   1      45.005  25.529  36.599  1.00  0.00    -0.200 F 
ATOM    101  F   UNL A   1      47.491  26.573  36.186  1.00  0.00    -0.200 F 
ENDBRANCH  68  91
ENDBRANCH  42  43
ENDBRANCH  34  37
ENDBRANCH  32  33
ENDBRANCH  31  32
ENDBRANCH   1  31
TORSDOF 15
ENDMDL
MODEL 3
REMARK VINA RESULT:     -12.8      5.848     11.127
REMARK SMILES CCSc1ccc(-c2cc(Cl)cc3c2O[C@H](C(F)(F)F)C(C(=O)NCCCCNC(=O)c2ccc(-c4c5nc(c(-c6c(F)c(F)c(F)c(F)c6F)c6ccc([nH]6)c(-c6c(F)c(F)c(F)c(F)c6F)c6nc(c(-c7c(F)c(F)c(F)c(F)c7F)c7ccc4[nH]7)C=C6)C=C5)cc2)=C3)cc1
REMARK SMILES IDX 26 1 25 2 24 3 22 4 23 5 21 7 8 8 9 9 14 10 10 11 13 12
REMARK SMILES IDX 15 13 11 14 12 15 95 16 16 17 7 18 4 19 5 20 97 21 6 22
REMARK SMILES IDX 96 23 3 24 2 25 1 26 17 27 18 28 19 29 20 30 27 31 28 32
REMARK SMILES IDX 29 33 30 34 31 36 32 37 33 38 94 39 34 40 93 41 35 42 36 43
REMARK SMILES IDX 37 44 87 45 38 46 92 47 86 48 88 49 39 50 91 51 85 52 84 53
REMARK SMILES IDX 40 55 72 56 52 57 71 58 53 59 56 60 70 61 89 62 54 63 55 64
REMARK SMILES IDX 69 66 90 67 57 68 41 69 42 70 50 71 43 72 44 73 48 74 51 75
REMARK SMILES IDX 45 76 46 77 49 78 47 79 73 80 74 81 82 82 75 83 76 84 80 85
REMARK SMILES IDX 83 86 77 87 78 88 81 89 79 90 58 91 59 92 67 93 60 94 61 95
REMARK SMILES IDX 65 96 68 97 62 98 63 99 66 100 64 101
REMARK H PARENT 24 6 29 35 88 54 56 65
REMARK Flexibility Score: inf
ROOT
ATOM      1  C   UNL A   1      36.874  20.941  25.009  1.00  0.00     0.023 C 
ENDROOT
BRANCH   1   2
ATOM      2  C   UNL A   1      35.541  20.198  25.169  1.00  0.00     0.116 C 
BRANCH   2   3
ATOM      3  N   UNL A   1      34.672  20.948  26.047  1.00  0.00    -0.352 N 
ATOM      4  C   UNL A   1      34.029  22.118  25.840  1.00  0.00     0.251 C 
ATOM      5  O   UNL A   1      33.784  22.818  26.818  1.00  0.00    -0.270 OA
ATOM      6  H   UNL A   1      34.526  20.544  26.933  1.00  0.00     0.163 HD
BRANCH   4   7
ATOM      7  C   UNL A   1      33.555  22.449  24.462  1.00  0.00     0.067 C 
ATOM      8  C   UNL A   1      30.538  24.985  25.459  1.00  0.00     0.026 A 
ATOM      9  C   UNL A   1      29.808  24.376  26.512  1.00  0.00     0.033 A 
ATOM     10  C   UNL A   1      31.440  24.165  24.764  1.00  0.00     0.135 A 
ATOM     11  C   UNL A   1      29.836  23.003  26.743  1.00  0.00     0.042 A 
ATOM     12  C   UNL A   1      31.365  22.761  24.932  1.00  0.00     0.019 A 
ATOM     13  O   UNL A   1      32.446  24.667  23.954  1.00  0.00    -0.475 OA
ATOM     14  Cl  UNL A   1      28.950  22.339  28.056  1.00  0.00    -0.084 Cl
ATOM     15  C   UNL A   1      30.556  22.175  25.903  1.00  0.00     0.032 A 
ATOM     16  C   UNL A   1      32.340  21.928  24.193  1.00  0.00     0.025 C 
ATOM     17  C   UNL A   1      33.731  23.915  24.067  1.00  0.00     0.314 C 
BRANCH   8  18
ATOM     18  C   UNL A   1      30.068  26.342  25.083  1.00  0.00    -0.015 A 
ATOM     19  C   UNL A   1      29.881  28.593  23.351  1.00  0.00     0.007 A 
ATOM     20  C   UNL A   1      28.897  27.599  23.346  1.00  0.00     0.015 A 
ATOM     21  C   UNL A   1      30.888  28.521  24.315  1.00  0.00     0.015 A 
ATOM     22  C   UNL A   1      28.973  26.502  24.214  1.00  0.00     0.010 A 
ATOM     23  C   UNL A   1      30.968  27.418  25.186  1.00  0.00     0.010 A 
BRANCH  19  24
ATOM     24  S   UNL A   1      29.846  29.764  21.998  1.00  0.00    -0.126 SA
BRANCH  24  25
ATOM     25  C   UNL A   1      28.217  30.567  22.134  1.00  0.00     0.071 C 
ATOM     26  C   UNL A   1      28.058  31.276  23.465  1.00  0.00     0.016 C 
ENDBRANCH  24  25
ENDBRANCH  19  24
ENDBRANCH   8  18
BRANCH  17  27
ATOM     27  C   UNL A   1      34.538  23.979  22.751  1.00  0.00     0.429 C 
ATOM     28  F   UNL A   1      33.947  23.304  21.740  1.00  0.00    -0.167 F 
ATOM     29  F   UNL A   1      34.711  25.260  22.346  1.00  0.00    -0.167 F 
ATOM     30  F   UNL A   1      35.786  23.455  22.886  1.00  0.00    -0.167 F 
ENDBRANCH  17  27
ENDBRANCH   4   7
ENDBRANCH   2   3
ENDBRANCH   1   2
BRANCH   1  31
ATOM     31  C   UNL A   1      38.109  20.042  24.843  1.00  0.00     0.023 C 
BRANCH  31  32
ATOM     32  C   UNL A   1      39.222  20.286  25.857  1.00  0.00     0.116 C 
BRANCH  32  33
ATOM     33  N   UNL A   1      40.160  19.177  25.910  1.00  0.00    -0.352 N 
ATOM     34  C   UNL A   1      41.523  19.197  26.081  1.00  0.00     0.251 C 
ATOM     35  H   UNL A   1      39.762  18.282  25.810  1.00  0.00     0.163 HD
ATOM     36  O   UNL A   1      42.183  18.176  25.899  1.00  0.00    -0.269 OA
BRANCH  34  37
ATOM     37  C   UNL A   1      42.202  20.455  26.451  1.00  0.00     0.039 A 
ATOM     38  C   UNL A   1      42.757  21.247  25.443  1.00  0.00     0.014 A 
ATOM     39  C   UNL A   1      42.278  20.864  27.786  1.00  0.00     0.014 A 
ATOM     40  C   UNL A   1      43.304  22.492  25.762  1.00  0.00     0.010 A 
ATOM     41  C   UNL A   1      42.762  22.132  28.095  1.00  0.00     0.010 A 
ATOM     42  C   UNL A   1      43.262  22.967  27.083  1.00  0.00    -0.014 A 
BRANCH  42  43
ATOM     43  C   UNL A   1      43.672  24.357  27.417  1.00  0.00     0.031 A 
ATOM     44  C   UNL A   1      42.656  25.364  27.877  1.00  0.00     0.074 A 
ATOM     45  C   UNL A   1      44.950  24.733  27.209  1.00  0.00     0.049 A 
ATOM     46  N   UNL A   1      42.808  26.644  28.107  1.00  0.00    -0.248 NA
ATOM     47  C   UNL A   1      41.284  24.876  28.083  1.00  0.00     0.031 C 
ATOM     48  C   UNL A   1      46.018  23.861  26.714  1.00  0.00     0.029 A 
ATOM     49  N   UNL A   1      45.565  25.953  27.361  1.00  0.00    -0.354 N 
ATOM     50  C   UNL A   1      41.553  27.116  28.464  1.00  0.00     0.074 A 
ATOM     51  C   UNL A   1      40.641  25.994  28.388  1.00  0.00     0.031 C 
ATOM     52  C   UNL A   1      47.151  24.570  26.605  1.00  0.00     0.029 A 
ATOM     53  C   UNL A   1      46.885  25.956  26.976  1.00  0.00     0.049 A 
ATOM     54  H   UNL A   1      45.103  26.749  27.711  1.00  0.00     0.167 HD
ATOM     55  C   UNL A   1      41.199  28.371  28.833  1.00  0.00     0.037 A 
ATOM     56  C   UNL A   1      47.773  26.966  26.901  1.00  0.00     0.037 A 
ATOM     57  C   UNL A   1      42.117  29.474  28.939  1.00  0.00     0.049 A 
ATOM     58  C   UNL A   1      47.345  28.352  27.304  1.00  0.00     0.074 A 
ATOM     59  C   UNL A   1      41.873  30.754  29.408  1.00  0.00     0.029 A 
ATOM     60  N   UNL A   1      43.450  29.436  28.556  1.00  0.00    -0.354 N 
ATOM     61  N   UNL A   1      46.179  28.763  27.740  1.00  0.00    -0.248 NA
ATOM     62  C   UNL A   1      48.354  29.416  27.202  1.00  0.00     0.031 C 
ATOM     63  C   UNL A   1      43.040  31.507  29.249  1.00  0.00     0.029 A 
ATOM     64  C   UNL A   1      44.027  30.682  28.733  1.00  0.00     0.049 A 
ATOM     65  H   UNL A   1      43.916  28.640  28.211  1.00  0.00     0.167 HD
ATOM     66  C   UNL A   1      46.319  30.123  27.978  1.00  0.00     0.074 A 
ATOM     67  C   UNL A   1      47.689  30.465  27.664  1.00  0.00     0.031 C 
ATOM     68  C   UNL A   1      45.392  31.011  28.413  1.00  0.00     0.037 A 
BRANCH  55  69
ATOM     69  C   UNL A   1      39.756  28.634  29.152  1.00  0.00     0.064 A 
ATOM     70  C   UNL A   1      39.242  28.459  30.444  1.00  0.00     0.173 A 
ATOM     71  C   UNL A   1      38.899  29.152  28.168  1.00  0.00     0.173 A 
ATOM     72  F   UNL A   1      40.018  27.961  31.418  1.00  0.00    -0.203 F 
ATOM     73  C   UNL A   1      37.917  28.778  30.736  1.00  0.00     0.198 A 
ATOM     74  C   UNL A   1      37.585  29.496  28.471  1.00  0.00     0.198 A 
ATOM     75  F   UNL A   1      39.344  29.347  26.917  1.00  0.00    -0.203 F 
ATOM     76  F   UNL A   1      37.437  28.573  31.971  1.00  0.00    -0.200 F 
ATOM     77  C   UNL A   1      37.094  29.306  29.753  1.00  0.00     0.200 A 
ATOM     78  F   UNL A   1      36.796  30.021  27.522  1.00  0.00    -0.200 F 
ATOM     79  F   UNL A   1      35.826  29.630  30.041  1.00  0.00    -0.200 F 
ENDBRANCH  55  69
BRANCH  56  80
ATOM     80  C   UNL A   1      49.152  26.714  26.401  1.00  0.00     0.064 A 
ATOM     81  C   UNL A   1      49.486  26.931  25.057  1.00  0.00     0.173 A 
ATOM     82  C   UNL A   1      50.155  26.223  27.251  1.00  0.00     0.173 A 
ATOM     83  F   UNL A   1      48.556  27.378  24.200  1.00  0.00    -0.203 F 
ATOM     84  C   UNL A   1      50.762  26.641  24.576  1.00  0.00     0.198 A 
ATOM     85  C   UNL A   1      51.439  25.966  26.776  1.00  0.00     0.198 A 
ATOM     86  F   UNL A   1      49.890  26.002  28.546  1.00  0.00    -0.203 F 
ATOM     87  F   UNL A   1      51.036  26.803  23.275  1.00  0.00    -0.200 F 
ATOM     88  C   UNL A   1      51.738  26.163  25.437  1.00  0.00     0.200 A 
ATOM     89  F   UNL A   1      52.384  25.520  27.614  1.00  0.00    -0.200 F 
ATOM     90  F   UNL A   1      52.964  25.884  24.974  1.00  0.00    -0.200 F 
ENDBRANCH  56  80
BRANCH  68  91
ATOM     91  C   UNL A   1      45.826  32.437  28.582  1.00  0.00     0.064 A 
ATOM     92  C   UNL A   1      46.531  32.856  29.721  1.00  0.00     0.173 A 
ATOM     93  C   UNL A   1      45.589  33.382  27.571  1.00  0.00     0.173 A 
ATOM     94  F   UNL A   1      46.768  31.996  30.722  1.00  0.00    -0.203 F 
ATOM     95  C   UNL A   1      46.968  34.172  29.847  1.00  0.00     0.198 A 
ATOM     96  C   UNL A   1      46.054  34.687  27.689  1.00  0.00     0.198 A 
ATOM     97  F   UNL A   1      44.924  33.030  26.460  1.00  0.00    -0.203 F 
ATOM     98  F   UNL A   1      47.604  34.559  30.962  1.00  0.00    -0.200 F 
ATOM     99  C   UNL A   1      46.739  35.083  28.828  1.00  0.00     0.200 A 
ATOM    100  F   UNL A   1      45.845  35.564  26.695  1.00  0.00    -0.200 F 
ATOM    101  F   UNL A   1      47.174  36.345  28.945  1.00  0.00    -0.200 F 
ENDBRANCH  68  91
ENDBRANCH  42  43
ENDBRANCH  34  37
ENDBRANCH  32  33
ENDBRANCH  31  32
ENDBRANCH   1  31
TORSDOF 15
ENDMDL
