MODEL 1
REMARK VINA RESULT:     -11.8      0.000      0.000
REMARK SMILES CCN(Cc1cn(CC)nc1C)C(=O)c1ccn([C@@H](C)C(=O)NCCCCNC(=O)c2ccc(-c3c4nc(c(-c5c(F)c(F)c(F)c(F)c5F)c5ccc([nH]5)c(-c5c(F)c(F)c(F)c(F)c5F)c5nc(c(-c6c(F)c(F)c(F)c(F)c6F)c6ccc3[nH]6)C=C5)C=C4)cc2)n1
REMARK SMILES IDX 21 1 22 2 23 3 19 5 20 6 18 7 15 8 16 9 94 10 17 11 13 12
REMARK SMILES IDX 14 13 3 14 2 15 1 16 4 17 5 18 6 19 11 20 7 21 10 22 12 23
REMARK SMILES IDX 8 24 9 25 24 26 25 27 26 28 27 29 28 30 29 31 30 33 31 34
REMARK SMILES IDX 32 35 93 36 33 37 92 38 34 39 35 40 36 41 86 42 37 43 91 44
REMARK SMILES IDX 85 45 87 46 38 47 90 48 84 49 83 50 39 52 71 53 51 54 70 55
REMARK SMILES IDX 52 56 55 57 69 58 88 59 53 60 54 61 68 63 89 64 56 65 40 66
REMARK SMILES IDX 41 67 49 68 42 69 43 70 47 71 50 72 44 73 45 74 48 75 46 76
REMARK SMILES IDX 72 77 73 78 81 79 74 80 75 81 79 82 82 83 76 84 77 85 80 86
REMARK SMILES IDX 78 87 57 88 58 89 66 90 59 91 60 92 64 93 67 94 61 95 62 96
REMARK SMILES IDX 65 97 63 98
REMARK H PARENT 23 4 28 32 87 51 55 62
REMARK Flexibility Score: inf
ROOT
ATOM      1  C   UNL A   1      37.958  22.960  26.006  1.00  0.00     0.244 C 
ATOM      2  O   UNL A   1      37.676  24.118  26.347  1.00  0.00    -0.273 OA
ATOM      3  N   UNL A   1      39.134  22.497  26.523  1.00  0.00    -0.354 N 
ATOM      4  H   UNL A   1      39.595  23.167  27.077  1.00  0.00     0.163 HD
ENDROOT
BRANCH   1   5
ATOM      5  C   UNL A   1      36.967  22.173  25.125  1.00  0.00     0.193 C 
ATOM      6  C   UNL A   1      37.035  22.534  23.646  1.00  0.00     0.044 C 
BRANCH   5   7
ATOM      7  N   UNL A   1      35.615  22.173  25.666  1.00  0.00    -0.260 N 
ATOM      8  C   UNL A   1      33.515  21.863  25.699  1.00  0.00     0.150 A 
ATOM      9  C   UNL A   1      34.062  21.402  26.910  1.00  0.00     0.056 A 
ATOM     10  N   UNL A   1      34.510  22.290  24.886  1.00  0.00    -0.167 NA
ATOM     11  C   UNL A   1      35.269  22.043  26.972  1.00  0.00     0.110 A 
BRANCH   8  12
ATOM     12  C   UNL A   1      32.082  21.890  25.373  1.00  0.00     0.274 C 
ATOM     13  O   UNL A   1      31.477  20.857  25.089  1.00  0.00    -0.267 OA
BRANCH  12  14
ATOM     14  N   UNL A   1      31.425  23.149  25.417  1.00  0.00    -0.333 N 
BRANCH  14  15
ATOM     15  C   UNL A   1      30.929  23.581  26.723  1.00  0.00     0.117 C 
ATOM     16  C   UNL A   1      29.659  22.856  27.151  1.00  0.00     0.027 C 
ENDBRANCH  14  15
BRANCH  14  17
ATOM     17  C   UNL A   1      30.978  23.926  24.244  1.00  0.00     0.159 C 
BRANCH  17  18
ATOM     18  C   UNL A   1      32.077  24.685  23.545  1.00  0.00     0.012 A 
ATOM     19  C   UNL A   1      32.437  26.004  23.806  1.00  0.00     0.114 A 
ATOM     20  C   UNL A   1      32.940  24.325  22.465  1.00  0.00     0.064 A 
ATOM     21  N   UNL A   1      33.282  26.391  22.806  1.00  0.00    -0.272 N 
ATOM     22  N   UNL A   1      33.642  25.375  22.012  1.00  0.00    -0.178 NA
ATOM     23  C   UNL A   1      33.094  23.035  21.751  1.00  0.00     0.069 C 
BRANCH  21  24
ATOM     24  C   UNL A   1      33.589  27.752  22.405  1.00  0.00     0.141 C 
ATOM     25  C   UNL A   1      32.543  28.771  22.809  1.00  0.00     0.029 C 
ENDBRANCH  21  24
ENDBRANCH  17  18
ENDBRANCH  14  17
ENDBRANCH  12  14
ENDBRANCH   8  12
ENDBRANCH   5   7
ENDBRANCH   1   5
BRANCH   3  26
ATOM     26  C   UNL A   1      39.863  21.241  26.445  1.00  0.00     0.116 C 
BRANCH  26  27
ATOM     27  C   UNL A   1      41.049  21.167  27.423  1.00  0.00     0.023 C 
BRANCH  27  28
ATOM     28  C   UNL A   1      42.241  20.281  27.059  1.00  0.00     0.023 C 
BRANCH  28  29
ATOM     29  C   UNL A   1      42.203  19.686  25.662  1.00  0.00     0.116 C 
BRANCH  29  30
ATOM     30  N   UNL A   1      43.515  19.257  25.174  1.00  0.00    -0.352 N 
ATOM     31  C   UNL A   1      44.532  20.055  24.669  1.00  0.00     0.251 C 
ATOM     32  H   UNL A   1      43.698  18.290  25.208  1.00  0.00     0.163 HD
ATOM     33  O   UNL A   1      45.400  19.601  23.950  1.00  0.00    -0.269 OA
BRANCH  31  34
ATOM     34  C   UNL A   1      44.533  21.481  25.043  1.00  0.00     0.039 A 
ATOM     35  C   UNL A   1      43.576  22.368  24.548  1.00  0.00     0.014 A 
ATOM     36  C   UNL A   1      45.472  21.887  25.986  1.00  0.00     0.014 A 
ATOM     37  C   UNL A   1      43.508  23.647  25.097  1.00  0.00     0.010 A 
ATOM     38  C   UNL A   1      45.300  23.082  26.636  1.00  0.00     0.010 A 
ATOM     39  C   UNL A   1      44.351  23.987  26.171  1.00  0.00    -0.014 A 
BRANCH  39  40
ATOM     40  C   UNL A   1      44.150  25.226  26.916  1.00  0.00     0.031 A 
ATOM     41  C   UNL A   1      45.133  26.298  26.600  1.00  0.00     0.074 A 
ATOM     42  C   UNL A   1      43.059  25.472  27.675  1.00  0.00     0.049 A 
ATOM     43  N   UNL A   1      46.041  26.771  27.386  1.00  0.00    -0.248 NA
ATOM     44  C   UNL A   1      45.217  26.806  25.222  1.00  0.00     0.031 C 
ATOM     45  C   UNL A   1      41.871  24.630  27.856  1.00  0.00     0.029 A 
ATOM     46  N   UNL A   1      42.730  26.595  28.376  1.00  0.00    -0.354 N 
ATOM     47  C   UNL A   1      46.670  27.790  26.678  1.00  0.00     0.074 A 
ATOM     48  C   UNL A   1      46.262  27.635  25.307  1.00  0.00     0.031 C 
ATOM     49  C   UNL A   1      40.875  25.358  28.407  1.00  0.00     0.029 A 
ATOM     50  C   UNL A   1      41.398  26.660  28.774  1.00  0.00     0.049 A 
ATOM     51  H   UNL A   1      43.384  27.302  28.584  1.00  0.00     0.167 HD
ATOM     52  C   UNL A   1      47.243  28.832  27.343  1.00  0.00     0.037 A 
ATOM     53  C   UNL A   1      40.763  27.711  29.354  1.00  0.00     0.037 A 
ATOM     54  C   UNL A   1      47.453  28.499  28.735  1.00  0.00     0.049 A 
ATOM     55  C   UNL A   1      41.810  28.579  29.945  1.00  0.00     0.074 A 
ATOM     56  C   UNL A   1      48.123  27.491  29.403  1.00  0.00     0.029 A 
ATOM     57  N   UNL A   1      46.599  29.046  29.661  1.00  0.00    -0.354 N 
ATOM     58  N   UNL A   1      42.529  28.240  30.977  1.00  0.00    -0.248 NA
ATOM     59  C   UNL A   1      42.370  29.629  29.109  1.00  0.00     0.031 C 
ATOM     60  C   UNL A   1      47.286  27.163  30.513  1.00  0.00     0.029 A 
ATOM     61  C   UNL A   1      46.203  28.042  30.505  1.00  0.00     0.049 A 
ATOM     62  H   UNL A   1      46.323  29.989  29.710  1.00  0.00     0.167 HD
ATOM     63  C   UNL A   1      43.806  28.670  30.660  1.00  0.00     0.074 A 
ATOM     64  C   UNL A   1      43.629  29.610  29.554  1.00  0.00     0.031 C 
ATOM     65  C   UNL A   1      44.901  27.999  31.123  1.00  0.00     0.037 A 
BRANCH  52  66
ATOM     66  C   UNL A   1      47.202  30.270  26.870  1.00  0.00     0.064 A 
ATOM     67  C   UNL A   1      48.367  31.055  27.003  1.00  0.00     0.173 A 
ATOM     68  C   UNL A   1      46.014  30.990  26.622  1.00  0.00     0.173 A 
ATOM     69  F   UNL A   1      49.555  30.481  27.244  1.00  0.00    -0.203 F 
ATOM     70  C   UNL A   1      48.319  32.452  27.014  1.00  0.00     0.198 A 
ATOM     71  C   UNL A   1      45.981  32.383  26.578  1.00  0.00     0.198 A 
ATOM     72  F   UNL A   1      44.819  30.397  26.528  1.00  0.00    -0.203 F 
ATOM     73  F   UNL A   1      49.425  33.152  27.303  1.00  0.00    -0.200 F 
ATOM     74  C   UNL A   1      47.123  33.115  26.814  1.00  0.00     0.200 A 
ATOM     75  F   UNL A   1      44.806  33.006  26.399  1.00  0.00    -0.200 F 
ATOM     76  F   UNL A   1      47.060  34.449  26.902  1.00  0.00    -0.200 F 
ENDBRANCH  52  66
BRANCH  53  77
ATOM     77  C   UNL A   1      39.349  28.142  29.247  1.00  0.00     0.064 A 
ATOM     78  C   UNL A   1      38.534  28.236  30.388  1.00  0.00     0.173 A 
ATOM     79  C   UNL A   1      38.855  28.752  28.077  1.00  0.00     0.173 A 
ATOM     80  F   UNL A   1      38.941  27.714  31.555  1.00  0.00    -0.203 F 
ATOM     81  C   UNL A   1      37.321  28.935  30.373  1.00  0.00     0.198 A 
ATOM     82  C   UNL A   1      37.641  29.442  28.061  1.00  0.00     0.198 A 
ATOM     83  F   UNL A   1      39.584  28.775  26.952  1.00  0.00    -0.203 F 
ATOM     84  F   UNL A   1      36.609  29.064  31.501  1.00  0.00    -0.200 F 
ATOM     85  C   UNL A   1      36.883  29.549  29.212  1.00  0.00     0.200 A 
ATOM     86  F   UNL A   1      37.245  30.060  26.939  1.00  0.00    -0.200 F 
ATOM     87  F   UNL A   1      35.759  30.278  29.213  1.00  0.00    -0.200 F 
ENDBRANCH  53  77
BRANCH  65  88
ATOM     88  C   UNL A   1      44.691  26.986  32.215  1.00  0.00     0.064 A 
ATOM     89  C   UNL A   1      44.439  25.620  31.998  1.00  0.00     0.173 A 
ATOM     90  C   UNL A   1      44.855  27.406  33.542  1.00  0.00     0.173 A 
ATOM     91  F   UNL A   1      44.373  25.114  30.761  1.00  0.00    -0.203 F 
ATOM     92  C   UNL A   1      44.298  24.732  33.064  1.00  0.00     0.198 A 
ATOM     93  C   UNL A   1      44.756  26.511  34.602  1.00  0.00     0.198 A 
ATOM     94  F   UNL A   1      45.152  28.688  33.808  1.00  0.00    -0.203 F 
ATOM     95  F   UNL A   1      44.032  23.438  32.831  1.00  0.00    -0.200 F 
ATOM     96  C   UNL A   1      44.461  25.178  34.364  1.00  0.00     0.200 A 
ATOM     97  F   UNL A   1      44.963  26.938  35.855  1.00  0.00    -0.200 F 
ATOM     98  F   UNL A   1      44.357  24.320  35.388  1.00  0.00    -0.200 F 
ENDBRANCH  65  88
ENDBRANCH  39  40
ENDBRANCH  31  34
ENDBRANCH  29  30
ENDBRANCH  28  29
ENDBRANCH  27  28
ENDBRANCH  26  27
ENDBRANCH   3  26
TORSDOF 18
ENDMDL
MODEL 2
REMARK VINA RESULT:     -11.5      4.285      9.823
REMARK SMILES CCN(Cc1cn(CC)nc1C)C(=O)c1ccn([C@@H](C)C(=O)NCCCCNC(=O)c2ccc(-c3c4nc(c(-c5c(F)c(F)c(F)c(F)c5F)c5ccc([nH]5)c(-c5c(F)c(F)c(F)c(F)c5F)c5nc(c(-c6c(F)c(F)c(F)c(F)c6F)c6ccc3[nH]6)C=C5)C=C4)cc2)n1
REMARK SMILES IDX 21 1 22 2 23 3 19 5 20 6 18 7 15 8 16 9 94 10 17 11 13 12
REMARK SMILES IDX 14 13 3 14 2 15 1 16 4 17 5 18 6 19 11 20 7 21 10 22 12 23
REMARK SMILES IDX 8 24 9 25 24 26 25 27 26 28 27 29 28 30 29 31 30 33 31 34
REMARK SMILES IDX 32 35 93 36 33 37 92 38 34 39 35 40 36 41 86 42 37 43 91 44
REMARK SMILES IDX 85 45 87 46 38 47 90 48 84 49 83 50 39 52 71 53 51 54 70 55
REMARK SMILES IDX 52 56 55 57 69 58 88 59 53 60 54 61 68 63 89 64 56 65 40 66
REMARK SMILES IDX 41 67 49 68 42 69 43 70 47 71 50 72 44 73 45 74 48 75 46 76
REMARK SMILES IDX 72 77 73 78 81 79 74 80 75 81 79 82 82 83 76 84 77 85 80 86
REMARK SMILES IDX 78 87 57 88 58 89 66 90 59 91 60 92 64 93 67 94 61 95 62 96
REMARK SMILES IDX 65 97 63 98
REMARK H PARENT 23 4 28 32 87 51 55 62
REMARK Flexibility Score: inf
ROOT
ATOM      1  C   UNL A   1      34.481  29.812  27.204  1.00  0.00     0.244 C 
ATOM      2  O   UNL A   1      35.381  28.970  27.339  1.00  0.00    -0.273 OA
ATOM      3  N   UNL A   1      34.764  31.027  27.760  1.00  0.00    -0.354 N 
ATOM      4  H   UNL A   1      35.641  31.044  28.208  1.00  0.00     0.163 HD
ENDROOT
BRANCH   1   5
ATOM      5  C   UNL A   1      33.218  29.439  26.402  1.00  0.00     0.193 C 
ATOM      6  C   UNL A   1      32.036  29.026  27.269  1.00  0.00     0.044 C 
BRANCH   5   7
ATOM      7  N   UNL A   1      33.498  28.511  25.314  1.00  0.00    -0.260 N 
ATOM      8  C   UNL A   1      33.421  26.698  24.213  1.00  0.00     0.150 A 
ATOM      9  C   UNL A   1      33.250  27.777  23.326  1.00  0.00     0.056 A 
ATOM     10  N   UNL A   1      33.512  27.164  25.481  1.00  0.00    -0.167 NA
ATOM     11  C   UNL A   1      33.760  28.838  24.023  1.00  0.00     0.110 A 
BRANCH   8  12
ATOM     12  C   UNL A   1      33.503  25.285  23.820  1.00  0.00     0.274 C 
ATOM     13  O   UNL A   1      34.161  24.936  22.840  1.00  0.00    -0.267 OA
BRANCH  12  14
ATOM     14  N   UNL A   1      32.810  24.341  24.624  1.00  0.00    -0.333 N 
BRANCH  14  15
ATOM     15  C   UNL A   1      31.353  24.461  24.662  1.00  0.00     0.117 C 
ATOM     16  C   UNL A   1      30.714  24.453  23.279  1.00  0.00     0.027 C 
ENDBRANCH  14  15
BRANCH  14  17
ATOM     17  C   UNL A   1      33.429  23.430  25.608  1.00  0.00     0.159 C 
BRANCH  17  18
ATOM     18  C   UNL A   1      33.663  22.030  25.098  1.00  0.00     0.012 A 
ATOM     19  C   UNL A   1      32.706  21.226  24.488  1.00  0.00     0.114 A 
ATOM     20  C   UNL A   1      34.809  21.180  25.154  1.00  0.00     0.064 A 
ATOM     21  N   UNL A   1      33.233  19.969  24.410  1.00  0.00    -0.272 N 
ATOM     22  N   UNL A   1      34.525  19.929  24.760  1.00  0.00    -0.178 NA
ATOM     23  C   UNL A   1      36.180  21.450  25.647  1.00  0.00     0.069 C 
BRANCH  21  24
ATOM     24  C   UNL A   1      32.500  18.726  24.248  1.00  0.00     0.141 C 
ATOM     25  C   UNL A   1      33.111  17.770  23.245  1.00  0.00     0.029 C 
ENDBRANCH  21  24
ENDBRANCH  17  18
ENDBRANCH  14  17
ENDBRANCH  12  14
ENDBRANCH   8  12
ENDBRANCH   5   7
ENDBRANCH   1   5
BRANCH   3  26
ATOM     26  C   UNL A   1      34.070  32.302  27.844  1.00  0.00     0.116 C 
BRANCH  26  27
ATOM     27  C   UNL A   1      35.018  33.495  28.052  1.00  0.00     0.023 C 
BRANCH  27  28
ATOM     28  C   UNL A   1      34.511  34.700  28.844  1.00  0.00     0.023 C 
BRANCH  28  29
ATOM     29  C   UNL A   1      33.176  34.503  29.541  1.00  0.00     0.116 C 
BRANCH  29  30
ATOM     30  N   UNL A   1      32.951  35.434  30.649  1.00  0.00    -0.352 N 
ATOM     31  C   UNL A   1      33.401  35.315  31.956  1.00  0.00     0.251 C 
ATOM     32  H   UNL A   1      32.420  36.237  30.443  1.00  0.00     0.163 HD
ATOM     33  O   UNL A   1      32.861  35.908  32.871  1.00  0.00    -0.269 OA
BRANCH  31  34
ATOM     34  C   UNL A   1      34.569  34.451  32.203  1.00  0.00     0.039 A 
ATOM     35  C   UNL A   1      34.480  33.061  32.124  1.00  0.00     0.014 A 
ATOM     36  C   UNL A   1      35.788  35.083  32.426  1.00  0.00     0.014 A 
ATOM     37  C   UNL A   1      35.656  32.316  32.165  1.00  0.00     0.010 A 
ATOM     38  C   UNL A   1      36.950  34.366  32.303  1.00  0.00     0.010 A 
ATOM     39  C   UNL A   1      36.896  32.979  32.217  1.00  0.00    -0.014 A 
BRANCH  39  40
ATOM     40  C   UNL A   1      38.145  32.246  32.028  1.00  0.00     0.031 A 
ATOM     41  C   UNL A   1      38.882  31.958  33.288  1.00  0.00     0.074 A 
ATOM     42  C   UNL A   1      38.515  31.692  30.853  1.00  0.00     0.049 A 
ATOM     43  N   UNL A   1      40.019  32.451  33.650  1.00  0.00    -0.248 NA
ATOM     44  C   UNL A   1      38.229  31.145  34.328  1.00  0.00     0.031 C 
ATOM     45  C   UNL A   1      37.761  31.645  29.595  1.00  0.00     0.029 A 
ATOM     46  N   UNL A   1      39.621  30.950  30.559  1.00  0.00    -0.354 N 
ATOM     47  C   UNL A   1      40.333  31.846  34.862  1.00  0.00     0.074 A 
ATOM     48  C   UNL A   1      39.124  31.212  35.318  1.00  0.00     0.031 C 
ATOM     49  C   UNL A   1      38.311  30.729  28.768  1.00  0.00     0.029 A 
ATOM     50  C   UNL A   1      39.544  30.248  29.359  1.00  0.00     0.049 A 
ATOM     51  H   UNL A   1      40.409  30.913  31.148  1.00  0.00     0.167 HD
ATOM     52  C   UNL A   1      41.635  31.688  35.231  1.00  0.00     0.037 A 
ATOM     53  C   UNL A   1      40.426  29.330  28.886  1.00  0.00     0.037 A 
ATOM     54  C   UNL A   1      42.496  32.558  34.458  1.00  0.00     0.049 A 
ATOM     55  C   UNL A   1      41.709  29.554  29.592  1.00  0.00     0.074 A 
ATOM     56  C   UNL A   1      42.552  33.921  34.235  1.00  0.00     0.029 A 
ATOM     57  N   UNL A   1      43.245  31.992  33.457  1.00  0.00    -0.354 N 
ATOM     58  N   UNL A   1      42.461  30.601  29.407  1.00  0.00    -0.248 NA
ATOM     59  C   UNL A   1      41.931  28.838  30.839  1.00  0.00     0.031 C 
ATOM     60  C   UNL A   1      42.895  34.055  32.855  1.00  0.00     0.029 A 
ATOM     61  C   UNL A   1      43.109  32.776  32.342  1.00  0.00     0.049 A 
ATOM     62  H   UNL A   1      43.785  31.172  33.528  1.00  0.00     0.167 HD
ATOM     63  C   UNL A   1      42.886  30.947  30.678  1.00  0.00     0.074 A 
ATOM     64  C   UNL A   1      42.621  29.769  31.503  1.00  0.00     0.031 C 
ATOM     65  C   UNL A   1      43.134  32.250  30.999  1.00  0.00     0.037 A 
BRANCH  52  66
ATOM     66  C   UNL A   1      42.177  30.467  35.944  1.00  0.00     0.064 A 
ATOM     67  C   UNL A   1      43.143  30.652  36.956  1.00  0.00     0.173 A 
ATOM     68  C   UNL A   1      42.057  29.147  35.459  1.00  0.00     0.173 A 
ATOM     69  F   UNL A   1      43.349  31.865  37.491  1.00  0.00    -0.203 F 
ATOM     70  C   UNL A   1      44.001  29.625  37.356  1.00  0.00     0.198 A 
ATOM     71  C   UNL A   1      42.879  28.111  35.902  1.00  0.00     0.198 A 
ATOM     72  F   UNL A   1      41.229  28.819  34.462  1.00  0.00    -0.203 F 
ATOM     73  F   UNL A   1      45.005  29.890  38.203  1.00  0.00    -0.200 F 
ATOM     74  C   UNL A   1      43.877  28.358  36.818  1.00  0.00     0.200 A 
ATOM     75  F   UNL A   1      42.752  26.894  35.355  1.00  0.00    -0.200 F 
ATOM     76  F   UNL A   1      44.746  27.392  37.139  1.00  0.00    -0.200 F 
ENDBRANCH  52  66
BRANCH  53  77
ATOM     77  C   UNL A   1      40.189  28.134  28.041  1.00  0.00     0.064 A 
ATOM     78  C   UNL A   1      40.913  27.934  26.853  1.00  0.00     0.173 A 
ATOM     79  C   UNL A   1      39.469  27.025  28.526  1.00  0.00     0.173 A 
ATOM     80  F   UNL A   1      41.655  28.925  26.338  1.00  0.00    -0.203 F 
ATOM     81  C   UNL A   1      40.952  26.689  26.214  1.00  0.00     0.198 A 
ATOM     82  C   UNL A   1      39.502  25.785  27.883  1.00  0.00     0.198 A 
ATOM     83  F   UNL A   1      38.798  27.092  29.684  1.00  0.00    -0.203 F 
ATOM     84  F   UNL A   1      41.714  26.520  25.125  1.00  0.00    -0.200 F 
ATOM     85  C   UNL A   1      40.257  25.613  26.738  1.00  0.00     0.200 A 
ATOM     86  F   UNL A   1      38.851  24.743  28.419  1.00  0.00    -0.200 F 
ATOM     87  F   UNL A   1      40.349  24.404  26.168  1.00  0.00    -0.200 F 
ENDBRANCH  53  77
BRANCH  65  88
ATOM     88  C   UNL A   1      43.227  33.242  29.873  1.00  0.00     0.064 A 
ATOM     89  C   UNL A   1      42.169  34.061  29.443  1.00  0.00     0.173 A 
ATOM     90  C   UNL A   1      44.478  33.442  29.274  1.00  0.00     0.173 A 
ATOM     91  F   UNL A   1      40.968  34.012  30.032  1.00  0.00    -0.203 F 
ATOM     92  C   UNL A   1      42.344  34.991  28.418  1.00  0.00     0.198 A 
ATOM     93  C   UNL A   1      44.661  34.398  28.281  1.00  0.00     0.198 A 
ATOM     94  F   UNL A   1      45.539  32.728  29.682  1.00  0.00    -0.203 F 
ATOM     95  F   UNL A   1      41.311  35.742  28.007  1.00  0.00    -0.200 F 
ATOM     96  C   UNL A   1      43.591  35.161  27.841  1.00  0.00     0.200 A 
ATOM     97  F   UNL A   1      45.880  34.593  27.761  1.00  0.00    -0.200 F 
ATOM     98  F   UNL A   1      43.768  36.076  26.878  1.00  0.00    -0.200 F 
ENDBRANCH  65  88
ENDBRANCH  39  40
ENDBRANCH  31  34
ENDBRANCH  29  30
ENDBRANCH  28  29
ENDBRANCH  27  28
ENDBRANCH  26  27
ENDBRANCH   3  26
TORSDOF 18
ENDMDL
MODEL 3
REMARK VINA RESULT:     -11.4      1.168      2.189
REMARK SMILES CCN(Cc1cn(CC)nc1C)C(=O)c1ccn([C@@H](C)C(=O)NCCCCNC(=O)c2ccc(-c3c4nc(c(-c5c(F)c(F)c(F)c(F)c5F)c5ccc([nH]5)c(-c5c(F)c(F)c(F)c(F)c5F)c5nc(c(-c6c(F)c(F)c(F)c(F)c6F)c6ccc3[nH]6)C=C5)C=C4)cc2)n1
REMARK SMILES IDX 21 1 22 2 23 3 19 5 20 6 18 7 15 8 16 9 94 10 17 11 13 12
REMARK SMILES IDX 14 13 3 14 2 15 1 16 4 17 5 18 6 19 11 20 7 21 10 22 12 23
REMARK SMILES IDX 8 24 9 25 24 26 25 27 26 28 27 29 28 30 29 31 30 33 31 34
REMARK SMILES IDX 32 35 93 36 33 37 92 38 34 39 35 40 36 41 86 42 37 43 91 44
REMARK SMILES IDX 85 45 87 46 38 47 90 48 84 49 83 50 39 52 71 53 51 54 70 55
REMARK SMILES IDX 52 56 55 57 69 58 88 59 53 60 54 61 68 63 89 64 56 65 40 66
REMARK SMILES IDX 41 67 49 68 42 69 43 70 47 71 50 72 44 73 45 74 48 75 46 76
REMARK SMILES IDX 72 77 73 78 81 79 74 80 75 81 79 82 82 83 76 84 77 85 80 86
REMARK SMILES IDX 78 87 57 88 58 89 66 90 59 91 60 92 64 93 67 94 61 95 62 96
REMARK SMILES IDX 65 97 63 98
REMARK H PARENT 23 4 28 32 87 51 55 62
REMARK Flexibility Score: inf
ROOT
ATOM      1  C   UNL A   1      37.319  21.690  25.314  1.00  0.00     0.244 C 
ATOM      2  O   UNL A   1      36.471  20.821  25.063  1.00  0.00    -0.273 OA
ATOM      3  N   UNL A   1      38.534  21.192  25.692  1.00  0.00    -0.354 N 
ATOM      4  H   UNL A   1      38.546  20.208  25.729  1.00  0.00     0.163 HD
ENDROOT
BRANCH   1   5
ATOM      5  C   UNL A   1      36.953  23.175  25.122  1.00  0.00     0.193 C 
ATOM      6  C   UNL A   1      37.318  24.059  26.308  1.00  0.00     0.044 C 
BRANCH   5   7
ATOM      7  N   UNL A   1      35.586  23.359  24.654  1.00  0.00    -0.260 N 
ATOM      8  C   UNL A   1      33.989  23.485  23.260  1.00  0.00     0.150 A 
ATOM      9  C   UNL A   1      33.570  22.723  24.367  1.00  0.00     0.056 A 
ATOM     10  N   UNL A   1      35.289  23.831  23.416  1.00  0.00    -0.167 NA
ATOM     11  C   UNL A   1      34.452  23.084  25.348  1.00  0.00     0.110 A 
BRANCH   8  12
ATOM     12  C   UNL A   1      33.142  23.860  22.120  1.00  0.00     0.274 C 
ATOM     13  O   UNL A   1      33.398  23.464  20.983  1.00  0.00    -0.267 OA
BRANCH  12  14
ATOM     14  N   UNL A   1      32.012  24.678  22.385  1.00  0.00    -0.333 N 
BRANCH  14  15
ATOM     15  C   UNL A   1      32.104  26.075  21.964  1.00  0.00     0.117 C 
ATOM     16  C   UNL A   1      33.447  26.713  22.298  1.00  0.00     0.027 C 
ENDBRANCH  14  15
BRANCH  14  17
ATOM     17  C   UNL A   1      30.877  24.319  23.260  1.00  0.00     0.159 C 
BRANCH  17  18
ATOM     18  C   UNL A   1      30.886  25.005  24.603  1.00  0.00     0.012 A 
ATOM     19  C   UNL A   1      31.019  26.374  24.806  1.00  0.00     0.114 A 
ATOM     20  C   UNL A   1      30.837  24.486  25.933  1.00  0.00     0.064 A 
ATOM     21  N   UNL A   1      31.235  26.560  26.142  1.00  0.00    -0.272 N 
ATOM     22  N   UNL A   1      31.077  25.435  26.851  1.00  0.00    -0.178 NA
ATOM     23  C   UNL A   1      30.655  23.096  26.413  1.00  0.00     0.069 C 
BRANCH  21  24
ATOM     24  C   UNL A   1      31.833  27.722  26.774  1.00  0.00     0.141 C 
ATOM     25  C   UNL A   1      33.341  27.792  26.646  1.00  0.00     0.029 C 
ENDBRANCH  21  24
ENDBRANCH  17  18
ENDBRANCH  14  17
ENDBRANCH  12  14
ENDBRANCH   8  12
ENDBRANCH   5   7
ENDBRANCH   1   5
BRANCH   3  26
ATOM     26  C   UNL A   1      39.814  21.779  26.053  1.00  0.00     0.116 C 
BRANCH  26  27
ATOM     27  C   UNL A   1      40.708  20.830  26.870  1.00  0.00     0.023 C 
BRANCH  27  28
ATOM     28  C   UNL A   1      41.467  19.728  26.133  1.00  0.00     0.023 C 
BRANCH  28  29
ATOM     29  C   UNL A   1      42.880  19.470  26.630  1.00  0.00     0.116 C 
BRANCH  29  30
ATOM     30  N   UNL A   1      43.836  19.190  25.556  1.00  0.00    -0.352 N 
ATOM     31  C   UNL A   1      44.384  20.093  24.657  1.00  0.00     0.251 C 
ATOM     32  H   UNL A   1      44.124  18.253  25.463  1.00  0.00     0.163 HD
ATOM     33  O   UNL A   1      44.847  19.729  23.593  1.00  0.00    -0.269 OA
BRANCH  31  34
ATOM     34  C   UNL A   1      44.399  21.517  25.038  1.00  0.00     0.039 A 
ATOM     35  C   UNL A   1      43.452  22.416  24.545  1.00  0.00     0.014 A 
ATOM     36  C   UNL A   1      45.340  21.910  25.984  1.00  0.00     0.014 A 
ATOM     37  C   UNL A   1      43.396  23.692  25.099  1.00  0.00     0.010 A 
ATOM     38  C   UNL A   1      45.179  23.103  26.639  1.00  0.00     0.010 A 
ATOM     39  C   UNL A   1      44.240  24.019  26.176  1.00  0.00    -0.014 A 
BRANCH  39  40
ATOM     40  C   UNL A   1      44.050  25.257  26.927  1.00  0.00     0.031 A 
ATOM     41  C   UNL A   1      45.033  26.327  26.604  1.00  0.00     0.074 A 
ATOM     42  C   UNL A   1      42.967  25.505  27.697  1.00  0.00     0.049 A 
ATOM     43  N   UNL A   1      45.950  26.795  27.382  1.00  0.00    -0.248 NA
ATOM     44  C   UNL A   1      45.105  26.838  25.226  1.00  0.00     0.031 C 
ATOM     45  C   UNL A   1      41.779  24.666  27.887  1.00  0.00     0.029 A 
ATOM     46  N   UNL A   1      42.649  26.626  28.404  1.00  0.00    -0.354 N 
ATOM     47  C   UNL A   1      46.576  27.814  26.671  1.00  0.00     0.074 A 
ATOM     48  C   UNL A   1      46.153  27.664  25.304  1.00  0.00     0.031 C 
ATOM     49  C   UNL A   1      40.791  25.394  28.450  1.00  0.00     0.029 A 
ATOM     50  C   UNL A   1      41.321  26.694  28.815  1.00  0.00     0.049 A 
ATOM     51  H   UNL A   1      43.306  27.331  28.608  1.00  0.00     0.167 HD
ATOM     52  C   UNL A   1      47.158  28.852  27.333  1.00  0.00     0.037 A 
ATOM     53  C   UNL A   1      40.695  27.745  29.405  1.00  0.00     0.037 A 
ATOM     54  C   UNL A   1      47.381  28.515  28.722  1.00  0.00     0.049 A 
ATOM     55  C   UNL A   1      41.750  28.609  29.988  1.00  0.00     0.074 A 
ATOM     56  C   UNL A   1      48.054  27.503  29.380  1.00  0.00     0.029 A 
ATOM     57  N   UNL A   1      46.538  29.062  29.658  1.00  0.00    -0.354 N 
ATOM     58  N   UNL A   1      42.478  28.265  31.011  1.00  0.00    -0.248 NA
ATOM     59  C   UNL A   1      42.305  29.660  29.149  1.00  0.00     0.031 C 
ATOM     60  C   UNL A   1      47.227  27.175  30.498  1.00  0.00     0.029 A 
ATOM     61  C   UNL A   1      46.147  28.057  30.503  1.00  0.00     0.049 A 
ATOM     62  H   UNL A   1      46.265  30.006  29.712  1.00  0.00     0.167 HD
ATOM     63  C   UNL A   1      43.753  28.692  30.683  1.00  0.00     0.074 A 
ATOM     64  C   UNL A   1      43.569  29.635  29.582  1.00  0.00     0.031 C 
ATOM     65  C   UNL A   1      44.851  28.016  31.134  1.00  0.00     0.037 A 
BRANCH  52  66
ATOM     66  C   UNL A   1      47.117  30.292  26.864  1.00  0.00     0.064 A 
ATOM     67  C   UNL A   1      48.290  31.069  26.972  1.00  0.00     0.173 A 
ATOM     68  C   UNL A   1      45.928  31.022  26.646  1.00  0.00     0.173 A 
ATOM     69  F   UNL A   1      49.479  30.485  27.183  1.00  0.00    -0.203 F 
ATOM     70  C   UNL A   1      48.253  32.465  26.986  1.00  0.00     0.198 A 
ATOM     71  C   UNL A   1      45.905  32.415  26.605  1.00  0.00     0.198 A 
ATOM     72  F   UNL A   1      44.727  30.438  26.579  1.00  0.00    -0.203 F 
ATOM     73  F   UNL A   1      49.371  33.156  27.251  1.00  0.00    -0.200 F 
ATOM     74  C   UNL A   1      47.058  33.137  26.816  1.00  0.00     0.200 A 
ATOM     75  F   UNL A   1      44.731  33.047  26.455  1.00  0.00    -0.200 F 
ATOM     76  F   UNL A   1      47.006  34.472  26.908  1.00  0.00    -0.200 F 
ENDBRANCH  52  66
BRANCH  53  77
ATOM     77  C   UNL A   1      39.281  28.181  29.312  1.00  0.00     0.064 A 
ATOM     78  C   UNL A   1      38.489  28.313  30.466  1.00  0.00     0.173 A 
ATOM     79  C   UNL A   1      38.767  28.759  28.135  1.00  0.00     0.173 A 
ATOM     80  F   UNL A   1      38.916  27.824  31.639  1.00  0.00    -0.203 F 
ATOM     81  C   UNL A   1      37.280  29.018  30.454  1.00  0.00     0.198 A 
ATOM     82  C   UNL A   1      37.556  29.455  28.122  1.00  0.00     0.198 A 
ATOM     83  F   UNL A   1      39.474  28.744  26.996  1.00  0.00    -0.203 F 
ATOM     84  F   UNL A   1      36.591  29.185  31.591  1.00  0.00    -0.200 F 
ATOM     85  C   UNL A   1      36.822  29.600  29.284  1.00  0.00     0.200 A 
ATOM     86  F   UNL A   1      37.141  30.042  26.990  1.00  0.00    -0.200 F 
ATOM     87  F   UNL A   1      35.701  30.335  29.286  1.00  0.00    -0.200 F 
ENDBRANCH  53  77
BRANCH  65  88
ATOM     88  C   UNL A   1      44.648  27.001  32.225  1.00  0.00     0.064 A 
ATOM     89  C   UNL A   1      44.541  27.312  33.592  1.00  0.00     0.173 A 
ATOM     90  C   UNL A   1      44.452  25.665  31.852  1.00  0.00     0.173 A 
ATOM     91  F   UNL A   1      44.610  28.576  34.025  1.00  0.00    -0.203 F 
ATOM     92  C   UNL A   1      44.310  26.319  34.543  1.00  0.00     0.198 A 
ATOM     93  C   UNL A   1      44.180  24.682  32.799  1.00  0.00     0.198 A 
ATOM     94  F   UNL A   1      44.488  25.317  30.556  1.00  0.00    -0.203 F 
ATOM     95  F   UNL A   1      44.238  26.637  35.845  1.00  0.00    -0.200 F 
ATOM     96  C   UNL A   1      44.126  25.006  34.145  1.00  0.00     0.200 A 
ATOM     97  F   UNL A   1      43.954  23.422  32.403  1.00  0.00    -0.200 F 
ATOM     98  F   UNL A   1      43.872  24.055  35.055  1.00  0.00    -0.200 F 
ENDBRANCH  65  88
ENDBRANCH  39  40
ENDBRANCH  31  34
ENDBRANCH  29  30
ENDBRANCH  28  29
ENDBRANCH  27  28
ENDBRANCH  26  27
ENDBRANCH   3  26
TORSDOF 18
ENDMDL
