MODEL 1
REMARK VINA RESULT:     -11.8      0.000      0.000
REMARK SMILES C[C@H](O)C[C@H](Cc1cccc(Br)c1)C(=O)NCCCCNC(=O)c1ccc(-c2c3nc(c(-c4c(F)c(F)c(F)c(F)c4F)c4ccc([nH]4)c(-c4c(F)c(F)c(F)c(F)c4F)c4nc(c(-c5c(F)c(F)c(F)c(F)c5F)c5ccc2[nH]5)C=C4)C=C3)cc1
REMARK SMILES IDX 18 1 17 2 16 3 14 4 15 5 5 7 4 8 2 9 1 10 3 11 6 13 7 14
REMARK SMILES IDX 8 15 13 16 9 17 11 18 10 19 12 20 19 21 20 22 21 23 22 24
REMARK SMILES IDX 23 26 24 27 25 28 86 29 26 30 85 31 27 32 28 33 29 34 79 35
REMARK SMILES IDX 30 36 84 37 78 38 80 39 31 40 83 41 77 42 76 43 32 45 64 46
REMARK SMILES IDX 44 47 63 48 45 49 48 50 62 51 81 52 46 53 47 54 61 56 82 57
REMARK SMILES IDX 49 58 33 59 34 60 42 61 35 62 36 63 40 64 43 65 37 66 38 67
REMARK SMILES IDX 41 68 39 69 65 70 66 71 74 72 67 73 68 74 72 75 75 76 69 77
REMARK SMILES IDX 70 78 73 79 71 80 50 81 51 82 59 83 52 84 53 85 57 86 60 87
REMARK SMILES IDX 54 88 55 89 58 90 56 91
REMARK H PARENT 16 6 3 12 21 25 80 44 48 55
REMARK Flexibility Score: inf
ROOT
ATOM      1  C   UNL A   1      32.047  30.436  26.840  1.00  0.00     0.023 C 
ENDROOT
BRANCH   1   2
ATOM      2  C   UNL A   1      31.686  29.654  25.582  1.00  0.00     0.116 C 
BRANCH   2   3
ATOM      3  N   UNL A   1      32.739  29.699  24.597  1.00  0.00    -0.356 N 
ATOM      4  C   UNL A   1      33.327  28.724  23.865  1.00  0.00     0.223 C 
ATOM      5  O   UNL A   1      34.185  29.091  23.052  1.00  0.00    -0.275 OA
ATOM      6  H   UNL A   1      33.094  30.602  24.426  1.00  0.00     0.163 HD
BRANCH   4   7
ATOM      7  C   UNL A   1      33.005  27.229  23.990  1.00  0.00     0.085 C 
BRANCH   7   8
ATOM      8  C   UNL A   1      31.564  26.781  23.658  1.00  0.00     0.045 C 
BRANCH   8   9
ATOM      9  C   UNL A   1      31.197  26.560  22.189  1.00  0.00     0.112 C 
ATOM     10  C   UNL A   1      32.356  25.961  21.400  1.00  0.00     0.038 C 
BRANCH   9  11
ATOM     11  O   UNL A   1      30.827  27.794  21.587  1.00  0.00    -0.393 OA
ATOM     12  H   UNL A   1      30.631  28.447  22.278  1.00  0.00     0.210 HD
ENDBRANCH   9  11
ENDBRANCH   8   9
ENDBRANCH   7   8
BRANCH   7  13
ATOM     13  C   UNL A   1      33.768  26.434  25.081  1.00  0.00     0.049 C 
BRANCH  13  14
ATOM     14  C   UNL A   1      34.134  24.971  24.951  1.00  0.00    -0.046 A 
ATOM     15  C   UNL A   1      34.697  24.419  23.794  1.00  0.00     0.004 A 
ATOM     16  C   UNL A   1      33.974  24.129  26.067  1.00  0.00     0.019 A 
ATOM     17  C   UNL A   1      34.997  23.055  23.716  1.00  0.00     0.001 A 
ATOM     18  C   UNL A   1      34.283  22.768  25.990  1.00  0.00     0.018 A 
ATOM     19  C   UNL A   1      34.778  22.223  24.810  1.00  0.00     0.016 A 
ATOM     20  Br  UNL A   1      33.973  21.649  27.481  1.00  0.00    -0.051 Br
ENDBRANCH  13  14
ENDBRANCH   7  13
ENDBRANCH   4   7
ENDBRANCH   2   3
ENDBRANCH   1   2
BRANCH   1  21
ATOM     21  C   UNL A   1      31.795  31.935  26.761  1.00  0.00     0.023 C 
BRANCH  21  22
ATOM     22  C   UNL A   1      32.870  32.801  27.409  1.00  0.00     0.116 C 
BRANCH  22  23
ATOM     23  N   UNL A   1      32.449  34.163  27.716  1.00  0.00    -0.352 N 
ATOM     24  C   UNL A   1      32.998  35.037  28.632  1.00  0.00     0.251 C 
ATOM     25  H   UNL A   1      31.679  34.502  27.206  1.00  0.00     0.163 HD
ATOM     26  O   UNL A   1      32.521  36.141  28.822  1.00  0.00    -0.269 OA
BRANCH  24  27
ATOM     27  C   UNL A   1      34.158  34.573  29.421  1.00  0.00     0.039 A 
ATOM     28  C   UNL A   1      33.931  33.983  30.665  1.00  0.00     0.014 A 
ATOM     29  C   UNL A   1      35.441  34.615  28.871  1.00  0.00     0.014 A 
ATOM     30  C   UNL A   1      34.984  33.342  31.320  1.00  0.00     0.010 A 
ATOM     31  C   UNL A   1      36.467  33.908  29.484  1.00  0.00     0.010 A 
ATOM     32  C   UNL A   1      36.245  33.256  30.708  1.00  0.00    -0.014 A 
BRANCH  32  33
ATOM     33  C   UNL A   1      37.349  32.470  31.314  1.00  0.00     0.031 A 
ATOM     34  C   UNL A   1      37.850  32.822  32.684  1.00  0.00     0.074 A 
ATOM     35  C   UNL A   1      37.961  31.511  30.592  1.00  0.00     0.049 A 
ATOM     36  N   UNL A   1      38.871  32.337  33.342  1.00  0.00    -0.248 NA
ATOM     37  C   UNL A   1      37.129  33.890  33.395  1.00  0.00     0.031 C 
ATOM     38  C   UNL A   1      37.610  31.122  29.225  1.00  0.00     0.029 A 
ATOM     39  N   UNL A   1      39.020  30.697  30.905  1.00  0.00    -0.354 N 
ATOM     40  C   UNL A   1      38.934  33.061  34.524  1.00  0.00     0.074 A 
ATOM     41  C   UNL A   1      37.878  34.049  34.475  1.00  0.00     0.031 C 
ATOM     42  C   UNL A   1      38.420  30.128  28.828  1.00  0.00     0.029 A 
ATOM     43  C   UNL A   1      39.370  29.833  29.896  1.00  0.00     0.049 A 
ATOM     44  H   UNL A   1      39.487  30.730  31.771  1.00  0.00     0.167 HD
ATOM     45  C   UNL A   1      39.783  32.901  35.567  1.00  0.00     0.037 A 
ATOM     46  C   UNL A   1      40.346  28.908  29.841  1.00  0.00     0.037 A 
ATOM     47  C   UNL A   1      40.797  31.884  35.635  1.00  0.00     0.049 A 
ATOM     48  C   UNL A   1      41.247  28.720  31.031  1.00  0.00     0.074 A 
ATOM     49  C   UNL A   1      41.650  31.584  36.682  1.00  0.00     0.029 A 
ATOM     50  N   UNL A   1      41.089  30.995  34.612  1.00  0.00    -0.354 N 
ATOM     51  N   UNL A   1      41.251  29.363  32.174  1.00  0.00    -0.248 NA
ATOM     52  C   UNL A   1      42.274  27.675  30.926  1.00  0.00     0.031 C 
ATOM     53  C   UNL A   1      42.478  30.530  36.282  1.00  0.00     0.029 A 
ATOM     54  C   UNL A   1      42.117  30.151  34.998  1.00  0.00     0.049 A 
ATOM     55  H   UNL A   1      40.632  30.967  33.740  1.00  0.00     0.167 HD
ATOM     56  C   UNL A   1      42.259  28.786  32.932  1.00  0.00     0.074 A 
ATOM     57  C   UNL A   1      42.840  27.733  32.124  1.00  0.00     0.031 C 
ATOM     58  C   UNL A   1      42.669  29.101  34.185  1.00  0.00     0.037 A 
BRANCH  45  59
ATOM     59  C   UNL A   1      39.639  33.845  36.723  1.00  0.00     0.064 A 
ATOM     60  C   UNL A   1      40.286  35.090  36.739  1.00  0.00     0.173 A 
ATOM     61  C   UNL A   1      38.832  33.510  37.819  1.00  0.00     0.173 A 
ATOM     62  F   UNL A   1      41.081  35.451  35.720  1.00  0.00    -0.203 F 
ATOM     63  C   UNL A   1      40.154  35.952  37.824  1.00  0.00     0.198 A 
ATOM     64  C   UNL A   1      38.680  34.386  38.890  1.00  0.00     0.198 A 
ATOM     65  F   UNL A   1      38.190  32.332  37.852  1.00  0.00    -0.203 F 
ATOM     66  F   UNL A   1      40.822  37.113  37.839  1.00  0.00    -0.200 F 
ATOM     67  C   UNL A   1      39.347  35.602  38.895  1.00  0.00     0.200 A 
ATOM     68  F   UNL A   1      37.893  34.051  39.922  1.00  0.00    -0.200 F 
ATOM     69  F   UNL A   1      39.220  36.434  39.939  1.00  0.00    -0.200 F 
ENDBRANCH  45  59
BRANCH  46  70
ATOM     70  C   UNL A   1      40.496  28.056  28.635  1.00  0.00     0.064 A 
ATOM     71  C   UNL A   1      41.279  28.482  27.553  1.00  0.00     0.173 A 
ATOM     72  C   UNL A   1      39.866  26.807  28.535  1.00  0.00     0.173 A 
ATOM     73  F   UNL A   1      41.885  29.678  27.597  1.00  0.00    -0.203 F 
ATOM     74  C   UNL A   1      41.414  27.700  26.408  1.00  0.00     0.198 A 
ATOM     75  C   UNL A   1      40.019  26.016  27.399  1.00  0.00     0.198 A 
ATOM     76  F   UNL A   1      39.110  26.354  29.545  1.00  0.00    -0.203 F 
ATOM     77  F   UNL A   1      42.136  28.148  25.374  1.00  0.00    -0.200 F 
ATOM     78  C   UNL A   1      40.786  26.465  26.334  1.00  0.00     0.200 A 
ATOM     79  F   UNL A   1      39.420  24.818  27.333  1.00  0.00    -0.200 F 
ATOM     80  F   UNL A   1      40.916  25.712  25.234  1.00  0.00    -0.200 F 
ENDBRANCH  46  70
BRANCH  58  81
ATOM     81  C   UNL A   1      43.773  28.275  34.772  1.00  0.00     0.064 A 
ATOM     82  C   UNL A   1      43.515  27.052  35.408  1.00  0.00     0.173 A 
ATOM     83  C   UNL A   1      45.108  28.690  34.653  1.00  0.00     0.173 A 
ATOM     84  F   UNL A   1      42.253  26.623  35.558  1.00  0.00    -0.203 F 
ATOM     85  C   UNL A   1      44.555  26.282  35.922  1.00  0.00     0.198 A 
ATOM     86  C   UNL A   1      46.147  27.907  35.147  1.00  0.00     0.198 A 
ATOM     87  F   UNL A   1      45.404  29.849  34.048  1.00  0.00    -0.203 F 
ATOM     88  F   UNL A   1      44.284  25.136  36.559  1.00  0.00    -0.200 F 
ATOM     89  C   UNL A   1      45.869  26.706  35.785  1.00  0.00     0.200 A 
ATOM     90  F   UNL A   1      47.416  28.312  35.006  1.00  0.00    -0.200 F 
ATOM     91  F   UNL A   1      46.869  25.960  36.275  1.00  0.00    -0.200 F 
ENDBRANCH  58  81
ENDBRANCH  32  33
ENDBRANCH  24  27
ENDBRANCH  22  23
ENDBRANCH  21  22
ENDBRANCH   1  21
TORSDOF 16
ENDMDL
MODEL 2
REMARK VINA RESULT:     -11.7      0.581      7.631
REMARK SMILES C[C@H](O)C[C@H](Cc1cccc(Br)c1)C(=O)NCCCCNC(=O)c1ccc(-c2c3nc(c(-c4c(F)c(F)c(F)c(F)c4F)c4ccc([nH]4)c(-c4c(F)c(F)c(F)c(F)c4F)c4nc(c(-c5c(F)c(F)c(F)c(F)c5F)c5ccc2[nH]5)C=C4)C=C3)cc1
REMARK SMILES IDX 18 1 17 2 16 3 14 4 15 5 5 7 4 8 2 9 1 10 3 11 6 13 7 14
REMARK SMILES IDX 8 15 13 16 9 17 11 18 10 19 12 20 19 21 20 22 21 23 22 24
REMARK SMILES IDX 23 26 24 27 25 28 86 29 26 30 85 31 27 32 28 33 29 34 79 35
REMARK SMILES IDX 30 36 84 37 78 38 80 39 31 40 83 41 77 42 76 43 32 45 64 46
REMARK SMILES IDX 44 47 63 48 45 49 48 50 62 51 81 52 46 53 47 54 61 56 82 57
REMARK SMILES IDX 49 58 33 59 34 60 42 61 35 62 36 63 40 64 43 65 37 66 38 67
REMARK SMILES IDX 41 68 39 69 65 70 66 71 74 72 67 73 68 74 72 75 75 76 69 77
REMARK SMILES IDX 70 78 73 79 71 80 50 81 51 82 59 83 52 84 53 85 57 86 60 87
REMARK SMILES IDX 54 88 55 89 58 90 56 91
REMARK H PARENT 16 6 3 12 21 25 80 44 48 55
REMARK Flexibility Score: inf
ROOT
ATOM      1  C   UNL A   1      32.264  30.003  27.160  1.00  0.00     0.023 C 
ENDROOT
BRANCH   1   2
ATOM      2  C   UNL A   1      33.614  29.510  26.652  1.00  0.00     0.116 C 
BRANCH   2   3
ATOM      3  N   UNL A   1      33.742  29.663  25.223  1.00  0.00    -0.356 N 
ATOM      4  C   UNL A   1      33.308  28.896  24.195  1.00  0.00     0.223 C 
ATOM      5  O   UNL A   1      33.535  29.326  23.057  1.00  0.00    -0.275 OA
ATOM      6  H   UNL A   1      34.232  30.471  24.946  1.00  0.00     0.163 HD
BRANCH   4   7
ATOM      7  C   UNL A   1      32.578  27.556  24.358  1.00  0.00     0.085 C 
BRANCH   7   8
ATOM      8  C   UNL A   1      31.058  27.535  24.087  1.00  0.00     0.045 C 
BRANCH   8   9
ATOM      9  C   UNL A   1      30.583  27.351  22.644  1.00  0.00     0.112 C 
ATOM     10  C   UNL A   1      31.404  26.296  21.910  1.00  0.00     0.038 C 
BRANCH   9  11
ATOM     11  O   UNL A   1      30.685  28.580  21.936  1.00  0.00    -0.393 OA
ATOM     12  H   UNL A   1      31.577  28.944  22.045  1.00  0.00     0.210 HD
ENDBRANCH   9  11
ENDBRANCH   8   9
ENDBRANCH   7   8
BRANCH   7  13
ATOM     13  C   UNL A   1      33.127  26.583  25.435  1.00  0.00     0.049 C 
BRANCH  13  14
ATOM     14  C   UNL A   1      33.672  25.206  25.121  1.00  0.00    -0.046 A 
ATOM     15  C   UNL A   1      34.257  24.873  23.893  1.00  0.00     0.004 A 
ATOM     16  C   UNL A   1      33.663  24.226  26.130  1.00  0.00     0.019 A 
ATOM     17  C   UNL A   1      34.727  23.578  23.645  1.00  0.00     0.001 A 
ATOM     18  C   UNL A   1      34.141  22.935  25.882  1.00  0.00     0.018 A 
ATOM     19  C   UNL A   1      34.657  22.602  24.634  1.00  0.00     0.016 A 
ATOM     20  Br  UNL A   1      34.031  21.618  27.233  1.00  0.00    -0.051 Br
ENDBRANCH  13  14
ENDBRANCH   7  13
ENDBRANCH   4   7
ENDBRANCH   2   3
ENDBRANCH   1   2
BRANCH   1  21
ATOM     21  C   UNL A   1      31.976  31.476  26.900  1.00  0.00     0.023 C 
BRANCH  21  22
ATOM     22  C   UNL A   1      33.007  32.441  27.475  1.00  0.00     0.116 C 
BRANCH  22  23
ATOM     23  N   UNL A   1      32.536  33.813  27.625  1.00  0.00    -0.352 N 
ATOM     24  C   UNL A   1      33.043  34.801  28.444  1.00  0.00     0.251 C 
ATOM     25  H   UNL A   1      31.761  34.066  27.075  1.00  0.00     0.163 HD
ATOM     26  O   UNL A   1      32.527  35.901  28.507  1.00  0.00    -0.269 OA
BRANCH  24  27
ATOM     27  C   UNL A   1      34.209  34.468  29.289  1.00  0.00     0.039 A 
ATOM     28  C   UNL A   1      33.987  33.930  30.558  1.00  0.00     0.014 A 
ATOM     29  C   UNL A   1      35.502  34.576  28.774  1.00  0.00     0.014 A 
ATOM     30  C   UNL A   1      35.063  33.406  31.276  1.00  0.00     0.010 A 
ATOM     31  C   UNL A   1      36.557  33.983  29.453  1.00  0.00     0.010 A 
ATOM     32  C   UNL A   1      36.345  33.382  30.705  1.00  0.00    -0.014 A 
BRANCH  32  33
ATOM     33  C   UNL A   1      37.483  32.714  31.384  1.00  0.00     0.031 A 
ATOM     34  C   UNL A   1      38.190  31.575  30.709  1.00  0.00     0.074 A 
ATOM     35  C   UNL A   1      37.812  33.069  32.642  1.00  0.00     0.049 A 
ATOM     36  N   UNL A   1      39.128  30.790  31.175  1.00  0.00    -0.248 NA
ATOM     37  C   UNL A   1      37.758  31.249  29.341  1.00  0.00     0.031 C 
ATOM     38  C   UNL A   1      37.156  34.115  33.428  1.00  0.00     0.029 A 
ATOM     39  N   UNL A   1      38.773  32.574  33.487  1.00  0.00    -0.354 N 
ATOM     40  C   UNL A   1      39.372  29.862  30.173  1.00  0.00     0.074 A 
ATOM     41  C   UNL A   1      38.455  30.151  29.092  1.00  0.00     0.031 C 
ATOM     42  C   UNL A   1      37.751  34.201  34.629  1.00  0.00     0.029 A 
ATOM     43  C   UNL A   1      38.805  33.196  34.711  1.00  0.00     0.049 A 
ATOM     44  H   UNL A   1      39.383  31.841  33.239  1.00  0.00     0.167 HD
ATOM     45  C   UNL A   1      40.295  28.871  30.147  1.00  0.00     0.037 A 
ATOM     46  C   UNL A   1      39.597  32.978  35.777  1.00  0.00     0.037 A 
ATOM     47  C   UNL A   1      41.240  28.620  31.201  1.00  0.00     0.049 A 
ATOM     48  C   UNL A   1      40.644  31.900  35.706  1.00  0.00     0.074 A 
ATOM     49  C   UNL A   1      42.271  27.698  31.235  1.00  0.00     0.029 A 
ATOM     50  N   UNL A   1      41.273  29.304  32.407  1.00  0.00    -0.354 N 
ATOM     51  N   UNL A   1      40.914  31.075  34.724  1.00  0.00    -0.248 NA
ATOM     52  C   UNL A   1      41.499  31.728  36.889  1.00  0.00     0.031 C 
ATOM     53  C   UNL A   1      42.911  27.805  32.474  1.00  0.00     0.029 A 
ATOM     54  C   UNL A   1      42.301  28.817  33.198  1.00  0.00     0.049 A 
ATOM     55  H   UNL A   1      40.658  30.029  32.663  1.00  0.00     0.167 HD
ATOM     56  C   UNL A   1      41.983  30.304  35.158  1.00  0.00     0.074 A 
ATOM     57  C   UNL A   1      42.321  30.767  36.488  1.00  0.00     0.031 C 
ATOM     58  C   UNL A   1      42.628  29.302  34.513  1.00  0.00     0.037 A 
BRANCH  45  59
ATOM     59  C   UNL A   1      40.329  27.993  28.933  1.00  0.00     0.064 A 
ATOM     60  C   UNL A   1      39.615  26.787  28.879  1.00  0.00     0.173 A 
ATOM     61  C   UNL A   1      41.069  28.369  27.803  1.00  0.00     0.173 A 
ATOM     62  F   UNL A   1      38.904  26.375  29.940  1.00  0.00    -0.203 F 
ATOM     63  C   UNL A   1      39.666  25.974  27.750  1.00  0.00     0.198 A 
ATOM     64  C   UNL A   1      41.095  27.568  26.665  1.00  0.00     0.198 A 
ATOM     65  F   UNL A   1      41.768  29.515  27.803  1.00  0.00    -0.203 F 
ATOM     66  F   UNL A   1      39.016  24.802  27.741  1.00  0.00    -0.200 F 
ATOM     67  C   UNL A   1      40.400  26.368  26.642  1.00  0.00     0.200 A 
ATOM     68  F   UNL A   1      41.799  27.953  25.592  1.00  0.00    -0.200 F 
ATOM     69  F   UNL A   1      40.447  25.585  25.555  1.00  0.00    -0.200 F 
ENDBRANCH  45  59
BRANCH  46  70
ATOM     70  C   UNL A   1      39.462  33.825  36.989  1.00  0.00     0.064 A 
ATOM     71  C   UNL A   1      38.696  33.393  38.080  1.00  0.00     0.173 A 
ATOM     72  C   UNL A   1      40.089  35.075  37.084  1.00  0.00     0.173 A 
ATOM     73  F   UNL A   1      38.062  32.213  38.026  1.00  0.00    -0.203 F 
ATOM     74  C   UNL A   1      38.547  34.187  39.216  1.00  0.00     0.198 A 
ATOM     75  C   UNL A   1      39.959  35.859  38.228  1.00  0.00     0.198 A 
ATOM     76  F   UNL A   1      40.837  35.530  36.067  1.00  0.00    -0.203 F 
ATOM     77  F   UNL A   1      37.778  33.767  40.228  1.00  0.00    -0.200 F 
ATOM     78  C   UNL A   1      39.182  35.418  39.290  1.00  0.00     0.200 A 
ATOM     79  F   UNL A   1      40.581  37.043  38.302  1.00  0.00    -0.200 F 
ATOM     80  F   UNL A   1      39.040  36.181  40.382  1.00  0.00    -0.200 F 
ENDBRANCH  46  70
BRANCH  58  81
ATOM     81  C   UNL A   1      43.784  28.663  35.221  1.00  0.00     0.064 A 
ATOM     82  C   UNL A   1      45.094  29.137  35.060  1.00  0.00     0.173 A 
ATOM     83  C   UNL A   1      43.570  27.596  36.107  1.00  0.00     0.173 A 
ATOM     84  F   UNL A   1      45.348  30.144  34.212  1.00  0.00    -0.203 F 
ATOM     85  C   UNL A   1      46.153  28.551  35.749  1.00  0.00     0.198 A 
ATOM     86  C   UNL A   1      44.628  27.029  36.811  1.00  0.00     0.198 A 
ATOM     87  F   UNL A   1      42.334  27.113  36.297  1.00  0.00    -0.203 F 
ATOM     88  F   UNL A   1      47.402  28.994  35.552  1.00  0.00    -0.200 F 
ATOM     89  C   UNL A   1      45.919  27.504  36.628  1.00  0.00     0.200 A 
ATOM     90  F   UNL A   1      44.399  26.024  37.666  1.00  0.00    -0.200 F 
ATOM     91  F   UNL A   1      46.939  26.946  37.294  1.00  0.00    -0.200 F 
ENDBRANCH  58  81
ENDBRANCH  32  33
ENDBRANCH  24  27
ENDBRANCH  22  23
ENDBRANCH  21  22
ENDBRANCH   1  21
TORSDOF 16
ENDMDL
MODEL 3
REMARK VINA RESULT:     -11.7      0.716      1.849
REMARK SMILES C[C@H](O)C[C@H](Cc1cccc(Br)c1)C(=O)NCCCCNC(=O)c1ccc(-c2c3nc(c(-c4c(F)c(F)c(F)c(F)c4F)c4ccc([nH]4)c(-c4c(F)c(F)c(F)c(F)c4F)c4nc(c(-c5c(F)c(F)c(F)c(F)c5F)c5ccc2[nH]5)C=C4)C=C3)cc1
REMARK SMILES IDX 18 1 17 2 16 3 14 4 15 5 5 7 4 8 2 9 1 10 3 11 6 13 7 14
REMARK SMILES IDX 8 15 13 16 9 17 11 18 10 19 12 20 19 21 20 22 21 23 22 24
REMARK SMILES IDX 23 26 24 27 25 28 86 29 26 30 85 31 27 32 28 33 29 34 79 35
REMARK SMILES IDX 30 36 84 37 78 38 80 39 31 40 83 41 77 42 76 43 32 45 64 46
REMARK SMILES IDX 44 47 63 48 45 49 48 50 62 51 81 52 46 53 47 54 61 56 82 57
REMARK SMILES IDX 49 58 33 59 34 60 42 61 35 62 36 63 40 64 43 65 37 66 38 67
REMARK SMILES IDX 41 68 39 69 65 70 66 71 74 72 67 73 68 74 72 75 75 76 69 77
REMARK SMILES IDX 70 78 73 79 71 80 50 81 51 82 59 83 52 84 53 85 57 86 60 87
REMARK SMILES IDX 54 88 55 89 58 90 56 91
REMARK H PARENT 16 6 3 12 21 25 80 44 48 55
REMARK Flexibility Score: inf
ROOT
ATOM      1  C   UNL A   1      32.202  30.371  26.692  1.00  0.00     0.023 C 
ENDROOT
BRANCH   1   2
ATOM      2  C   UNL A   1      31.870  29.763  25.333  1.00  0.00     0.116 C 
BRANCH   2   3
ATOM      3  N   UNL A   1      33.029  29.693  24.476  1.00  0.00    -0.356 N 
ATOM      4  C   UNL A   1      33.628  28.647  23.862  1.00  0.00     0.223 C 
ATOM      5  O   UNL A   1      34.596  28.918  23.138  1.00  0.00    -0.275 OA
ATOM      6  H   UNL A   1      33.460  30.562  24.308  1.00  0.00     0.163 HD
BRANCH   4   7
ATOM      7  C   UNL A   1      33.194  27.183  24.013  1.00  0.00     0.085 C 
BRANCH   7   8
ATOM      8  C   UNL A   1      32.046  26.683  23.109  1.00  0.00     0.045 C 
BRANCH   8   9
ATOM      9  C   UNL A   1      32.389  25.711  21.978  1.00  0.00     0.112 C 
ATOM     10  C   UNL A   1      32.475  24.272  22.475  1.00  0.00     0.038 C 
BRANCH   9  11
ATOM     11  O   UNL A   1      33.635  26.065  21.390  1.00  0.00    -0.393 OA
ATOM     12  H   UNL A   1      34.359  25.703  21.924  1.00  0.00     0.210 HD
ENDBRANCH   9  11
ENDBRANCH   8   9
ENDBRANCH   7   8
BRANCH   7  13
ATOM     13  C   UNL A   1      33.316  26.557  25.428  1.00  0.00     0.049 C 
BRANCH  13  14
ATOM     14  C   UNL A   1      33.779  25.139  25.680  1.00  0.00    -0.046 A 
ATOM     15  C   UNL A   1      33.097  24.244  26.514  1.00  0.00     0.004 A 
ATOM     16  C   UNL A   1      34.909  24.660  24.991  1.00  0.00     0.019 A 
ATOM     17  C   UNL A   1      33.579  22.949  26.732  1.00  0.00     0.001 A 
ATOM     18  C   UNL A   1      35.383  23.362  25.204  1.00  0.00     0.018 A 
ATOM     19  C   UNL A   1      34.731  22.509  26.087  1.00  0.00     0.016 A 
ATOM     20  Br  UNL A   1      36.954  22.782  24.328  1.00  0.00    -0.051 Br
ENDBRANCH  13  14
ENDBRANCH   7  13
ENDBRANCH   4   7
ENDBRANCH   2   3
ENDBRANCH   1   2
BRANCH   1  21
ATOM     21  C   UNL A   1      31.781  31.824  26.868  1.00  0.00     0.023 C 
BRANCH  21  22
ATOM     22  C   UNL A   1      32.904  32.773  27.269  1.00  0.00     0.116 C 
BRANCH  22  23
ATOM     23  N   UNL A   1      32.469  34.125  27.600  1.00  0.00    -0.352 N 
ATOM     24  C   UNL A   1      32.997  34.982  28.543  1.00  0.00     0.251 C 
ATOM     25  H   UNL A   1      31.703  34.469  27.087  1.00  0.00     0.163 HD
ATOM     26  O   UNL A   1      32.509  36.078  28.750  1.00  0.00    -0.269 OA
BRANCH  24  27
ATOM     27  C   UNL A   1      34.150  34.510  29.338  1.00  0.00     0.039 A 
ATOM     28  C   UNL A   1      33.909  33.864  30.552  1.00  0.00     0.014 A 
ATOM     29  C   UNL A   1      35.443  34.601  28.820  1.00  0.00     0.014 A 
ATOM     30  C   UNL A   1      34.962  33.218  31.202  1.00  0.00     0.010 A 
ATOM     31  C   UNL A   1      36.470  33.892  29.425  1.00  0.00     0.010 A 
ATOM     32  C   UNL A   1      36.237  33.184  30.616  1.00  0.00    -0.014 A 
BRANCH  32  33
ATOM     33  C   UNL A   1      37.344  32.397  31.213  1.00  0.00     0.031 A 
ATOM     34  C   UNL A   1      37.838  32.731  32.591  1.00  0.00     0.074 A 
ATOM     35  C   UNL A   1      37.965  31.453  30.479  1.00  0.00     0.049 A 
ATOM     36  N   UNL A   1      38.861  32.243  33.245  1.00  0.00    -0.248 NA
ATOM     37  C   UNL A   1      37.108  33.783  33.315  1.00  0.00     0.031 C 
ATOM     38  C   UNL A   1      37.621  31.083  29.105  1.00  0.00     0.029 A 
ATOM     39  N   UNL A   1      39.029  30.642  30.783  1.00  0.00    -0.354 N 
ATOM     40  C   UNL A   1      38.915  32.949  34.438  1.00  0.00     0.074 A 
ATOM     41  C   UNL A   1      37.852  33.930  34.400  1.00  0.00     0.031 C 
ATOM     42  C   UNL A   1      38.440  30.101  28.695  1.00  0.00     0.029 A 
ATOM     43  C   UNL A   1      39.388  29.796  29.762  1.00  0.00     0.049 A 
ATOM     44  H   UNL A   1      39.493  30.665  31.652  1.00  0.00     0.167 HD
ATOM     45  C   UNL A   1      39.761  32.780  35.481  1.00  0.00     0.037 A 
ATOM     46  C   UNL A   1      40.371  28.879  29.697  1.00  0.00     0.037 A 
ATOM     47  C   UNL A   1      40.782  31.769  35.537  1.00  0.00     0.049 A 
ATOM     48  C   UNL A   1      41.269  28.679  30.887  1.00  0.00     0.074 A 
ATOM     49  C   UNL A   1      41.634  31.459  36.583  1.00  0.00     0.029 A 
ATOM     50  N   UNL A   1      41.083  30.898  34.501  1.00  0.00    -0.354 N 
ATOM     51  N   UNL A   1      41.265  29.304  32.039  1.00  0.00    -0.248 NA
ATOM     52  C   UNL A   1      42.304  27.643  30.769  1.00  0.00     0.031 C 
ATOM     53  C   UNL A   1      42.470  30.416  36.168  1.00  0.00     0.029 A 
ATOM     54  C   UNL A   1      42.116  30.055  34.878  1.00  0.00     0.049 A 
ATOM     55  H   UNL A   1      40.630  30.880  33.627  1.00  0.00     0.167 HD
ATOM     56  C   UNL A   1      42.275  28.723  32.792  1.00  0.00     0.074 A 
ATOM     57  C   UNL A   1      42.866  27.687  31.970  1.00  0.00     0.031 C 
ATOM     58  C   UNL A   1      42.679  29.021  34.050  1.00  0.00     0.037 A 
BRANCH  45  59
ATOM     59  C   UNL A   1      39.607  33.705  36.651  1.00  0.00     0.064 A 
ATOM     60  C   UNL A   1      38.803  33.369  37.751  1.00  0.00     0.173 A 
ATOM     61  C   UNL A   1      40.283  34.932  36.682  1.00  0.00     0.173 A 
ATOM     62  F   UNL A   1      38.123  32.212  37.762  1.00  0.00    -0.203 F 
ATOM     63  C   UNL A   1      38.657  34.242  38.825  1.00  0.00     0.198 A 
ATOM     64  C   UNL A   1      40.158  35.791  37.770  1.00  0.00     0.198 A 
ATOM     65  F   UNL A   1      41.066  35.300  35.656  1.00  0.00    -0.203 F 
ATOM     66  F   UNL A   1      37.844  33.922  39.840  1.00  0.00    -0.200 F 
ATOM     67  C   UNL A   1      39.339  35.449  38.837  1.00  0.00     0.200 A 
ATOM     68  F   UNL A   1      40.824  36.954  37.785  1.00  0.00    -0.200 F 
ATOM     69  F   UNL A   1      39.200  36.288  39.873  1.00  0.00    -0.200 F 
ENDBRANCH  45  59
BRANCH  46  70
ATOM     70  C   UNL A   1      40.531  28.046  28.478  1.00  0.00     0.064 A 
ATOM     71  C   UNL A   1      39.911  26.793  28.383  1.00  0.00     0.173 A 
ATOM     72  C   UNL A   1      41.302  28.479  27.390  1.00  0.00     0.173 A 
ATOM     73  F   UNL A   1      39.181  26.330  29.408  1.00  0.00    -0.203 F 
ATOM     74  C   UNL A   1      40.069  25.995  27.252  1.00  0.00     0.198 A 
ATOM     75  C   UNL A   1      41.441  27.690  26.250  1.00  0.00     0.198 A 
ATOM     76  F   UNL A   1      41.912  29.673  27.431  1.00  0.00    -0.203 F 
ATOM     77  F   UNL A   1      39.497  24.785  27.204  1.00  0.00    -0.200 F 
ATOM     78  C   UNL A   1      40.831  26.446  26.185  1.00  0.00     0.200 A 
ATOM     79  F   UNL A   1      42.169  28.133  25.216  1.00  0.00    -0.200 F 
ATOM     80  F   UNL A   1      40.982  25.679  25.097  1.00  0.00    -0.200 F 
ENDBRANCH  46  70
BRANCH  58  81
ATOM     81  C   UNL A   1      43.787  28.194  34.628  1.00  0.00     0.064 A 
ATOM     82  C   UNL A   1      43.529  26.986  35.292  1.00  0.00     0.173 A 
ATOM     83  C   UNL A   1      45.123  28.593  34.474  1.00  0.00     0.173 A 
ATOM     84  F   UNL A   1      42.267  26.573  35.477  1.00  0.00    -0.203 F 
ATOM     85  C   UNL A   1      44.572  26.214  35.798  1.00  0.00     0.198 A 
ATOM     86  C   UNL A   1      46.163  27.807  34.959  1.00  0.00     0.198 A 
ATOM     87  F   UNL A   1      45.418  29.738  33.841  1.00  0.00    -0.203 F 
ATOM     88  F   UNL A   1      44.304  25.082  36.462  1.00  0.00    -0.200 F 
ATOM     89  C   UNL A   1      45.888  26.621  35.625  1.00  0.00     0.200 A 
ATOM     90  F   UNL A   1      47.433  28.196  34.784  1.00  0.00    -0.200 F 
ATOM     91  F   UNL A   1      46.890  25.874  36.106  1.00  0.00    -0.200 F 
ENDBRANCH  58  81
ENDBRANCH  32  33
ENDBRANCH  24  27
ENDBRANCH  22  23
ENDBRANCH  21  22
ENDBRANCH   1  21
TORSDOF 16
ENDMDL
