MODEL 1
REMARK VINA RESULT:     -11.9      0.000      0.000
REMARK SMILES O=C(CCCNC(=O)N1CC[C@@H](C(=O)NCCCCNC(=O)c2ccc(-c3c4nc(c(-c5c(F)c(F)c(F)c(F)c5F)c5ccc([nH]5)c(-c5c(F)c(F)c(F)c(F)c5F)c5nc(c(-c6c(F)c(F)c(F)c(F)c6F)c6ccc3[nH]6)C=C5)C=C4)cc2)C1)NC1CC1
REMARK SMILES IDX 13 1 14 2 15 3 12 5 9 6 10 7 86 8 11 9 7 10 6 11 8 13 5 14
REMARK SMILES IDX 4 15 3 16 2 17 1 18 87 19 88 21 89 22 90 23 16 24 17 25
REMARK SMILES IDX 18 26 19 27 20 28 21 29 22 31 23 32 24 33 85 34 25 35 84 36
REMARK SMILES IDX 26 37 27 38 28 39 78 40 29 41 83 42 77 43 79 44 30 45 82 46
REMARK SMILES IDX 76 47 75 48 31 50 63 51 43 52 62 53 44 54 47 55 61 56 80 57
REMARK SMILES IDX 45 58 46 59 60 61 81 62 48 63 32 64 33 65 41 66 34 67 35 68
REMARK SMILES IDX 39 69 42 70 36 71 37 72 40 73 38 74 64 75 65 76 73 77 66 78
REMARK SMILES IDX 67 79 71 80 74 81 68 82 69 83 72 84 70 85 49 86 50 87 58 88
REMARK SMILES IDX 51 89 52 90 56 91 59 92 53 93 54 94 57 95 55 96
REMARK H PARENT 15 4 6 12 87 20 20 30 79 49 47 60
REMARK Flexibility Score: inf
ROOT
ATOM      1  C   UNL A   1      34.299  22.408  26.827  1.00  0.00     0.224 C 
ATOM      2  O   UNL A   1      34.032  22.682  27.996  1.00  0.00    -0.275 OA
ATOM      3  N   UNL A   1      35.242  21.445  26.581  1.00  0.00    -0.356 N 
ATOM      4  H   UNL A   1      35.741  21.118  27.364  1.00  0.00     0.163 HD
ENDROOT
BRANCH   1   5
ATOM      5  C   UNL A   1      33.679  23.139  25.648  1.00  0.00     0.100 C 
ATOM      6  N   UNL A   1      32.287  25.050  25.679  1.00  0.00    -0.324 N 
ATOM      7  C   UNL A   1      33.643  25.554  25.760  1.00  0.00     0.122 C 
ATOM      8  C   UNL A   1      32.278  23.646  25.979  1.00  0.00     0.134 C 
ATOM      9  C   UNL A   1      34.456  24.397  25.206  1.00  0.00     0.037 C 
BRANCH   6  10
ATOM     10  C   UNL A   1      31.127  25.748  25.720  1.00  0.00     0.317 C 
ATOM     11  N   UNL A   1      30.659  26.313  24.587  1.00  0.00    -0.338 N 
ATOM     12  H   UNL A   1      30.088  27.107  24.700  1.00  0.00     0.165 HD
ATOM     13  O   UNL A   1      30.431  25.826  26.731  1.00  0.00    -0.249 OA
BRANCH  11  14
ATOM     14  C   UNL A   1      30.903  25.886  23.220  1.00  0.00     0.118 C 
BRANCH  14  15
ATOM     15  C   UNL A   1      31.154  27.069  22.281  1.00  0.00     0.031 C 
BRANCH  15  16
ATOM     16  C   UNL A   1      31.109  28.453  22.929  1.00  0.00     0.102 C 
BRANCH  16  17
ATOM     17  C   UNL A   1      30.035  29.340  22.335  1.00  0.00     0.220 C 
ATOM     18  O   UNL A   1      30.184  29.894  21.251  1.00  0.00    -0.275 OA
ATOM     19  N   UNL A   1      28.921  29.480  23.137  1.00  0.00    -0.353 N 
ATOM     20  H   UNL A   1      28.881  28.963  23.974  1.00  0.00     0.163 HD
BRANCH  19  21
ATOM     21  C   UNL A   1      27.824  30.333  22.818  1.00  0.00     0.082 C 
ATOM     22  C   UNL A   1      27.279  31.259  23.876  1.00  0.00     0.027 C 
ATOM     23  C   UNL A   1      27.982  31.820  22.676  1.00  0.00     0.027 C 
ENDBRANCH  19  21
ENDBRANCH  16  17
ENDBRANCH  15  16
ENDBRANCH  14  15
ENDBRANCH  11  14
ENDBRANCH   6  10
ENDBRANCH   1   5
BRANCH   3  24
ATOM     24  C   UNL A   1      35.593  20.849  25.304  1.00  0.00     0.116 C 
BRANCH  24  25
ATOM     25  C   UNL A   1      37.012  21.144  24.840  1.00  0.00     0.023 C 
BRANCH  25  26
ATOM     26  C   UNL A   1      38.010  20.000  25.001  1.00  0.00     0.023 C 
BRANCH  26  27
ATOM     27  C   UNL A   1      39.264  20.323  25.808  1.00  0.00     0.116 C 
BRANCH  27  28
ATOM     28  N   UNL A   1      40.196  19.210  25.898  1.00  0.00    -0.352 N 
ATOM     29  C   UNL A   1      41.556  19.201  26.122  1.00  0.00     0.251 C 
ATOM     30  H   UNL A   1      39.791  18.320  25.781  1.00  0.00     0.163 HD
ATOM     31  O   UNL A   1      42.190  18.162  26.031  1.00  0.00    -0.269 OA
BRANCH  29  32
ATOM     32  C   UNL A   1      42.256  20.467  26.428  1.00  0.00     0.039 A 
ATOM     33  C   UNL A   1      42.794  21.211  25.376  1.00  0.00     0.014 A 
ATOM     34  C   UNL A   1      42.357  20.931  27.741  1.00  0.00     0.014 A 
ATOM     35  C   UNL A   1      43.333  22.475  25.629  1.00  0.00     0.010 A 
ATOM     36  C   UNL A   1      42.810  22.224  27.980  1.00  0.00     0.010 A 
ATOM     37  C   UNL A   1      43.291  23.013  26.924  1.00  0.00    -0.014 A 
BRANCH  37  38
ATOM     38  C   UNL A   1      43.716  24.409  27.200  1.00  0.00     0.031 A 
ATOM     39  C   UNL A   1      42.724  25.418  27.702  1.00  0.00     0.074 A 
ATOM     40  C   UNL A   1      44.976  24.790  26.911  1.00  0.00     0.049 A 
ATOM     41  N   UNL A   1      42.877  26.701  27.908  1.00  0.00    -0.248 NA
ATOM     42  C   UNL A   1      41.366  24.923  27.975  1.00  0.00     0.031 C 
ATOM     43  C   UNL A   1      46.023  23.917  26.375  1.00  0.00     0.029 A 
ATOM     44  N   UNL A   1      45.588  26.014  27.016  1.00  0.00    -0.354 N 
ATOM     45  C   UNL A   1      41.634  27.169  28.312  1.00  0.00     0.074 A 
ATOM     46  C   UNL A   1      40.725  26.043  28.269  1.00  0.00     0.031 C 
ATOM     47  C   UNL A   1      47.155  24.625  26.233  1.00  0.00     0.029 A 
ATOM     48  C   UNL A   1      46.904  26.009  26.623  1.00  0.00     0.049 A 
ATOM     49  H   UNL A   1      45.127  26.820  27.343  1.00  0.00     0.167 HD
ATOM     50  C   UNL A   1      41.288  28.418  28.706  1.00  0.00     0.037 A 
ATOM     51  C   UNL A   1      47.804  27.008  26.575  1.00  0.00     0.037 A 
ATOM     52  C   UNL A   1      42.203  29.526  28.776  1.00  0.00     0.049 A 
ATOM     53  C   UNL A   1      47.388  28.392  26.990  1.00  0.00     0.074 A 
ATOM     54  C   UNL A   1      41.974  30.807  29.247  1.00  0.00     0.029 A 
ATOM     55  N   UNL A   1      43.524  29.486  28.353  1.00  0.00    -0.354 N 
ATOM     56  N   UNL A   1      46.232  28.807  27.446  1.00  0.00    -0.248 NA
ATOM     57  C   UNL A   1      48.405  29.448  26.877  1.00  0.00     0.031 C 
ATOM     58  C   UNL A   1      43.143  31.556  29.064  1.00  0.00     0.029 A 
ATOM     59  C   UNL A   1      44.113  30.730  28.520  1.00  0.00     0.049 A 
ATOM     60  H   UNL A   1      43.976  28.691  27.990  1.00  0.00     0.167 HD
ATOM     61  C   UNL A   1      46.384  30.164  27.695  1.00  0.00     0.074 A 
ATOM     62  C   UNL A   1      47.751  30.500  27.351  1.00  0.00     0.031 C 
ATOM     63  C   UNL A   1      45.473  31.050  28.167  1.00  0.00     0.037 A 
BRANCH  50  64
ATOM     64  C   UNL A   1      39.853  28.645  29.084  1.00  0.00     0.064 A 
ATOM     65  C   UNL A   1      38.904  29.087  28.148  1.00  0.00     0.173 A 
ATOM     66  C   UNL A   1      39.419  28.418  30.399  1.00  0.00     0.173 A 
ATOM     67  F   UNL A   1      39.268  29.329  26.880  1.00  0.00    -0.203 F 
ATOM     68  C   UNL A   1      37.588  29.338  28.526  1.00  0.00     0.198 A 
ATOM     69  C   UNL A   1      38.094  28.639  30.765  1.00  0.00     0.198 A 
ATOM     70  F   UNL A   1      40.282  27.988  31.331  1.00  0.00    -0.203 F 
ATOM     71  F   UNL A   1      36.717  29.824  27.631  1.00  0.00    -0.200 F 
ATOM     72  C   UNL A   1      37.183  29.111  29.833  1.00  0.00     0.200 A 
ATOM     73  F   UNL A   1      37.701  28.408  32.026  1.00  0.00    -0.200 F 
ATOM     74  F   UNL A   1      35.917  29.358  30.196  1.00  0.00    -0.200 F 
ENDBRANCH  50  64
BRANCH  51  75
ATOM     75  C   UNL A   1      49.201  26.726  26.154  1.00  0.00     0.064 A 
ATOM     76  C   UNL A   1      50.143  26.267  27.084  1.00  0.00     0.173 A 
ATOM     77  C   UNL A   1      49.617  26.889  24.826  1.00  0.00     0.173 A 
ATOM     78  F   UNL A   1      49.795  26.117  28.371  1.00  0.00    -0.203 F 
ATOM     79  C   UNL A   1      51.454  25.989  26.703  1.00  0.00     0.198 A 
ATOM     80  C   UNL A   1      50.922  26.587  24.441  1.00  0.00     0.198 A 
ATOM     81  F   UNL A   1      48.752  27.322  23.898  1.00  0.00    -0.203 F 
ATOM     82  F   UNL A   1      52.343  25.580  27.618  1.00  0.00    -0.200 F 
ATOM     83  C   UNL A   1      51.840  26.142  25.381  1.00  0.00     0.200 A 
ATOM     84  F   UNL A   1      51.289  26.724  23.159  1.00  0.00    -0.200 F 
ATOM     85  F   UNL A   1      53.098  25.865  25.012  1.00  0.00    -0.200 F 
ENDBRANCH  51  75
BRANCH  63  86
ATOM     86  C   UNL A   1      45.929  32.467  28.354  1.00  0.00     0.064 A 
ATOM     87  C   UNL A   1      46.585  32.877  29.524  1.00  0.00     0.173 A 
ATOM     88  C   UNL A   1      45.748  33.414  27.335  1.00  0.00     0.173 A 
ATOM     89  F   UNL A   1      46.765  32.015  30.535  1.00  0.00    -0.203 F 
ATOM     90  C   UNL A   1      47.026  34.190  29.673  1.00  0.00     0.198 A 
ATOM     91  C   UNL A   1      46.215  34.717  27.476  1.00  0.00     0.198 A 
ATOM     92  F   UNL A   1      45.128  33.070  26.195  1.00  0.00    -0.203 F 
ATOM     93  F   UNL A   1      47.614  34.571  30.815  1.00  0.00    -0.200 F 
ATOM     94  C   UNL A   1      46.849  35.106  28.646  1.00  0.00     0.200 A 
ATOM     95  F   UNL A   1      46.052  35.598  26.478  1.00  0.00    -0.200 F 
ATOM     96  F   UNL A   1      47.283  36.366  28.788  1.00  0.00    -0.200 F 
ENDBRANCH  63  86
ENDBRANCH  37  38
ENDBRANCH  29  32
ENDBRANCH  27  28
ENDBRANCH  26  27
ENDBRANCH  25  26
ENDBRANCH  24  25
ENDBRANCH   3  24
TORSDOF 17
ENDMDL
MODEL 2
REMARK VINA RESULT:     -11.7      5.758     11.586
REMARK SMILES O=C(CCCNC(=O)N1CC[C@@H](C(=O)NCCCCNC(=O)c2ccc(-c3c4nc(c(-c5c(F)c(F)c(F)c(F)c5F)c5ccc([nH]5)c(-c5c(F)c(F)c(F)c(F)c5F)c5nc(c(-c6c(F)c(F)c(F)c(F)c6F)c6ccc3[nH]6)C=C5)C=C4)cc2)C1)NC1CC1
REMARK SMILES IDX 13 1 14 2 15 3 12 5 9 6 10 7 86 8 11 9 7 10 6 11 8 13 5 14
REMARK SMILES IDX 4 15 3 16 2 17 1 18 87 19 88 21 89 22 90 23 16 24 17 25
REMARK SMILES IDX 18 26 19 27 20 28 21 29 22 31 23 32 24 33 85 34 25 35 84 36
REMARK SMILES IDX 26 37 27 38 28 39 78 40 29 41 83 42 77 43 79 44 30 45 82 46
REMARK SMILES IDX 76 47 75 48 31 50 63 51 43 52 62 53 44 54 47 55 61 56 80 57
REMARK SMILES IDX 45 58 46 59 60 61 81 62 48 63 32 64 33 65 41 66 34 67 35 68
REMARK SMILES IDX 39 69 42 70 36 71 37 72 40 73 38 74 64 75 65 76 73 77 66 78
REMARK SMILES IDX 67 79 71 80 74 81 68 82 69 83 72 84 70 85 49 86 50 87 58 88
REMARK SMILES IDX 51 89 52 90 56 91 59 92 53 93 54 94 57 95 55 96
REMARK H PARENT 15 4 6 12 87 20 20 30 79 49 47 60
REMARK Flexibility Score: inf
ROOT
ATOM      1  C   UNL A   1      31.609  27.169  26.488  1.00  0.00     0.224 C 
ATOM      2  O   UNL A   1      31.084  26.121  26.862  1.00  0.00    -0.275 OA
ATOM      3  N   UNL A   1      31.851  28.146  27.418  1.00  0.00    -0.356 N 
ATOM      4  H   UNL A   1      31.473  27.994  28.314  1.00  0.00     0.163 HD
ENDROOT
BRANCH   1   5
ATOM      5  C   UNL A   1      31.935  27.453  25.032  1.00  0.00     0.100 C 
ATOM      6  N   UNL A   1      32.393  25.903  23.306  1.00  0.00    -0.324 N 
ATOM      7  C   UNL A   1      30.948  25.982  23.387  1.00  0.00     0.122 C 
ATOM      8  C   UNL A   1      32.972  26.472  24.490  1.00  0.00     0.134 C 
ATOM      9  C   UNL A   1      30.732  27.317  24.077  1.00  0.00     0.037 C 
BRANCH   6  10
ATOM     10  C   UNL A   1      33.148  25.109  22.510  1.00  0.00     0.317 C 
ATOM     11  N   UNL A   1      33.308  23.810  22.838  1.00  0.00    -0.338 N 
ATOM     12  H   UNL A   1      34.132  23.378  22.518  1.00  0.00     0.165 HD
ATOM     13  O   UNL A   1      33.635  25.498  21.450  1.00  0.00    -0.249 OA
BRANCH  11  14
ATOM     14  C   UNL A   1      32.405  22.976  23.613  1.00  0.00     0.118 C 
BRANCH  14  15
ATOM     15  C   UNL A   1      33.056  22.454  24.896  1.00  0.00     0.031 C 
BRANCH  15  16
ATOM     16  C   UNL A   1      34.021  21.281  24.722  1.00  0.00     0.102 C 
BRANCH  16  17
ATOM     17  C   UNL A   1      33.322  19.939  24.773  1.00  0.00     0.220 C 
ATOM     18  O   UNL A   1      32.109  19.850  24.933  1.00  0.00    -0.275 OA
ATOM     19  N   UNL A   1      34.175  18.860  24.660  1.00  0.00    -0.353 N 
ATOM     20  H   UNL A   1      35.130  19.036  24.496  1.00  0.00     0.163 HD
BRANCH  19  21
ATOM     21  C   UNL A   1      33.747  17.504  24.764  1.00  0.00     0.082 C 
ATOM     22  C   UNL A   1      33.950  16.576  23.594  1.00  0.00     0.027 C 
ATOM     23  C   UNL A   1      34.722  16.365  24.861  1.00  0.00     0.027 C 
ENDBRANCH  19  21
ENDBRANCH  16  17
ENDBRANCH  15  16
ENDBRANCH  14  15
ENDBRANCH  11  14
ENDBRANCH   6  10
ENDBRANCH   1   5
BRANCH   3  24
ATOM     24  C   UNL A   1      32.602  29.377  27.241  1.00  0.00     0.116 C 
BRANCH  24  25
ATOM     25  C   UNL A   1      31.964  30.369  26.279  1.00  0.00     0.023 C 
BRANCH  25  26
ATOM     26  C   UNL A   1      31.616  31.732  26.874  1.00  0.00     0.023 C 
BRANCH  26  27
ATOM     27  C   UNL A   1      32.798  32.558  27.374  1.00  0.00     0.116 C 
BRANCH  27  28
ATOM     28  N   UNL A   1      32.462  33.950  27.632  1.00  0.00    -0.352 N 
ATOM     29  C   UNL A   1      33.004  34.846  28.527  1.00  0.00     0.251 C 
ATOM     30  H   UNL A   1      31.732  34.309  27.079  1.00  0.00     0.163 HD
ATOM     31  O   UNL A   1      32.494  35.943  28.689  1.00  0.00    -0.269 OA
BRANCH  29  32
ATOM     32  C   UNL A   1      34.184  34.458  29.329  1.00  0.00     0.039 A 
ATOM     33  C   UNL A   1      33.986  33.930  30.608  1.00  0.00     0.014 A 
ATOM     34  C   UNL A   1      35.475  34.587  28.815  1.00  0.00     0.014 A 
ATOM     35  C   UNL A   1      35.075  33.428  31.324  1.00  0.00     0.010 A 
ATOM     36  C   UNL A   1      36.545  34.006  29.488  1.00  0.00     0.010 A 
ATOM     37  C   UNL A   1      36.353  33.409  30.744  1.00  0.00    -0.014 A 
BRANCH  37  38
ATOM     38  C   UNL A   1      37.501  32.747  31.413  1.00  0.00     0.031 A 
ATOM     39  C   UNL A   1      38.203  31.596  30.752  1.00  0.00     0.074 A 
ATOM     40  C   UNL A   1      37.853  33.124  32.659  1.00  0.00     0.049 A 
ATOM     41  N   UNL A   1      39.157  30.830  31.215  1.00  0.00    -0.248 NA
ATOM     42  C   UNL A   1      37.746  31.238  29.401  1.00  0.00     0.031 C 
ATOM     43  C   UNL A   1      37.220  34.197  33.429  1.00  0.00     0.029 A 
ATOM     44  N   UNL A   1      38.821  32.639  33.501  1.00  0.00    -0.354 N 
ATOM     45  C   UNL A   1      39.397  29.887  30.224  1.00  0.00     0.074 A 
ATOM     46  C   UNL A   1      38.452  30.144  29.158  1.00  0.00     0.031 C 
ATOM     47  C   UNL A   1      37.840  34.312  34.614  1.00  0.00     0.029 A 
ATOM     48  C   UNL A   1      38.881  33.294  34.707  1.00  0.00     0.049 A 
ATOM     49  H   UNL A   1      39.417  31.893  33.263  1.00  0.00     0.167 HD
ATOM     50  C   UNL A   1      40.336  28.911  30.195  1.00  0.00     0.037 A 
ATOM     51  C   UNL A   1      39.682  33.092  35.770  1.00  0.00     0.037 A 
ATOM     52  C   UNL A   1      41.294  28.679  31.243  1.00  0.00     0.049 A 
ATOM     53  C   UNL A   1      40.697  31.984  35.725  1.00  0.00     0.074 A 
ATOM     54  C   UNL A   1      42.343  27.777  31.272  1.00  0.00     0.029 A 
ATOM     55  N   UNL A   1      41.313  29.352  32.457  1.00  0.00    -0.354 N 
ATOM     56  N   UNL A   1      40.969  31.150  34.752  1.00  0.00    -0.248 NA
ATOM     57  C   UNL A   1      41.513  31.787  36.933  1.00  0.00     0.031 C 
ATOM     58  C   UNL A   1      42.966  27.870  32.522  1.00  0.00     0.029 A 
ATOM     59  C   UNL A   1      42.333  28.861  33.256  1.00  0.00     0.049 A 
ATOM     60  H   UNL A   1      40.693  30.073  32.712  1.00  0.00     0.167 HD
ATOM     61  C   UNL A   1      41.999  30.343  35.218  1.00  0.00     0.074 A 
ATOM     62  C   UNL A   1      42.312  30.798  36.558  1.00  0.00     0.031 C 
ATOM     63  C   UNL A   1      42.629  29.320  34.589  1.00  0.00     0.037 A 
BRANCH  50  64
ATOM     64  C   UNL A   1      40.361  28.020  28.987  1.00  0.00     0.064 A 
ATOM     65  C   UNL A   1      41.107  28.348  27.843  1.00  0.00     0.173 A 
ATOM     66  C   UNL A   1      39.630  26.823  28.971  1.00  0.00     0.173 A 
ATOM     67  F   UNL A   1      41.815  29.486  27.802  1.00  0.00    -0.203 F 
ATOM     68  C   UNL A   1      41.082  27.533  26.714  1.00  0.00     0.198 A 
ATOM     69  C   UNL A   1      39.634  25.995  27.852  1.00  0.00     0.198 A 
ATOM     70  F   UNL A   1      38.906  26.458  30.040  1.00  0.00    -0.203 F 
ATOM     71  F   UNL A   1      41.748  27.902  25.610  1.00  0.00    -0.200 F 
ATOM     72  C   UNL A   1      40.348  26.357  26.720  1.00  0.00     0.200 A 
ATOM     73  F   UNL A   1      38.934  24.851  27.863  1.00  0.00    -0.200 F 
ATOM     74  F   UNL A   1      40.321  25.577  25.630  1.00  0.00    -0.200 F 
ENDBRANCH  50  64
BRANCH  51  75
ATOM     75  C   UNL A   1      39.580  33.986  36.952  1.00  0.00     0.064 A 
ATOM     76  C   UNL A   1      40.244  35.219  36.969  1.00  0.00     0.173 A 
ATOM     77  C   UNL A   1      38.813  33.641  38.073  1.00  0.00     0.173 A 
ATOM     78  F   UNL A   1      41.007  35.581  35.927  1.00  0.00    -0.203 F 
ATOM     79  C   UNL A   1      40.150  36.073  38.065  1.00  0.00     0.198 A 
ATOM     80  C   UNL A   1      38.701  34.505  39.160  1.00  0.00     0.198 A 
ATOM     81  F   UNL A   1      38.156  32.472  38.105  1.00  0.00    -0.203 F 
ATOM     82  F   UNL A   1      40.820  37.234  38.067  1.00  0.00    -0.200 F 
ATOM     83  C   UNL A   1      39.374  35.718  39.157  1.00  0.00     0.200 A 
ATOM     84  F   UNL A   1      37.938  34.165  40.209  1.00  0.00    -0.200 F 
ATOM     85  F   UNL A   1      39.275  36.544  40.208  1.00  0.00    -0.200 F 
ENDBRANCH  51  75
BRANCH  63  86
ATOM     86  C   UNL A   1      43.730  28.630  35.339  1.00  0.00     0.064 A 
ATOM     87  C   UNL A   1      43.477  27.516  36.151  1.00  0.00     0.173 A 
ATOM     88  C   UNL A   1      45.059  29.061  35.207  1.00  0.00     0.173 A 
ATOM     89  F   UNL A   1      42.222  27.077  36.325  1.00  0.00    -0.203 F 
ATOM     90  C   UNL A   1      44.514  26.869  36.821  1.00  0.00     0.198 A 
ATOM     91  C   UNL A   1      46.095  28.395  35.855  1.00  0.00     0.198 A 
ATOM     92  F   UNL A   1      45.353  30.121  34.438  1.00  0.00    -0.203 F 
ATOM     93  F   UNL A   1      44.244  25.831  37.624  1.00  0.00    -0.200 F 
ATOM     94  C   UNL A   1      45.822  27.303  36.665  1.00  0.00     0.200 A 
ATOM     95  F   UNL A   1      47.360  28.809  35.694  1.00  0.00    -0.200 F 
ATOM     96  F   UNL A   1      46.818  26.674  37.302  1.00  0.00    -0.200 F 
ENDBRANCH  63  86
ENDBRANCH  37  38
ENDBRANCH  29  32
ENDBRANCH  27  28
ENDBRANCH  26  27
ENDBRANCH  25  26
ENDBRANCH  24  25
ENDBRANCH   3  24
TORSDOF 17
ENDMDL
MODEL 3
REMARK VINA RESULT:     -11.7      1.314      2.372
REMARK SMILES O=C(CCCNC(=O)N1CC[C@@H](C(=O)NCCCCNC(=O)c2ccc(-c3c4nc(c(-c5c(F)c(F)c(F)c(F)c5F)c5ccc([nH]5)c(-c5c(F)c(F)c(F)c(F)c5F)c5nc(c(-c6c(F)c(F)c(F)c(F)c6F)c6ccc3[nH]6)C=C5)C=C4)cc2)C1)NC1CC1
REMARK SMILES IDX 13 1 14 2 15 3 12 5 9 6 10 7 86 8 11 9 7 10 6 11 8 13 5 14
REMARK SMILES IDX 4 15 3 16 2 17 1 18 87 19 88 21 89 22 90 23 16 24 17 25
REMARK SMILES IDX 18 26 19 27 20 28 21 29 22 31 23 32 24 33 85 34 25 35 84 36
REMARK SMILES IDX 26 37 27 38 28 39 78 40 29 41 83 42 77 43 79 44 30 45 82 46
REMARK SMILES IDX 76 47 75 48 31 50 63 51 43 52 62 53 44 54 47 55 61 56 80 57
REMARK SMILES IDX 45 58 46 59 60 61 81 62 48 63 32 64 33 65 41 66 34 67 35 68
REMARK SMILES IDX 39 69 42 70 36 71 37 72 40 73 38 74 64 75 65 76 73 77 66 78
REMARK SMILES IDX 67 79 71 80 74 81 68 82 69 83 72 84 70 85 49 86 50 87 58 88
REMARK SMILES IDX 51 89 52 90 56 91 59 92 53 93 54 94 57 95 55 96
REMARK H PARENT 15 4 6 12 87 20 20 30 79 49 47 60
REMARK Flexibility Score: inf
ROOT
ATOM      1  C   UNL A   1      33.737  22.273  25.186  1.00  0.00     0.224 C 
ATOM      2  O   UNL A   1      32.727  22.659  25.772  1.00  0.00    -0.275 OA
ATOM      3  N   UNL A   1      34.356  21.134  25.631  1.00  0.00    -0.356 N 
ATOM      4  H   UNL A   1      34.020  20.763  26.478  1.00  0.00     0.163 HD
ENDROOT
BRANCH   1   5
ATOM      5  C   UNL A   1      34.365  23.040  24.035  1.00  0.00     0.100 C 
ATOM      6  N   UNL A   1      33.416  24.781  22.746  1.00  0.00    -0.324 N 
ATOM      7  C   UNL A   1      33.930  25.417  23.943  1.00  0.00     0.122 C 
ATOM      8  C   UNL A   1      33.339  23.362  22.952  1.00  0.00     0.134 C 
ATOM      9  C   UNL A   1      34.954  24.409  24.435  1.00  0.00     0.037 C 
BRANCH   6  10
ATOM     10  C   UNL A   1      32.732  25.345  21.723  1.00  0.00     0.317 C 
ATOM     11  N   UNL A   1      31.409  25.571  21.863  1.00  0.00    -0.338 N 
ATOM     12  H   UNL A   1      30.880  25.588  21.033  1.00  0.00     0.165 HD
ATOM     13  O   UNL A   1      33.277  25.738  20.692  1.00  0.00    -0.249 OA
BRANCH  11  14
ATOM     14  C   UNL A   1      30.674  25.791  23.097  1.00  0.00     0.118 C 
BRANCH  14  15
ATOM     15  C   UNL A   1      30.174  27.233  23.223  1.00  0.00     0.031 C 
BRANCH  15  16
ATOM     16  C   UNL A   1      31.159  28.319  22.788  1.00  0.00     0.102 C 
BRANCH  16  17
ATOM     17  C   UNL A   1      31.995  28.841  23.936  1.00  0.00     0.220 C 
ATOM     18  O   UNL A   1      33.115  29.309  23.756  1.00  0.00    -0.275 OA
ATOM     19  N   UNL A   1      31.395  28.706  25.171  1.00  0.00    -0.353 N 
ATOM     20  H   UNL A   1      30.477  28.352  25.207  1.00  0.00     0.163 HD
BRANCH  19  21
ATOM     21  C   UNL A   1      32.032  29.053  26.398  1.00  0.00     0.082 C 
ATOM     22  C   UNL A   1      31.781  28.209  27.622  1.00  0.00     0.027 C 
ATOM     23  C   UNL A   1      33.139  28.225  26.986  1.00  0.00     0.027 C 
ENDBRANCH  19  21
ENDBRANCH  16  17
ENDBRANCH  15  16
ENDBRANCH  14  15
ENDBRANCH  11  14
ENDBRANCH   6  10
ENDBRANCH   1   5
BRANCH   3  24
ATOM     24  C   UNL A   1      35.446  20.409  25.002  1.00  0.00     0.116 C 
BRANCH  24  25
ATOM     25  C   UNL A   1      36.821  21.019  25.230  1.00  0.00     0.023 C 
BRANCH  25  26
ATOM     26  C   UNL A   1      38.005  20.081  25.001  1.00  0.00     0.023 C 
BRANCH  26  27
ATOM     27  C   UNL A   1      39.267  20.402  25.796  1.00  0.00     0.116 C 
BRANCH  27  28
ATOM     28  N   UNL A   1      40.197  19.286  25.879  1.00  0.00    -0.352 N 
ATOM     29  C   UNL A   1      41.556  19.272  26.106  1.00  0.00     0.251 C 
ATOM     30  H   UNL A   1      39.790  18.398  25.754  1.00  0.00     0.163 HD
ATOM     31  O   UNL A   1      42.188  18.233  26.008  1.00  0.00    -0.269 OA
BRANCH  29  32
ATOM     32  C   UNL A   1      42.258  20.534  26.424  1.00  0.00     0.039 A 
ATOM     33  C   UNL A   1      42.880  21.238  25.391  1.00  0.00     0.014 A 
ATOM     34  C   UNL A   1      42.280  21.034  27.727  1.00  0.00     0.014 A 
ATOM     35  C   UNL A   1      43.426  22.498  25.644  1.00  0.00     0.010 A 
ATOM     36  C   UNL A   1      42.741  22.325  27.961  1.00  0.00     0.010 A 
ATOM     37  C   UNL A   1      43.307  23.075  26.919  1.00  0.00    -0.014 A 
BRANCH  37  38
ATOM     38  C   UNL A   1      43.740  24.471  27.184  1.00  0.00     0.031 A 
ATOM     39  C   UNL A   1      42.751  25.490  27.671  1.00  0.00     0.074 A 
ATOM     40  C   UNL A   1      45.004  24.841  26.898  1.00  0.00     0.049 A 
ATOM     41  N   UNL A   1      42.912  26.774  27.866  1.00  0.00    -0.248 NA
ATOM     42  C   UNL A   1      41.389  25.007  27.941  1.00  0.00     0.031 C 
ATOM     43  C   UNL A   1      46.048  23.956  26.376  1.00  0.00     0.029 A 
ATOM     44  N   UNL A   1      45.623  26.062  26.995  1.00  0.00    -0.354 N 
ATOM     45  C   UNL A   1      41.669  27.253  28.259  1.00  0.00     0.074 A 
ATOM     46  C   UNL A   1      40.753  26.134  28.222  1.00  0.00     0.031 C 
ATOM     47  C   UNL A   1      47.185  24.655  26.234  1.00  0.00     0.029 A 
ATOM     48  C   UNL A   1      46.941  26.044  26.609  1.00  0.00     0.049 A 
ATOM     49  H   UNL A   1      45.165  26.874  27.313  1.00  0.00     0.167 HD
ATOM     50  C   UNL A   1      41.329  28.508  28.639  1.00  0.00     0.037 A 
ATOM     51  C   UNL A   1      47.847  27.037  26.558  1.00  0.00     0.037 A 
ATOM     52  C   UNL A   1      42.251  29.612  28.705  1.00  0.00     0.049 A 
ATOM     53  C   UNL A   1      47.438  28.428  26.958  1.00  0.00     0.074 A 
ATOM     54  C   UNL A   1      42.027  30.898  29.162  1.00  0.00     0.029 A 
ATOM     55  N   UNL A   1      43.574  29.559  28.289  1.00  0.00    -0.354 N 
ATOM     56  N   UNL A   1      46.282  28.854  27.404  1.00  0.00    -0.248 NA
ATOM     57  C   UNL A   1      48.462  29.477  26.840  1.00  0.00     0.031 C 
ATOM     58  C   UNL A   1      43.202  31.637  28.979  1.00  0.00     0.029 A 
ATOM     59  C   UNL A   1      44.170  30.800  28.447  1.00  0.00     0.049 A 
ATOM     60  H   UNL A   1      44.023  28.757  27.936  1.00  0.00     0.167 HD
ATOM     61  C   UNL A   1      46.442  30.213  27.641  1.00  0.00     0.074 A 
ATOM     62  C   UNL A   1      47.813  30.537  27.301  1.00  0.00     0.031 C 
ATOM     63  C   UNL A   1      45.534  31.109  28.100  1.00  0.00     0.037 A 
BRANCH  50  64
ATOM     64  C   UNL A   1      39.893  28.748  29.007  1.00  0.00     0.064 A 
ATOM     65  C   UNL A   1      39.412  28.499  30.302  1.00  0.00     0.173 A 
ATOM     66  C   UNL A   1      38.985  29.231  28.052  1.00  0.00     0.173 A 
ATOM     67  F   UNL A   1      40.235  28.026  31.249  1.00  0.00    -0.203 F 
ATOM     68  C   UNL A   1      38.067  28.681  30.614  1.00  0.00     0.198 A 
ATOM     69  C   UNL A   1      37.648  29.443  28.378  1.00  0.00     0.198 A 
ATOM     70  F   UNL A   1      39.394  29.493  26.802  1.00  0.00    -0.203 F 
ATOM     71  F   UNL A   1      37.617  28.372  31.839  1.00  0.00    -0.200 F 
ATOM     72  C   UNL A   1      37.187  29.156  29.653  1.00  0.00     0.200 A 
ATOM     73  F   UNL A   1      36.801  29.914  27.451  1.00  0.00    -0.200 F 
ATOM     74  F   UNL A   1      35.892  29.325  29.954  1.00  0.00    -0.200 F 
ENDBRANCH  50  64
BRANCH  51  75
ATOM     75  C   UNL A   1      49.244  26.742  26.147  1.00  0.00     0.064 A 
ATOM     76  C   UNL A   1      50.178  26.284  27.086  1.00  0.00     0.173 A 
ATOM     77  C   UNL A   1      49.670  26.893  24.821  1.00  0.00     0.173 A 
ATOM     78  F   UNL A   1      49.821  26.145  28.371  1.00  0.00    -0.203 F 
ATOM     79  C   UNL A   1      51.489  25.993  26.714  1.00  0.00     0.198 A 
ATOM     80  C   UNL A   1      50.975  26.580  24.445  1.00  0.00     0.198 A 
ATOM     81  F   UNL A   1      48.813  27.326  23.884  1.00  0.00    -0.203 F 
ATOM     82  F   UNL A   1      52.369  25.584  27.638  1.00  0.00    -0.200 F 
ATOM     83  C   UNL A   1      51.884  26.135  25.393  1.00  0.00     0.200 A 
ATOM     84  F   UNL A   1      51.351  26.705  23.165  1.00  0.00    -0.200 F 
ATOM     85  F   UNL A   1      53.143  25.846  25.034  1.00  0.00    -0.200 F 
ENDBRANCH  51  75
BRANCH  63  86
ATOM     86  C   UNL A   1      45.998  32.524  28.276  1.00  0.00     0.064 A 
ATOM     87  C   UNL A   1      45.806  33.488  27.276  1.00  0.00     0.173 A 
ATOM     88  C   UNL A   1      46.600  32.932  29.476  1.00  0.00     0.173 A 
ATOM     89  F   UNL A   1      45.251  33.144  26.104  1.00  0.00    -0.203 F 
ATOM     90  C   UNL A   1      46.218  34.806  27.464  1.00  0.00     0.198 A 
ATOM     91  C   UNL A   1      46.985  34.255  29.671  1.00  0.00     0.198 A 
ATOM     92  F   UNL A   1      46.804  32.048  30.465  1.00  0.00    -0.203 F 
ATOM     93  F   UNL A   1      46.061  35.701  26.479  1.00  0.00    -0.200 F 
ATOM     94  C   UNL A   1      46.799  35.190  28.663  1.00  0.00     0.200 A 
ATOM     95  F   UNL A   1      47.536  34.627  30.835  1.00  0.00    -0.200 F 
ATOM     96  F   UNL A   1      47.185  36.460  28.845  1.00  0.00    -0.200 F 
ENDBRANCH  63  86
ENDBRANCH  37  38
ENDBRANCH  29  32
ENDBRANCH  27  28
ENDBRANCH  26  27
ENDBRANCH  25  26
ENDBRANCH  24  25
ENDBRANCH   3  24
TORSDOF 17
ENDMDL
