MODEL 1
REMARK VINA RESULT:     -13.8      0.000      0.000
REMARK SMILES Cc1cccc(C(=O)NCCCCNC(=O)c2ccc(-c3c4nc(c(-c5c(F)c(F)c(F)c(F)c5F)c5ccc([nH]5)c(-c5c(F)c(F)c(F)c(F)c5F)c5nc(c(-c6c(F)c(F)c(F)c(F)c6F)c6ccc3[nH]6)C=C5)C=C4)cc2)c1OC[C@@H]1C[C@H]2CC[C@@H]1C2
REMARK SMILES IDX 11 1 10 2 9 3 7 4 8 5 6 7 1 8 2 9 3 10 80 11 4 12 5 13 81 14
REMARK SMILES IDX 82 15 83 16 84 17 88 18 85 19 87 20 89 21 86 22 12 23 13 24
REMARK SMILES IDX 14 25 15 26 16 28 17 29 18 30 79 31 19 32 78 33 20 34 21 35
REMARK SMILES IDX 22 36 72 37 23 38 77 39 71 40 73 41 24 42 76 43 70 44 69 45
REMARK SMILES IDX 25 47 57 48 37 49 56 50 38 51 41 52 55 53 74 54 39 55 40 56
REMARK SMILES IDX 54 58 75 59 42 60 26 61 27 62 35 63 28 64 29 65 33 66 36 67
REMARK SMILES IDX 30 68 31 69 34 70 32 71 58 72 59 73 67 74 60 75 61 76 65 77
REMARK SMILES IDX 68 78 62 79 63 80 66 81 64 82 43 83 44 84 52 85 45 86 46 87
REMARK SMILES IDX 50 88 53 89 47 90 48 91 51 92 49 93
REMARK H PARENT 9 6 14 27 73 46 41 57
REMARK Flexibility Score: inf
ROOT
ATOM      1  C   UNL A   1      31.534  29.653  26.782  1.00  0.00     0.023 C 
ENDROOT
BRANCH   1   2
ATOM      2  C   UNL A   1      31.885  28.379  27.567  1.00  0.00     0.116 C 
BRANCH   2   3
ATOM      3  N   UNL A   1      31.023  27.280  27.209  1.00  0.00    -0.352 N 
ATOM      4  C   UNL A   1      31.050  26.321  26.239  1.00  0.00     0.255 C 
ATOM      5  O   UNL A   1      30.091  25.536  26.294  1.00  0.00    -0.269 OA
ATOM      6  H   UNL A   1      30.238  27.204  27.798  1.00  0.00     0.163 HD
BRANCH   4   7
ATOM      7  C   UNL A   1      32.075  26.098  25.158  1.00  0.00     0.082 A 
ATOM      8  C   UNL A   1      32.668  24.967  21.546  1.00  0.00     0.048 C 
ATOM      9  C   UNL A   1      32.899  25.453  22.953  1.00  0.00    -0.008 A 
ATOM     10  C   UNL A   1      34.119  25.053  23.528  1.00  0.00     0.007 A 
ATOM     11  C   UNL A   1      31.916  26.088  23.750  1.00  0.00     0.134 A 
ATOM     12  C   UNL A   1      34.342  25.189  24.886  1.00  0.00     0.001 A 
ATOM     13  C   UNL A   1      33.317  25.672  25.690  1.00  0.00     0.018 A 
BRANCH  11  14
ATOM     14  O   UNL A   1      30.766  26.558  23.198  1.00  0.00    -0.492 OA
BRANCH  14  15
ATOM     15  C   UNL A   1      30.665  27.916  22.715  1.00  0.00     0.233 C 
BRANCH  15  16
ATOM     16  C   UNL A   1      29.676  28.882  23.406  1.00  0.00     0.030 C 
ATOM     17  C   UNL A   1      28.192  28.566  23.051  1.00  0.00     0.011 C 
ATOM     18  C   UNL A   1      29.801  30.329  22.851  1.00  0.00    -0.004 C 
ATOM     19  C   UNL A   1      27.677  29.868  22.409  1.00  0.00    -0.010 C 
ATOM     20  C   UNL A   1      29.041  31.289  23.779  1.00  0.00     0.004 C 
ATOM     21  C   UNL A   1      28.897  30.314  21.616  1.00  0.00     0.007 C 
ATOM     22  C   UNL A   1      27.573  30.959  23.485  1.00  0.00     0.004 C 
ENDBRANCH  15  16
ENDBRANCH  14  15
ENDBRANCH  11  14
ENDBRANCH   4   7
ENDBRANCH   2   3
ENDBRANCH   1   2
BRANCH   1  23
ATOM     23  C   UNL A   1      32.496  30.826  26.980  1.00  0.00     0.023 C 
BRANCH  23  24
ATOM     24  C   UNL A   1      33.879  30.394  27.434  1.00  0.00     0.116 C 
BRANCH  24  25
ATOM     25  N   UNL A   1      34.561  31.336  28.314  1.00  0.00    -0.352 N 
ATOM     26  C   UNL A   1      35.664  31.147  29.135  1.00  0.00     0.251 C 
ATOM     27  H   UNL A   1      34.182  32.245  28.327  1.00  0.00     0.163 HD
ATOM     28  O   UNL A   1      36.028  32.039  29.881  1.00  0.00    -0.269 OA
BRANCH  26  29
ATOM     29  C   UNL A   1      36.492  29.919  28.988  1.00  0.00     0.039 A 
ATOM     30  C   UNL A   1      36.775  29.184  30.147  1.00  0.00     0.014 A 
ATOM     31  C   UNL A   1      37.174  29.643  27.809  1.00  0.00     0.014 A 
ATOM     32  C   UNL A   1      37.926  28.401  30.193  1.00  0.00     0.010 A 
ATOM     33  C   UNL A   1      38.380  28.976  27.887  1.00  0.00     0.010 A 
ATOM     34  C   UNL A   1      38.792  28.429  29.105  1.00  0.00    -0.014 A 
BRANCH  34  35
ATOM     35  C   UNL A   1      40.196  28.046  29.184  1.00  0.00     0.031 A 
ATOM     36  C   UNL A   1      40.629  26.711  28.722  1.00  0.00     0.074 A 
ATOM     37  C   UNL A   1      41.103  28.978  29.560  1.00  0.00     0.049 A 
ATOM     38  N   UNL A   1      41.795  26.214  28.959  1.00  0.00    -0.248 NA
ATOM     39  C   UNL A   1      39.747  25.782  28.018  1.00  0.00     0.031 C 
ATOM     40  C   UNL A   1      42.554  28.936  29.377  1.00  0.00     0.029 A 
ATOM     41  N   UNL A   1      40.893  30.099  30.387  1.00  0.00    -0.354 N 
ATOM     42  C   UNL A   1      41.915  25.057  28.230  1.00  0.00     0.074 A 
ATOM     43  C   UNL A   1      40.583  24.768  27.767  1.00  0.00     0.031 C 
ATOM     44  C   UNL A   1      43.128  29.761  30.266  1.00  0.00     0.029 A 
ATOM     45  C   UNL A   1      42.077  30.226  31.152  1.00  0.00     0.049 A 
ATOM     46  H   UNL A   1      40.093  30.673  30.423  1.00  0.00     0.167 HD
ATOM     47  C   UNL A   1      43.161  24.554  28.012  1.00  0.00     0.037 A 
ATOM     48  C   UNL A   1      42.075  30.047  32.505  1.00  0.00     0.037 A 
ATOM     49  C   UNL A   1      44.126  25.172  28.922  1.00  0.00     0.049 A 
ATOM     50  C   UNL A   1      42.987  28.945  32.985  1.00  0.00     0.074 A 
ATOM     51  C   UNL A   1      45.119  26.121  28.766  1.00  0.00     0.029 A 
ATOM     52  N   UNL A   1      43.948  25.005  30.295  1.00  0.00    -0.354 N 
ATOM     53  N   UNL A   1      43.422  27.978  32.225  1.00  0.00    -0.248 NA
ATOM     54  C   UNL A   1      43.451  28.830  34.364  1.00  0.00     0.031 C 
ATOM     55  C   UNL A   1      45.464  26.600  30.060  1.00  0.00     0.029 A 
ATOM     56  C   UNL A   1      44.721  25.904  31.000  1.00  0.00     0.049 A 
ATOM     57  H   UNL A   1      43.352  24.337  30.705  1.00  0.00     0.167 HD
ATOM     58  C   UNL A   1      44.160  27.105  32.981  1.00  0.00     0.074 A 
ATOM     59  C   UNL A   1      44.173  27.698  34.305  1.00  0.00     0.031 C 
ATOM     60  C   UNL A   1      44.669  25.951  32.456  1.00  0.00     0.037 A 
BRANCH  47  61
ATOM     61  C   UNL A   1      43.564  23.635  26.875  1.00  0.00     0.064 A 
ATOM     62  C   UNL A   1      43.198  22.269  26.907  1.00  0.00     0.173 A 
ATOM     63  C   UNL A   1      44.416  23.984  25.804  1.00  0.00     0.173 A 
ATOM     64  F   UNL A   1      42.402  21.787  27.871  1.00  0.00    -0.203 F 
ATOM     65  C   UNL A   1      43.658  21.342  25.963  1.00  0.00     0.198 A 
ATOM     66  C   UNL A   1      44.832  23.066  24.833  1.00  0.00     0.198 A 
ATOM     67  F   UNL A   1      44.941  25.205  25.675  1.00  0.00    -0.203 F 
ATOM     68  F   UNL A   1      43.325  20.048  26.083  1.00  0.00    -0.200 F 
ATOM     69  C   UNL A   1      44.467  21.742  24.920  1.00  0.00     0.200 A 
ATOM     70  F   UNL A   1      45.623  23.479  23.831  1.00  0.00    -0.200 F 
ATOM     71  F   UNL A   1      44.909  20.858  24.016  1.00  0.00    -0.200 F 
ENDBRANCH  47  61
BRANCH  48  72
ATOM     72  C   UNL A   1      40.796  30.433  33.152  1.00  0.00     0.064 A 
ATOM     73  C   UNL A   1      40.506  31.803  33.269  1.00  0.00     0.173 A 
ATOM     74  C   UNL A   1      39.734  29.533  33.286  1.00  0.00     0.173 A 
ATOM     75  F   UNL A   1      41.497  32.700  33.163  1.00  0.00    -0.203 F 
ATOM     76  C   UNL A   1      39.197  32.264  33.383  1.00  0.00     0.198 A 
ATOM     77  C   UNL A   1      38.422  29.996  33.418  1.00  0.00     0.198 A 
ATOM     78  F   UNL A   1      39.942  28.215  33.164  1.00  0.00    -0.203 F 
ATOM     79  F   UNL A   1      38.948  33.581  33.371  1.00  0.00    -0.200 F 
ATOM     80  C   UNL A   1      38.152  31.357  33.427  1.00  0.00     0.200 A 
ATOM     81  F   UNL A   1      37.406  29.120  33.431  1.00  0.00    -0.200 F 
ATOM     82  F   UNL A   1      36.884  31.793  33.437  1.00  0.00    -0.200 F 
ENDBRANCH  48  72
BRANCH  60  83
ATOM     83  C   UNL A   1      45.222  24.794  33.257  1.00  0.00     0.064 A 
ATOM     84  C   UNL A   1      44.522  23.599  33.500  1.00  0.00     0.173 A 
ATOM     85  C   UNL A   1      46.572  24.801  33.686  1.00  0.00     0.173 A 
ATOM     86  F   UNL A   1      43.284  23.405  33.029  1.00  0.00    -0.203 F 
ATOM     87  C   UNL A   1      45.099  22.526  34.186  1.00  0.00     0.198 A 
ATOM     88  C   UNL A   1      47.163  23.705  34.314  1.00  0.00     0.198 A 
ATOM     89  F   UNL A   1      47.366  25.862  33.481  1.00  0.00    -0.203 F 
ATOM     90  F   UNL A   1      44.371  21.428  34.433  1.00  0.00    -0.200 F 
ATOM     91  C   UNL A   1      46.422  22.575  34.582  1.00  0.00     0.200 A 
ATOM     92  F   UNL A   1      48.464  23.745  34.637  1.00  0.00    -0.200 F 
ATOM     93  F   UNL A   1      46.985  21.525  35.197  1.00  0.00    -0.200 F 
ENDBRANCH  60  83
ENDBRANCH  34  35
ENDBRANCH  26  29
ENDBRANCH  24  25
ENDBRANCH  23  24
ENDBRANCH   1  23
TORSDOF 14
ENDMDL
MODEL 2
REMARK VINA RESULT:     -13.6      1.012      3.125
REMARK SMILES Cc1cccc(C(=O)NCCCCNC(=O)c2ccc(-c3c4nc(c(-c5c(F)c(F)c(F)c(F)c5F)c5ccc([nH]5)c(-c5c(F)c(F)c(F)c(F)c5F)c5nc(c(-c6c(F)c(F)c(F)c(F)c6F)c6ccc3[nH]6)C=C5)C=C4)cc2)c1OC[C@@H]1C[C@H]2CC[C@@H]1C2
REMARK SMILES IDX 11 1 10 2 9 3 7 4 8 5 6 7 1 8 2 9 3 10 80 11 4 12 5 13 81 14
REMARK SMILES IDX 82 15 83 16 84 17 88 18 85 19 87 20 89 21 86 22 12 23 13 24
REMARK SMILES IDX 14 25 15 26 16 28 17 29 18 30 79 31 19 32 78 33 20 34 21 35
REMARK SMILES IDX 22 36 72 37 23 38 77 39 71 40 73 41 24 42 76 43 70 44 69 45
REMARK SMILES IDX 25 47 57 48 37 49 56 50 38 51 41 52 55 53 74 54 39 55 40 56
REMARK SMILES IDX 54 58 75 59 42 60 26 61 27 62 35 63 28 64 29 65 33 66 36 67
REMARK SMILES IDX 30 68 31 69 34 70 32 71 58 72 59 73 67 74 60 75 61 76 65 77
REMARK SMILES IDX 68 78 62 79 63 80 66 81 64 82 43 83 44 84 52 85 45 86 46 87
REMARK SMILES IDX 50 88 53 89 47 90 48 91 51 92 49 93
REMARK H PARENT 9 6 14 27 73 46 41 57
REMARK Flexibility Score: inf
ROOT
ATOM      1  C   UNL A   1      31.778  29.494  26.743  1.00  0.00     0.023 C 
ENDROOT
BRANCH   1   2
ATOM      2  C   UNL A   1      32.370  28.117  27.085  1.00  0.00     0.116 C 
BRANCH   2   3
ATOM      3  N   UNL A   1      31.351  27.099  27.140  1.00  0.00    -0.352 N 
ATOM      4  C   UNL A   1      30.687  26.359  26.206  1.00  0.00     0.255 C 
ATOM      5  O   UNL A   1      29.872  25.563  26.695  1.00  0.00    -0.269 OA
ATOM      6  H   UNL A   1      31.070  26.891  28.061  1.00  0.00     0.163 HD
BRANCH   4   7
ATOM      7  C   UNL A   1      30.831  26.380  24.706  1.00  0.00     0.082 A 
ATOM      8  C   UNL A   1      33.185  25.762  21.747  1.00  0.00     0.048 C 
ATOM      9  C   UNL A   1      31.973  26.129  22.564  1.00  0.00    -0.008 A 
ATOM     10  C   UNL A   1      31.178  27.155  22.022  1.00  0.00     0.007 A 
ATOM     11  C   UNL A   1      31.721  25.656  23.874  1.00  0.00     0.134 A 
ATOM     12  C   UNL A   1      30.205  27.778  22.784  1.00  0.00     0.001 A 
ATOM     13  C   UNL A   1      30.063  27.414  24.118  1.00  0.00     0.018 A 
BRANCH  11  14
ATOM     14  O   UNL A   1      32.420  24.608  24.386  1.00  0.00    -0.492 OA
BRANCH  14  15
ATOM     15  C   UNL A   1      33.590  24.814  25.207  1.00  0.00     0.233 C 
BRANCH  15  16
ATOM     16  C   UNL A   1      34.962  24.327  24.689  1.00  0.00     0.030 C 
ATOM     17  C   UNL A   1      34.833  23.102  23.733  1.00  0.00     0.011 C 
ATOM     18  C   UNL A   1      35.823  23.711  25.827  1.00  0.00    -0.004 C 
ATOM     19  C   UNL A   1      35.667  22.005  24.420  1.00  0.00    -0.010 C 
ATOM     20  C   UNL A   1      37.268  23.544  25.328  1.00  0.00     0.004 C 
ATOM     21  C   UNL A   1      35.348  22.258  25.886  1.00  0.00     0.007 C 
ATOM     22  C   UNL A   1      37.156  22.375  24.344  1.00  0.00     0.004 C 
ENDBRANCH  15  16
ENDBRANCH  14  15
ENDBRANCH  11  14
ENDBRANCH   4   7
ENDBRANCH   2   3
ENDBRANCH   1   2
BRANCH   1  23
ATOM     23  C   UNL A   1      32.578  30.693  27.254  1.00  0.00     0.023 C 
BRANCH  23  24
ATOM     24  C   UNL A   1      34.043  30.374  27.496  1.00  0.00     0.116 C 
BRANCH  24  25
ATOM     25  N   UNL A   1      34.744  31.314  28.364  1.00  0.00    -0.352 N 
ATOM     26  C   UNL A   1      35.890  31.135  29.125  1.00  0.00     0.251 C 
ATOM     27  H   UNL A   1      34.342  32.211  28.418  1.00  0.00     0.163 HD
ATOM     28  O   UNL A   1      36.268  32.019  29.874  1.00  0.00    -0.269 OA
BRANCH  26  29
ATOM     29  C   UNL A   1      36.741  29.933  28.908  1.00  0.00     0.039 A 
ATOM     30  C   UNL A   1      36.942  29.074  29.996  1.00  0.00     0.014 A 
ATOM     31  C   UNL A   1      37.516  29.793  27.763  1.00  0.00     0.014 A 
ATOM     32  C   UNL A   1      38.094  28.294  30.045  1.00  0.00     0.010 A 
ATOM     33  C   UNL A   1      38.720  29.125  27.860  1.00  0.00     0.010 A 
ATOM     34  C   UNL A   1      39.043  28.446  29.039  1.00  0.00    -0.014 A 
BRANCH  34  35
ATOM     35  C   UNL A   1      40.440  28.061  29.184  1.00  0.00     0.031 A 
ATOM     36  C   UNL A   1      40.904  26.747  28.691  1.00  0.00     0.074 A 
ATOM     37  C   UNL A   1      41.321  28.975  29.655  1.00  0.00     0.049 A 
ATOM     38  N   UNL A   1      42.055  26.241  28.975  1.00  0.00    -0.248 NA
ATOM     39  C   UNL A   1      40.069  25.850  27.895  1.00  0.00     0.031 C 
ATOM     40  C   UNL A   1      42.780  28.942  29.557  1.00  0.00     0.029 A 
ATOM     41  N   UNL A   1      41.057  30.059  30.516  1.00  0.00    -0.354 N 
ATOM     42  C   UNL A   1      42.222  25.118  28.204  1.00  0.00     0.074 A 
ATOM     43  C   UNL A   1      40.921  24.849  27.650  1.00  0.00     0.031 C 
ATOM     44  C   UNL A   1      43.297  29.727  30.515  1.00  0.00     0.029 A 
ATOM     45  C   UNL A   1      42.194  30.152  31.356  1.00  0.00     0.049 A 
ATOM     46  H   UNL A   1      40.255  30.630  30.530  1.00  0.00     0.167 HD
ATOM     47  C   UNL A   1      43.481  24.625  28.039  1.00  0.00     0.037 A 
ATOM     48  C   UNL A   1      42.111  29.913  32.697  1.00  0.00     0.037 A 
ATOM     49  C   UNL A   1      44.388  25.203  29.032  1.00  0.00     0.049 A 
ATOM     50  C   UNL A   1      42.997  28.792  33.181  1.00  0.00     0.074 A 
ATOM     51  C   UNL A   1      45.385  26.158  28.977  1.00  0.00     0.029 A 
ATOM     52  N   UNL A   1      44.128  24.975  30.383  1.00  0.00    -0.354 N 
ATOM     53  N   UNL A   1      43.479  27.859  32.408  1.00  0.00    -0.248 NA
ATOM     54  C   UNL A   1      43.377  28.616  34.580  1.00  0.00     0.031 C 
ATOM     55  C   UNL A   1      45.651  26.580  30.309  1.00  0.00     0.029 A 
ATOM     56  C   UNL A   1      44.855  25.843  31.172  1.00  0.00     0.049 A 
ATOM     57  H   UNL A   1      43.511  24.290  30.726  1.00  0.00     0.167 HD
ATOM     58  C   UNL A   1      44.173  26.954  33.166  1.00  0.00     0.074 A 
ATOM     59  C   UNL A   1      44.105  27.488  34.514  1.00  0.00     0.031 C 
ATOM     60  C   UNL A   1      44.716  25.825  32.623  1.00  0.00     0.037 A 
BRANCH  47  61
ATOM     61  C   UNL A   1      43.953  23.757  26.889  1.00  0.00     0.064 A 
ATOM     62  C   UNL A   1      43.514  22.417  26.788  1.00  0.00     0.173 A 
ATOM     63  C   UNL A   1      44.933  24.121  25.938  1.00  0.00     0.173 A 
ATOM     64  F   UNL A   1      42.595  21.923  27.629  1.00  0.00    -0.203 F 
ATOM     65  C   UNL A   1      44.022  21.525  25.834  1.00  0.00     0.198 A 
ATOM     66  C   UNL A   1      45.401  23.244  24.955  1.00  0.00     0.198 A 
ATOM     67  F   UNL A   1      45.533  25.314  25.949  1.00  0.00    -0.203 F 
ATOM     68  F   UNL A   1      43.610  20.249  25.829  1.00  0.00    -0.200 F 
ATOM     69  C   UNL A   1      44.959  21.942  24.911  1.00  0.00     0.200 A 
ATOM     70  F   UNL A   1      46.315  23.671  24.070  1.00  0.00    -0.200 F 
ATOM     71  F   UNL A   1      45.448  21.091  23.999  1.00  0.00    -0.200 F 
ENDBRANCH  47  61
BRANCH  48  72
ATOM     72  C   UNL A   1      40.795  30.270  33.283  1.00  0.00     0.064 A 
ATOM     73  C   UNL A   1      40.503  31.633  33.466  1.00  0.00     0.173 A 
ATOM     74  C   UNL A   1      39.722  29.373  33.292  1.00  0.00     0.173 A 
ATOM     75  F   UNL A   1      41.503  32.526  33.479  1.00  0.00    -0.203 F 
ATOM     76  C   UNL A   1      39.192  32.097  33.523  1.00  0.00     0.198 A 
ATOM     77  C   UNL A   1      38.407  29.838  33.367  1.00  0.00     0.198 A 
ATOM     78  F   UNL A   1      39.932  28.063  33.103  1.00  0.00    -0.203 F 
ATOM     79  F   UNL A   1      38.951  33.414  33.575  1.00  0.00    -0.200 F 
ATOM     80  C   UNL A   1      38.142  31.198  33.444  1.00  0.00     0.200 A 
ATOM     81  F   UNL A   1      37.388  28.972  33.261  1.00  0.00    -0.200 F 
ATOM     82  F   UNL A   1      36.879  31.643  33.398  1.00  0.00    -0.200 F 
ENDBRANCH  48  72
BRANCH  60  83
ATOM     83  C   UNL A   1      45.224  24.634  33.403  1.00  0.00     0.064 A 
ATOM     84  C   UNL A   1      44.481  23.460  33.620  1.00  0.00     0.173 A 
ATOM     85  C   UNL A   1      46.570  24.586  33.839  1.00  0.00     0.173 A 
ATOM     86  F   UNL A   1      43.240  23.319  33.139  1.00  0.00    -0.203 F 
ATOM     87  C   UNL A   1      45.017  22.354  34.287  1.00  0.00     0.198 A 
ATOM     88  C   UNL A   1      47.120  23.457  34.449  1.00  0.00     0.198 A 
ATOM     89  F   UNL A   1      47.402  25.622  33.659  1.00  0.00    -0.203 F 
ATOM     90  F   UNL A   1      44.249  21.278  34.509  1.00  0.00    -0.200 F 
ATOM     91  C   UNL A   1      46.338  22.349  34.691  1.00  0.00     0.200 A 
ATOM     92  F   UNL A   1      48.419  23.445  34.779  1.00  0.00    -0.200 F 
ATOM     93  F   UNL A   1      46.861  21.269  35.288  1.00  0.00    -0.200 F 
ENDBRANCH  60  83
ENDBRANCH  34  35
ENDBRANCH  26  29
ENDBRANCH  24  25
ENDBRANCH  23  24
ENDBRANCH   1  23
TORSDOF 14
ENDMDL
MODEL 3
REMARK VINA RESULT:     -13.4      4.515     10.563
REMARK SMILES Cc1cccc(C(=O)NCCCCNC(=O)c2ccc(-c3c4nc(c(-c5c(F)c(F)c(F)c(F)c5F)c5ccc([nH]5)c(-c5c(F)c(F)c(F)c(F)c5F)c5nc(c(-c6c(F)c(F)c(F)c(F)c6F)c6ccc3[nH]6)C=C5)C=C4)cc2)c1OC[C@@H]1C[C@H]2CC[C@@H]1C2
REMARK SMILES IDX 11 1 10 2 9 3 7 4 8 5 6 7 1 8 2 9 3 10 80 11 4 12 5 13 81 14
REMARK SMILES IDX 82 15 83 16 84 17 88 18 85 19 87 20 89 21 86 22 12 23 13 24
REMARK SMILES IDX 14 25 15 26 16 28 17 29 18 30 79 31 19 32 78 33 20 34 21 35
REMARK SMILES IDX 22 36 72 37 23 38 77 39 71 40 73 41 24 42 76 43 70 44 69 45
REMARK SMILES IDX 25 47 57 48 37 49 56 50 38 51 41 52 55 53 74 54 39 55 40 56
REMARK SMILES IDX 54 58 75 59 42 60 26 61 27 62 35 63 28 64 29 65 33 66 36 67
REMARK SMILES IDX 30 68 31 69 34 70 32 71 58 72 59 73 67 74 60 75 61 76 65 77
REMARK SMILES IDX 68 78 62 79 63 80 66 81 64 82 43 83 44 84 52 85 45 86 46 87
REMARK SMILES IDX 50 88 53 89 47 90 48 91 51 92 49 93
REMARK H PARENT 9 6 14 27 73 46 41 57
REMARK Flexibility Score: inf
ROOT
ATOM      1  C   UNL A   1      37.319  22.532  24.764  1.00  0.00     0.023 C 
ENDROOT
BRANCH   1   2
ATOM      2  C   UNL A   1      36.837  21.223  25.409  1.00  0.00     0.116 C 
BRANCH   2   3
ATOM      3  N   UNL A   1      35.864  21.467  26.445  1.00  0.00    -0.352 N 
ATOM      4  C   UNL A   1      34.706  22.186  26.519  1.00  0.00     0.255 C 
ATOM      5  O   UNL A   1      34.153  22.118  27.626  1.00  0.00    -0.269 OA
ATOM      6  H   UNL A   1      36.085  21.014  27.290  1.00  0.00     0.163 HD
BRANCH   4   7
ATOM      7  C   UNL A   1      34.034  23.008  25.450  1.00  0.00     0.082 A 
ATOM      8  C   UNL A   1      33.279  23.321  21.707  1.00  0.00     0.048 C 
ATOM      9  C   UNL A   1      33.344  23.603  23.186  1.00  0.00    -0.008 A 
ATOM     10  C   UNL A   1      33.392  24.965  23.531  1.00  0.00     0.007 A 
ATOM     11  C   UNL A   1      33.549  22.614  24.178  1.00  0.00     0.134 A 
ATOM     12  C   UNL A   1      33.729  25.362  24.813  1.00  0.00     0.001 A 
ATOM     13  C   UNL A   1      34.078  24.393  25.745  1.00  0.00     0.018 A 
BRANCH  11  14
ATOM     14  O   UNL A   1      33.423  21.292  23.885  1.00  0.00    -0.492 OA
BRANCH  14  15
ATOM     15  C   UNL A   1      32.514  20.442  24.620  1.00  0.00     0.233 C 
BRANCH  15  16
ATOM     16  C   UNL A   1      33.029  19.087  25.154  1.00  0.00     0.030 C 
ATOM     17  C   UNL A   1      34.454  18.743  24.626  1.00  0.00     0.011 C 
ATOM     18  C   UNL A   1      32.215  17.894  24.578  1.00  0.00    -0.004 C 
ATOM     19  C   UNL A   1      34.265  17.405  23.887  1.00  0.00    -0.010 C 
ATOM     20  C   UNL A   1      32.552  16.625  25.376  1.00  0.00     0.004 C 
ATOM     21  C   UNL A   1      32.902  17.609  23.241  1.00  0.00     0.007 C 
ATOM     22  C   UNL A   1      33.975  16.296  24.911  1.00  0.00     0.004 C 
ENDBRANCH  15  16
ENDBRANCH  14  15
ENDBRANCH  11  14
ENDBRANCH   4   7
ENDBRANCH   2   3
ENDBRANCH   1   2
BRANCH   1  23
ATOM     23  C   UNL A   1      38.231  23.393  25.640  1.00  0.00     0.023 C 
BRANCH  23  24
ATOM     24  C   UNL A   1      39.135  22.575  26.546  1.00  0.00     0.116 C 
BRANCH  24  25
ATOM     25  N   UNL A   1      40.555  22.893  26.450  1.00  0.00    -0.352 N 
ATOM     26  C   UNL A   1      41.192  24.125  26.465  1.00  0.00     0.251 C 
ATOM     27  H   UNL A   1      41.151  22.115  26.360  1.00  0.00     0.163 HD
ATOM     28  O   UNL A   1      42.393  24.192  26.267  1.00  0.00    -0.269 OA
BRANCH  26  29
ATOM     29  C   UNL A   1      40.441  25.341  26.881  1.00  0.00     0.039 A 
ATOM     30  C   UNL A   1      40.665  26.521  26.160  1.00  0.00     0.014 A 
ATOM     31  C   UNL A   1      39.742  25.385  28.082  1.00  0.00     0.014 A 
ATOM     32  C   UNL A   1      40.457  27.749  26.783  1.00  0.00     0.010 A 
ATOM     33  C   UNL A   1      39.657  26.589  28.750  1.00  0.00     0.010 A 
ATOM     34  C   UNL A   1      40.096  27.761  28.126  1.00  0.00    -0.014 A 
BRANCH  34  35
ATOM     35  C   UNL A   1      40.283  28.911  29.000  1.00  0.00     0.031 A 
ATOM     36  C   UNL A   1      39.235  29.948  29.098  1.00  0.00     0.074 A 
ATOM     37  C   UNL A   1      41.367  28.941  29.812  1.00  0.00     0.049 A 
ATOM     38  N   UNL A   1      39.410  31.093  29.665  1.00  0.00    -0.248 NA
ATOM     39  C   UNL A   1      37.915  29.813  28.486  1.00  0.00     0.031 C 
ATOM     40  C   UNL A   1      41.576  29.783  30.989  1.00  0.00     0.029 A 
ATOM     41  N   UNL A   1      42.615  28.322  29.604  1.00  0.00    -0.354 N 
ATOM     42  C   UNL A   1      38.190  31.717  29.739  1.00  0.00     0.074 A 
ATOM     43  C   UNL A   1      37.324  30.944  28.888  1.00  0.00     0.031 C 
ATOM     44  C   UNL A   1      42.894  29.873  31.230  1.00  0.00     0.029 A 
ATOM     45  C   UNL A   1      43.571  29.231  30.119  1.00  0.00     0.049 A 
ATOM     46  H   UNL A   1      42.786  27.446  29.189  1.00  0.00     0.167 HD
ATOM     47  C   UNL A   1      38.041  32.748  30.615  1.00  0.00     0.037 A 
ATOM     48  C   UNL A   1      44.477  29.850  29.307  1.00  0.00     0.037 A 
ATOM     49  C   UNL A   1      39.348  33.229  31.063  1.00  0.00     0.049 A 
ATOM     50  C   UNL A   1      44.401  31.357  29.332  1.00  0.00     0.074 A 
ATOM     51  C   UNL A   1      40.064  33.104  32.239  1.00  0.00     0.029 A 
ATOM     52  N   UNL A   1      40.231  33.740  30.112  1.00  0.00    -0.354 N 
ATOM     53  N   UNL A   1      43.354  32.026  29.728  1.00  0.00    -0.248 NA
ATOM     54  C   UNL A   1      45.485  32.223  28.879  1.00  0.00     0.031 C 
ATOM     55  C   UNL A   1      41.416  33.447  31.959  1.00  0.00     0.029 A 
ATOM     56  C   UNL A   1      41.507  33.831  30.630  1.00  0.00     0.049 A 
ATOM     57  H   UNL A   1      39.979  34.000  29.197  1.00  0.00     0.167 HD
ATOM     58  C   UNL A   1      43.580  33.366  29.551  1.00  0.00     0.074 A 
ATOM     59  C   UNL A   1      44.938  33.438  29.046  1.00  0.00     0.031 C 
ATOM     60  C   UNL A   1      42.615  34.298  29.806  1.00  0.00     0.037 A 
BRANCH  47  61
ATOM     61  C   UNL A   1      36.731  33.226  31.212  1.00  0.00     0.064 A 
ATOM     62  C   UNL A   1      35.836  33.992  30.430  1.00  0.00     0.173 A 
ATOM     63  C   UNL A   1      36.354  33.095  32.567  1.00  0.00     0.173 A 
ATOM     64  F   UNL A   1      36.067  34.214  29.128  1.00  0.00    -0.203 F 
ATOM     65  C   UNL A   1      34.682  34.582  30.962  1.00  0.00     0.198 A 
ATOM     66  C   UNL A   1      35.174  33.641  33.084  1.00  0.00     0.198 A 
ATOM     67  F   UNL A   1      37.129  32.492  33.471  1.00  0.00    -0.203 F 
ATOM     68  F   UNL A   1      33.905  35.348  30.183  1.00  0.00    -0.200 F 
ATOM     69  C   UNL A   1      34.346  34.397  32.287  1.00  0.00     0.200 A 
ATOM     70  F   UNL A   1      34.871  33.452  34.377  1.00  0.00    -0.200 F 
ATOM     71  F   UNL A   1      33.243  34.961  32.800  1.00  0.00    -0.200 F 
ENDBRANCH  47  61
BRANCH  48  72
ATOM     72  C   UNL A   1      44.869  29.038  28.128  1.00  0.00     0.064 A 
ATOM     73  C   UNL A   1      45.801  28.004  28.322  1.00  0.00     0.173 A 
ATOM     74  C   UNL A   1      44.091  28.998  26.966  1.00  0.00     0.173 A 
ATOM     75  F   UNL A   1      46.578  28.011  29.415  1.00  0.00    -0.203 F 
ATOM     76  C   UNL A   1      45.865  26.909  27.464  1.00  0.00     0.198 A 
ATOM     77  C   UNL A   1      44.168  27.907  26.097  1.00  0.00     0.198 A 
ATOM     78  F   UNL A   1      43.171  29.943  26.734  1.00  0.00    -0.203 F 
ATOM     79  F   UNL A   1      46.681  25.884  27.747  1.00  0.00    -0.200 F 
ATOM     80  C   UNL A   1      45.024  26.848  26.366  1.00  0.00     0.200 A 
ATOM     81  F   UNL A   1      43.335  27.832  25.048  1.00  0.00    -0.200 F 
ATOM     82  F   UNL A   1      45.009  25.754  25.592  1.00  0.00    -0.200 F 
ENDBRANCH  48  72
BRANCH  60  83
ATOM     83  C   UNL A   1      42.653  35.743  29.363  1.00  0.00     0.064 A 
ATOM     84  C   UNL A   1      43.335  36.760  30.055  1.00  0.00     0.173 A 
ATOM     85  C   UNL A   1      42.111  36.123  28.111  1.00  0.00     0.173 A 
ATOM     86  F   UNL A   1      44.010  36.508  31.183  1.00  0.00    -0.203 F 
ATOM     87  C   UNL A   1      43.404  38.071  29.571  1.00  0.00     0.198 A 
ATOM     88  C   UNL A   1      42.236  37.416  27.603  1.00  0.00     0.198 A 
ATOM     89  F   UNL A   1      41.471  35.242  27.330  1.00  0.00    -0.203 F 
ATOM     90  F   UNL A   1      44.025  39.012  30.294  1.00  0.00    -0.200 F 
ATOM     91  C   UNL A   1      42.864  38.395  28.341  1.00  0.00     0.200 A 
ATOM     92  F   UNL A   1      41.761  37.700  26.382  1.00  0.00    -0.200 F 
ATOM     93  F   UNL A   1      42.974  39.641  27.860  1.00  0.00    -0.200 F 
ENDBRANCH  60  83
ENDBRANCH  34  35
ENDBRANCH  26  29
ENDBRANCH  24  25
ENDBRANCH  23  24
ENDBRANCH   1  23
TORSDOF 14
ENDMDL
