MODEL 1
REMARK VINA RESULT:     -12.6      0.000      0.000
REMARK SMILES CC[C@@H]1CC[C@@](Cc2ccc(O)cc2)(C(=O)NCCCCNC(=O)c2ccc(-c3c4nc(c(-c5c(F)c(F)c(F)c(F)c5F)c5ccc([nH]5)c(-c5c(F)c(F)c(F)c(F)c5F)c5nc(c(-c6c(F)c(F)c(F)c(F)c6F)c6ccc3[nH]6)C=C5)C=C4)cc2)C1
REMARK SMILES IDX 19 1 18 2 17 3 15 4 16 5 6 7 3 8 4 9 88 10 5 11 2 12 1 13
REMARK SMILES IDX 7 14 8 15 9 16 14 17 10 18 13 19 11 20 12 21 20 23 21 24
REMARK SMILES IDX 22 25 23 26 24 28 25 29 26 30 87 31 27 32 86 33 28 34 29 35
REMARK SMILES IDX 30 36 80 37 31 38 85 39 79 40 81 41 32 42 84 43 78 44 77 45
REMARK SMILES IDX 33 47 65 48 45 49 64 50 46 51 49 52 63 53 82 54 47 55 48 56
REMARK SMILES IDX 62 58 83 59 50 60 34 61 35 62 43 63 36 64 37 65 41 66 44 67
REMARK SMILES IDX 38 68 39 69 42 70 40 71 66 72 67 73 75 74 68 75 69 76 73 77
REMARK SMILES IDX 76 78 70 79 71 80 74 81 72 82 51 83 52 84 60 85 53 86 54 87
REMARK SMILES IDX 58 88 61 89 55 90 56 91 59 92 57 93
REMARK H PARENT 17 6 12 22 22 27 81 46 49 57
REMARK Flexibility Score: inf
ROOT
ATOM      1  C   UNL A   1      31.996  30.552  26.810  1.00  0.00     0.023 C 
ENDROOT
BRANCH   1   2
ATOM      2  C   UNL A   1      31.814  29.875  25.459  1.00  0.00     0.116 C 
BRANCH   2   3
ATOM      3  N   UNL A   1      33.053  29.610  24.755  1.00  0.00    -0.356 N 
ATOM      4  C   UNL A   1      33.445  28.535  24.011  1.00  0.00     0.226 C 
ATOM      5  O   UNL A   1      34.449  28.712  23.313  1.00  0.00    -0.274 OA
ATOM      6  H   UNL A   1      33.726  30.325  24.825  1.00  0.00     0.163 HD
BRANCH   4   7
ATOM      7  C   UNL A   1      32.688  27.180  24.004  1.00  0.00     0.053 C 
ATOM      8  C   UNL A   1      34.274  25.745  25.194  1.00  0.00    -0.010 C 
ATOM      9  C   UNL A   1      33.007  25.769  26.038  1.00  0.00     0.005 C 
ATOM     10  C   UNL A   1      33.723  26.025  23.799  1.00  0.00     0.020 C 
ATOM     11  C   UNL A   1      32.103  26.828  25.396  1.00  0.00     0.017 C 
BRANCH   8  12
ATOM     12  C   UNL A   1      35.036  24.428  25.348  1.00  0.00     0.000 C 
ATOM     13  C   UNL A   1      35.336  23.740  24.025  1.00  0.00     0.004 C 
ENDBRANCH   8  12
BRANCH   7  14
ATOM     14  C   UNL A   1      31.708  27.086  22.794  1.00  0.00     0.052 C 
BRANCH  14  15
ATOM     15  C   UNL A   1      30.451  27.920  22.785  1.00  0.00    -0.047 A 
ATOM     16  C   UNL A   1      29.269  27.445  23.382  1.00  0.00     0.007 A 
ATOM     17  C   UNL A   1      30.435  29.180  22.171  1.00  0.00     0.007 A 
ATOM     18  C   UNL A   1      28.075  28.171  23.283  1.00  0.00     0.046 A 
ATOM     19  C   UNL A   1      29.246  29.905  22.076  1.00  0.00     0.046 A 
ATOM     20  C   UNL A   1      28.072  29.383  22.602  1.00  0.00     0.115 A 
BRANCH  20  21
ATOM     21  O   UNL A   1      26.930  30.097  22.406  1.00  0.00    -0.508 OA
ATOM     22  H   UNL A   1      26.106  29.655  22.342  1.00  0.00     0.293 HD
ENDBRANCH  20  21
ENDBRANCH  14  15
ENDBRANCH   7  14
ENDBRANCH   4   7
ENDBRANCH   2   3
ENDBRANCH   1   2
BRANCH   1  23
ATOM     23  C   UNL A   1      31.702  32.053  26.827  1.00  0.00     0.023 C 
BRANCH  23  24
ATOM     24  C   UNL A   1      32.845  32.967  27.269  1.00  0.00     0.116 C 
BRANCH  24  25
ATOM     25  N   UNL A   1      32.428  34.279  27.743  1.00  0.00    -0.352 N 
ATOM     26  C   UNL A   1      33.005  35.059  28.718  1.00  0.00     0.251 C 
ATOM     27  H   UNL A   1      31.629  34.657  27.309  1.00  0.00     0.163 HD
ATOM     28  O   UNL A   1      32.572  36.179  28.968  1.00  0.00    -0.269 OA
BRANCH  26  29
ATOM     29  C   UNL A   1      34.156  34.531  29.474  1.00  0.00     0.039 A 
ATOM     30  C   UNL A   1      33.929  33.880  30.689  1.00  0.00     0.014 A 
ATOM     31  C   UNL A   1      35.447  34.636  28.951  1.00  0.00     0.014 A 
ATOM     32  C   UNL A   1      34.994  33.253  31.341  1.00  0.00     0.010 A 
ATOM     33  C   UNL A   1      36.494  33.961  29.571  1.00  0.00     0.010 A 
ATOM     34  C   UNL A   1      36.274  33.251  30.762  1.00  0.00    -0.014 A 
BRANCH  34  35
ATOM     35  C   UNL A   1      37.391  32.478  31.363  1.00  0.00     0.031 A 
ATOM     36  C   UNL A   1      37.925  32.846  32.717  1.00  0.00     0.074 A 
ATOM     37  C   UNL A   1      37.979  31.501  30.646  1.00  0.00     0.049 A 
ATOM     38  N   UNL A   1      38.947  32.349  33.366  1.00  0.00    -0.248 NA
ATOM     39  C   UNL A   1      37.236  33.938  33.421  1.00  0.00     0.031 C 
ATOM     40  C   UNL A   1      37.585  31.085  29.299  1.00  0.00     0.029 A 
ATOM     41  N   UNL A   1      39.046  30.690  30.945  1.00  0.00    -0.354 N 
ATOM     42  C   UNL A   1      39.032  33.074  34.547  1.00  0.00     0.074 A 
ATOM     43  C   UNL A   1      37.987  34.076  34.503  1.00  0.00     0.031 C 
ATOM     44  C   UNL A   1      38.388  30.088  28.894  1.00  0.00     0.029 A 
ATOM     45  C   UNL A   1      39.373  29.817  29.935  1.00  0.00     0.049 A 
ATOM     46  H   UNL A   1      39.530  30.730  31.801  1.00  0.00     0.167 HD
ATOM     47  C   UNL A   1      39.890  32.905  35.582  1.00  0.00     0.037 A 
ATOM     48  C   UNL A   1      40.362  28.906  29.857  1.00  0.00     0.037 A 
ATOM     49  C   UNL A   1      40.913  31.893  35.630  1.00  0.00     0.049 A 
ATOM     50  C   UNL A   1      41.299  28.737  31.022  1.00  0.00     0.074 A 
ATOM     51  C   UNL A   1      41.790  31.602  36.660  1.00  0.00     0.029 A 
ATOM     52  N   UNL A   1      41.196  31.008  34.601  1.00  0.00    -0.354 N 
ATOM     53  N   UNL A   1      41.324  29.379  32.164  1.00  0.00    -0.248 NA
ATOM     54  C   UNL A   1      42.343  27.711  30.888  1.00  0.00     0.031 C 
ATOM     55  C   UNL A   1      42.632  30.567  36.237  1.00  0.00     0.029 A 
ATOM     56  C   UNL A   1      42.249  30.183  34.962  1.00  0.00     0.049 A 
ATOM     57  H   UNL A   1      40.720  30.971  33.739  1.00  0.00     0.167 HD
ATOM     58  C   UNL A   1      42.363  28.820  32.895  1.00  0.00     0.074 A 
ATOM     59  C   UNL A   1      42.937  27.775  32.071  1.00  0.00     0.031 C 
ATOM     60  C   UNL A   1      42.802  29.142  34.136  1.00  0.00     0.037 A 
BRANCH  47  61
ATOM     61  C   UNL A   1      39.754  33.835  36.752  1.00  0.00     0.064 A 
ATOM     62  C   UNL A   1      40.420  35.069  36.790  1.00  0.00     0.173 A 
ATOM     63  C   UNL A   1      38.921  33.505  37.832  1.00  0.00     0.173 A 
ATOM     64  F   UNL A   1      41.237  35.426  35.787  1.00  0.00    -0.203 F 
ATOM     65  C   UNL A   1      40.280  35.927  37.878  1.00  0.00     0.198 A 
ATOM     66  C   UNL A   1      38.762  34.377  38.905  1.00  0.00     0.198 A 
ATOM     67  F   UNL A   1      38.258  32.339  37.843  1.00  0.00    -0.203 F 
ATOM     68  F   UNL A   1      40.964  37.078  37.913  1.00  0.00    -0.200 F 
ATOM     69  C   UNL A   1      39.446  35.583  38.931  1.00  0.00     0.200 A 
ATOM     70  F   UNL A   1      37.946  34.050  39.918  1.00  0.00    -0.200 F 
ATOM     71  F   UNL A   1      39.308  36.411  39.976  1.00  0.00    -0.200 F 
ENDBRANCH  47  61
BRANCH  48  72
ATOM     72  C   UNL A   1      40.499  28.061  28.643  1.00  0.00     0.064 A 
ATOM     73  C   UNL A   1      39.850  26.821  28.555  1.00  0.00     0.173 A 
ATOM     74  C   UNL A   1      41.278  28.471  27.551  1.00  0.00     0.173 A 
ATOM     75  F   UNL A   1      39.111  26.379  29.581  1.00  0.00    -0.203 F 
ATOM     76  C   UNL A   1      39.991  26.015  27.427  1.00  0.00     0.198 A 
ATOM     77  C   UNL A   1      41.396  27.674  26.414  1.00  0.00     0.198 A 
ATOM     78  F   UNL A   1      41.914  29.651  27.584  1.00  0.00    -0.203 F 
ATOM     79  F   UNL A   1      39.395  24.815  27.387  1.00  0.00    -0.200 F 
ATOM     80  C   UNL A   1      40.759  26.444  26.356  1.00  0.00     0.200 A 
ATOM     81  F   UNL A   1      42.129  28.098  25.375  1.00  0.00    -0.200 F 
ATOM     82  F   UNL A   1      40.892  25.669  25.271  1.00  0.00    -0.200 F 
ENDBRANCH  48  72
BRANCH  60  83
ATOM     83  C   UNL A   1      43.937  28.334  34.694  1.00  0.00     0.064 A 
ATOM     84  C   UNL A   1      45.271  28.740  34.544  1.00  0.00     0.173 A 
ATOM     85  C   UNL A   1      43.681  27.162  35.421  1.00  0.00     0.173 A 
ATOM     86  F   UNL A   1      45.567  29.845  33.843  1.00  0.00    -0.203 F 
ATOM     87  C   UNL A   1      46.311  27.987  35.084  1.00  0.00     0.198 A 
ATOM     88  C   UNL A   1      44.722  26.428  35.983  1.00  0.00     0.198 A 
ATOM     89  F   UNL A   1      42.422  26.735  35.597  1.00  0.00    -0.203 F 
ATOM     90  F   UNL A   1      47.581  28.368  34.892  1.00  0.00    -0.200 F 
ATOM     91  C   UNL A   1      46.035  26.837  35.809  1.00  0.00     0.200 A 
ATOM     92  F   UNL A   1      44.453  25.323  36.693  1.00  0.00    -0.200 F 
ATOM     93  F   UNL A   1      47.037  26.118  36.334  1.00  0.00    -0.200 F 
ENDBRANCH  60  83
ENDBRANCH  34  35
ENDBRANCH  26  29
ENDBRANCH  24  25
ENDBRANCH  23  24
ENDBRANCH   1  23
TORSDOF 15
ENDMDL
MODEL 2
REMARK VINA RESULT:     -12.5      6.106     10.482
REMARK SMILES CC[C@@H]1CC[C@@](Cc2ccc(O)cc2)(C(=O)NCCCCNC(=O)c2ccc(-c3c4nc(c(-c5c(F)c(F)c(F)c(F)c5F)c5ccc([nH]5)c(-c5c(F)c(F)c(F)c(F)c5F)c5nc(c(-c6c(F)c(F)c(F)c(F)c6F)c6ccc3[nH]6)C=C5)C=C4)cc2)C1
REMARK SMILES IDX 19 1 18 2 17 3 15 4 16 5 6 7 3 8 4 9 88 10 5 11 2 12 1 13
REMARK SMILES IDX 7 14 8 15 9 16 14 17 10 18 13 19 11 20 12 21 20 23 21 24
REMARK SMILES IDX 22 25 23 26 24 28 25 29 26 30 87 31 27 32 86 33 28 34 29 35
REMARK SMILES IDX 30 36 80 37 31 38 85 39 79 40 81 41 32 42 84 43 78 44 77 45
REMARK SMILES IDX 33 47 65 48 45 49 64 50 46 51 49 52 63 53 82 54 47 55 48 56
REMARK SMILES IDX 62 58 83 59 50 60 34 61 35 62 43 63 36 64 37 65 41 66 44 67
REMARK SMILES IDX 38 68 39 69 42 70 40 71 66 72 67 73 75 74 68 75 69 76 73 77
REMARK SMILES IDX 76 78 70 79 71 80 74 81 72 82 51 83 52 84 60 85 53 86 54 87
REMARK SMILES IDX 58 88 61 89 55 90 56 91 59 92 57 93
REMARK H PARENT 17 6 12 22 22 27 81 46 49 57
REMARK Flexibility Score: inf
ROOT
ATOM      1  C   UNL A   1      37.383  21.390  24.973  1.00  0.00     0.023 C 
ENDROOT
BRANCH   1   2
ATOM      2  C   UNL A   1      35.926  21.096  25.302  1.00  0.00     0.116 C 
BRANCH   2   3
ATOM      3  N   UNL A   1      35.460  21.702  26.533  1.00  0.00    -0.356 N 
ATOM      4  C   UNL A   1      34.348  22.447  26.797  1.00  0.00     0.226 C 
ATOM      5  O   UNL A   1      34.080  22.595  27.994  1.00  0.00    -0.274 OA
ATOM      6  H   UNL A   1      36.045  21.551  27.311  1.00  0.00     0.163 HD
BRANCH   4   7
ATOM      7  C   UNL A   1      33.449  23.059  25.689  1.00  0.00     0.053 C 
ATOM      8  C   UNL A   1      34.009  25.433  25.881  1.00  0.00    -0.010 C 
ATOM      9  C   UNL A   1      34.425  25.011  24.479  1.00  0.00     0.005 C 
ATOM     10  C   UNL A   1      32.897  24.436  26.190  1.00  0.00     0.020 C 
ATOM     11  C   UNL A   1      34.263  23.487  24.442  1.00  0.00     0.017 C 
BRANCH   8  12
ATOM     12  C   UNL A   1      33.603  26.907  25.935  1.00  0.00     0.000 C 
ATOM     13  C   UNL A   1      32.114  27.121  26.154  1.00  0.00     0.004 C 
ENDBRANCH   8  12
BRANCH   7  14
ATOM     14  C   UNL A   1      32.191  22.173  25.429  1.00  0.00     0.052 C 
BRANCH  14  15
ATOM     15  C   UNL A   1      32.316  20.933  24.579  1.00  0.00    -0.047 A 
ATOM     16  C   UNL A   1      32.166  21.001  23.182  1.00  0.00     0.007 A 
ATOM     17  C   UNL A   1      32.572  19.687  25.169  1.00  0.00     0.007 A 
ATOM     18  C   UNL A   1      32.176  19.836  22.404  1.00  0.00     0.046 A 
ATOM     19  C   UNL A   1      32.586  18.527  24.393  1.00  0.00     0.046 A 
ATOM     20  C   UNL A   1      32.356  18.605  23.025  1.00  0.00     0.115 A 
BRANCH  20  21
ATOM     21  O   UNL A   1      32.300  17.433  22.335  1.00  0.00    -0.508 OA
ATOM     22  H   UNL A   1      32.326  17.440  21.399  1.00  0.00     0.293 HD
ENDBRANCH  20  21
ENDBRANCH  14  15
ENDBRANCH   7  14
ENDBRANCH   4   7
ENDBRANCH   2   3
ENDBRANCH   1   2
BRANCH   1  23
ATOM     23  C   UNL A   1      38.310  20.175  24.994  1.00  0.00     0.023 C 
BRANCH  23  24
ATOM     24  C   UNL A   1      39.480  20.226  25.977  1.00  0.00     0.116 C 
BRANCH  24  25
ATOM     25  N   UNL A   1      40.416  19.115  25.870  1.00  0.00    -0.352 N 
ATOM     26  C   UNL A   1      41.771  19.114  26.097  1.00  0.00     0.251 C 
ATOM     27  H   UNL A   1      40.026  18.252  25.601  1.00  0.00     0.163 HD
ATOM     28  O   UNL A   1      42.423  18.078  26.024  1.00  0.00    -0.269 OA
BRANCH  26  29
ATOM     29  C   UNL A   1      42.447  20.384  26.424  1.00  0.00     0.039 A 
ATOM     30  C   UNL A   1      43.110  21.081  25.411  1.00  0.00     0.014 A 
ATOM     31  C   UNL A   1      42.374  20.905  27.718  1.00  0.00     0.014 A 
ATOM     32  C   UNL A   1      43.629  22.351  25.678  1.00  0.00     0.010 A 
ATOM     33  C   UNL A   1      42.839  22.193  27.965  1.00  0.00     0.010 A 
ATOM     34  C   UNL A   1      43.456  22.933  26.945  1.00  0.00    -0.014 A 
BRANCH  34  35
ATOM     35  C   UNL A   1      43.874  24.332  27.214  1.00  0.00     0.031 A 
ATOM     36  C   UNL A   1      42.871  25.347  27.680  1.00  0.00     0.074 A 
ATOM     37  C   UNL A   1      45.141  24.706  26.950  1.00  0.00     0.049 A 
ATOM     38  N   UNL A   1      43.024  26.630  27.882  1.00  0.00    -0.248 NA
ATOM     39  C   UNL A   1      41.505  24.857  27.924  1.00  0.00     0.031 C 
ATOM     40  C   UNL A   1      46.195  23.825  26.444  1.00  0.00     0.029 A 
ATOM     41  N   UNL A   1      45.755  25.930  27.057  1.00  0.00    -0.354 N 
ATOM     42  C   UNL A   1      41.777  27.104  28.263  1.00  0.00     0.074 A 
ATOM     43  C   UNL A   1      40.866  25.980  28.219  1.00  0.00     0.031 C 
ATOM     44  C   UNL A   1      47.327  24.532  26.298  1.00  0.00     0.029 A 
ATOM     45  C   UNL A   1      47.072  25.920  26.667  1.00  0.00     0.049 A 
ATOM     46  H   UNL A   1      45.294  26.736  27.382  1.00  0.00     0.167 HD
ATOM     47  C   UNL A   1      41.428  28.359  28.637  1.00  0.00     0.037 A 
ATOM     48  C   UNL A   1      47.970  26.922  26.607  1.00  0.00     0.037 A 
ATOM     49  C   UNL A   1      42.342  29.470  28.700  1.00  0.00     0.049 A 
ATOM     50  C   UNL A   1      47.557  28.306  27.029  1.00  0.00     0.074 A 
ATOM     51  C   UNL A   1      42.098  30.764  29.125  1.00  0.00     0.029 A 
ATOM     52  N   UNL A   1      43.676  29.416  28.325  1.00  0.00    -0.354 N 
ATOM     53  N   UNL A   1      46.392  28.727  27.458  1.00  0.00    -0.248 NA
ATOM     54  C   UNL A   1      48.587  29.352  26.966  1.00  0.00     0.031 C 
ATOM     55  C   UNL A   1      43.275  31.505  28.968  1.00  0.00     0.029 A 
ATOM     56  C   UNL A   1      44.264  30.660  28.489  1.00  0.00     0.049 A 
ATOM     57  H   UNL A   1      44.137  28.613  27.991  1.00  0.00     0.167 HD
ATOM     58  C   UNL A   1      46.554  30.076  27.741  1.00  0.00     0.074 A 
ATOM     59  C   UNL A   1      47.935  30.401  27.447  1.00  0.00     0.031 C 
ATOM     60  C   UNL A   1      45.641  30.966  28.201  1.00  0.00     0.037 A 
BRANCH  47  61
ATOM     61  C   UNL A   1      39.994  28.596  29.011  1.00  0.00     0.064 A 
ATOM     62  C   UNL A   1      39.529  28.369  30.315  1.00  0.00     0.173 A 
ATOM     63  C   UNL A   1      39.082  29.089  28.065  1.00  0.00     0.173 A 
ATOM     64  F   UNL A   1      40.358  27.887  31.253  1.00  0.00    -0.203 F 
ATOM     65  C   UNL A   1      38.197  28.599  30.652  1.00  0.00     0.198 A 
ATOM     66  C   UNL A   1      37.759  29.344  28.413  1.00  0.00     0.198 A 
ATOM     67  F   UNL A   1      39.477  29.327  26.805  1.00  0.00    -0.203 F 
ATOM     68  F   UNL A   1      37.766  28.329  31.891  1.00  0.00    -0.200 F 
ATOM     69  C   UNL A   1      37.315  29.092  29.702  1.00  0.00     0.200 A 
ATOM     70  F   UNL A   1      36.909  29.832  27.497  1.00  0.00    -0.200 F 
ATOM     71  F   UNL A   1      36.035  29.319  30.029  1.00  0.00    -0.200 F 
ENDBRANCH  47  61
BRANCH  48  72
ATOM     72  C   UNL A   1      49.359  26.648  26.156  1.00  0.00     0.064 A 
ATOM     73  C   UNL A   1      50.317  26.148  27.049  1.00  0.00     0.173 A 
ATOM     74  C   UNL A   1      49.757  26.880  24.832  1.00  0.00     0.173 A 
ATOM     75  F   UNL A   1      49.989  25.930  28.330  1.00  0.00    -0.203 F 
ATOM     76  C   UNL A   1      51.627  25.909  26.638  1.00  0.00     0.198 A 
ATOM     77  C   UNL A   1      51.061  26.615  24.416  1.00  0.00     0.198 A 
ATOM     78  F   UNL A   1      48.876  27.353  23.938  1.00  0.00    -0.203 F 
ATOM     79  F   UNL A   1      52.534  25.472  27.523  1.00  0.00    -0.200 F 
ATOM     80  C   UNL A   1      51.996  26.137  25.322  1.00  0.00     0.200 A 
ATOM     81  F   UNL A   1      51.411  26.824  23.140  1.00  0.00    -0.200 F 
ATOM     82  F   UNL A   1      53.255  25.904  24.927  1.00  0.00    -0.200 F 
ENDBRANCH  48  72
BRANCH  60  83
ATOM     83  C   UNL A   1      46.114  32.368  28.450  1.00  0.00     0.064 A 
ATOM     84  C   UNL A   1      46.661  32.751  29.683  1.00  0.00     0.173 A 
ATOM     85  C   UNL A   1      46.053  33.328  27.429  1.00  0.00     0.173 A 
ATOM     86  F   UNL A   1      46.725  31.873  30.696  1.00  0.00    -0.203 F 
ATOM     87  C   UNL A   1      47.111  34.052  29.891  1.00  0.00     0.198 A 
ATOM     88  C   UNL A   1      46.530  34.620  27.631  1.00  0.00     0.198 A 
ATOM     89  F   UNL A   1      45.542  33.009  26.230  1.00  0.00    -0.203 F 
ATOM     90  F   UNL A   1      47.591  34.409  31.090  1.00  0.00    -0.200 F 
ATOM     91  C   UNL A   1      47.052  34.982  28.864  1.00  0.00     0.200 A 
ATOM     92  F   UNL A   1      46.482  35.515  26.635  1.00  0.00    -0.200 F 
ATOM     93  F   UNL A   1      47.493  36.232  29.064  1.00  0.00    -0.200 F 
ENDBRANCH  60  83
ENDBRANCH  34  35
ENDBRANCH  26  29
ENDBRANCH  24  25
ENDBRANCH  23  24
ENDBRANCH   1  23
TORSDOF 15
ENDMDL
MODEL 3
REMARK VINA RESULT:     -12.5      0.229      2.041
REMARK SMILES CC[C@@H]1CC[C@@](Cc2ccc(O)cc2)(C(=O)NCCCCNC(=O)c2ccc(-c3c4nc(c(-c5c(F)c(F)c(F)c(F)c5F)c5ccc([nH]5)c(-c5c(F)c(F)c(F)c(F)c5F)c5nc(c(-c6c(F)c(F)c(F)c(F)c6F)c6ccc3[nH]6)C=C5)C=C4)cc2)C1
REMARK SMILES IDX 19 1 18 2 17 3 15 4 16 5 6 7 3 8 4 9 88 10 5 11 2 12 1 13
REMARK SMILES IDX 7 14 8 15 9 16 14 17 10 18 13 19 11 20 12 21 20 23 21 24
REMARK SMILES IDX 22 25 23 26 24 28 25 29 26 30 87 31 27 32 86 33 28 34 29 35
REMARK SMILES IDX 30 36 80 37 31 38 85 39 79 40 81 41 32 42 84 43 78 44 77 45
REMARK SMILES IDX 33 47 65 48 45 49 64 50 46 51 49 52 63 53 82 54 47 55 48 56
REMARK SMILES IDX 62 58 83 59 50 60 34 61 35 62 43 63 36 64 37 65 41 66 44 67
REMARK SMILES IDX 38 68 39 69 42 70 40 71 66 72 67 73 75 74 68 75 69 76 73 77
REMARK SMILES IDX 76 78 70 79 71 80 74 81 72 82 51 83 52 84 60 85 53 86 54 87
REMARK SMILES IDX 58 88 61 89 55 90 56 91 59 92 57 93
REMARK H PARENT 17 6 12 22 22 27 81 46 49 57
REMARK Flexibility Score: inf
ROOT
ATOM      1  C   UNL A   1      31.838  30.508  26.707  1.00  0.00     0.023 C 
ENDROOT
BRANCH   1   2
ATOM      2  C   UNL A   1      31.662  29.968  25.296  1.00  0.00     0.116 C 
BRANCH   2   3
ATOM      3  N   UNL A   1      32.906  29.703  24.600  1.00  0.00    -0.356 N 
ATOM      4  C   UNL A   1      33.301  28.630  23.856  1.00  0.00     0.226 C 
ATOM      5  O   UNL A   1      34.311  28.807  23.166  1.00  0.00    -0.274 OA
ATOM      6  H   UNL A   1      33.579  30.417  24.679  1.00  0.00     0.163 HD
BRANCH   4   7
ATOM      7  C   UNL A   1      32.541  27.277  23.837  1.00  0.00     0.053 C 
ATOM      8  C   UNL A   1      34.096  25.843  25.069  1.00  0.00    -0.010 C 
ATOM      9  C   UNL A   1      32.810  25.874  25.883  1.00  0.00     0.005 C 
ATOM     10  C   UNL A   1      33.578  26.118  23.660  1.00  0.00     0.020 C 
ATOM     11  C   UNL A   1      31.924  26.932  25.217  1.00  0.00     0.017 C 
BRANCH   8  12
ATOM     12  C   UNL A   1      34.851  24.525  25.245  1.00  0.00     0.000 C 
ATOM     13  C   UNL A   1      34.693  23.571  24.073  1.00  0.00     0.004 C 
ENDBRANCH   8  12
BRANCH   7  14
ATOM     14  C   UNL A   1      31.589  27.180  22.605  1.00  0.00     0.052 C 
BRANCH  14  15
ATOM     15  C   UNL A   1      30.322  27.999  22.575  1.00  0.00    -0.047 A 
ATOM     16  C   UNL A   1      30.311  29.284  22.004  1.00  0.00     0.007 A 
ATOM     17  C   UNL A   1      29.135  27.496  23.126  1.00  0.00     0.007 A 
ATOM     18  C   UNL A   1      29.164  30.086  22.069  1.00  0.00     0.046 A 
ATOM     19  C   UNL A   1      27.991  28.294  23.187  1.00  0.00     0.046 A 
ATOM     20  C   UNL A   1      28.023  29.591  22.690  1.00  0.00     0.115 A 
BRANCH  20  21
ATOM     21  O   UNL A   1      26.904  30.347  22.852  1.00  0.00    -0.508 OA
ATOM     22  H   UNL A   1      26.058  29.945  22.824  1.00  0.00     0.293 HD
ENDBRANCH  20  21
ENDBRANCH  14  15
ENDBRANCH   7  14
ENDBRANCH   4   7
ENDBRANCH   2   3
ENDBRANCH   1   2
BRANCH   1  23
ATOM     23  C   UNL A   1      31.527  31.996  26.876  1.00  0.00     0.023 C 
BRANCH  23  24
ATOM     24  C   UNL A   1      32.700  32.900  27.252  1.00  0.00     0.116 C 
BRANCH  24  25
ATOM     25  N   UNL A   1      32.327  34.249  27.655  1.00  0.00    -0.352 N 
ATOM     26  C   UNL A   1      32.933  35.064  28.581  1.00  0.00     0.251 C 
ATOM     27  H   UNL A   1      31.536  34.626  27.205  1.00  0.00     0.163 HD
ATOM     28  O   UNL A   1      32.536  36.208  28.771  1.00  0.00    -0.269 OA
BRANCH  26  29
ATOM     29  C   UNL A   1      34.074  34.544  29.359  1.00  0.00     0.039 A 
ATOM     30  C   UNL A   1      33.837  33.968  30.609  1.00  0.00     0.014 A 
ATOM     31  C   UNL A   1      35.363  34.580  28.823  1.00  0.00     0.014 A 
ATOM     32  C   UNL A   1      34.888  33.346  31.289  1.00  0.00     0.010 A 
ATOM     33  C   UNL A   1      36.395  33.909  29.474  1.00  0.00     0.010 A 
ATOM     34  C   UNL A   1      36.163  33.274  30.703  1.00  0.00    -0.014 A 
BRANCH  34  35
ATOM     35  C   UNL A   1      37.260  32.501  31.339  1.00  0.00     0.031 A 
ATOM     36  C   UNL A   1      37.768  32.885  32.699  1.00  0.00     0.074 A 
ATOM     37  C   UNL A   1      37.857  31.510  30.650  1.00  0.00     0.049 A 
ATOM     38  N   UNL A   1      38.771  32.391  33.378  1.00  0.00    -0.248 NA
ATOM     39  C   UNL A   1      37.071  33.992  33.373  1.00  0.00     0.031 C 
ATOM     40  C   UNL A   1      37.490  31.078  29.301  1.00  0.00     0.029 A 
ATOM     41  N   UNL A   1      38.912  30.696  30.983  1.00  0.00    -0.354 N 
ATOM     42  C   UNL A   1      38.835  33.132  34.550  1.00  0.00     0.074 A 
ATOM     43  C   UNL A   1      37.799  34.140  34.469  1.00  0.00     0.031 C 
ATOM     44  C   UNL A   1      38.294  30.070  28.927  1.00  0.00     0.029 A 
ATOM     45  C   UNL A   1      39.255  29.806  29.994  1.00  0.00     0.049 A 
ATOM     46  H   UNL A   1      39.377  30.745  31.849  1.00  0.00     0.167 HD
ATOM     47  C   UNL A   1      39.669  32.972  35.606  1.00  0.00     0.037 A 
ATOM     48  C   UNL A   1      40.238  28.888  29.951  1.00  0.00     0.037 A 
ATOM     49  C   UNL A   1      40.683  31.954  35.691  1.00  0.00     0.049 A 
ATOM     50  C   UNL A   1      41.148  28.729  31.138  1.00  0.00     0.074 A 
ATOM     51  C   UNL A   1      41.536  31.671  36.744  1.00  0.00     0.029 A 
ATOM     52  N   UNL A   1      40.983  31.052  34.681  1.00  0.00    -0.354 N 
ATOM     53  N   UNL A   1      41.153  29.388  32.271  1.00  0.00    -0.248 NA
ATOM     54  C   UNL A   1      42.187  27.694  31.042  1.00  0.00     0.031 C 
ATOM     55  C   UNL A   1      42.379  30.625  36.355  1.00  0.00     0.029 A 
ATOM     56  C   UNL A   1      42.021  30.225  35.077  1.00  0.00     0.049 A 
ATOM     57  H   UNL A   1      40.525  31.006  33.810  1.00  0.00     0.167 HD
ATOM     58  C   UNL A   1      42.171  28.831  33.032  1.00  0.00     0.074 A 
ATOM     59  C   UNL A   1      42.756  27.771  32.236  1.00  0.00     0.031 C 
ATOM     60  C   UNL A   1      42.586  29.169  34.278  1.00  0.00     0.037 A 
BRANCH  47  61
ATOM     61  C   UNL A   1      39.514  33.920  36.759  1.00  0.00     0.064 A 
ATOM     62  C   UNL A   1      38.744  33.588  37.884  1.00  0.00     0.173 A 
ATOM     63  C   UNL A   1      40.172  35.159  36.757  1.00  0.00     0.173 A 
ATOM     64  F   UNL A   1      38.086  32.419  37.929  1.00  0.00    -0.203 F 
ATOM     65  C   UNL A   1      38.614  34.473  38.951  1.00  0.00     0.198 A 
ATOM     66  C   UNL A   1      40.061  36.029  37.837  1.00  0.00     0.198 A 
ATOM     67  F   UNL A   1      40.925  35.524  35.708  1.00  0.00    -0.203 F 
ATOM     68  F   UNL A   1      37.833  34.153  39.992  1.00  0.00    -0.200 F 
ATOM     69  C   UNL A   1      39.277  35.690  38.930  1.00  0.00     0.200 A 
ATOM     70  F   UNL A   1      40.713  37.201  37.821  1.00  0.00    -0.200 F 
ATOM     71  F   UNL A   1      39.156  36.539  39.959  1.00  0.00    -0.200 F 
ENDBRANCH  47  61
BRANCH  48  72
ATOM     72  C   UNL A   1      40.395  28.025  28.752  1.00  0.00     0.064 A 
ATOM     73  C   UNL A   1      41.180  28.441  27.667  1.00  0.00     0.173 A 
ATOM     74  C   UNL A   1      39.768  26.774  28.663  1.00  0.00     0.173 A 
ATOM     75  F   UNL A   1      41.783  29.637  27.698  1.00  0.00    -0.203 F 
ATOM     76  C   UNL A   1      41.315  27.646  26.530  1.00  0.00     0.198 A 
ATOM     77  C   UNL A   1      39.926  25.969  27.536  1.00  0.00     0.198 A 
ATOM     78  F   UNL A   1      39.011  26.328  29.677  1.00  0.00    -0.203 F 
ATOM     79  F   UNL A   1      42.037  28.087  25.490  1.00  0.00    -0.200 F 
ATOM     80  C   UNL A   1      40.693  26.409  26.468  1.00  0.00     0.200 A 
ATOM     81  F   UNL A   1      39.334  24.768  27.485  1.00  0.00    -0.200 F 
ATOM     82  F   UNL A   1      40.826  25.644  25.376  1.00  0.00    -0.200 F 
ENDBRANCH  48  72
BRANCH  60  83
ATOM     83  C   UNL A   1      43.702  28.361  34.873  1.00  0.00     0.064 A 
ATOM     84  C   UNL A   1      43.456  27.176  35.580  1.00  0.00     0.173 A 
ATOM     85  C   UNL A   1      45.036  28.759  34.696  1.00  0.00     0.173 A 
ATOM     86  F   UNL A   1      42.196  26.763  35.789  1.00  0.00    -0.203 F 
ATOM     87  C   UNL A   1      44.505  26.430  36.110  1.00  0.00     0.198 A 
ATOM     88  C   UNL A   1      46.083  27.996  35.204  1.00  0.00     0.198 A 
ATOM     89  F   UNL A   1      45.324  29.883  34.023  1.00  0.00    -0.203 F 
ATOM     90  F   UNL A   1      44.245  25.324  36.821  1.00  0.00    -0.200 F 
ATOM     91  C   UNL A   1      45.817  26.835  35.915  1.00  0.00     0.200 A 
ATOM     92  F   UNL A   1      47.351  28.383  35.005  1.00  0.00    -0.200 F 
ATOM     93  F   UNL A   1      46.825  26.111  36.419  1.00  0.00    -0.200 F 
ENDBRANCH  60  83
ENDBRANCH  34  35
ENDBRANCH  26  29
ENDBRANCH  24  25
ENDBRANCH  23  24
ENDBRANCH   1  23
TORSDOF 15
ENDMDL
