MODEL 1
REMARK VINA RESULT:     -13.6      0.000      0.000
REMARK SMILES C[C@@H]1OCC[C@@H]1c1nnc(-c2cccc(C(=O)NCCCCNC(=O)c3ccc(-c4c5nc(c(-c6c(F)c(F)c(F)c(F)c6F)c6ccc([nH]6)c(-c6c(F)c(F)c(F)c(F)c6F)c6nc(c(-c7c(F)c(F)c(F)c(F)c7F)c7ccc4[nH]7)C=C6)C=C5)cc3)c2)o1
REMARK SMILES IDX 20 1 19 2 18 3 16 4 17 5 15 7 11 8 12 9 89 10 13 11 14 12
REMARK SMILES IDX 10 13 7 14 8 15 90 16 9 17 6 18 1 19 2 20 3 21 4 22 5 23
REMARK SMILES IDX 21 24 22 25 23 26 24 27 25 29 26 30 27 31 88 32 28 33 87 34
REMARK SMILES IDX 29 35 30 36 31 37 81 38 32 39 86 40 80 41 82 42 33 43 85 44
REMARK SMILES IDX 79 45 78 46 34 48 66 49 46 50 65 51 47 52 50 53 64 54 83 55
REMARK SMILES IDX 48 56 49 57 63 59 84 60 51 61 35 62 36 63 44 64 37 65 38 66
REMARK SMILES IDX 42 67 45 68 39 69 40 70 43 71 41 72 67 73 68 74 76 75 69 76
REMARK SMILES IDX 70 77 74 78 77 79 71 80 72 81 75 82 73 83 52 84 53 85 61 86
REMARK SMILES IDX 54 87 55 88 59 89 62 90 56 91 57 92 60 93 58 94
REMARK H PARENT 18 6 23 28 82 47 50 58
REMARK Flexibility Score: inf
ROOT
ATOM      1  C   UNL A   1      35.088  22.436  26.644  1.00  0.00     0.023 C 
ENDROOT
BRANCH   1   2
ATOM      2  C   UNL A   1      34.034  21.832  27.562  1.00  0.00     0.116 C 
BRANCH   2   3
ATOM      3  N   UNL A   1      32.834  22.636  27.732  1.00  0.00    -0.352 N 
ATOM      4  C   UNL A   1      31.852  23.013  26.840  1.00  0.00     0.251 C 
ATOM      5  O   UNL A   1      30.917  23.697  27.252  1.00  0.00    -0.269 OA
ATOM      6  H   UNL A   1      32.699  22.971  28.648  1.00  0.00     0.163 HD
BRANCH   4   7
ATOM      7  C   UNL A   1      31.931  22.690  25.390  1.00  0.00     0.040 A 
ATOM      8  C   UNL A   1      32.149  21.079  23.590  1.00  0.00     0.040 A 
ATOM      9  C   UNL A   1      32.534  22.111  22.724  1.00  0.00     0.014 A 
ATOM     10  C   UNL A   1      31.741  21.400  24.890  1.00  0.00     0.027 A 
ATOM     11  C   UNL A   1      32.551  23.434  23.166  1.00  0.00     0.002 A 
ATOM     12  C   UNL A   1      32.282  23.718  24.505  1.00  0.00     0.014 A 
BRANCH   8  13
ATOM     13  C   UNL A   1      32.358  19.690  23.214  1.00  0.00     0.247 A 
ATOM     14  C   UNL A   1      33.295  17.782  23.259  1.00  0.00     0.222 A 
ATOM     15  N   UNL A   1      32.603  17.834  22.140  1.00  0.00    -0.112 NA
ATOM     16  O   UNL A   1      33.179  18.927  24.004  1.00  0.00    -0.420 OA
ATOM     17  N   UNL A   1      31.989  19.065  22.115  1.00  0.00    -0.108 NA
BRANCH  14  18
ATOM     18  C   UNL A   1      34.042  16.636  23.816  1.00  0.00     0.109 C 
ATOM     19  C   UNL A   1      32.303  16.130  25.696  1.00  0.00     0.039 C 
ATOM     20  C   UNL A   1      33.286  15.607  24.649  1.00  0.00     0.127 C 
ATOM     21  O   UNL A   1      34.316  14.897  25.377  1.00  0.00    -0.378 OA
ATOM     22  C   UNL A   1      35.517  15.686  25.368  1.00  0.00     0.161 C 
ATOM     23  C   UNL A   1      35.165  17.025  24.754  1.00  0.00     0.044 C 
ENDBRANCH  14  18
ENDBRANCH   8  13
ENDBRANCH   4   7
ENDBRANCH   2   3
ENDBRANCH   1   2
BRANCH   1  24
ATOM     24  C   UNL A   1      35.675  21.524  25.576  1.00  0.00     0.023 C 
BRANCH  24  25
ATOM     25  C   UNL A   1      37.082  21.862  25.097  1.00  0.00     0.116 C 
BRANCH  25  26
ATOM     26  N   UNL A   1      38.087  20.875  25.461  1.00  0.00    -0.352 N 
ATOM     27  C   UNL A   1      39.282  21.032  26.126  1.00  0.00     0.251 C 
ATOM     28  H   UNL A   1      37.880  19.951  25.189  1.00  0.00     0.163 HD
ATOM     29  O   UNL A   1      40.026  20.074  26.286  1.00  0.00    -0.269 OA
BRANCH  27  30
ATOM     30  C   UNL A   1      39.693  22.371  26.605  1.00  0.00     0.039 A 
ATOM     31  C   UNL A   1      40.737  22.461  27.529  1.00  0.00     0.014 A 
ATOM     32  C   UNL A   1      39.082  23.531  26.126  1.00  0.00     0.014 A 
ATOM     33  C   UNL A   1      41.233  23.714  27.898  1.00  0.00     0.010 A 
ATOM     34  C   UNL A   1      39.628  24.775  26.430  1.00  0.00     0.010 A 
ATOM     35  C   UNL A   1      40.716  24.879  27.310  1.00  0.00    -0.014 A 
BRANCH  35  36
ATOM     36  C   UNL A   1      41.305  26.214  27.590  1.00  0.00     0.031 A 
ATOM     37  C   UNL A   1      42.708  26.527  27.151  1.00  0.00     0.074 A 
ATOM     38  C   UNL A   1      40.608  27.113  28.312  1.00  0.00     0.049 A 
ATOM     39  N   UNL A   1      43.430  27.595  27.383  1.00  0.00    -0.248 NA
ATOM     40  C   UNL A   1      43.403  25.489  26.375  1.00  0.00     0.031 C 
ATOM     41  C   UNL A   1      39.259  26.910  28.844  1.00  0.00     0.029 A 
ATOM     42  N   UNL A   1      40.944  28.374  28.738  1.00  0.00    -0.354 N 
ATOM     43  C   UNL A   1      44.666  27.347  26.800  1.00  0.00     0.074 A 
ATOM     44  C   UNL A   1      44.614  26.011  26.249  1.00  0.00     0.031 C 
ATOM     45  C   UNL A   1      38.875  28.014  29.504  1.00  0.00     0.029 A 
ATOM     46  C   UNL A   1      39.962  28.988  29.475  1.00  0.00     0.049 A 
ATOM     47  H   UNL A   1      41.808  28.800  28.532  1.00  0.00     0.167 HD
ATOM     48  C   UNL A   1      45.738  28.170  26.711  1.00  0.00     0.037 A 
ATOM     49  C   UNL A   1      39.942  30.197  30.068  1.00  0.00     0.037 A 
ATOM     50  C   UNL A   1      45.776  29.511  27.231  1.00  0.00     0.049 A 
ATOM     51  C   UNL A   1      41.143  31.095  29.946  1.00  0.00     0.074 A 
ATOM     52  C   UNL A   1      46.790  30.447  27.133  1.00  0.00     0.029 A 
ATOM     53  N   UNL A   1      44.749  30.108  27.948  1.00  0.00    -0.354 N 
ATOM     54  N   UNL A   1      42.281  30.877  29.334  1.00  0.00    -0.248 NA
ATOM     55  C   UNL A   1      41.054  32.411  30.596  1.00  0.00     0.031 C 
ATOM     56  C   UNL A   1      46.393  31.597  27.822  1.00  0.00     0.029 A 
ATOM     57  C   UNL A   1      45.114  31.395  28.313  1.00  0.00     0.049 A 
ATOM     58  H   UNL A   1      43.889  29.682  28.164  1.00  0.00     0.167 HD
ATOM     59  C   UNL A   1      43.030  32.033  29.498  1.00  0.00     0.074 A 
ATOM     60  C   UNL A   1      42.215  32.956  30.258  1.00  0.00     0.031 C 
ATOM     61  C   UNL A   1      44.284  32.304  29.061  1.00  0.00     0.037 A 
BRANCH  48  62
ATOM     62  C   UNL A   1      46.959  27.642  26.017  1.00  0.00     0.064 A 
ATOM     63  C   UNL A   1      47.094  27.703  24.622  1.00  0.00     0.173 A 
ATOM     64  C   UNL A   1      48.019  27.097  26.756  1.00  0.00     0.173 A 
ATOM     65  F   UNL A   1      46.102  28.204  23.869  1.00  0.00    -0.203 F 
ATOM     66  C   UNL A   1      48.232  27.210  23.989  1.00  0.00     0.198 A 
ATOM     67  C   UNL A   1      49.170  26.633  26.122  1.00  0.00     0.198 A 
ATOM     68  F   UNL A   1      47.945  27.020  28.093  1.00  0.00    -0.203 F 
ATOM     69  F   UNL A   1      48.316  27.233  22.652  1.00  0.00    -0.200 F 
ATOM     70  C   UNL A   1      49.271  26.682  24.740  1.00  0.00     0.200 A 
ATOM     71  F   UNL A   1      50.178  26.133  26.848  1.00  0.00    -0.200 F 
ATOM     72  F   UNL A   1      50.368  26.212  24.130  1.00  0.00    -0.200 F 
ENDBRANCH  48  62
BRANCH  49  73
ATOM     73  C   UNL A   1      38.732  30.643  30.807  1.00  0.00     0.064 A 
ATOM     74  C   UNL A   1      37.652  31.225  30.129  1.00  0.00     0.173 A 
ATOM     75  C   UNL A   1      38.632  30.507  32.198  1.00  0.00     0.173 A 
ATOM     76  F   UNL A   1      37.710  31.396  28.800  1.00  0.00    -0.203 F 
ATOM     77  C   UNL A   1      36.525  31.670  30.816  1.00  0.00     0.198 A 
ATOM     78  C   UNL A   1      37.494  30.930  32.883  1.00  0.00     0.198 A 
ATOM     79  F   UNL A   1      39.637  29.954  32.893  1.00  0.00    -0.203 F 
ATOM     80  F   UNL A   1      35.526  32.263  30.148  1.00  0.00    -0.200 F 
ATOM     81  C   UNL A   1      36.445  31.518  32.192  1.00  0.00     0.200 A 
ATOM     82  F   UNL A   1      37.414  30.769  34.211  1.00  0.00    -0.200 F 
ATOM     83  F   UNL A   1      35.359  31.944  32.853  1.00  0.00    -0.200 F 
ENDBRANCH  49  73
BRANCH  61  84
ATOM     84  C   UNL A   1      44.838  33.665  29.363  1.00  0.00     0.064 A 
ATOM     85  C   UNL A   1      45.589  33.914  30.521  1.00  0.00     0.173 A 
ATOM     86  C   UNL A   1      44.652  34.724  28.461  1.00  0.00     0.173 A 
ATOM     87  F   UNL A   1      45.781  32.938  31.422  1.00  0.00    -0.203 F 
ATOM     88  C   UNL A   1      46.113  35.178  30.776  1.00  0.00     0.198 A 
ATOM     89  C   UNL A   1      45.201  35.979  28.705  1.00  0.00     0.198 A 
ATOM     90  F   UNL A   1      43.946  34.536  27.335  1.00  0.00    -0.203 F 
ATOM     91  F   UNL A   1      46.790  35.404  31.911  1.00  0.00    -0.200 F 
ATOM     92  C   UNL A   1      45.925  36.206  29.865  1.00  0.00     0.200 A 
ATOM     93  F   UNL A   1      45.028  36.969  27.818  1.00  0.00    -0.200 F 
ATOM     94  F   UNL A   1      46.438  37.421  30.109  1.00  0.00    -0.200 F 
ENDBRANCH  61  84
ENDBRANCH  35  36
ENDBRANCH  27  30
ENDBRANCH  25  26
ENDBRANCH  24  25
ENDBRANCH   1  24
TORSDOF 13
ENDMDL
MODEL 2
REMARK VINA RESULT:     -13.6      5.503     10.790
REMARK SMILES C[C@@H]1OCC[C@@H]1c1nnc(-c2cccc(C(=O)NCCCCNC(=O)c3ccc(-c4c5nc(c(-c6c(F)c(F)c(F)c(F)c6F)c6ccc([nH]6)c(-c6c(F)c(F)c(F)c(F)c6F)c6nc(c(-c7c(F)c(F)c(F)c(F)c7F)c7ccc4[nH]7)C=C6)C=C5)cc3)c2)o1
REMARK SMILES IDX 20 1 19 2 18 3 16 4 17 5 15 7 11 8 12 9 89 10 13 11 14 12
REMARK SMILES IDX 10 13 7 14 8 15 90 16 9 17 6 18 1 19 2 20 3 21 4 22 5 23
REMARK SMILES IDX 21 24 22 25 23 26 24 27 25 29 26 30 27 31 88 32 28 33 87 34
REMARK SMILES IDX 29 35 30 36 31 37 81 38 32 39 86 40 80 41 82 42 33 43 85 44
REMARK SMILES IDX 79 45 78 46 34 48 66 49 46 50 65 51 47 52 50 53 64 54 83 55
REMARK SMILES IDX 48 56 49 57 63 59 84 60 51 61 35 62 36 63 44 64 37 65 38 66
REMARK SMILES IDX 42 67 45 68 39 69 40 70 43 71 41 72 67 73 68 74 76 75 69 76
REMARK SMILES IDX 70 77 74 78 77 79 71 80 72 81 75 82 73 83 52 84 53 85 61 86
REMARK SMILES IDX 54 87 55 88 59 89 62 90 56 91 57 92 60 93 58 94
REMARK H PARENT 18 6 23 28 82 47 50 58
REMARK Flexibility Score: inf
ROOT
ATOM      1  C   UNL A   1      33.130  29.340  24.393  1.00  0.00     0.023 C 
ENDROOT
BRANCH   1   2
ATOM      2  C   UNL A   1      34.028  28.110  24.403  1.00  0.00     0.116 C 
BRANCH   2   3
ATOM      3  N   UNL A   1      34.137  27.419  23.128  1.00  0.00    -0.352 N 
ATOM      4  C   UNL A   1      33.216  26.693  22.401  1.00  0.00     0.251 C 
ATOM      5  O   UNL A   1      33.566  26.215  21.323  1.00  0.00    -0.269 OA
ATOM      6  H   UNL A   1      35.026  27.479  22.710  1.00  0.00     0.163 HD
BRANCH   4   7
ATOM      7  C   UNL A   1      31.850  26.404  22.913  1.00  0.00     0.040 A 
ATOM      8  C   UNL A   1      29.551  27.072  23.301  1.00  0.00     0.040 A 
ATOM      9  C   UNL A   1      29.428  26.061  24.263  1.00  0.00     0.014 A 
ATOM     10  C   UNL A   1      30.731  27.159  22.554  1.00  0.00     0.027 A 
ATOM     11  C   UNL A   1      30.484  25.181  24.501  1.00  0.00     0.002 A 
ATOM     12  C   UNL A   1      31.703  25.374  23.851  1.00  0.00     0.014 A 
BRANCH   8  13
ATOM     13  C   UNL A   1      28.557  28.130  23.218  1.00  0.00     0.247 A 
ATOM     14  C   UNL A   1      27.826  30.124  23.311  1.00  0.00     0.222 A 
ATOM     15  N   UNL A   1      26.775  29.336  23.388  1.00  0.00    -0.112 NA
ATOM     16  O   UNL A   1      29.000  29.427  23.189  1.00  0.00    -0.420 OA
ATOM     17  N   UNL A   1      27.246  28.045  23.318  1.00  0.00    -0.108 NA
BRANCH  14  18
ATOM     18  C   UNL A   1      27.854  31.599  23.226  1.00  0.00     0.109 C 
ATOM     19  C   UNL A   1      28.403  31.664  20.675  1.00  0.00     0.039 C 
ATOM     20  C   UNL A   1      27.650  32.256  21.866  1.00  0.00     0.127 C 
ATOM     21  O   UNL A   1      28.148  33.605  22.032  1.00  0.00    -0.378 OA
ATOM     22  C   UNL A   1      28.991  33.647  23.196  1.00  0.00     0.161 C 
ATOM     23  C   UNL A   1      29.161  32.220  23.674  1.00  0.00     0.044 C 
ENDBRANCH  14  18
ENDBRANCH   8  13
ENDBRANCH   4   7
ENDBRANCH   2   3
ENDBRANCH   1   2
BRANCH   1  24
ATOM     24  C   UNL A   1      31.958  29.343  25.364  1.00  0.00     0.023 C 
BRANCH  24  25
ATOM     25  C   UNL A   1      32.245  29.859  26.769  1.00  0.00     0.116 C 
BRANCH  25  26
ATOM     26  N   UNL A   1      32.260  31.309  26.879  1.00  0.00    -0.352 N 
ATOM     27  C   UNL A   1      33.233  32.150  27.372  1.00  0.00     0.251 C 
ATOM     28  H   UNL A   1      31.450  31.760  26.549  1.00  0.00     0.163 HD
ATOM     29  O   UNL A   1      33.029  33.354  27.434  1.00  0.00    -0.269 OA
BRANCH  27  30
ATOM     30  C   UNL A   1      34.508  31.592  27.877  1.00  0.00     0.039 A 
ATOM     31  C   UNL A   1      35.571  32.465  28.121  1.00  0.00     0.014 A 
ATOM     32  C   UNL A   1      34.648  30.228  28.141  1.00  0.00     0.014 A 
ATOM     33  C   UNL A   1      36.739  31.987  28.721  1.00  0.00     0.010 A 
ATOM     34  C   UNL A   1      35.778  29.768  28.812  1.00  0.00     0.010 A 
ATOM     35  C   UNL A   1      36.830  30.644  29.118  1.00  0.00    -0.014 A 
BRANCH  35  36
ATOM     36  C   UNL A   1      38.009  30.138  29.867  1.00  0.00     0.031 A 
ATOM     37  C   UNL A   1      38.267  30.602  31.273  1.00  0.00     0.074 A 
ATOM     38  C   UNL A   1      38.892  29.326  29.252  1.00  0.00     0.049 A 
ATOM     39  N   UNL A   1      39.287  30.350  32.055  1.00  0.00    -0.248 NA
ATOM     40  C   UNL A   1      37.260  31.493  31.868  1.00  0.00     0.031 C 
ATOM     41  C   UNL A   1      38.785  28.848  27.872  1.00  0.00     0.029 A 
ATOM     42  N   UNL A   1      40.064  28.771  29.704  1.00  0.00    -0.354 N 
ATOM     43  C   UNL A   1      39.053  31.065  33.221  1.00  0.00     0.074 A 
ATOM     44  C   UNL A   1      37.823  31.801  33.027  1.00  0.00     0.031 C 
ATOM     45  C   UNL A   1      39.834  28.055  27.598  1.00  0.00     0.029 A 
ATOM     46  C   UNL A   1      40.706  27.998  28.768  1.00  0.00     0.049 A 
ATOM     47  H   UNL A   1      40.411  28.912  30.615  1.00  0.00     0.167 HD
ATOM     48  C   UNL A   1      39.785  31.087  34.361  1.00  0.00     0.037 A 
ATOM     49  C   UNL A   1      41.870  27.326  28.840  1.00  0.00     0.037 A 
ATOM     50  C   UNL A   1      40.990  30.329  34.564  1.00  0.00     0.049 A 
ATOM     51  C   UNL A   1      42.660  27.360  30.121  1.00  0.00     0.074 A 
ATOM     52  C   UNL A   1      41.767  30.231  35.705  1.00  0.00     0.029 A 
ATOM     53  N   UNL A   1      41.594  29.534  33.600  1.00  0.00    -0.354 N 
ATOM     54  N   UNL A   1      42.393  27.985  31.241  1.00  0.00    -0.248 NA
ATOM     55  C   UNL A   1      43.911  26.589  30.148  1.00  0.00     0.031 C 
ATOM     56  C   UNL A   1      42.862  29.408  35.421  1.00  0.00     0.029 A 
ATOM     57  C   UNL A   1      42.744  28.957  34.117  1.00  0.00     0.049 A 
ATOM     58  H   UNL A   1      41.256  29.399  32.686  1.00  0.00     0.167 HD
ATOM     59  C   UNL A   1      43.423  27.663  32.113  1.00  0.00     0.074 A 
ATOM     60  C   UNL A   1      44.315  26.776  31.397  1.00  0.00     0.031 C 
ATOM     61  C   UNL A   1      43.615  28.068  33.392  1.00  0.00     0.037 A 
BRANCH  48  62
ATOM     62  C   UNL A   1      39.294  31.957  35.481  1.00  0.00     0.064 A 
ATOM     63  C   UNL A   1      39.642  33.314  35.562  1.00  0.00     0.173 A 
ATOM     64  C   UNL A   1      38.444  31.437  36.468  1.00  0.00     0.173 A 
ATOM     65  F   UNL A   1      40.462  33.857  34.649  1.00  0.00    -0.203 F 
ATOM     66  C   UNL A   1      39.180  34.111  36.606  1.00  0.00     0.198 A 
ATOM     67  C   UNL A   1      37.959  32.245  37.494  1.00  0.00     0.198 A 
ATOM     68  F   UNL A   1      38.077  30.147  36.435  1.00  0.00    -0.203 F 
ATOM     69  F   UNL A   1      39.565  35.392  36.690  1.00  0.00    -0.200 F 
ATOM     70  C   UNL A   1      38.334  33.578  37.567  1.00  0.00     0.200 A 
ATOM     71  F   UNL A   1      37.133  31.732  38.415  1.00  0.00    -0.200 F 
ATOM     72  F   UNL A   1      37.887  34.348  38.568  1.00  0.00    -0.200 F 
ENDBRANCH  48  62
BRANCH  49  73
ATOM     73  C   UNL A   1      42.348  26.537  27.675  1.00  0.00     0.064 A 
ATOM     74  C   UNL A   1      41.880  25.235  27.449  1.00  0.00     0.173 A 
ATOM     75  C   UNL A   1      43.283  27.060  26.771  1.00  0.00     0.173 A 
ATOM     76  F   UNL A   1      41.001  24.684  28.299  1.00  0.00    -0.203 F 
ATOM     77  C   UNL A   1      42.341  24.480  26.374  1.00  0.00     0.198 A 
ATOM     78  C   UNL A   1      43.726  26.313  25.681  1.00  0.00     0.198 A 
ATOM     79  F   UNL A   1      43.759  28.302  26.940  1.00  0.00    -0.203 F 
ATOM     80  F   UNL A   1      41.911  23.222  26.208  1.00  0.00    -0.200 F 
ATOM     81  C   UNL A   1      43.261  25.021  25.488  1.00  0.00     0.200 A 
ATOM     82  F   UNL A   1      44.604  26.844  24.819  1.00  0.00    -0.200 F 
ATOM     83  F   UNL A   1      43.703  24.294  24.452  1.00  0.00    -0.200 F 
ENDBRANCH  49  73
BRANCH  61  84
ATOM     84  C   UNL A   1      44.816  27.529  34.111  1.00  0.00     0.064 A 
ATOM     85  C   UNL A   1      46.039  28.216  34.119  1.00  0.00     0.173 A 
ATOM     86  C   UNL A   1      44.730  26.331  34.837  1.00  0.00     0.173 A 
ATOM     87  F   UNL A   1      46.175  29.357  33.427  1.00  0.00    -0.203 F 
ATOM     88  C   UNL A   1      47.138  27.712  34.808  1.00  0.00     0.198 A 
ATOM     89  C   UNL A   1      45.823  25.844  35.549  1.00  0.00     0.198 A 
ATOM     90  F   UNL A   1      43.581  25.639  34.866  1.00  0.00    -0.203 F 
ATOM     91  F   UNL A   1      48.309  28.363  34.766  1.00  0.00    -0.200 F 
ATOM     92  C   UNL A   1      47.027  26.531  35.528  1.00  0.00     0.200 A 
ATOM     93  F   UNL A   1      45.710  24.710  36.253  1.00  0.00    -0.200 F 
ATOM     94  F   UNL A   1      48.085  26.052  36.198  1.00  0.00    -0.200 F 
ENDBRANCH  61  84
ENDBRANCH  35  36
ENDBRANCH  27  30
ENDBRANCH  25  26
ENDBRANCH  24  25
ENDBRANCH   1  24
TORSDOF 13
ENDMDL
MODEL 3
REMARK VINA RESULT:     -13.4      4.945      9.833
REMARK SMILES C[C@@H]1OCC[C@@H]1c1nnc(-c2cccc(C(=O)NCCCCNC(=O)c3ccc(-c4c5nc(c(-c6c(F)c(F)c(F)c(F)c6F)c6ccc([nH]6)c(-c6c(F)c(F)c(F)c(F)c6F)c6nc(c(-c7c(F)c(F)c(F)c(F)c7F)c7ccc4[nH]7)C=C6)C=C5)cc3)c2)o1
REMARK SMILES IDX 20 1 19 2 18 3 16 4 17 5 15 7 11 8 12 9 89 10 13 11 14 12
REMARK SMILES IDX 10 13 7 14 8 15 90 16 9 17 6 18 1 19 2 20 3 21 4 22 5 23
REMARK SMILES IDX 21 24 22 25 23 26 24 27 25 29 26 30 27 31 88 32 28 33 87 34
REMARK SMILES IDX 29 35 30 36 31 37 81 38 32 39 86 40 80 41 82 42 33 43 85 44
REMARK SMILES IDX 79 45 78 46 34 48 66 49 46 50 65 51 47 52 50 53 64 54 83 55
REMARK SMILES IDX 48 56 49 57 63 59 84 60 51 61 35 62 36 63 44 64 37 65 38 66
REMARK SMILES IDX 42 67 45 68 39 69 40 70 43 71 41 72 67 73 68 74 76 75 69 76
REMARK SMILES IDX 70 77 74 78 77 79 71 80 72 81 75 82 73 83 52 84 53 85 61 86
REMARK SMILES IDX 54 87 55 88 59 89 62 90 56 91 57 92 60 93 58 94
REMARK H PARENT 18 6 23 28 82 47 50 58
REMARK Flexibility Score: inf
ROOT
ATOM      1  C   UNL A   1      34.228  28.375  24.744  1.00  0.00     0.023 C 
ENDROOT
BRANCH   1   2
ATOM      2  C   UNL A   1      33.864  28.689  23.298  1.00  0.00     0.116 C 
BRANCH   2   3
ATOM      3  N   UNL A   1      33.997  27.574  22.375  1.00  0.00    -0.352 N 
ATOM      4  C   UNL A   1      33.142  26.536  22.067  1.00  0.00     0.251 C 
ATOM      5  O   UNL A   1      33.496  25.716  21.222  1.00  0.00    -0.269 OA
ATOM      6  H   UNL A   1      34.848  27.557  21.882  1.00  0.00     0.163 HD
BRANCH   4   7
ATOM      7  C   UNL A   1      31.852  26.332  22.779  1.00  0.00     0.040 A 
ATOM      8  C   UNL A   1      29.611  27.064  23.347  1.00  0.00     0.040 A 
ATOM      9  C   UNL A   1      29.617  26.201  24.450  1.00  0.00     0.014 A 
ATOM     10  C   UNL A   1      30.690  27.035  22.456  1.00  0.00     0.027 A 
ATOM     11  C   UNL A   1      30.704  25.357  24.680  1.00  0.00     0.002 A 
ATOM     12  C   UNL A   1      31.832  25.447  23.865  1.00  0.00     0.014 A 
BRANCH   8  13
ATOM     13  C   UNL A   1      28.603  28.106  23.237  1.00  0.00     0.247 A 
ATOM     14  C   UNL A   1      27.839  30.089  23.305  1.00  0.00     0.222 A 
ATOM     15  N   UNL A   1      26.798  29.284  23.360  1.00  0.00    -0.112 NA
ATOM     16  O   UNL A   1      29.026  29.410  23.214  1.00  0.00    -0.420 OA
ATOM     17  N   UNL A   1      27.292  28.001  23.305  1.00  0.00    -0.108 NA
BRANCH  14  18
ATOM     18  C   UNL A   1      27.846  31.564  23.217  1.00  0.00     0.109 C 
ATOM     19  C   UNL A   1      28.387  31.630  20.664  1.00  0.00     0.039 C 
ATOM     20  C   UNL A   1      27.629  32.214  21.856  1.00  0.00     0.127 C 
ATOM     21  O   UNL A   1      28.109  33.570  22.017  1.00  0.00    -0.378 OA
ATOM     22  C   UNL A   1      28.954  33.627  23.179  1.00  0.00     0.161 C 
ATOM     23  C   UNL A   1      29.146  32.204  23.659  1.00  0.00     0.044 C 
ENDBRANCH  14  18
ENDBRANCH   8  13
ENDBRANCH   4   7
ENDBRANCH   2   3
ENDBRANCH   1   2
BRANCH   1  24
ATOM     24  C   UNL A   1      33.131  28.552  25.783  1.00  0.00     0.023 C 
BRANCH  24  25
ATOM     25  C   UNL A   1      33.588  28.693  27.230  1.00  0.00     0.116 C 
BRANCH  25  26
ATOM     26  N   UNL A   1      33.578  30.060  27.727  1.00  0.00    -0.352 N 
ATOM     27  C   UNL A   1      34.575  30.787  28.339  1.00  0.00     0.251 C 
ATOM     28  H   UNL A   1      32.727  30.540  27.607  1.00  0.00     0.163 HD
ATOM     29  O   UNL A   1      34.348  31.919  28.743  1.00  0.00    -0.269 OA
BRANCH  27  30
ATOM     30  C   UNL A   1      35.908  30.181  28.555  1.00  0.00     0.039 A 
ATOM     31  C   UNL A   1      36.855  30.265  27.531  1.00  0.00     0.014 A 
ATOM     32  C   UNL A   1      36.237  29.565  29.764  1.00  0.00     0.014 A 
ATOM     33  C   UNL A   1      38.161  29.819  27.754  1.00  0.00     0.010 A 
ATOM     34  C   UNL A   1      37.556  29.197  30.013  1.00  0.00     0.010 A 
ATOM     35  C   UNL A   1      38.534  29.329  29.015  1.00  0.00    -0.014 A 
BRANCH  35  36
ATOM     36  C   UNL A   1      39.942  28.964  29.318  1.00  0.00     0.031 A 
ATOM     37  C   UNL A   1      40.826  29.921  30.067  1.00  0.00     0.074 A 
ATOM     38  C   UNL A   1      40.448  27.808  28.846  1.00  0.00     0.049 A 
ATOM     39  N   UNL A   1      42.103  29.827  30.344  1.00  0.00    -0.248 NA
ATOM     40  C   UNL A   1      40.199  31.165  30.541  1.00  0.00     0.031 C 
ATOM     41  C   UNL A   1      39.709  26.819  28.058  1.00  0.00     0.029 A 
ATOM     42  N   UNL A   1      41.709  27.274  28.946  1.00  0.00    -0.354 N 
ATOM     43  C   UNL A   1      42.432  31.003  31.004  1.00  0.00     0.074 A 
ATOM     44  C   UNL A   1      41.238  31.817  31.041  1.00  0.00     0.031 C 
ATOM     45  C   UNL A   1      40.522  25.791  27.766  1.00  0.00     0.029 A 
ATOM     46  C   UNL A   1      41.848  26.064  28.313  1.00  0.00     0.049 A 
ATOM     47  H   UNL A   1      42.444  27.718  29.428  1.00  0.00     0.167 HD
ATOM     48  C   UNL A   1      43.619  31.360  31.550  1.00  0.00     0.037 A 
ATOM     49  C   UNL A   1      42.925  25.266  28.180  1.00  0.00     0.037 A 
ATOM     50  C   UNL A   1      44.797  30.535  31.541  1.00  0.00     0.049 A 
ATOM     51  C   UNL A   1      44.229  25.684  28.805  1.00  0.00     0.074 A 
ATOM     52  C   UNL A   1      46.027  30.779  32.126  1.00  0.00     0.029 A 
ATOM     53  N   UNL A   1      44.891  29.301  30.914  1.00  0.00    -0.354 N 
ATOM     54  N   UNL A   1      44.511  26.767  29.486  1.00  0.00    -0.248 NA
ATOM     55  C   UNL A   1      45.364  24.763  28.647  1.00  0.00     0.031 C 
ATOM     56  C   UNL A   1      46.877  29.711  31.821  1.00  0.00     0.029 A 
ATOM     57  C   UNL A   1      46.164  28.780  31.083  1.00  0.00     0.049 A 
ATOM     58  H   UNL A   1      44.161  28.860  30.422  1.00  0.00     0.167 HD
ATOM     59  C   UNL A   1      45.842  26.647  29.860  1.00  0.00     0.074 A 
ATOM     60  C   UNL A   1      46.310  25.379  29.342  1.00  0.00     0.031 C 
ATOM     61  C   UNL A   1      46.609  27.511  30.568  1.00  0.00     0.037 A 
BRANCH  48  62
ATOM     62  C   UNL A   1      43.698  32.704  32.213  1.00  0.00     0.064 A 
ATOM     63  C   UNL A   1      43.475  32.858  33.590  1.00  0.00     0.173 A 
ATOM     64  C   UNL A   1      44.029  33.848  31.471  1.00  0.00     0.173 A 
ATOM     65  F   UNL A   1      43.143  31.797  34.342  1.00  0.00    -0.203 F 
ATOM     66  C   UNL A   1      43.551  34.110  34.194  1.00  0.00     0.198 A 
ATOM     67  C   UNL A   1      44.134  35.094  32.084  1.00  0.00     0.198 A 
ATOM     68  F   UNL A   1      44.257  33.757  30.152  1.00  0.00    -0.203 F 
ATOM     69  F   UNL A   1      43.285  34.239  35.501  1.00  0.00    -0.200 F 
ATOM     70  C   UNL A   1      43.888  35.225  33.442  1.00  0.00     0.200 A 
ATOM     71  F   UNL A   1      44.470  36.170  31.359  1.00  0.00    -0.200 F 
ATOM     72  F   UNL A   1      43.965  36.429  34.026  1.00  0.00    -0.200 F 
ENDBRANCH  48  62
BRANCH  49  73
ATOM     73  C   UNL A   1      42.812  23.978  27.450  1.00  0.00     0.064 A 
ATOM     74  C   UNL A   1      43.139  23.892  26.090  1.00  0.00     0.173 A 
ATOM     75  C   UNL A   1      42.368  22.811  28.089  1.00  0.00     0.173 A 
ATOM     76  F   UNL A   1      43.547  24.987  25.431  1.00  0.00    -0.203 F 
ATOM     77  C   UNL A   1      43.010  22.695  25.391  1.00  0.00     0.198 A 
ATOM     78  C   UNL A   1      42.264  21.606  27.395  1.00  0.00     0.198 A 
ATOM     79  F   UNL A   1      42.046  22.839  29.390  1.00  0.00    -0.203 F 
ATOM     80  F   UNL A   1      43.288  22.652  24.081  1.00  0.00    -0.200 F 
ATOM     81  C   UNL A   1      42.577  21.551  26.045  1.00  0.00     0.200 A 
ATOM     82  F   UNL A   1      41.857  20.501  28.034  1.00  0.00    -0.200 F 
ATOM     83  F   UNL A   1      42.455  20.398  25.374  1.00  0.00    -0.200 F 
ENDBRANCH  49  73
BRANCH  61  84
ATOM     84  C   UNL A   1      48.024  27.100  30.854  1.00  0.00     0.064 A 
ATOM     85  C   UNL A   1      49.085  27.491  30.024  1.00  0.00     0.173 A 
ATOM     86  C   UNL A   1      48.326  26.341  31.995  1.00  0.00     0.173 A 
ATOM     87  F   UNL A   1      48.845  28.204  28.913  1.00  0.00    -0.203 F 
ATOM     88  C   UNL A   1      50.394  27.118  30.315  1.00  0.00     0.198 A 
ATOM     89  C   UNL A   1      49.639  25.994  32.297  1.00  0.00     0.198 A 
ATOM     90  F   UNL A   1      47.347  25.947  32.823  1.00  0.00    -0.203 F 
ATOM     91  F   UNL A   1      51.388  27.466  29.485  1.00  0.00    -0.200 F 
ATOM     92  C   UNL A   1      50.671  26.377  31.454  1.00  0.00     0.200 A 
ATOM     93  F   UNL A   1      49.906  25.287  33.405  1.00  0.00    -0.200 F 
ATOM     94  F   UNL A   1      51.933  26.026  31.736  1.00  0.00    -0.200 F 
ENDBRANCH  61  84
ENDBRANCH  35  36
ENDBRANCH  27  30
ENDBRANCH  25  26
ENDBRANCH  24  25
ENDBRANCH   1  24
TORSDOF 13
ENDMDL
