MODEL 1
REMARK VINA RESULT:     -13.2      0.000      0.000
REMARK SMILES Cc1ccc(-n2cnnn2)cc1OCC(=O)NCCCCNC(=O)c1ccc(-c2c3nc(c(-c4c(F)c(F)c(F)c(F)c4F)c4ccc([nH]4)c(-c4c(F)c(F)c(F)c(F)c4F)c4nc(c(-c5c(F)c(F)c(F)c(F)c5F)c5ccc2[nH]5)C=C4)C=C3)cc1
REMARK SMILES IDX 19 1 18 2 17 3 15 4 16 5 14 7 13 8 12 9 1 10 2 11 3 12 4 13
REMARK SMILES IDX 11 14 5 15 6 16 7 17 10 18 8 19 9 20 20 21 21 22 22 23 23 24
REMARK SMILES IDX 24 26 25 27 26 28 87 29 27 30 86 31 28 32 29 33 30 34 80 35
REMARK SMILES IDX 31 36 85 37 79 38 81 39 32 40 84 41 78 42 77 43 33 45 65 46
REMARK SMILES IDX 45 47 64 48 46 49 49 50 63 51 82 52 47 53 48 54 62 56 83 57
REMARK SMILES IDX 50 58 34 59 35 60 43 61 36 62 37 63 41 64 44 65 38 66 39 67
REMARK SMILES IDX 42 68 40 69 66 70 67 71 75 72 68 73 69 74 73 75 76 76 70 77
REMARK SMILES IDX 71 78 74 79 72 80 51 81 52 82 60 83 53 84 54 85 58 86 61 87
REMARK SMILES IDX 55 88 56 89 59 90 57 91
REMARK H PARENT 17 6 22 25 81 44 49 55
REMARK Flexibility Score: inf
ROOT
ATOM      1  C   UNL A   1      32.040  28.217  27.540  1.00  0.00     0.023 C 
ENDROOT
BRANCH   1   2
ATOM      2  C   UNL A   1      31.858  27.290  26.334  1.00  0.00     0.116 C 
BRANCH   2   3
ATOM      3  N   UNL A   1      31.199  26.040  26.657  1.00  0.00    -0.353 N 
ATOM      4  C   UNL A   1      31.705  24.773  26.657  1.00  0.00     0.257 C 
ATOM      5  O   UNL A   1      31.007  23.874  27.133  1.00  0.00    -0.271 OA
ATOM      6  H   UNL A   1      30.251  26.115  26.913  1.00  0.00     0.163 HD
BRANCH   4   7
ATOM      7  C   UNL A   1      33.130  24.502  26.157  1.00  0.00     0.329 C 
BRANCH   7   8
ATOM      8  O   UNL A   1      33.971  23.580  26.816  1.00  0.00    -0.483 OA
BRANCH   8   9
ATOM      9  C   UNL A   1      34.727  22.657  26.155  1.00  0.00     0.125 A 
ATOM     10  C   UNL A   1      36.979  23.892  25.796  1.00  0.00     0.048 C 
ATOM     11  C   UNL A   1      36.063  22.704  25.740  1.00  0.00    -0.009 A 
ATOM     12  C   UNL A   1      36.636  21.535  25.191  1.00  0.00     0.009 A 
ATOM     13  C   UNL A   1      35.889  20.381  24.961  1.00  0.00     0.029 A 
ATOM     14  C   UNL A   1      33.959  21.511  25.853  1.00  0.00     0.075 A 
ATOM     15  C   UNL A   1      34.527  20.384  25.249  1.00  0.00     0.072 A 
BRANCH  15  16
ATOM     16  N   UNL A   1      33.741  19.256  24.924  1.00  0.00    -0.200 N 
ATOM     17  C   UNL A   1      34.080  18.136  24.205  1.00  0.00     0.252 A 
ATOM     18  N   UNL A   1      32.460  19.112  25.333  1.00  0.00    -0.040 NA
ATOM     19  N   UNL A   1      33.041  17.336  24.130  1.00  0.00    -0.117 NA
ATOM     20  N   UNL A   1      32.041  17.961  24.829  1.00  0.00    -0.024 NA
ENDBRANCH  15  16
ENDBRANCH   8   9
ENDBRANCH   7   8
ENDBRANCH   4   7
ENDBRANCH   2   3
ENDBRANCH   1   2
BRANCH   1  21
ATOM     21  C   UNL A   1      32.012  29.720  27.250  1.00  0.00     0.023 C 
BRANCH  21  22
ATOM     22  C   UNL A   1      33.329  30.305  26.763  1.00  0.00     0.116 C 
BRANCH  22  23
ATOM     23  N   UNL A   1      33.859  31.398  27.559  1.00  0.00    -0.352 N 
ATOM     24  C   UNL A   1      34.918  31.427  28.456  1.00  0.00     0.251 C 
ATOM     25  H   UNL A   1      33.391  32.257  27.444  1.00  0.00     0.163 HD
ATOM     26  O   UNL A   1      35.097  32.427  29.128  1.00  0.00    -0.269 OA
BRANCH  24  27
ATOM     27  C   UNL A   1      35.917  30.318  28.507  1.00  0.00     0.039 A 
ATOM     28  C   UNL A   1      36.164  29.702  29.747  1.00  0.00     0.014 A 
ATOM     29  C   UNL A   1      36.722  29.996  27.424  1.00  0.00     0.014 A 
ATOM     30  C   UNL A   1      37.342  28.980  29.946  1.00  0.00     0.010 A 
ATOM     31  C   UNL A   1      37.942  29.402  27.645  1.00  0.00     0.010 A 
ATOM     32  C   UNL A   1      38.277  28.940  28.919  1.00  0.00    -0.014 A 
BRANCH  32  33
ATOM     33  C   UNL A   1      39.669  28.542  29.064  1.00  0.00     0.031 A 
ATOM     34  C   UNL A   1      40.110  27.194  28.642  1.00  0.00     0.074 A 
ATOM     35  C   UNL A   1      40.578  29.510  29.317  1.00  0.00     0.049 A 
ATOM     36  N   UNL A   1      41.263  26.693  28.926  1.00  0.00    -0.248 NA
ATOM     37  C   UNL A   1      39.271  26.285  27.865  1.00  0.00     0.031 C 
ATOM     38  C   UNL A   1      42.012  29.472  29.046  1.00  0.00     0.029 A 
ATOM     39  N   UNL A   1      40.393  30.708  30.028  1.00  0.00    -0.354 N 
ATOM     40  C   UNL A   1      41.431  25.558  28.167  1.00  0.00     0.074 A 
ATOM     41  C   UNL A   1      40.144  25.318  27.559  1.00  0.00     0.031 C 
ATOM     42  C   UNL A   1      42.624  30.400  29.798  1.00  0.00     0.029 A 
ATOM     43  C   UNL A   1      41.621  30.942  30.695  1.00  0.00     0.049 A 
ATOM     44  H   UNL A   1      39.583  31.267  30.057  1.00  0.00     0.167 HD
ATOM     45  C   UNL A   1      42.680  25.022  28.049  1.00  0.00     0.037 A 
ATOM     46  C   UNL A   1      41.707  30.914  32.057  1.00  0.00     0.037 A 
ATOM     47  C   UNL A   1      43.648  25.780  28.833  1.00  0.00     0.049 A 
ATOM     48  C   UNL A   1      42.673  29.883  32.588  1.00  0.00     0.074 A 
ATOM     49  C   UNL A   1      44.537  26.789  28.500  1.00  0.00     0.029 A 
ATOM     50  N   UNL A   1      43.560  25.771  30.218  1.00  0.00    -0.354 N 
ATOM     51  N   UNL A   1      43.050  28.832  31.915  1.00  0.00    -0.248 NA
ATOM     52  C   UNL A   1      43.285  29.947  33.911  1.00  0.00     0.031 C 
ATOM     53  C   UNL A   1      44.969  27.406  29.698  1.00  0.00     0.029 A 
ATOM     54  C   UNL A   1      44.354  26.762  30.756  1.00  0.00     0.049 A 
ATOM     55  H   UNL A   1      43.008  25.145  30.741  1.00  0.00     0.167 HD
ATOM     56  C   UNL A   1      43.925  28.092  32.670  1.00  0.00     0.074 A 
ATOM     57  C   UNL A   1      44.046  28.838  33.908  1.00  0.00     0.031 C 
ATOM     58  C   UNL A   1      44.465  26.929  32.196  1.00  0.00     0.037 A 
BRANCH  45  59
ATOM     59  C   UNL A   1      43.078  23.976  27.034  1.00  0.00     0.064 A 
ATOM     60  C   UNL A   1      42.729  22.619  27.216  1.00  0.00     0.173 A 
ATOM     61  C   UNL A   1      43.820  24.242  25.870  1.00  0.00     0.173 A 
ATOM     62  F   UNL A   1      41.952  22.223  28.233  1.00  0.00    -0.203 F 
ATOM     63  C   UNL A   1      43.170  21.606  26.362  1.00  0.00     0.198 A 
ATOM     64  C   UNL A   1      44.306  23.223  25.041  1.00  0.00     0.198 A 
ATOM     65  F   UNL A   1      44.051  25.497  25.465  1.00  0.00    -0.203 F 
ATOM     66  F   UNL A   1      42.806  20.336  26.592  1.00  0.00    -0.200 F 
ATOM     67  C   UNL A   1      43.988  21.904  25.293  1.00  0.00     0.200 A 
ATOM     68  F   UNL A   1      45.083  23.532  23.994  1.00  0.00    -0.200 F 
ATOM     69  F   UNL A   1      44.445  20.929  24.495  1.00  0.00    -0.200 F 
ENDBRANCH  45  59
BRANCH  46  70
ATOM     70  C   UNL A   1      40.444  31.337  32.717  1.00  0.00     0.064 A 
ATOM     71  C   UNL A   1      40.151  32.715  32.745  1.00  0.00     0.173 A 
ATOM     72  C   UNL A   1      39.380  30.443  32.888  1.00  0.00     0.173 A 
ATOM     73  F   UNL A   1      41.136  33.612  32.582  1.00  0.00    -0.203 F 
ATOM     74  C   UNL A   1      38.836  33.173  32.797  1.00  0.00     0.198 A 
ATOM     75  C   UNL A   1      38.065  30.908  32.956  1.00  0.00     0.198 A 
ATOM     76  F   UNL A   1      39.595  29.120  32.855  1.00  0.00    -0.203 F 
ATOM     77  F   UNL A   1      38.581  34.484  32.687  1.00  0.00    -0.200 F 
ATOM     78  C   UNL A   1      37.792  32.266  32.869  1.00  0.00     0.200 A 
ATOM     79  F   UNL A   1      37.050  30.032  33.001  1.00  0.00    -0.200 F 
ATOM     80  F   UNL A   1      36.524  32.697  32.807  1.00  0.00    -0.200 F 
ENDBRANCH  46  70
BRANCH  58  81
ATOM     81  C   UNL A   1      45.221  25.876  32.978  1.00  0.00     0.064 A 
ATOM     82  C   UNL A   1      46.611  25.688  32.917  1.00  0.00     0.173 A 
ATOM     83  C   UNL A   1      44.555  25.103  33.967  1.00  0.00     0.173 A 
ATOM     84  F   UNL A   1      47.383  26.429  32.113  1.00  0.00    -0.203 F 
ATOM     85  C   UNL A   1      47.274  24.770  33.740  1.00  0.00     0.198 A 
ATOM     86  C   UNL A   1      45.227  24.236  34.828  1.00  0.00     0.198 A 
ATOM     87  F   UNL A   1      43.230  25.187  34.157  1.00  0.00    -0.203 F 
ATOM     88  F   UNL A   1      48.597  24.603  33.612  1.00  0.00    -0.200 F 
ATOM     89  C   UNL A   1      46.586  24.058  34.704  1.00  0.00     0.200 A 
ATOM     90  F   UNL A   1      44.548  23.598  35.793  1.00  0.00    -0.200 F 
ATOM     91  F   UNL A   1      47.234  23.221  35.524  1.00  0.00    -0.200 F 
ENDBRANCH  58  81
ENDBRANCH  32  33
ENDBRANCH  24  27
ENDBRANCH  22  23
ENDBRANCH  21  22
ENDBRANCH   1  21
TORSDOF 14
ENDMDL
MODEL 2
REMARK VINA RESULT:     -13.1      2.894      4.969
REMARK SMILES Cc1ccc(-n2cnnn2)cc1OCC(=O)NCCCCNC(=O)c1ccc(-c2c3nc(c(-c4c(F)c(F)c(F)c(F)c4F)c4ccc([nH]4)c(-c4c(F)c(F)c(F)c(F)c4F)c4nc(c(-c5c(F)c(F)c(F)c(F)c5F)c5ccc2[nH]5)C=C4)C=C3)cc1
REMARK SMILES IDX 19 1 18 2 17 3 15 4 16 5 14 7 13 8 12 9 1 10 2 11 3 12 4 13
REMARK SMILES IDX 11 14 5 15 6 16 7 17 10 18 8 19 9 20 20 21 21 22 22 23 23 24
REMARK SMILES IDX 24 26 25 27 26 28 87 29 27 30 86 31 28 32 29 33 30 34 80 35
REMARK SMILES IDX 31 36 85 37 79 38 81 39 32 40 84 41 78 42 77 43 33 45 65 46
REMARK SMILES IDX 45 47 64 48 46 49 49 50 63 51 82 52 47 53 48 54 62 56 83 57
REMARK SMILES IDX 50 58 34 59 35 60 43 61 36 62 37 63 41 64 44 65 38 66 39 67
REMARK SMILES IDX 42 68 40 69 66 70 67 71 75 72 68 73 69 74 73 75 76 76 70 77
REMARK SMILES IDX 71 78 74 79 72 80 51 81 52 82 60 83 53 84 54 85 58 86 61 87
REMARK SMILES IDX 55 88 56 89 59 90 57 91
REMARK H PARENT 17 6 22 25 81 44 49 55
REMARK Flexibility Score: inf
ROOT
ATOM      1  C   UNL A   1      34.066  28.094  26.014  1.00  0.00     0.023 C 
ENDROOT
BRANCH   1   2
ATOM      2  C   UNL A   1      33.124  27.186  25.216  1.00  0.00     0.116 C 
BRANCH   2   3
ATOM      3  N   UNL A   1      33.747  26.579  24.056  1.00  0.00    -0.353 N 
ATOM      4  C   UNL A   1      33.286  26.494  22.775  1.00  0.00     0.257 C 
ATOM      5  O   UNL A   1      34.062  26.081  21.910  1.00  0.00    -0.271 OA
ATOM      6  H   UNL A   1      34.629  26.169  24.215  1.00  0.00     0.163 HD
BRANCH   4   7
ATOM      7  C   UNL A   1      31.873  26.978  22.421  1.00  0.00     0.329 C 
BRANCH   7   8
ATOM      8  O   UNL A   1      31.322  28.124  23.032  1.00  0.00    -0.483 OA
BRANCH   8   9
ATOM      9  C   UNL A   1      29.984  28.390  23.049  1.00  0.00     0.125 A 
ATOM     10  C   UNL A   1      28.942  26.114  23.728  1.00  0.00     0.048 C 
ATOM     11  C   UNL A   1      28.900  27.580  23.405  1.00  0.00    -0.009 A 
ATOM     12  C   UNL A   1      27.615  28.165  23.461  1.00  0.00     0.009 A 
ATOM     13  C   UNL A   1      27.385  29.486  23.077  1.00  0.00     0.029 A 
ATOM     14  C   UNL A   1      29.734  29.703  22.593  1.00  0.00     0.075 A 
ATOM     15  C   UNL A   1      28.445  30.248  22.593  1.00  0.00     0.072 A 
BRANCH  15  16
ATOM     16  N   UNL A   1      28.203  31.552  22.105  1.00  0.00    -0.200 N 
ATOM     17  C   UNL A   1      27.798  31.953  20.856  1.00  0.00     0.252 A 
ATOM     18  N   UNL A   1      28.326  32.656  22.875  1.00  0.00    -0.040 NA
ATOM     19  N   UNL A   1      27.706  33.262  20.828  1.00  0.00    -0.117 NA
ATOM     20  N   UNL A   1      28.045  33.684  22.087  1.00  0.00    -0.024 NA
ENDBRANCH  15  16
ENDBRANCH   8   9
ENDBRANCH   7   8
ENDBRANCH   4   7
ENDBRANCH   2   3
ENDBRANCH   1   2
BRANCH   1  21
ATOM     21  C   UNL A   1      33.606  29.540  26.214  1.00  0.00     0.023 C 
BRANCH  21  22
ATOM     22  C   UNL A   1      33.414  29.959  27.663  1.00  0.00     0.116 C 
BRANCH  22  23
ATOM     23  N   UNL A   1      34.158  31.136  28.076  1.00  0.00    -0.352 N 
ATOM     24  C   UNL A   1      35.418  31.250  28.648  1.00  0.00     0.251 C 
ATOM     25  H   UNL A   1      33.694  31.992  27.925  1.00  0.00     0.163 HD
ATOM     26  O   UNL A   1      35.789  32.337  29.050  1.00  0.00    -0.269 OA
BRANCH  24  27
ATOM     27  C   UNL A   1      36.371  30.100  28.648  1.00  0.00     0.039 A 
ATOM     28  C   UNL A   1      36.565  29.398  29.851  1.00  0.00     0.014 A 
ATOM     29  C   UNL A   1      37.189  29.815  27.564  1.00  0.00     0.014 A 
ATOM     30  C   UNL A   1      37.709  28.618  30.028  1.00  0.00     0.010 A 
ATOM     31  C   UNL A   1      38.380  29.160  27.772  1.00  0.00     0.010 A 
ATOM     32  C   UNL A   1      38.667  28.606  29.020  1.00  0.00    -0.014 A 
BRANCH  32  33
ATOM     33  C   UNL A   1      40.038  28.143  29.169  1.00  0.00     0.031 A 
ATOM     34  C   UNL A   1      40.442  26.818  28.648  1.00  0.00     0.074 A 
ATOM     35  C   UNL A   1      40.974  29.051  29.526  1.00  0.00     0.049 A 
ATOM     36  N   UNL A   1      41.567  26.252  28.920  1.00  0.00    -0.248 NA
ATOM     37  C   UNL A   1      39.595  26.010  27.776  1.00  0.00     0.031 C 
ATOM     38  C   UNL A   1      42.413  28.981  29.291  1.00  0.00     0.029 A 
ATOM     39  N   UNL A   1      40.811  30.193  30.329  1.00  0.00    -0.354 N 
ATOM     40  C   UNL A   1      41.716  25.177  28.074  1.00  0.00     0.074 A 
ATOM     41  C   UNL A   1      40.440  25.038  27.414  1.00  0.00     0.031 C 
ATOM     42  C   UNL A   1      43.035  29.819  30.134  1.00  0.00     0.029 A 
ATOM     43  C   UNL A   1      42.026  30.324  31.045  1.00  0.00     0.049 A 
ATOM     44  H   UNL A   1      40.021  30.778  30.382  1.00  0.00     0.167 HD
ATOM     45  C   UNL A   1      42.948  24.605  27.945  1.00  0.00     0.037 A 
ATOM     46  C   UNL A   1      42.070  30.181  32.402  1.00  0.00     0.037 A 
ATOM     47  C   UNL A   1      43.919  25.258  28.814  1.00  0.00     0.049 A 
ATOM     48  C   UNL A   1      42.982  29.073  32.871  1.00  0.00     0.074 A 
ATOM     49  C   UNL A   1      44.854  26.256  28.591  1.00  0.00     0.029 A 
ATOM     50  N   UNL A   1      43.790  25.138  30.191  1.00  0.00    -0.354 N 
ATOM     51  N   UNL A   1      43.341  28.067  32.123  1.00  0.00    -0.248 NA
ATOM     52  C   UNL A   1      43.556  29.004  34.210  1.00  0.00     0.031 C 
ATOM     53  C   UNL A   1      45.272  26.756  29.847  1.00  0.00     0.029 A 
ATOM     54  C   UNL A   1      44.603  26.051  30.831  1.00  0.00     0.049 A 
ATOM     55  H   UNL A   1      43.200  24.494  30.646  1.00  0.00     0.167 HD
ATOM     56  C   UNL A   1      44.166  27.234  32.837  1.00  0.00     0.074 A 
ATOM     57  C   UNL A   1      44.276  27.870  34.136  1.00  0.00     0.031 C 
ATOM     58  C   UNL A   1      44.677  26.094  32.282  1.00  0.00     0.037 A 
BRANCH  45  59
ATOM     59  C   UNL A   1      43.338  23.632  26.857  1.00  0.00     0.064 A 
ATOM     60  C   UNL A   1      42.967  22.270  26.936  1.00  0.00     0.173 A 
ATOM     61  C   UNL A   1      44.092  23.972  25.720  1.00  0.00     0.173 A 
ATOM     62  F   UNL A   1      42.177  21.811  27.915  1.00  0.00    -0.203 F 
ATOM     63  C   UNL A   1      43.400  21.316  26.011  1.00  0.00     0.198 A 
ATOM     64  C   UNL A   1      44.569  23.010  24.822  1.00  0.00     0.198 A 
ATOM     65  F   UNL A   1      44.345  25.250  25.412  1.00  0.00    -0.203 F 
ATOM     66  F   UNL A   1      43.015  20.039  26.143  1.00  0.00    -0.200 F 
ATOM     67  C   UNL A   1      44.230  21.681  24.972  1.00  0.00     0.200 A 
ATOM     68  F   UNL A   1      45.358  23.385  23.805  1.00  0.00    -0.200 F 
ATOM     69  F   UNL A   1      44.678  20.761  24.107  1.00  0.00    -0.200 F 
ENDBRANCH  45  59
BRANCH  46  70
ATOM     70  C   UNL A   1      40.805  30.596  33.061  1.00  0.00     0.064 A 
ATOM     71  C   UNL A   1      40.540  31.977  33.158  1.00  0.00     0.173 A 
ATOM     72  C   UNL A   1      39.718  29.719  33.165  1.00  0.00     0.173 A 
ATOM     73  F   UNL A   1      41.549  32.859  33.061  1.00  0.00    -0.203 F 
ATOM     74  C   UNL A   1      39.236  32.461  33.211  1.00  0.00     0.198 A 
ATOM     75  C   UNL A   1      38.412  30.209  33.234  1.00  0.00     0.198 A 
ATOM     76  F   UNL A   1      39.905  28.395  33.065  1.00  0.00    -0.203 F 
ATOM     77  F   UNL A   1      39.011  33.782  33.167  1.00  0.00    -0.200 F 
ATOM     78  C   UNL A   1      38.171  31.576  33.215  1.00  0.00     0.200 A 
ATOM     79  F   UNL A   1      37.378  29.355  33.214  1.00  0.00    -0.200 F 
ATOM     80  F   UNL A   1      36.914  32.038  33.154  1.00  0.00    -0.200 F 
ENDBRANCH  46  70
BRANCH  58  81
ATOM     81  C   UNL A   1      45.371  24.952  32.994  1.00  0.00     0.064 A 
ATOM     82  C   UNL A   1      46.679  25.011  33.501  1.00  0.00     0.173 A 
ATOM     83  C   UNL A   1      44.648  23.777  33.335  1.00  0.00     0.173 A 
ATOM     84  F   UNL A   1      47.437  26.104  33.355  1.00  0.00    -0.203 F 
ATOM     85  C   UNL A   1      47.236  23.963  34.242  1.00  0.00     0.198 A 
ATOM     86  C   UNL A   1      45.185  22.763  34.128  1.00  0.00     0.198 A 
ATOM     87  F   UNL A   1      43.381  23.585  32.939  1.00  0.00    -0.203 F 
ATOM     88  F   UNL A   1      48.503  24.056  34.669  1.00  0.00    -0.200 F 
ATOM     89  C   UNL A   1      46.485  22.850  34.570  1.00  0.00     0.200 A 
ATOM     90  F   UNL A   1      44.421  21.719  34.480  1.00  0.00    -0.200 F 
ATOM     91  F   UNL A   1      47.007  21.875  35.326  1.00  0.00    -0.200 F 
ENDBRANCH  58  81
ENDBRANCH  32  33
ENDBRANCH  24  27
ENDBRANCH  22  23
ENDBRANCH  21  22
ENDBRANCH   1  21
TORSDOF 14
ENDMDL
MODEL 3
REMARK VINA RESULT:     -13.0      3.208      9.080
REMARK SMILES Cc1ccc(-n2cnnn2)cc1OCC(=O)NCCCCNC(=O)c1ccc(-c2c3nc(c(-c4c(F)c(F)c(F)c(F)c4F)c4ccc([nH]4)c(-c4c(F)c(F)c(F)c(F)c4F)c4nc(c(-c5c(F)c(F)c(F)c(F)c5F)c5ccc2[nH]5)C=C4)C=C3)cc1
REMARK SMILES IDX 19 1 18 2 17 3 15 4 16 5 14 7 13 8 12 9 1 10 2 11 3 12 4 13
REMARK SMILES IDX 11 14 5 15 6 16 7 17 10 18 8 19 9 20 20 21 21 22 22 23 23 24
REMARK SMILES IDX 24 26 25 27 26 28 87 29 27 30 86 31 28 32 29 33 30 34 80 35
REMARK SMILES IDX 31 36 85 37 79 38 81 39 32 40 84 41 78 42 77 43 33 45 65 46
REMARK SMILES IDX 45 47 64 48 46 49 49 50 63 51 82 52 47 53 48 54 62 56 83 57
REMARK SMILES IDX 50 58 34 59 35 60 43 61 36 62 37 63 41 64 44 65 38 66 39 67
REMARK SMILES IDX 42 68 40 69 66 70 67 71 75 72 68 73 69 74 73 75 76 76 70 77
REMARK SMILES IDX 71 78 74 79 72 80 51 81 52 82 60 83 53 84 54 85 58 86 61 87
REMARK SMILES IDX 55 88 56 89 59 90 57 91
REMARK H PARENT 17 6 22 25 81 44 49 55
REMARK Flexibility Score: inf
ROOT
ATOM      1  C   UNL A   1      36.737  22.963  23.556  1.00  0.00     0.023 C 
ENDROOT
BRANCH   1   2
ATOM      2  C   UNL A   1      35.217  22.933  23.369  1.00  0.00     0.116 C 
BRANCH   2   3
ATOM      3  N   UNL A   1      34.497  23.736  24.339  1.00  0.00    -0.353 N 
ATOM      4  C   UNL A   1      33.952  23.363  25.533  1.00  0.00     0.257 C 
ATOM      5  O   UNL A   1      33.531  24.253  26.276  1.00  0.00    -0.271 OA
ATOM      6  H   UNL A   1      34.385  24.686  24.102  1.00  0.00     0.163 HD
BRANCH   4   7
ATOM      7  C   UNL A   1      33.945  21.890  25.960  1.00  0.00     0.329 C 
BRANCH   7   8
ATOM      8  O   UNL A   1      32.806  21.080  25.766  1.00  0.00    -0.483 OA
BRANCH   8   9
ATOM      9  C   UNL A   1      32.695  20.183  24.744  1.00  0.00     0.125 A 
ATOM     10  C   UNL A   1      31.787  21.628  22.791  1.00  0.00     0.048 C 
ATOM     11  C   UNL A   1      32.320  20.368  23.408  1.00  0.00    -0.009 A 
ATOM     12  C   UNL A   1      32.427  19.270  22.524  1.00  0.00     0.009 A 
ATOM     13  C   UNL A   1      32.794  17.998  22.962  1.00  0.00     0.029 A 
ATOM     14  C   UNL A   1      32.995  18.879  25.194  1.00  0.00     0.075 A 
ATOM     15  C   UNL A   1      33.033  17.789  24.318  1.00  0.00     0.072 A 
BRANCH  15  16
ATOM     16  N   UNL A   1      33.303  16.483  24.786  1.00  0.00    -0.200 N 
ATOM     17  C   UNL A   1      32.444  15.552  25.315  1.00  0.00     0.252 A 
ATOM     18  N   UNL A   1      34.537  15.932  24.746  1.00  0.00    -0.040 NA
ATOM     19  N   UNL A   1      33.117  14.470  25.632  1.00  0.00    -0.117 NA
ATOM     20  N   UNL A   1      34.417  14.725  25.281  1.00  0.00    -0.024 NA
ENDBRANCH  15  16
ENDBRANCH   8   9
ENDBRANCH   7   8
ENDBRANCH   4   7
ENDBRANCH   2   3
ENDBRANCH   1   2
BRANCH   1  21
ATOM     21  C   UNL A   1      37.343  21.815  24.366  1.00  0.00     0.023 C 
BRANCH  21  22
ATOM     22  C   UNL A   1      37.677  22.153  25.811  1.00  0.00     0.116 C 
BRANCH  22  23
ATOM     23  N   UNL A   1      39.052  21.908  26.208  1.00  0.00    -0.352 N 
ATOM     24  C   UNL A   1      40.055  22.795  26.576  1.00  0.00     0.251 C 
ATOM     25  H   UNL A   1      39.316  20.959  26.219  1.00  0.00     0.163 HD
ATOM     26  O   UNL A   1      41.188  22.377  26.731  1.00  0.00    -0.269 OA
BRANCH  24  27
ATOM     27  C   UNL A   1      39.741  24.215  26.918  1.00  0.00     0.039 A 
ATOM     28  C   UNL A   1      40.327  25.231  26.142  1.00  0.00     0.014 A 
ATOM     29  C   UNL A   1      39.041  24.563  28.064  1.00  0.00     0.014 A 
ATOM     30  C   UNL A   1      40.418  26.530  26.645  1.00  0.00     0.010 A 
ATOM     31  C   UNL A   1      39.241  25.802  28.625  1.00  0.00     0.010 A 
ATOM     32  C   UNL A   1      39.975  26.772  27.940  1.00  0.00    -0.014 A 
BRANCH  32  33
ATOM     33  C   UNL A   1      40.299  27.948  28.733  1.00  0.00     0.031 A 
ATOM     34  C   UNL A   1      39.339  29.069  28.837  1.00  0.00     0.074 A 
ATOM     35  C   UNL A   1      41.347  27.866  29.583  1.00  0.00     0.049 A 
ATOM     36  N   UNL A   1      39.629  30.220  29.338  1.00  0.00    -0.248 NA
ATOM     37  C   UNL A   1      37.959  28.985  28.368  1.00  0.00     0.031 C 
ATOM     38  C   UNL A   1      41.586  28.671  30.777  1.00  0.00     0.029 A 
ATOM     39  N   UNL A   1      42.518  27.100  29.444  1.00  0.00    -0.354 N 
ATOM     40  C   UNL A   1      38.454  30.914  29.516  1.00  0.00     0.074 A 
ATOM     41  C   UNL A   1      37.446  30.123  28.851  1.00  0.00     0.031 C 
ATOM     42  C   UNL A   1      42.886  28.597  31.102  1.00  0.00     0.029 A 
ATOM     43  C   UNL A   1      43.547  27.878  30.029  1.00  0.00     0.049 A 
ATOM     44  H   UNL A   1      42.604  26.211  29.028  1.00  0.00     0.167 HD
ATOM     45  C   UNL A   1      38.455  32.022  30.312  1.00  0.00     0.037 A 
ATOM     46  C   UNL A   1      44.571  28.381  29.279  1.00  0.00     0.037 A 
ATOM     47  C   UNL A   1      39.794  32.296  30.820  1.00  0.00     0.049 A 
ATOM     48  C   UNL A   1      44.675  29.886  29.316  1.00  0.00     0.074 A 
ATOM     49  C   UNL A   1      40.424  31.987  32.014  1.00  0.00     0.029 A 
ATOM     50  N   UNL A   1      40.791  32.687  29.937  1.00  0.00    -0.354 N 
ATOM     51  N   UNL A   1      43.681  30.671  29.623  1.00  0.00    -0.248 NA
ATOM     52  C   UNL A   1      45.893  30.625  29.006  1.00  0.00     0.031 C 
ATOM     53  C   UNL A   1      41.816  32.172  31.838  1.00  0.00     0.029 A 
ATOM     54  C   UNL A   1      42.028  32.608  30.542  1.00  0.00     0.049 A 
ATOM     55  H   UNL A   1      40.637  32.979  29.009  1.00  0.00     0.167 HD
ATOM     56  C   UNL A   1      44.091  31.979  29.562  1.00  0.00     0.074 A 
ATOM     57  C   UNL A   1      45.488  31.896  29.179  1.00  0.00     0.031 C 
ATOM     58  C   UNL A   1      43.232  33.008  29.833  1.00  0.00     0.037 A 
BRANCH  45  59
ATOM     59  C   UNL A   1      37.216  32.707  30.839  1.00  0.00     0.064 A 
ATOM     60  C   UNL A   1      36.771  32.483  32.161  1.00  0.00     0.173 A 
ATOM     61  C   UNL A   1      36.412  33.581  30.087  1.00  0.00     0.173 A 
ATOM     62  F   UNL A   1      37.477  31.742  33.026  1.00  0.00    -0.203 F 
ATOM     63  C   UNL A   1      35.573  33.008  32.652  1.00  0.00     0.198 A 
ATOM     64  C   UNL A   1      35.187  34.066  30.560  1.00  0.00     0.198 A 
ATOM     65  F   UNL A   1      36.811  34.039  28.894  1.00  0.00    -0.203 F 
ATOM     66  F   UNL A   1      35.206  32.756  33.917  1.00  0.00    -0.200 F 
ATOM     67  C   UNL A   1      34.763  33.772  31.840  1.00  0.00     0.200 A 
ATOM     68  F   UNL A   1      34.421  34.826  29.763  1.00  0.00    -0.200 F 
ATOM     69  F   UNL A   1      33.595  34.244  32.296  1.00  0.00    -0.200 F 
ENDBRANCH  45  59
BRANCH  46  70
ATOM     70  C   UNL A   1      44.902  27.518  28.115  1.00  0.00     0.064 A 
ATOM     71  C   UNL A   1      45.630  26.337  28.362  1.00  0.00     0.173 A 
ATOM     72  C   UNL A   1      44.167  27.592  26.925  1.00  0.00     0.173 A 
ATOM     73  F   UNL A   1      46.347  26.217  29.490  1.00  0.00    -0.203 F 
ATOM     74  C   UNL A   1      45.510  25.228  27.528  1.00  0.00     0.198 A 
ATOM     75  C   UNL A   1      44.063  26.482  26.084  1.00  0.00     0.198 A 
ATOM     76  F   UNL A   1      43.443  28.684  26.643  1.00  0.00    -0.203 F 
ATOM     77  F   UNL A   1      46.108  24.075  27.860  1.00  0.00    -0.200 F 
ATOM     78  C   UNL A   1      44.699  25.291  26.407  1.00  0.00     0.200 A 
ATOM     79  F   UNL A   1      43.260  26.532  25.011  1.00  0.00    -0.200 F 
ATOM     80  F   UNL A   1      44.495  24.194  25.664  1.00  0.00    -0.200 F 
ENDBRANCH  46  70
BRANCH  58  81
ATOM     81  C   UNL A   1      43.442  34.482  29.560  1.00  0.00     0.064 A 
ATOM     82  C   UNL A   1      43.607  35.457  30.557  1.00  0.00     0.173 A 
ATOM     83  C   UNL A   1      43.647  34.942  28.231  1.00  0.00     0.173 A 
ATOM     84  F   UNL A   1      43.556  35.145  31.857  1.00  0.00    -0.203 F 
ATOM     85  C   UNL A   1      43.902  36.791  30.249  1.00  0.00     0.198 A 
ATOM     86  C   UNL A   1      44.004  36.256  27.933  1.00  0.00     0.198 A 
ATOM     87  F   UNL A   1      43.542  34.122  27.175  1.00  0.00    -0.203 F 
ATOM     88  F   UNL A   1      44.011  37.688  31.239  1.00  0.00    -0.200 F 
ATOM     89  C   UNL A   1      44.117  37.186  28.942  1.00  0.00     0.200 A 
ATOM     90  F   UNL A   1      44.262  36.605  26.664  1.00  0.00    -0.200 F 
ATOM     91  F   UNL A   1      44.452  38.451  28.660  1.00  0.00    -0.200 F 
ENDBRANCH  58  81
ENDBRANCH  32  33
ENDBRANCH  24  27
ENDBRANCH  22  23
ENDBRANCH  21  22
ENDBRANCH   1  21
TORSDOF 14
ENDMDL
