MODEL 1
REMARK VINA RESULT:     -12.7      0.000      0.000
REMARK SMILES COc1ccc(-n2ncc(C(=O)NCCCCNC(=O)c3ccc(-c4c5nc(c(-c6c(F)c(F)c(F)c(F)c6F)c6ccc([nH]6)c(-c6c(F)c(F)c(F)c(F)c6F)c6nc(c(-c7c(F)c(F)c(F)c(F)c7F)c7ccc4[nH]7)C=C6)C=C5)cc3)n2)nn1
REMARK SMILES IDX 15 1 14 2 13 3 11 4 12 5 10 7 7 8 8 9 84 10 9 11 6 12 3 13
REMARK SMILES IDX 4 14 86 15 5 16 85 17 2 18 1 19 16 20 17 21 18 22 19 23
REMARK SMILES IDX 20 25 21 26 22 27 83 28 23 29 82 30 24 31 25 32 26 33 76 34
REMARK SMILES IDX 27 35 81 36 75 37 77 38 28 39 80 40 74 41 73 42 29 44 61 45
REMARK SMILES IDX 41 46 60 47 42 48 45 49 59 50 78 51 43 52 44 53 58 55 79 56
REMARK SMILES IDX 46 57 30 58 31 59 39 60 32 61 33 62 37 63 40 64 34 65 35 66
REMARK SMILES IDX 38 67 36 68 62 69 63 70 71 71 64 72 65 73 69 74 72 75 66 76
REMARK SMILES IDX 67 77 70 78 68 79 47 80 48 81 56 82 49 83 50 84 54 85 57 86
REMARK SMILES IDX 51 87 52 88 55 89 53 90
REMARK H PARENT 13 6 18 24 77 43 45 54
REMARK Flexibility Score: inf
ROOT
ATOM      1  C   UNL A   1      37.485  22.864  25.484  1.00  0.00     0.023 C 
ENDROOT
BRANCH   1   2
ATOM      2  C   UNL A   1      36.684  22.968  24.185  1.00  0.00     0.116 C 
BRANCH   2   3
ATOM      3  N   UNL A   1      35.603  23.927  24.283  1.00  0.00    -0.351 N 
ATOM      4  C   UNL A   1      34.237  23.860  24.129  1.00  0.00     0.273 C 
ATOM      5  O   UNL A   1      33.658  24.946  24.221  1.00  0.00    -0.267 OA
ATOM      6  H   UNL A   1      35.917  24.832  24.511  1.00  0.00     0.163 HD
BRANCH   4   7
ATOM      7  C   UNL A   1      33.496  22.601  23.941  1.00  0.00     0.170 A 
ATOM      8  N   UNL A   1      33.066  20.525  24.125  1.00  0.00    -0.130 N 
ATOM      9  N   UNL A   1      32.327  20.887  23.041  1.00  0.00    -0.154 NA
ATOM     10  N   UNL A   1      33.719  21.537  24.748  1.00  0.00    -0.141 NA
ATOM     11  C   UNL A   1      32.553  22.197  22.979  1.00  0.00     0.172 A 
BRANCH   8  12
ATOM     12  C   UNL A   1      33.168  19.157  24.502  1.00  0.00     0.196 A 
ATOM     13  C   UNL A   1      33.351  16.498  25.037  1.00  0.00     0.233 A 
ATOM     14  C   UNL A   1      34.474  17.147  24.561  1.00  0.00     0.074 A 
ATOM     15  N   UNL A   1      32.191  17.152  25.264  1.00  0.00    -0.110 NA
ATOM     16  C   UNL A   1      34.377  18.502  24.273  1.00  0.00     0.058 A 
ATOM     17  N   UNL A   1      32.107  18.510  25.034  1.00  0.00    -0.125 NA
BRANCH  13  18
ATOM     18  O   UNL A   1      33.317  15.137  25.184  1.00  0.00    -0.480 OA
ATOM     19  C   UNL A   1      32.137  14.705  25.853  1.00  0.00     0.280 C 
ENDBRANCH  13  18
ENDBRANCH   8  12
ENDBRANCH   4   7
ENDBRANCH   2   3
ENDBRANCH   1   2
BRANCH   1  20
ATOM     20  C   UNL A   1      38.559  21.765  25.499  1.00  0.00     0.023 C 
BRANCH  20  21
ATOM     21  C   UNL A   1      39.618  21.908  26.590  1.00  0.00     0.116 C 
BRANCH  21  22
ATOM     22  N   UNL A   1      40.984  21.927  26.071  1.00  0.00    -0.352 N 
ATOM     23  C   UNL A   1      41.821  23.020  25.925  1.00  0.00     0.251 C 
ATOM     24  H   UNL A   1      41.353  21.058  25.792  1.00  0.00     0.163 HD
ATOM     25  O   UNL A   1      42.760  23.004  25.150  1.00  0.00    -0.269 OA
BRANCH  23  26
ATOM     26  C   UNL A   1      41.553  24.215  26.745  1.00  0.00     0.039 A 
ATOM     27  C   UNL A   1      42.177  24.405  27.978  1.00  0.00     0.014 A 
ATOM     28  C   UNL A   1      40.695  25.179  26.220  1.00  0.00     0.014 A 
ATOM     29  C   UNL A   1      42.007  25.623  28.632  1.00  0.00     0.010 A 
ATOM     30  C   UNL A   1      40.638  26.425  26.795  1.00  0.00     0.010 A 
ATOM     31  C   UNL A   1      41.259  26.645  28.020  1.00  0.00    -0.014 A 
BRANCH  31  32
ATOM     32  C   UNL A   1      41.208  27.979  28.613  1.00  0.00     0.031 A 
ATOM     33  C   UNL A   1      42.314  28.897  28.216  1.00  0.00     0.074 A 
ATOM     34  C   UNL A   1      40.159  28.444  29.322  1.00  0.00     0.049 A 
ATOM     35  N   UNL A   1      43.248  29.376  28.971  1.00  0.00    -0.248 NA
ATOM     36  C   UNL A   1      42.461  29.250  26.796  1.00  0.00     0.031 C 
ATOM     37  C   UNL A   1      38.854  27.814  29.556  1.00  0.00     0.029 A 
ATOM     38  N   UNL A   1      40.014  29.656  29.923  1.00  0.00    -0.354 N 
ATOM     39  C   UNL A   1      44.010  30.221  28.168  1.00  0.00     0.074 A 
ATOM     40  C   UNL A   1      43.566  30.000  26.816  1.00  0.00     0.031 C 
ATOM     41  C   UNL A   1      37.987  28.729  30.044  1.00  0.00     0.029 A 
ATOM     42  C   UNL A   1      38.719  29.947  30.330  1.00  0.00     0.049 A 
ATOM     43  H   UNL A   1      40.766  30.277  30.058  1.00  0.00     0.167 HD
ATOM     44  C   UNL A   1      44.807  31.182  28.714  1.00  0.00     0.037 A 
ATOM     45  C   UNL A   1      38.277  31.114  30.857  1.00  0.00     0.037 A 
ATOM     46  C   UNL A   1      45.019  30.947  30.118  1.00  0.00     0.049 A 
ATOM     47  C   UNL A   1      39.460  31.828  31.396  1.00  0.00     0.074 A 
ATOM     48  C   UNL A   1      45.598  29.936  30.860  1.00  0.00     0.029 A 
ATOM     49  N   UNL A   1      44.266  31.672  31.008  1.00  0.00    -0.354 N 
ATOM     50  N   UNL A   1      40.152  31.416  32.420  1.00  0.00    -0.248 NA
ATOM     51  C   UNL A   1      40.137  32.773  30.522  1.00  0.00     0.031 C 
ATOM     52  C   UNL A   1      44.775  29.814  32.019  1.00  0.00     0.029 A 
ATOM     53  C   UNL A   1      43.787  30.797  31.947  1.00  0.00     0.049 A 
ATOM     54  H   UNL A   1      44.101  32.643  30.977  1.00  0.00     0.167 HD
ATOM     55  C   UNL A   1      41.469  31.689  32.085  1.00  0.00     0.074 A 
ATOM     56  C   UNL A   1      41.389  32.614  30.958  1.00  0.00     0.031 C 
ATOM     57  C   UNL A   1      42.489  30.922  32.569  1.00  0.00     0.037 A 
BRANCH  44  58
ATOM     58  C   UNL A   1      45.110  32.519  28.084  1.00  0.00     0.064 A 
ATOM     59  C   UNL A   1      44.063  33.446  27.893  1.00  0.00     0.173 A 
ATOM     60  C   UNL A   1      46.303  32.799  27.385  1.00  0.00     0.173 A 
ATOM     61  F   UNL A   1      42.878  33.272  28.497  1.00  0.00    -0.203 F 
ATOM     62  C   UNL A   1      44.177  34.519  27.004  1.00  0.00     0.198 A 
ATOM     63  C   UNL A   1      46.430  33.900  26.538  1.00  0.00     0.198 A 
ATOM     64  F   UNL A   1      47.346  31.960  27.398  1.00  0.00    -0.203 F 
ATOM     65  F   UNL A   1      43.112  35.294  26.756  1.00  0.00    -0.200 F 
ATOM     66  C   UNL A   1      45.359  34.740  26.322  1.00  0.00     0.200 A 
ATOM     67  F   UNL A   1      47.578  34.087  25.870  1.00  0.00    -0.200 F 
ATOM     68  F   UNL A   1      45.449  35.726  25.420  1.00  0.00    -0.200 F 
ENDBRANCH  44  58
BRANCH  45  69
ATOM     69  C   UNL A   1      36.967  31.774  30.664  1.00  0.00     0.064 A 
ATOM     70  C   UNL A   1      36.035  31.852  31.710  1.00  0.00     0.173 A 
ATOM     71  C   UNL A   1      36.728  32.595  29.545  1.00  0.00     0.173 A 
ATOM     72  F   UNL A   1      36.214  31.131  32.826  1.00  0.00    -0.203 F 
ATOM     73  C   UNL A   1      34.947  32.728  31.657  1.00  0.00     0.198 A 
ATOM     74  C   UNL A   1      35.639  33.466  29.491  1.00  0.00     0.198 A 
ATOM     75  F   UNL A   1      37.598  32.640  28.526  1.00  0.00    -0.203 F 
ATOM     76  F   UNL A   1      34.116  32.827  32.704  1.00  0.00    -0.200 F 
ATOM     77  C   UNL A   1      34.758  33.544  30.554  1.00  0.00     0.200 A 
ATOM     78  F   UNL A   1      35.487  34.276  28.433  1.00  0.00    -0.200 F 
ATOM     79  F   UNL A   1      33.755  34.434  30.532  1.00  0.00    -0.200 F 
ENDBRANCH  45  69
BRANCH  57  80
ATOM     80  C   UNL A   1      42.179  29.968  33.690  1.00  0.00     0.064 A 
ATOM     81  C   UNL A   1      41.724  28.650  33.507  1.00  0.00     0.173 A 
ATOM     82  C   UNL A   1      42.486  30.366  34.999  1.00  0.00     0.173 A 
ATOM     83  F   UNL A   1      41.503  28.157  32.283  1.00  0.00    -0.203 F 
ATOM     84  C   UNL A   1      41.542  27.790  34.590  1.00  0.00     0.198 A 
ATOM     85  C   UNL A   1      42.339  29.493  36.073  1.00  0.00     0.198 A 
ATOM     86  F   UNL A   1      42.974  31.594  35.230  1.00  0.00    -0.203 F 
ATOM     87  F   UNL A   1      41.094  26.542  34.389  1.00  0.00    -0.200 F 
ATOM     88  C   UNL A   1      41.857  28.211  35.871  1.00  0.00     0.200 A 
ATOM     89  F   UNL A   1      42.692  29.889  37.304  1.00  0.00    -0.200 F 
ATOM     90  F   UNL A   1      41.722  27.372  36.908  1.00  0.00    -0.200 F 
ENDBRANCH  57  80
ENDBRANCH  31  32
ENDBRANCH  23  26
ENDBRANCH  21  22
ENDBRANCH  20  21
ENDBRANCH   1  20
TORSDOF 13
ENDMDL
MODEL 2
REMARK VINA RESULT:     -12.5      4.762      9.988
REMARK SMILES COc1ccc(-n2ncc(C(=O)NCCCCNC(=O)c3ccc(-c4c5nc(c(-c6c(F)c(F)c(F)c(F)c6F)c6ccc([nH]6)c(-c6c(F)c(F)c(F)c(F)c6F)c6nc(c(-c7c(F)c(F)c(F)c(F)c7F)c7ccc4[nH]7)C=C6)C=C5)cc3)n2)nn1
REMARK SMILES IDX 15 1 14 2 13 3 11 4 12 5 10 7 7 8 8 9 84 10 9 11 6 12 3 13
REMARK SMILES IDX 4 14 86 15 5 16 85 17 2 18 1 19 16 20 17 21 18 22 19 23
REMARK SMILES IDX 20 25 21 26 22 27 83 28 23 29 82 30 24 31 25 32 26 33 76 34
REMARK SMILES IDX 27 35 81 36 75 37 77 38 28 39 80 40 74 41 73 42 29 44 61 45
REMARK SMILES IDX 41 46 60 47 42 48 45 49 59 50 78 51 43 52 44 53 58 55 79 56
REMARK SMILES IDX 46 57 30 58 31 59 39 60 32 61 33 62 37 63 40 64 34 65 35 66
REMARK SMILES IDX 38 67 36 68 62 69 63 70 71 71 64 72 65 73 69 74 72 75 66 76
REMARK SMILES IDX 67 77 70 78 68 79 47 80 48 81 56 82 49 83 50 84 54 85 57 86
REMARK SMILES IDX 51 87 52 88 55 89 53 90
REMARK H PARENT 13 6 18 24 77 43 45 54
REMARK Flexibility Score: inf
ROOT
ATOM      1  C   UNL A   1      34.319  29.577  27.129  1.00  0.00     0.023 C 
ENDROOT
BRANCH   1   2
ATOM      2  C   UNL A   1      33.589  28.855  25.995  1.00  0.00     0.116 C 
BRANCH   2   3
ATOM      3  N   UNL A   1      32.994  27.609  26.432  1.00  0.00    -0.351 N 
ATOM      4  C   UNL A   1      31.863  26.905  26.085  1.00  0.00     0.273 C 
ATOM      5  O   UNL A   1      31.660  25.896  26.766  1.00  0.00    -0.267 OA
ATOM      6  H   UNL A   1      33.516  27.165  27.139  1.00  0.00     0.163 HD
BRANCH   4   7
ATOM      7  C   UNL A   1      30.992  27.266  24.953  1.00  0.00     0.170 A 
ATOM      8  N   UNL A   1      29.945  28.533  23.602  1.00  0.00    -0.130 N 
ATOM      9  N   UNL A   1      29.285  27.350  23.473  1.00  0.00    -0.154 NA
ATOM     10  N   UNL A   1      31.028  28.508  24.417  1.00  0.00    -0.141 NA
ATOM     11  C   UNL A   1      29.990  26.552  24.271  1.00  0.00     0.172 A 
BRANCH   8  12
ATOM     12  C   UNL A   1      29.457  29.704  22.957  1.00  0.00     0.196 A 
ATOM     13  C   UNL A   1      28.351  31.897  21.795  1.00  0.00     0.233 A 
ATOM     14  C   UNL A   1      28.615  31.940  23.151  1.00  0.00     0.074 A 
ATOM     15  N   UNL A   1      28.651  30.816  21.043  1.00  0.00    -0.110 NA
ATOM     16  C   UNL A   1      29.166  30.814  23.748  1.00  0.00     0.058 A 
ATOM     17  N   UNL A   1      29.251  29.717  21.622  1.00  0.00    -0.125 NA
BRANCH  13  18
ATOM     18  O   UNL A   1      27.657  32.898  21.168  1.00  0.00    -0.480 OA
ATOM     19  C   UNL A   1      27.655  32.735  19.753  1.00  0.00     0.280 C 
ENDBRANCH  13  18
ENDBRANCH   8  12
ENDBRANCH   4   7
ENDBRANCH   2   3
ENDBRANCH   1   2
BRANCH   1  20
ATOM     20  C   UNL A   1      33.665  30.889  27.590  1.00  0.00     0.023 C 
BRANCH  20  21
ATOM     21  C   UNL A   1      34.635  32.038  27.856  1.00  0.00     0.116 C 
BRANCH  21  22
ATOM     22  N   UNL A   1      34.605  32.511  29.239  1.00  0.00    -0.352 N 
ATOM     23  C   UNL A   1      35.305  32.008  30.322  1.00  0.00     0.251 C 
ATOM     24  H   UNL A   1      34.018  33.279  29.421  1.00  0.00     0.163 HD
ATOM     25  O   UNL A   1      34.935  32.205  31.466  1.00  0.00    -0.269 OA
BRANCH  23  26
ATOM     26  C   UNL A   1      36.527  31.227  30.059  1.00  0.00     0.039 A 
ATOM     27  C   UNL A   1      37.747  31.851  29.803  1.00  0.00     0.014 A 
ATOM     28  C   UNL A   1      36.434  29.839  30.132  1.00  0.00     0.014 A 
ATOM     29  C   UNL A   1      38.895  31.067  29.718  1.00  0.00     0.010 A 
ATOM     30  C   UNL A   1      37.579  29.082  30.186  1.00  0.00     0.010 A 
ATOM     31  C   UNL A   1      38.810  29.681  29.942  1.00  0.00    -0.014 A 
BRANCH  31  32
ATOM     32  C   UNL A   1      40.023  28.870  30.021  1.00  0.00     0.031 A 
ATOM     33  C   UNL A   1      40.567  28.668  31.394  1.00  0.00     0.074 A 
ATOM     34  C   UNL A   1      40.536  28.186  28.977  1.00  0.00     0.049 A 
ATOM     35  N   UNL A   1      41.686  29.106  31.869  1.00  0.00    -0.248 NA
ATOM     36  C   UNL A   1      39.730  27.979  32.389  1.00  0.00     0.031 C 
ATOM     37  C   UNL A   1      39.978  28.005  27.632  1.00  0.00     0.029 A 
ATOM     38  N   UNL A   1      41.657  27.416  28.939  1.00  0.00    -0.354 N 
ATOM     39  C   UNL A   1      41.781  28.618  33.171  1.00  0.00     0.074 A 
ATOM     40  C   UNL A   1      40.494  28.049  33.482  1.00  0.00     0.031 C 
ATOM     41  C   UNL A   1      40.635  27.009  26.997  1.00  0.00     0.029 A 
ATOM     42  C   UNL A   1      41.769  26.616  27.811  1.00  0.00     0.049 A 
ATOM     43  H   UNL A   1      42.334  27.425  29.654  1.00  0.00     0.167 HD
ATOM     44  C   UNL A   1      42.981  28.546  33.811  1.00  0.00     0.037 A 
ATOM     45  C   UNL A   1      42.723  25.686  27.566  1.00  0.00     0.037 A 
ATOM     46  C   UNL A   1      43.977  29.342  33.142  1.00  0.00     0.049 A 
ATOM     47  C   UNL A   1      43.884  26.013  28.429  1.00  0.00     0.074 A 
ATOM     48  C   UNL A   1      44.121  30.687  32.860  1.00  0.00     0.029 A 
ATOM     49  N   UNL A   1      44.863  28.696  32.317  1.00  0.00    -0.354 N 
ATOM     50  N   UNL A   1      44.624  27.075  28.279  1.00  0.00    -0.248 NA
ATOM     51  C   UNL A   1      43.959  25.377  29.734  1.00  0.00     0.031 C 
ATOM     52  C   UNL A   1      44.700  30.729  31.557  1.00  0.00     0.029 A 
ATOM     53  C   UNL A   1      44.936  29.414  31.152  1.00  0.00     0.049 A 
ATOM     54  H   UNL A   1      45.356  27.868  32.523  1.00  0.00     0.167 HD
ATOM     55  C   UNL A   1      44.900  27.494  29.571  1.00  0.00     0.074 A 
ATOM     56  C   UNL A   1      44.555  26.356  30.419  1.00  0.00     0.031 C 
ATOM     57  C   UNL A   1      45.114  28.812  29.851  1.00  0.00     0.037 A 
BRANCH  44  58
ATOM     58  C   UNL A   1      43.364  27.495  34.824  1.00  0.00     0.064 A 
ATOM     59  C   UNL A   1      43.770  27.895  36.115  1.00  0.00     0.173 A 
ATOM     60  C   UNL A   1      43.646  26.154  34.488  1.00  0.00     0.173 A 
ATOM     61  F   UNL A   1      43.567  29.153  36.536  1.00  0.00    -0.203 F 
ATOM     62  C   UNL A   1      44.480  27.043  36.965  1.00  0.00     0.198 A 
ATOM     63  C   UNL A   1      44.309  25.291  35.360  1.00  0.00     0.198 A 
ATOM     64  F   UNL A   1      43.401  25.663  33.267  1.00  0.00    -0.203 F 
ATOM     65  F   UNL A   1      44.961  27.509  38.126  1.00  0.00    -0.200 F 
ATOM     66  C   UNL A   1      44.755  25.743  36.583  1.00  0.00     0.200 A 
ATOM     67  F   UNL A   1      44.584  24.040  34.964  1.00  0.00    -0.200 F 
ATOM     68  F   UNL A   1      45.492  24.945  37.366  1.00  0.00    -0.200 F 
ENDBRANCH  44  58
BRANCH  45  69
ATOM     69  C   UNL A   1      42.587  24.388  26.870  1.00  0.00     0.064 A 
ATOM     70  C   UNL A   1      43.219  24.158  25.638  1.00  0.00     0.173 A 
ATOM     71  C   UNL A   1      42.081  23.256  27.540  1.00  0.00     0.173 A 
ATOM     72  F   UNL A   1      43.760  25.178  24.958  1.00  0.00    -0.203 F 
ATOM     73  C   UNL A   1      43.370  22.866  25.124  1.00  0.00     0.198 A 
ATOM     74  C   UNL A   1      42.228  21.968  27.023  1.00  0.00     0.198 A 
ATOM     75  F   UNL A   1      41.522  23.369  28.753  1.00  0.00    -0.203 F 
ATOM     76  F   UNL A   1      44.040  22.677  23.978  1.00  0.00    -0.200 F 
ATOM     77  C   UNL A   1      42.888  21.772  25.823  1.00  0.00     0.200 A 
ATOM     78  F   UNL A   1      41.789  20.916  27.726  1.00  0.00    -0.200 F 
ATOM     79  F   UNL A   1      43.094  20.530  25.364  1.00  0.00    -0.200 F 
ENDBRANCH  45  69
BRANCH  57  80
ATOM     80  C   UNL A   1      45.327  29.750  28.693  1.00  0.00     0.064 A 
ATOM     81  C   UNL A   1      44.294  30.416  28.011  1.00  0.00     0.173 A 
ATOM     82  C   UNL A   1      46.644  30.087  28.352  1.00  0.00     0.173 A 
ATOM     83  F   UNL A   1      43.011  30.227  28.342  1.00  0.00    -0.203 F 
ATOM     84  C   UNL A   1      44.570  31.341  27.004  1.00  0.00     0.198 A 
ATOM     85  C   UNL A   1      46.916  31.039  27.373  1.00  0.00     0.198 A 
ATOM     86  F   UNL A   1      47.673  29.524  29.005  1.00  0.00    -0.203 F 
ATOM     87  F   UNL A   1      43.565  31.952  26.359  1.00  0.00    -0.200 F 
ATOM     88  C   UNL A   1      45.881  31.656  26.692  1.00  0.00     0.200 A 
ATOM     89  F   UNL A   1      48.187  31.377  27.109  1.00  0.00    -0.200 F 
ATOM     90  F   UNL A   1      46.148  32.575  25.753  1.00  0.00    -0.200 F 
ENDBRANCH  57  80
ENDBRANCH  31  32
ENDBRANCH  23  26
ENDBRANCH  21  22
ENDBRANCH  20  21
ENDBRANCH   1  20
TORSDOF 13
ENDMDL
MODEL 3
REMARK VINA RESULT:     -12.4      1.853      3.891
REMARK SMILES COc1ccc(-n2ncc(C(=O)NCCCCNC(=O)c3ccc(-c4c5nc(c(-c6c(F)c(F)c(F)c(F)c6F)c6ccc([nH]6)c(-c6c(F)c(F)c(F)c(F)c6F)c6nc(c(-c7c(F)c(F)c(F)c(F)c7F)c7ccc4[nH]7)C=C6)C=C5)cc3)n2)nn1
REMARK SMILES IDX 15 1 14 2 13 3 11 4 12 5 10 7 7 8 8 9 84 10 9 11 6 12 3 13
REMARK SMILES IDX 4 14 86 15 5 16 85 17 2 18 1 19 16 20 17 21 18 22 19 23
REMARK SMILES IDX 20 25 21 26 22 27 83 28 23 29 82 30 24 31 25 32 26 33 76 34
REMARK SMILES IDX 27 35 81 36 75 37 77 38 28 39 80 40 74 41 73 42 29 44 61 45
REMARK SMILES IDX 41 46 60 47 42 48 45 49 59 50 78 51 43 52 44 53 58 55 79 56
REMARK SMILES IDX 46 57 30 58 31 59 39 60 32 61 33 62 37 63 40 64 34 65 35 66
REMARK SMILES IDX 38 67 36 68 62 69 63 70 71 71 64 72 65 73 69 74 72 75 66 76
REMARK SMILES IDX 67 77 70 78 68 79 47 80 48 81 56 82 49 83 50 84 54 85 57 86
REMARK SMILES IDX 51 87 52 88 55 89 53 90
REMARK H PARENT 13 6 18 24 77 43 45 54
REMARK Flexibility Score: inf
ROOT
ATOM      1  C   UNL A   1      36.310  22.059  24.980  1.00  0.00     0.023 C 
ENDROOT
BRANCH   1   2
ATOM      2  C   UNL A   1      35.362  21.555  26.069  1.00  0.00     0.116 C 
BRANCH   2   3
ATOM      3  N   UNL A   1      34.194  20.900  25.518  1.00  0.00    -0.351 N 
ATOM      4  C   UNL A   1      32.847  21.186  25.496  1.00  0.00     0.273 C 
ATOM      5  O   UNL A   1      32.147  20.311  24.978  1.00  0.00    -0.267 OA
ATOM      6  H   UNL A   1      34.412  20.059  25.054  1.00  0.00     0.163 HD
BRANCH   4   7
ATOM      7  C   UNL A   1      32.273  22.454  25.978  1.00  0.00     0.170 A 
ATOM      8  N   UNL A   1      32.077  24.559  26.219  1.00  0.00    -0.130 N 
ATOM      9  N   UNL A   1      31.377  24.072  27.279  1.00  0.00    -0.154 NA
ATOM     10  N   UNL A   1      32.563  23.626  25.364  1.00  0.00    -0.141 NA
ATOM     11  C   UNL A   1      31.452  22.758  27.079  1.00  0.00     0.172 A 
BRANCH   8  12
ATOM     12  C   UNL A   1      32.311  25.957  26.092  1.00  0.00     0.196 A 
ATOM     13  C   UNL A   1      32.908  28.605  25.970  1.00  0.00     0.233 A 
ATOM     14  C   UNL A   1      33.683  27.727  25.236  1.00  0.00     0.074 A 
ATOM     15  N   UNL A   1      31.862  28.185  26.712  1.00  0.00    -0.110 NA
ATOM     16  C   UNL A   1      33.387  26.372  25.310  1.00  0.00     0.058 A 
ATOM     17  N   UNL A   1      31.530  26.847  26.743  1.00  0.00    -0.125 NA
BRANCH  13  18
ATOM     18  O   UNL A   1      33.238  29.930  26.083  1.00  0.00    -0.480 OA
ATOM     19  C   UNL A   1      33.883  30.212  27.320  1.00  0.00     0.280 C 
ENDBRANCH  13  18
ENDBRANCH   8  12
ENDBRANCH   4   7
ENDBRANCH   2   3
ENDBRANCH   1   2
BRANCH   1  20
ATOM     20  C   UNL A   1      37.747  21.520  25.069  1.00  0.00     0.023 C 
BRANCH  20  21
ATOM     21  C   UNL A   1      38.624  22.188  26.125  1.00  0.00     0.116 C 
BRANCH  21  22
ATOM     22  N   UNL A   1      40.043  21.861  25.990  1.00  0.00    -0.352 N 
ATOM     23  C   UNL A   1      41.126  22.712  26.130  1.00  0.00     0.251 C 
ATOM     24  H   UNL A   1      40.252  20.924  25.774  1.00  0.00     0.163 HD
ATOM     25  O   UNL A   1      42.207  22.452  25.633  1.00  0.00    -0.269 OA
BRANCH  23  26
ATOM     26  C   UNL A   1      40.943  23.948  26.910  1.00  0.00     0.039 A 
ATOM     27  C   UNL A   1      41.653  24.175  28.089  1.00  0.00     0.014 A 
ATOM     28  C   UNL A   1      40.076  24.911  26.400  1.00  0.00     0.014 A 
ATOM     29  C   UNL A   1      41.557  25.425  28.697  1.00  0.00     0.010 A 
ATOM     30  C   UNL A   1      40.088  26.183  26.920  1.00  0.00     0.010 A 
ATOM     31  C   UNL A   1      40.795  26.438  28.090  1.00  0.00    -0.014 A 
BRANCH  31  32
ATOM     32  C   UNL A   1      40.817  27.798  28.624  1.00  0.00     0.031 A 
ATOM     33  C   UNL A   1      41.911  28.670  28.107  1.00  0.00     0.074 A 
ATOM     34  C   UNL A   1      39.833  28.320  29.385  1.00  0.00     0.049 A 
ATOM     35  N   UNL A   1      42.907  29.158  28.770  1.00  0.00    -0.248 NA
ATOM     36  C   UNL A   1      41.961  28.956  26.665  1.00  0.00     0.031 C 
ATOM     37  C   UNL A   1      38.535  27.734  29.741  1.00  0.00     0.029 A 
ATOM     38  N   UNL A   1      39.759  29.561  29.938  1.00  0.00    -0.354 N 
ATOM     39  C   UNL A   1      43.627  29.948  27.876  1.00  0.00     0.074 A 
ATOM     40  C   UNL A   1      43.080  29.678  26.571  1.00  0.00     0.031 C 
ATOM     41  C   UNL A   1      37.726  28.691  30.247  1.00  0.00     0.029 A 
ATOM     42  C   UNL A   1      38.504  29.902  30.424  1.00  0.00     0.049 A 
ATOM     43  H   UNL A   1      40.532  30.168  29.991  1.00  0.00     0.167 HD
ATOM     44  C   UNL A   1      44.483  30.911  28.318  1.00  0.00     0.037 A 
ATOM     45  C   UNL A   1      38.127  31.101  30.928  1.00  0.00     0.037 A 
ATOM     46  C   UNL A   1      44.792  30.733  29.713  1.00  0.00     0.049 A 
ATOM     47  C   UNL A   1      39.362  31.808  31.347  1.00  0.00     0.074 A 
ATOM     48  C   UNL A   1      45.401  29.741  30.457  1.00  0.00     0.029 A 
ATOM     49  N   UNL A   1      44.122  31.515  30.621  1.00  0.00    -0.354 N 
ATOM     50  N   UNL A   1      40.118  31.424  32.337  1.00  0.00    -0.248 NA
ATOM     51  C   UNL A   1      39.993  32.697  30.385  1.00  0.00     0.031 C 
ATOM     52  C   UNL A   1      44.663  29.691  31.676  1.00  0.00     0.029 A 
ATOM     53  C   UNL A   1      43.694  30.695  31.631  1.00  0.00     0.049 A 
ATOM     54  H   UNL A   1      43.976  32.487  30.557  1.00  0.00     0.167 HD
ATOM     55  C   UNL A   1      41.412  31.649  31.895  1.00  0.00     0.074 A 
ATOM     56  C   UNL A   1      41.270  32.526  30.736  1.00  0.00     0.031 C 
ATOM     57  C   UNL A   1      42.448  30.879  32.338  1.00  0.00     0.037 A 
BRANCH  44  58
ATOM     58  C   UNL A   1      44.768  32.212  27.608  1.00  0.00     0.064 A 
ATOM     59  C   UNL A   1      45.992  32.371  26.923  1.00  0.00     0.173 A 
ATOM     60  C   UNL A   1      44.041  33.399  27.834  1.00  0.00     0.173 A 
ATOM     61  F   UNL A   1      46.774  31.311  26.667  1.00  0.00    -0.203 F 
ATOM     62  C   UNL A   1      46.485  33.630  26.571  1.00  0.00     0.198 A 
ATOM     63  C   UNL A   1      44.513  34.649  27.435  1.00  0.00     0.198 A 
ATOM     64  F   UNL A   1      42.910  33.413  28.551  1.00  0.00    -0.203 F 
ATOM     65  F   UNL A   1      47.711  33.741  26.042  1.00  0.00    -0.200 F 
ATOM     66  C   UNL A   1      45.747  34.769  26.835  1.00  0.00     0.200 A 
ATOM     67  F   UNL A   1      43.792  35.745  27.717  1.00  0.00    -0.200 F 
ATOM     68  F   UNL A   1      46.246  35.981  26.560  1.00  0.00    -0.200 F 
ENDBRANCH  44  58
BRANCH  45  69
ATOM     69  C   UNL A   1      36.821  31.784  30.800  1.00  0.00     0.064 A 
ATOM     70  C   UNL A   1      35.983  31.956  31.912  1.00  0.00     0.173 A 
ATOM     71  C   UNL A   1      36.508  32.539  29.652  1.00  0.00     0.173 A 
ATOM     72  F   UNL A   1      36.238  31.304  33.055  1.00  0.00    -0.203 F 
ATOM     73  C   UNL A   1      34.915  32.859  31.891  1.00  0.00     0.198 A 
ATOM     74  C   UNL A   1      35.439  33.435  29.630  1.00  0.00     0.198 A 
ATOM     75  F   UNL A   1      37.290  32.493  28.565  1.00  0.00    -0.203 F 
ATOM     76  F   UNL A   1      34.177  33.048  32.994  1.00  0.00    -0.200 F 
ATOM     77  C   UNL A   1      34.652  33.607  30.755  1.00  0.00     0.200 A 
ATOM     78  F   UNL A   1      35.217  34.179  28.538  1.00  0.00    -0.200 F 
ATOM     79  F   UNL A   1      33.672  34.522  30.757  1.00  0.00    -0.200 F 
ENDBRANCH  45  69
BRANCH  57  80
ATOM     80  C   UNL A   1      42.200  29.983  33.521  1.00  0.00     0.064 A 
ATOM     81  C   UNL A   1      41.748  28.655  33.430  1.00  0.00     0.173 A 
ATOM     82  C   UNL A   1      42.566  30.451  34.791  1.00  0.00     0.173 A 
ATOM     83  F   UNL A   1      41.473  28.097  32.245  1.00  0.00    -0.203 F 
ATOM     84  C   UNL A   1      41.626  27.852  34.563  1.00  0.00     0.198 A 
ATOM     85  C   UNL A   1      42.478  29.634  35.916  1.00  0.00     0.198 A 
ATOM     86  F   UNL A   1      43.054  31.692  34.935  1.00  0.00    -0.203 F 
ATOM     87  F   UNL A   1      41.178  26.592  34.450  1.00  0.00    -0.200 F 
ATOM     88  C   UNL A   1      41.998  28.341  35.804  1.00  0.00     0.200 A 
ATOM     89  F   UNL A   1      42.887  30.097  37.106  1.00  0.00    -0.200 F 
ATOM     90  F   UNL A   1      41.919  27.556  36.888  1.00  0.00    -0.200 F 
ENDBRANCH  57  80
ENDBRANCH  31  32
ENDBRANCH  23  26
ENDBRANCH  21  22
ENDBRANCH  20  21
ENDBRANCH   1  20
TORSDOF 13
ENDMDL
