MODEL 1
REMARK VINA RESULT:     -10.5      0.000      0.000
REMARK SMILES CCOc1cccc(-c2ccc([C@@H](C)C(=O)NCCCCNC(=O)c3ccc(-c4c5nc(c(-c6c(F)c(F)c(F)c(F)c6F)c6ccc([nH]6)c(-c6c(F)c(F)c(F)c(F)c6F)c6nc(c(-c7c(F)c(F)c(F)c(F)c7F)c7ccc4[nH]7)C=C6)C=C5)cc3)cc2F)c1
REMARK SMILES IDX 18 1 17 2 15 3 16 4 13 6 14 7 12 8 9 9 10 10 89 11 11 12
REMARK SMILES IDX 88 13 90 14 8 15 4 16 5 17 91 18 6 19 7 20 3 21 2 22 1 23
REMARK SMILES IDX 19 24 20 25 21 26 22 27 23 28 24 30 25 31 26 32 87 33 27 34
REMARK SMILES IDX 86 35 28 36 29 37 30 38 80 39 31 40 85 41 79 42 81 43 32 44
REMARK SMILES IDX 84 45 78 46 77 47 33 49 65 50 45 51 64 52 46 53 49 54 63 55
REMARK SMILES IDX 82 56 47 57 48 58 62 60 83 61 50 62 34 63 35 64 43 65 36 66
REMARK SMILES IDX 37 67 41 68 44 69 38 70 39 71 42 72 40 73 66 74 67 75 75 76
REMARK SMILES IDX 68 77 69 78 73 79 76 80 70 81 71 82 74 83 72 84 51 85 52 86
REMARK SMILES IDX 60 87 53 88 54 89 58 90 61 91 55 92 56 93 59 94 57 95
REMARK H PARENT 17 5 22 29 81 48 49 59
REMARK Flexibility Score: inf
ROOT
ATOM      1  C   UNL A   1      32.985  35.689  30.189  1.00  0.00     0.116 C 
ENDROOT
BRANCH   1   2
ATOM      2  N   UNL A   1      33.558  36.262  31.387  1.00  0.00    -0.356 N 
ATOM      3  C   UNL A   1      34.403  35.741  32.317  1.00  0.00     0.227 C 
ATOM      4  O   UNL A   1      34.645  36.455  33.298  1.00  0.00    -0.274 OA
ATOM      5  H   UNL A   1      33.289  37.194  31.559  1.00  0.00     0.163 HD
BRANCH   3   6
ATOM      6  C   UNL A   1      35.055  34.353  32.200  1.00  0.00     0.105 C 
ATOM      7  C   UNL A   1      34.844  33.458  33.419  1.00  0.00     0.023 C 
BRANCH   6   8
ATOM      8  C   UNL A   1      36.467  34.392  31.636  1.00  0.00    -0.033 A 
ATOM      9  C   UNL A   1      39.187  34.238  30.728  1.00  0.00     0.018 A 
ATOM     10  C   UNL A   1      38.100  34.055  29.855  1.00  0.00     0.012 A 
ATOM     11  C   UNL A   1      38.858  34.579  32.051  1.00  0.00     0.131 A 
ATOM     12  C   UNL A   1      36.771  34.166  30.291  1.00  0.00     0.005 A 
ATOM     13  C   UNL A   1      37.537  34.626  32.506  1.00  0.00     0.044 A 
ATOM     14  F   UNL A   1      39.815  34.866  32.948  1.00  0.00    -0.206 F 
BRANCH   9  15
ATOM     15  C   UNL A   1      40.589  34.028  30.274  1.00  0.00    -0.012 A 
ATOM     16  C   UNL A   1      42.585  34.842  29.106  1.00  0.00     0.119 A 
ATOM     17  C   UNL A   1      43.286  33.693  29.444  1.00  0.00     0.046 A 
ATOM     18  C   UNL A   1      41.256  34.998  29.502  1.00  0.00     0.055 A 
ATOM     19  C   UNL A   1      42.658  32.712  30.208  1.00  0.00     0.004 A 
ATOM     20  C   UNL A   1      41.327  32.878  30.613  1.00  0.00     0.009 A 
BRANCH  16  21
ATOM     21  O   UNL A   1      43.181  35.749  28.274  1.00  0.00    -0.494 OA
BRANCH  21  22
ATOM     22  C   UNL A   1      42.474  35.936  27.041  1.00  0.00     0.226 C 
ATOM     23  C   UNL A   1      42.996  35.025  25.939  1.00  0.00     0.049 C 
ENDBRANCH  21  22
ENDBRANCH  16  21
ENDBRANCH   9  15
ENDBRANCH   6   8
ENDBRANCH   3   6
ENDBRANCH   1   2
BRANCH   1  24
ATOM     24  C   UNL A   1      33.799  36.036  28.943  1.00  0.00     0.023 C 
BRANCH  24  25
ATOM     25  C   UNL A   1      34.179  34.843  28.068  1.00  0.00     0.023 C 
BRANCH  25  26
ATOM     26  C   UNL A   1      33.827  33.477  28.643  1.00  0.00     0.116 C 
BRANCH  26  27
ATOM     27  N   UNL A   1      33.222  32.566  27.682  1.00  0.00    -0.352 N 
ATOM     28  C   UNL A   1      33.687  31.344  27.252  1.00  0.00     0.251 C 
ATOM     29  H   UNL A   1      32.370  32.862  27.288  1.00  0.00     0.163 HD
ATOM     30  O   UNL A   1      33.099  30.726  26.376  1.00  0.00    -0.269 OA
BRANCH  28  31
ATOM     31  C   UNL A   1      34.939  30.808  27.828  1.00  0.00     0.039 A 
ATOM     32  C   UNL A   1      36.105  31.571  27.724  1.00  0.00     0.014 A 
ATOM     33  C   UNL A   1      34.950  29.589  28.508  1.00  0.00     0.014 A 
ATOM     34  C   UNL A   1      37.266  31.143  28.372  1.00  0.00     0.010 A 
ATOM     35  C   UNL A   1      36.082  29.206  29.218  1.00  0.00     0.010 A 
ATOM     36  C   UNL A   1      37.251  29.978  29.156  1.00  0.00    -0.014 A 
BRANCH  36  37
ATOM     37  C   UNL A   1      38.452  29.552  29.917  1.00  0.00     0.031 A 
ATOM     38  C   UNL A   1      38.701  30.092  31.296  1.00  0.00     0.074 A 
ATOM     39  C   UNL A   1      39.348  28.729  29.339  1.00  0.00     0.049 A 
ATOM     40  N   UNL A   1      39.710  29.875  32.102  1.00  0.00    -0.248 NA
ATOM     41  C   UNL A   1      37.701  31.030  31.830  1.00  0.00     0.031 C 
ATOM     42  C   UNL A   1      39.254  28.193  27.980  1.00  0.00     0.029 A 
ATOM     43  N   UNL A   1      40.522  28.205  29.820  1.00  0.00    -0.354 N 
ATOM     44  C   UNL A   1      39.472  30.656  33.224  1.00  0.00     0.074 A 
ATOM     45  C   UNL A   1      38.257  31.400  32.973  1.00  0.00     0.031 C 
ATOM     46  C   UNL A   1      40.306  27.392  27.748  1.00  0.00     0.029 A 
ATOM     47  C   UNL A   1      41.164  27.381  28.929  1.00  0.00     0.049 A 
ATOM     48  H   UNL A   1      40.870  28.401  30.720  1.00  0.00     0.167 HD
ATOM     49  C   UNL A   1      40.185  30.724  34.373  1.00  0.00     0.037 A 
ATOM     50  C   UNL A   1      42.314  26.691  29.054  1.00  0.00     0.037 A 
ATOM     51  C   UNL A   1      41.374  29.957  34.632  1.00  0.00     0.049 A 
ATOM     52  C   UNL A   1      43.073  26.764  30.351  1.00  0.00     0.074 A 
ATOM     53  C   UNL A   1      42.131  29.901  35.790  1.00  0.00     0.029 A 
ATOM     54  N   UNL A   1      41.979  29.107  33.717  1.00  0.00    -0.354 N 
ATOM     55  N   UNL A   1      42.795  27.444  31.437  1.00  0.00    -0.248 NA
ATOM     56  C   UNL A   1      44.302  25.964  30.442  1.00  0.00     0.031 C 
ATOM     57  C   UNL A   1      43.215  29.046  35.561  1.00  0.00     0.029 A 
ATOM     58  C   UNL A   1      43.110  28.535  34.277  1.00  0.00     0.049 A 
ATOM     59  H   UNL A   1      41.652  28.937  32.804  1.00  0.00     0.167 HD
ATOM     60  C   UNL A   1      43.797  27.136  32.347  1.00  0.00     0.074 A 
ATOM     61  C   UNL A   1      44.678  26.192  31.692  1.00  0.00     0.031 C 
ATOM     62  C   UNL A   1      43.973  27.596  33.610  1.00  0.00     0.037 A 
BRANCH  49  63
ATOM     63  C   UNL A   1      39.687  31.654  35.441  1.00  0.00     0.064 A 
ATOM     64  C   UNL A   1      38.669  31.273  36.329  1.00  0.00     0.173 A 
ATOM     65  C   UNL A   1      40.247  32.931  35.594  1.00  0.00     0.173 A 
ATOM     66  F   UNL A   1      38.091  30.067  36.216  1.00  0.00    -0.203 F 
ATOM     67  C   UNL A   1      38.208  32.147  37.309  1.00  0.00     0.198 A 
ATOM     68  C   UNL A   1      39.804  33.792  36.594  1.00  0.00     0.198 A 
ATOM     69  F   UNL A   1      41.224  33.344  34.773  1.00  0.00    -0.203 F 
ATOM     70  F   UNL A   1      37.198  31.781  38.110  1.00  0.00    -0.200 F 
ATOM     71  C   UNL A   1      38.780  33.404  37.445  1.00  0.00     0.200 A 
ATOM     72  F   UNL A   1      40.363  35.002  36.732  1.00  0.00    -0.200 F 
ATOM     73  F   UNL A   1      38.337  34.244  38.390  1.00  0.00    -0.200 F 
ENDBRANCH  49  63
BRANCH  50  74
ATOM     74  C   UNL A   1      42.794  25.837  27.937  1.00  0.00     0.064 A 
ATOM     75  C   UNL A   1      42.380  24.503  27.825  1.00  0.00     0.173 A 
ATOM     76  C   UNL A   1      43.678  26.331  26.967  1.00  0.00     0.173 A 
ATOM     77  F   UNL A   1      41.550  23.981  28.741  1.00  0.00    -0.203 F 
ATOM     78  C   UNL A   1      42.848  23.687  26.797  1.00  0.00     0.198 A 
ATOM     79  C   UNL A   1      44.125  25.521  25.924  1.00  0.00     0.198 A 
ATOM     80  F   UNL A   1      44.100  27.602  27.026  1.00  0.00    -0.203 F 
ATOM     81  F   UNL A   1      42.470  22.402  26.740  1.00  0.00    -0.200 F 
ATOM     82  C   UNL A   1      43.716  24.199  25.844  1.00  0.00     0.200 A 
ATOM     83  F   UNL A   1      44.953  26.023  24.998  1.00  0.00    -0.200 F 
ATOM     84  F   UNL A   1      44.164  23.415  24.855  1.00  0.00    -0.200 F 
ENDBRANCH  50  74
BRANCH  62  85
ATOM     85  C   UNL A   1      45.151  27.063  34.373  1.00  0.00     0.064 A 
ATOM     86  C   UNL A   1      46.391  27.717  34.358  1.00  0.00     0.173 A 
ATOM     87  C   UNL A   1      45.027  25.902  35.149  1.00  0.00     0.173 A 
ATOM     88  F   UNL A   1      46.563  28.822  33.618  1.00  0.00    -0.203 F 
ATOM     89  C   UNL A   1      47.474  27.210  35.071  1.00  0.00     0.198 A 
ATOM     90  C   UNL A   1      46.104  25.415  35.884  1.00  0.00     0.198 A 
ATOM     91  F   UNL A   1      43.859  25.243  35.203  1.00  0.00    -0.203 F 
ATOM     92  F   UNL A   1      48.664  27.823  35.002  1.00  0.00    -0.200 F 
ATOM     93  C   UNL A   1      47.329  26.064  35.838  1.00  0.00     0.200 A 
ATOM     94  F   UNL A   1      45.959  24.314  36.635  1.00  0.00    -0.200 F 
ATOM     95  F   UNL A   1      48.371  25.580  36.526  1.00  0.00    -0.200 F 
ENDBRANCH  62  85
ENDBRANCH  36  37
ENDBRANCH  28  31
ENDBRANCH  26  27
ENDBRANCH  25  26
ENDBRANCH  24  25
ENDBRANCH   1  24
TORSDOF 15
ENDMDL
MODEL 2
REMARK VINA RESULT:     -10.3      4.282     10.456
REMARK SMILES CCOc1cccc(-c2ccc([C@@H](C)C(=O)NCCCCNC(=O)c3ccc(-c4c5nc(c(-c6c(F)c(F)c(F)c(F)c6F)c6ccc([nH]6)c(-c6c(F)c(F)c(F)c(F)c6F)c6nc(c(-c7c(F)c(F)c(F)c(F)c7F)c7ccc4[nH]7)C=C6)C=C5)cc3)cc2F)c1
REMARK SMILES IDX 18 1 17 2 15 3 16 4 13 6 14 7 12 8 9 9 10 10 89 11 11 12
REMARK SMILES IDX 88 13 90 14 8 15 4 16 5 17 91 18 6 19 7 20 3 21 2 22 1 23
REMARK SMILES IDX 19 24 20 25 21 26 22 27 23 28 24 30 25 31 26 32 87 33 27 34
REMARK SMILES IDX 86 35 28 36 29 37 30 38 80 39 31 40 85 41 79 42 81 43 32 44
REMARK SMILES IDX 84 45 78 46 77 47 33 49 65 50 45 51 64 52 46 53 49 54 63 55
REMARK SMILES IDX 82 56 47 57 48 58 62 60 83 61 50 62 34 63 35 64 43 65 36 66
REMARK SMILES IDX 37 67 41 68 44 69 38 70 39 71 42 72 40 73 66 74 67 75 75 76
REMARK SMILES IDX 68 77 69 78 73 79 76 80 70 81 71 82 74 83 72 84 51 85 52 86
REMARK SMILES IDX 60 87 53 88 54 89 58 90 61 91 55 92 56 93 59 94 57 95
REMARK H PARENT 17 5 22 29 81 48 49 59
REMARK Flexibility Score: inf
ROOT
ATOM      1  C   UNL A   1      32.152  29.975  25.823  1.00  0.00     0.116 C 
ENDROOT
BRANCH   1   2
ATOM      2  N   UNL A   1      31.399  29.004  25.061  1.00  0.00    -0.356 N 
ATOM      3  C   UNL A   1      31.791  28.097  24.125  1.00  0.00     0.227 C 
ATOM      4  O   UNL A   1      30.888  27.459  23.570  1.00  0.00    -0.274 OA
ATOM      5  H   UNL A   1      30.433  28.998  25.253  1.00  0.00     0.163 HD
BRANCH   3   6
ATOM      6  C   UNL A   1      33.259  27.834  23.749  1.00  0.00     0.105 C 
ATOM      7  C   UNL A   1      33.702  28.509  22.453  1.00  0.00     0.023 C 
BRANCH   6   8
ATOM      8  C   UNL A   1      33.679  26.384  23.925  1.00  0.00    -0.033 A 
ATOM      9  C   UNL A   1      34.215  23.595  24.355  1.00  0.00     0.018 A 
ATOM     10  C   UNL A   1      34.215  24.162  23.069  1.00  0.00     0.012 A 
ATOM     11  C   UNL A   1      34.016  24.491  25.419  1.00  0.00     0.131 A 
ATOM     12  C   UNL A   1      33.990  25.532  22.861  1.00  0.00     0.005 A 
ATOM     13  C   UNL A   1      33.725  25.843  25.214  1.00  0.00     0.044 A 
ATOM     14  F   UNL A   1      34.086  24.077  26.694  1.00  0.00    -0.206 F 
BRANCH   9  15
ATOM     15  C   UNL A   1      34.365  22.128  24.554  1.00  0.00    -0.012 A 
ATOM     16  C   UNL A   1      33.373  19.888  24.650  1.00  0.00     0.119 A 
ATOM     17  C   UNL A   1      34.618  19.315  24.866  1.00  0.00     0.046 A 
ATOM     18  C   UNL A   1      33.249  21.271  24.512  1.00  0.00     0.055 A 
ATOM     19  C   UNL A   1      35.745  20.131  24.913  1.00  0.00     0.004 A 
ATOM     20  C   UNL A   1      35.617  21.519  24.763  1.00  0.00     0.009 A 
BRANCH  16  21
ATOM     21  O   UNL A   1      32.266  19.085  24.705  1.00  0.00    -0.494 OA
BRANCH  21  22
ATOM     22  C   UNL A   1      32.393  17.893  23.921  1.00  0.00     0.226 C 
ATOM     23  C   UNL A   1      32.334  18.182  22.428  1.00  0.00     0.049 C 
ENDBRANCH  21  22
ENDBRANCH  16  21
ENDBRANCH   9  15
ENDBRANCH   6   8
ENDBRANCH   3   6
ENDBRANCH   1   2
BRANCH   1  24
ATOM     24  C   UNL A   1      31.426  31.318  25.913  1.00  0.00     0.023 C 
BRANCH  24  25
ATOM     25  C   UNL A   1      31.556  32.032  27.257  1.00  0.00     0.023 C 
BRANCH  25  26
ATOM     26  C   UNL A   1      32.765  32.951  27.391  1.00  0.00     0.116 C 
BRANCH  26  27
ATOM     27  N   UNL A   1      32.430  34.331  27.710  1.00  0.00    -0.352 N 
ATOM     28  C   UNL A   1      33.017  35.162  28.636  1.00  0.00     0.251 C 
ATOM     29  H   UNL A   1      31.686  34.721  27.196  1.00  0.00     0.163 HD
ATOM     30  O   UNL A   1      32.571  36.281  28.841  1.00  0.00    -0.269 OA
BRANCH  28  31
ATOM     31  C   UNL A   1      34.169  34.665  29.420  1.00  0.00     0.039 A 
ATOM     32  C   UNL A   1      33.935  34.123  30.686  1.00  0.00     0.014 A 
ATOM     33  C   UNL A   1      35.459  34.687  28.887  1.00  0.00     0.014 A 
ATOM     34  C   UNL A   1      34.989  33.533  31.386  1.00  0.00     0.010 A 
ATOM     35  C   UNL A   1      36.489  34.028  29.549  1.00  0.00     0.010 A 
ATOM     36  C   UNL A   1      36.265  33.446  30.805  1.00  0.00    -0.014 A 
BRANCH  36  37
ATOM     37  C   UNL A   1      37.376  32.750  31.500  1.00  0.00     0.031 A 
ATOM     38  C   UNL A   1      38.067  31.588  30.842  1.00  0.00     0.074 A 
ATOM     39  C   UNL A   1      37.720  33.125  32.747  1.00  0.00     0.049 A 
ATOM     40  N   UNL A   1      39.027  30.827  31.302  1.00  0.00    -0.248 NA
ATOM     41  C   UNL A   1      37.591  31.209  29.502  1.00  0.00     0.031 C 
ATOM     42  C   UNL A   1      37.079  34.192  33.518  1.00  0.00     0.029 A 
ATOM     43  N   UNL A   1      38.690  32.645  33.590  1.00  0.00    -0.354 N 
ATOM     44  C   UNL A   1      39.258  29.876  30.318  1.00  0.00     0.074 A 
ATOM     45  C   UNL A   1      38.298  30.115  29.263  1.00  0.00     0.031 C 
ATOM     46  C   UNL A   1      37.692  34.306  34.706  1.00  0.00     0.029 A 
ATOM     47  C   UNL A   1      38.749  33.303  34.794  1.00  0.00     0.049 A 
ATOM     48  H   UNL A   1      39.288  31.898  33.354  1.00  0.00     0.167 HD
ATOM     49  C   UNL A   1      40.205  28.909  30.283  1.00  0.00     0.037 A 
ATOM     50  C   UNL A   1      39.568  33.119  35.847  1.00  0.00     0.037 A 
ATOM     51  C   UNL A   1      41.181  28.697  31.319  1.00  0.00     0.049 A 
ATOM     52  C   UNL A   1      40.629  32.055  35.772  1.00  0.00     0.074 A 
ATOM     53  C   UNL A   1      42.226  27.790  31.349  1.00  0.00     0.029 A 
ATOM     54  N   UNL A   1      41.231  29.404  32.512  1.00  0.00    -0.354 N 
ATOM     55  N   UNL A   1      40.891  31.214  34.801  1.00  0.00    -0.248 NA
ATOM     56  C   UNL A   1      41.515  31.922  36.936  1.00  0.00     0.031 C 
ATOM     57  C   UNL A   1      42.885  27.923  32.576  1.00  0.00     0.029 A 
ATOM     58  C   UNL A   1      42.278  28.942  33.292  1.00  0.00     0.049 A 
ATOM     59  H   UNL A   1      40.612  30.126  32.766  1.00  0.00     0.167 HD
ATOM     60  C   UNL A   1      41.984  30.470  35.225  1.00  0.00     0.074 A 
ATOM     61  C   UNL A   1      42.348  30.974  36.533  1.00  0.00     0.031 C 
ATOM     62  C   UNL A   1      42.627  29.459  34.590  1.00  0.00     0.037 A 
BRANCH  49  63
ATOM     63  C   UNL A   1      40.238  28.017  29.077  1.00  0.00     0.064 A 
ATOM     64  C   UNL A   1      39.532  26.805  29.041  1.00  0.00     0.173 A 
ATOM     65  C   UNL A   1      40.965  28.386  27.935  1.00  0.00     0.173 A 
ATOM     66  F   UNL A   1      38.833  26.398  30.113  1.00  0.00    -0.203 F 
ATOM     67  C   UNL A   1      39.579  25.980  27.921  1.00  0.00     0.198 A 
ATOM     68  C   UNL A   1      40.984  27.573  26.804  1.00  0.00     0.198 A 
ATOM     69  F   UNL A   1      41.654  29.536  27.914  1.00  0.00    -0.203 F 
ATOM     70  F   UNL A   1      38.940  24.801  27.932  1.00  0.00    -0.200 F 
ATOM     71  C   UNL A   1      40.299  26.368  26.801  1.00  0.00     0.200 A 
ATOM     72  F   UNL A   1      41.672  27.954  25.719  1.00  0.00    -0.200 F 
ATOM     73  F   UNL A   1      40.340  25.574  25.722  1.00  0.00    -0.200 F 
ENDBRANCH  49  63
BRANCH  50  74
ATOM     74  C   UNL A   1      39.447  33.990  37.044  1.00  0.00     0.064 A 
ATOM     75  C   UNL A   1      38.710  33.574  38.163  1.00  0.00     0.173 A 
ATOM     76  C   UNL A   1      40.054  35.253  37.095  1.00  0.00     0.173 A 
ATOM     77  F   UNL A   1      38.095  32.382  38.152  1.00  0.00    -0.203 F 
ATOM     78  C   UNL A   1      38.568  34.396  39.278  1.00  0.00     0.198 A 
ATOM     79  C   UNL A   1      39.932  36.064  38.222  1.00  0.00     0.198 A 
ATOM     80  F   UNL A   1      40.774  35.695  36.054  1.00  0.00    -0.203 F 
ATOM     81  F   UNL A   1      37.820  33.992  40.314  1.00  0.00    -0.200 F 
ATOM     82  C   UNL A   1      39.183  35.639  39.309  1.00  0.00     0.200 A 
ATOM     83  F   UNL A   1      40.539  37.258  38.255  1.00  0.00    -0.200 F 
ATOM     84  F   UNL A   1      39.047  36.428  40.382  1.00  0.00    -0.200 F 
ENDBRANCH  50  74
BRANCH  62  85
ATOM     85  C   UNL A   1      43.804  28.850  35.294  1.00  0.00     0.064 A 
ATOM     86  C   UNL A   1      45.111  29.308  35.068  1.00  0.00     0.173 A 
ATOM     87  C   UNL A   1      43.619  27.819  36.226  1.00  0.00     0.173 A 
ATOM     88  F   UNL A   1      45.340  30.282  34.175  1.00  0.00    -0.203 F 
ATOM     89  C   UNL A   1      46.192  28.733  35.729  1.00  0.00     0.198 A 
ATOM     90  C   UNL A   1      44.700  27.267  36.906  1.00  0.00     0.198 A 
ATOM     91  F   UNL A   1      42.388  27.351  36.483  1.00  0.00    -0.203 F 
ATOM     92  F   UNL A   1      47.438  29.151  35.460  1.00  0.00    -0.200 F 
ATOM     93  C   UNL A   1      45.987  27.718  36.651  1.00  0.00     0.200 A 
ATOM     94  F   UNL A   1      44.499  26.294  37.806  1.00  0.00    -0.200 F 
ATOM     95  F   UNL A   1      47.029  27.168  37.289  1.00  0.00    -0.200 F 
ENDBRANCH  62  85
ENDBRANCH  36  37
ENDBRANCH  28  31
ENDBRANCH  26  27
ENDBRANCH  25  26
ENDBRANCH  24  25
ENDBRANCH   1  24
TORSDOF 15
ENDMDL
MODEL 3
REMARK VINA RESULT:     -10.2      4.163     11.188
REMARK SMILES CCOc1cccc(-c2ccc([C@@H](C)C(=O)NCCCCNC(=O)c3ccc(-c4c5nc(c(-c6c(F)c(F)c(F)c(F)c6F)c6ccc([nH]6)c(-c6c(F)c(F)c(F)c(F)c6F)c6nc(c(-c7c(F)c(F)c(F)c(F)c7F)c7ccc4[nH]7)C=C6)C=C5)cc3)cc2F)c1
REMARK SMILES IDX 18 1 17 2 15 3 16 4 13 6 14 7 12 8 9 9 10 10 89 11 11 12
REMARK SMILES IDX 88 13 90 14 8 15 4 16 5 17 91 18 6 19 7 20 3 21 2 22 1 23
REMARK SMILES IDX 19 24 20 25 21 26 22 27 23 28 24 30 25 31 26 32 87 33 27 34
REMARK SMILES IDX 86 35 28 36 29 37 30 38 80 39 31 40 85 41 79 42 81 43 32 44
REMARK SMILES IDX 84 45 78 46 77 47 33 49 65 50 45 51 64 52 46 53 49 54 63 55
REMARK SMILES IDX 82 56 47 57 48 58 62 60 83 61 50 62 34 63 35 64 43 65 36 66
REMARK SMILES IDX 37 67 41 68 44 69 38 70 39 71 42 72 40 73 66 74 67 75 75 76
REMARK SMILES IDX 68 77 69 78 73 79 76 80 70 81 71 82 74 83 72 84 51 85 52 86
REMARK SMILES IDX 60 87 53 88 54 89 58 90 61 91 55 92 56 93 59 94 57 95
REMARK H PARENT 17 5 22 29 81 48 49 59
REMARK Flexibility Score: inf
ROOT
ATOM      1  C   UNL A   1      42.124  19.350  26.274  1.00  0.00     0.116 C 
ENDROOT
BRANCH   1   2
ATOM      2  N   UNL A   1      43.437  18.743  26.249  1.00  0.00    -0.356 N 
ATOM      3  C   UNL A   1      44.443  18.816  25.336  1.00  0.00     0.227 C 
ATOM      4  O   UNL A   1      45.428  18.098  25.548  1.00  0.00    -0.274 OA
ATOM      5  H   UNL A   1      43.638  18.179  27.031  1.00  0.00     0.163 HD
BRANCH   3   6
ATOM      6  C   UNL A   1      44.413  19.729  24.098  1.00  0.00     0.105 C 
ATOM      7  C   UNL A   1      45.023  19.104  22.846  1.00  0.00     0.023 C 
BRANCH   6   8
ATOM      8  C   UNL A   1      44.816  21.164  24.393  1.00  0.00    -0.033 A 
ATOM      9  C   UNL A   1      45.493  23.832  25.215  1.00  0.00     0.018 A 
ATOM     10  C   UNL A   1      46.470  22.913  24.795  1.00  0.00     0.012 A 
ATOM     11  C   UNL A   1      44.162  23.390  25.132  1.00  0.00     0.131 A 
ATOM     12  C   UNL A   1      46.136  21.621  24.358  1.00  0.00     0.005 A 
ATOM     13  C   UNL A   1      43.828  22.084  24.761  1.00  0.00     0.044 A 
ATOM     14  F   UNL A   1      43.141  24.213  25.420  1.00  0.00    -0.206 F 
BRANCH   9  15
ATOM     15  C   UNL A   1      45.867  25.164  25.761  1.00  0.00    -0.012 A 
ATOM     16  C   UNL A   1      45.319  27.519  26.172  1.00  0.00     0.119 A 
ATOM     17  C   UNL A   1      46.517  27.709  26.846  1.00  0.00     0.046 A 
ATOM     18  C   UNL A   1      45.009  26.272  25.627  1.00  0.00     0.055 A 
ATOM     19  C   UNL A   1      47.391  26.636  27.000  1.00  0.00     0.004 A 
ATOM     20  C   UNL A   1      47.070  25.383  26.460  1.00  0.00     0.009 A 
BRANCH  16  21
ATOM     21  O   UNL A   1      44.519  28.604  25.944  1.00  0.00    -0.494 OA
BRANCH  21  22
ATOM     22  C   UNL A   1      44.693  29.648  26.910  1.00  0.00     0.226 C 
ATOM     23  C   UNL A   1      43.513  30.610  26.931  1.00  0.00     0.049 C 
ENDBRANCH  21  22
ENDBRANCH  16  21
ENDBRANCH   9  15
ENDBRANCH   6   8
ENDBRANCH   3   6
ENDBRANCH   1   2
BRANCH   1  24
ATOM     24  C   UNL A   1      41.828  20.016  27.618  1.00  0.00     0.023 C 
BRANCH  24  25
ATOM     25  C   UNL A   1      40.798  21.142  27.566  1.00  0.00     0.023 C 
BRANCH  25  26
ATOM     26  C   UNL A   1      40.817  21.983  26.295  1.00  0.00     0.116 C 
BRANCH  26  27
ATOM     27  N   UNL A   1      39.495  22.326  25.790  1.00  0.00    -0.352 N 
ATOM     28  C   UNL A   1      38.776  23.481  25.993  1.00  0.00     0.251 C 
ATOM     29  H   UNL A   1      39.060  21.643  25.231  1.00  0.00     0.163 HD
ATOM     30  O   UNL A   1      37.638  23.591  25.560  1.00  0.00    -0.269 OA
BRANCH  28  31
ATOM     31  C   UNL A   1      39.379  24.573  26.786  1.00  0.00     0.039 A 
ATOM     32  C   UNL A   1      40.128  25.549  26.125  1.00  0.00     0.014 A 
ATOM     33  C   UNL A   1      39.163  24.661  28.163  1.00  0.00     0.014 A 
ATOM     34  C   UNL A   1      40.597  26.656  26.836  1.00  0.00     0.010 A 
ATOM     35  C   UNL A   1      39.560  25.801  28.852  1.00  0.00     0.010 A 
ATOM     36  C   UNL A   1      40.282  26.809  28.196  1.00  0.00    -0.014 A 
BRANCH  36  37
ATOM     37  C   UNL A   1      40.702  28.017  28.947  1.00  0.00     0.031 A 
ATOM     38  C   UNL A   1      42.116  28.144  29.440  1.00  0.00     0.074 A 
ATOM     39  C   UNL A   1      39.795  28.969  29.240  1.00  0.00     0.049 A 
ATOM     40  N   UNL A   1      42.664  29.100  30.148  1.00  0.00    -0.248 NA
ATOM     41  C   UNL A   1      43.028  27.033  29.126  1.00  0.00     0.031 C 
ATOM     42  C   UNL A   1      38.377  28.927  28.877  1.00  0.00     0.029 A 
ATOM     43  N   UNL A   1      39.928  30.155  29.917  1.00  0.00    -0.354 N 
ATOM     44  C   UNL A   1      43.974  28.698  30.373  1.00  0.00     0.074 A 
ATOM     45  C   UNL A   1      44.123  27.387  29.782  1.00  0.00     0.031 C 
ATOM     46  C   UNL A   1      37.780  30.050  29.307  1.00  0.00     0.029 A 
ATOM     47  C   UNL A   1      38.763  30.876  30.001  1.00  0.00     0.049 A 
ATOM     48  H   UNL A   1      40.780  30.460  30.306  1.00  0.00     0.167 HD
ATOM     49  C   UNL A   1      44.970  29.375  30.991  1.00  0.00     0.037 A 
ATOM     50  C   UNL A   1      38.518  32.072  30.570  1.00  0.00     0.037 A 
ATOM     51  C   UNL A   1      44.827  30.693  31.547  1.00  0.00     0.049 A 
ATOM     52  C   UNL A   1      39.650  32.814  31.226  1.00  0.00     0.074 A 
ATOM     53  C   UNL A   1      45.793  31.494  32.132  1.00  0.00     0.029 A 
ATOM     54  N   UNL A   1      43.638  31.408  31.586  1.00  0.00    -0.354 N 
ATOM     55  N   UNL A   1      40.905  32.460  31.362  1.00  0.00    -0.248 NA
ATOM     56  C   UNL A   1      39.332  34.129  31.801  1.00  0.00     0.031 C 
ATOM     57  C   UNL A   1      45.180  32.677  32.559  1.00  0.00     0.029 A 
ATOM     58  C   UNL A   1      43.842  32.633  32.201  1.00  0.00     0.049 A 
ATOM     59  H   UNL A   1      42.777  31.090  31.230  1.00  0.00     0.167 HD
ATOM     60  C   UNL A   1      41.531  33.515  32.013  1.00  0.00     0.074 A 
ATOM     61  C   UNL A   1      40.520  34.531  32.227  1.00  0.00     0.031 C 
ATOM     62  C   UNL A   1      42.824  33.631  32.402  1.00  0.00     0.037 A 
BRANCH  49  63
ATOM     63  C   UNL A   1      46.309  28.701  31.083  1.00  0.00     0.064 A 
ATOM     64  C   UNL A   1      46.581  27.744  32.072  1.00  0.00     0.173 A 
ATOM     65  C   UNL A   1      47.323  28.999  30.161  1.00  0.00     0.173 A 
ATOM     66  F   UNL A   1      45.650  27.434  32.987  1.00  0.00    -0.203 F 
ATOM     67  C   UNL A   1      47.830  27.134  32.156  1.00  0.00     0.198 A 
ATOM     68  C   UNL A   1      48.561  28.364  30.229  1.00  0.00     0.198 A 
ATOM     69  F   UNL A   1      47.115  29.904  29.194  1.00  0.00    -0.203 F 
ATOM     70  F   UNL A   1      48.084  26.263  33.142  1.00  0.00    -0.200 F 
ATOM     71  C   UNL A   1      48.816  27.440  31.230  1.00  0.00     0.200 A 
ATOM     72  F   UNL A   1      49.510  28.653  29.328  1.00  0.00    -0.200 F 
ATOM     73  F   UNL A   1      50.017  26.849  31.309  1.00  0.00    -0.200 F 
ENDBRANCH  49  63
BRANCH  50  74
ATOM     74  C   UNL A   1      37.156  32.661  30.505  1.00  0.00     0.064 A 
ATOM     75  C   UNL A   1      36.771  33.462  29.420  1.00  0.00     0.173 A 
ATOM     76  C   UNL A   1      36.216  32.445  31.523  1.00  0.00     0.173 A 
ATOM     77  F   UNL A   1      37.643  33.713  28.432  1.00  0.00    -0.203 F 
ATOM     78  C   UNL A   1      35.505  34.041  29.366  1.00  0.00     0.198 A 
ATOM     79  C   UNL A   1      34.941  33.004  31.455  1.00  0.00     0.198 A 
ATOM     80  F   UNL A   1      36.533  31.683  32.580  1.00  0.00    -0.203 F 
ATOM     81  F   UNL A   1      35.180  34.839  28.339  1.00  0.00    -0.200 F 
ATOM     82  C   UNL A   1      34.590  33.808  30.381  1.00  0.00     0.200 A 
ATOM     83  F   UNL A   1      34.055  32.766  32.430  1.00  0.00    -0.200 F 
ATOM     84  F   UNL A   1      33.373  34.364  30.327  1.00  0.00    -0.200 F 
ENDBRANCH  50  74
BRANCH  62  85
ATOM     85  C   UNL A   1      43.222  34.912  33.074  1.00  0.00     0.064 A 
ATOM     86  C   UNL A   1      43.240  35.032  34.472  1.00  0.00     0.173 A 
ATOM     87  C   UNL A   1      43.619  36.021  32.313  1.00  0.00     0.173 A 
ATOM     88  F   UNL A   1      42.855  34.005  35.243  1.00  0.00    -0.203 F 
ATOM     89  C   UNL A   1      43.613  36.228  35.080  1.00  0.00     0.198 A 
ATOM     90  C   UNL A   1      44.019  37.204  32.926  1.00  0.00     0.198 A 
ATOM     91  F   UNL A   1      43.626  35.954  30.972  1.00  0.00    -0.203 F 
ATOM     92  F   UNL A   1      43.573  36.337  36.416  1.00  0.00    -0.200 F 
ATOM     93  C   UNL A   1      44.007  37.310  34.309  1.00  0.00     0.200 A 
ATOM     94  F   UNL A   1      44.412  38.246  32.179  1.00  0.00    -0.200 F 
ATOM     95  F   UNL A   1      44.369  38.458  34.897  1.00  0.00    -0.200 F 
ENDBRANCH  62  85
ENDBRANCH  36  37
ENDBRANCH  28  31
ENDBRANCH  26  27
ENDBRANCH  25  26
ENDBRANCH  24  25
ENDBRANCH   1  24
TORSDOF 15
ENDMDL
