MODEL 1
REMARK VINA RESULT:     -14.9      0.000      0.000
REMARK SMILES CC1(C)OC(=O)C(=CNc2ccccc2C(=O)NCCCCNC(=O)c2ccc(-c3c4nc(c(-c5c(F)c(F)c(F)c(F)c5F)c5ccc([nH]5)c(-c5c(F)c(F)c(F)c(F)c5F)c5nc(c(-c6c(F)c(F)c(F)c(F)c6F)c6ccc3[nH]6)C=C5)C=C4)cc2)C(=O)O1
REMARK SMILES IDX 20 1 19 2 18 3 16 4 17 5 15 7 10 8 11 9 12 10 14 11 13 12
REMARK SMILES IDX 9 13 8 15 1 16 2 17 3 18 4 19 91 20 5 21 89 22 6 23 7 24
REMARK SMILES IDX 90 25 21 26 22 27 23 28 24 29 25 31 26 32 27 33 88 34 28 35
REMARK SMILES IDX 87 36 29 37 30 38 31 39 81 40 32 41 86 42 80 43 82 44 33 45
REMARK SMILES IDX 85 46 79 47 78 48 34 50 66 51 46 52 65 53 47 54 50 55 64 56
REMARK SMILES IDX 83 57 48 58 49 59 63 61 84 62 51 63 35 64 36 65 44 66 37 67
REMARK SMILES IDX 38 68 42 69 45 70 39 71 40 72 43 73 41 74 67 75 68 76 76 77
REMARK SMILES IDX 69 78 70 79 74 80 77 81 71 82 72 83 75 84 73 85 52 86 53 87
REMARK SMILES IDX 61 88 54 89 55 90 59 91 62 92 56 93 57 94 60 95 58 96
REMARK H PARENT 18 6 9 14 23 30 82 49 50 60
REMARK Flexibility Score: inf
ROOT
ATOM      1  C   UNL A   1      31.034  27.204  26.083  1.00  0.00     0.023 C 
ENDROOT
BRANCH   1   2
ATOM      2  C   UNL A   1      30.645  25.823  25.563  1.00  0.00     0.116 C 
BRANCH   2   3
ATOM      3  N   UNL A   1      30.740  24.746  26.521  1.00  0.00    -0.352 N 
ATOM      4  C   UNL A   1      31.742  23.801  26.606  1.00  0.00     0.253 C 
ATOM      5  O   UNL A   1      31.671  22.904  27.441  1.00  0.00    -0.269 OA
ATOM      6  H   UNL A   1      30.014  24.679  27.182  1.00  0.00     0.163 HD
BRANCH   4   7
ATOM      7  C   UNL A   1      32.841  23.802  25.614  1.00  0.00     0.063 A 
ATOM      8  C   UNL A   1      32.954  22.889  24.545  1.00  0.00     0.051 A 
ATOM      9  C   UNL A   1      34.137  22.921  23.788  1.00  0.00     0.027 A 
ATOM     10  C   UNL A   1      35.159  23.836  24.064  1.00  0.00     0.002 A 
ATOM     11  C   UNL A   1      33.857  24.739  25.873  1.00  0.00     0.016 A 
ATOM     12  C   UNL A   1      35.015  24.751  25.100  1.00  0.00     0.001 A 
BRANCH   8  13
ATOM     13  N   UNL A   1      31.992  21.915  24.192  1.00  0.00    -0.360 N 
ATOM     14  H   UNL A   1      31.083  22.041  24.548  1.00  0.00     0.166 HD
BRANCH  13  15
ATOM     15  C   UNL A   1      32.200  20.811  23.402  1.00  0.00     0.106 C 
ATOM     16  C   UNL A   1      32.563  15.060  25.404  1.00  0.00     0.106 C 
ATOM     17  C   UNL A   1      33.491  16.231  24.974  1.00  0.00     0.252 C 
ATOM     18  C   UNL A   1      34.922  15.672  25.180  1.00  0.00     0.106 C 
ATOM     19  O   UNL A   1      33.114  16.605  23.211  1.00  0.00    -0.419 OA
ATOM     20  O   UNL A   1      33.405  17.718  26.078  1.00  0.00    -0.419 OA
ATOM     21  C   UNL A   1      32.694  18.171  22.592  1.00  0.00     0.350 C 
ATOM     22  C   UNL A   1      33.082  19.351  25.583  1.00  0.00     0.350 C 
ATOM     23  O   UNL A   1      32.241  18.263  21.455  1.00  0.00    -0.246 OA
ATOM     24  C   UNL A   1      32.742  19.644  23.774  1.00  0.00     0.161 C 
ATOM     25  O   UNL A   1      33.116  20.245  26.423  1.00  0.00    -0.246 OA
ENDBRANCH  13  15
ENDBRANCH   8  13
ENDBRANCH   4   7
ENDBRANCH   2   3
ENDBRANCH   1   2
BRANCH   1  26
ATOM     26  C   UNL A   1      31.529  28.319  25.146  1.00  0.00     0.023 C 
BRANCH  26  27
ATOM     27  C   UNL A   1      31.357  29.953  25.402  1.00  0.00     0.116 C 
BRANCH  27  28
ATOM     28  N   UNL A   1      32.225  31.204  26.763  1.00  0.00    -0.352 N 
ATOM     29  C   UNL A   1      33.337  31.921  27.375  1.00  0.00     0.251 C 
ATOM     30  H   UNL A   1      31.462  31.478  27.321  1.00  0.00     0.163 HD
ATOM     31  O   UNL A   1      33.005  32.936  27.997  1.00  0.00    -0.269 OA
BRANCH  29  32
ATOM     32  C   UNL A   1      34.724  31.405  27.661  1.00  0.00     0.039 A 
ATOM     33  C   UNL A   1      35.728  32.381  27.809  1.00  0.00     0.014 A 
ATOM     34  C   UNL A   1      35.093  30.074  27.819  1.00  0.00     0.014 A 
ATOM     35  C   UNL A   1      36.972  32.062  28.362  1.00  0.00     0.010 A 
ATOM     36  C   UNL A   1      36.318  29.747  28.412  1.00  0.00     0.010 A 
ATOM     37  C   UNL A   1      37.236  30.748  28.753  1.00  0.00    -0.014 A 
BRANCH  37  38
ATOM     38  C   UNL A   1      38.423  30.403  29.572  1.00  0.00     0.031 A 
ATOM     39  C   UNL A   1      39.457  29.455  29.050  1.00  0.00     0.074 A 
ATOM     40  C   UNL A   1      38.519  30.867  30.834  1.00  0.00     0.049 A 
ATOM     41  N   UNL A   1      40.445  28.879  29.685  1.00  0.00    -0.248 NA
ATOM     42  C   UNL A   1      39.357  29.098  27.628  1.00  0.00     0.031 C 
ATOM     43  C   UNL A   1      37.574  31.784  31.474  1.00  0.00     0.029 A 
ATOM     44  N   UNL A   1      39.445  30.611  31.814  1.00  0.00    -0.354 N 
ATOM     45  C   UNL A   1      41.053  28.049  28.757  1.00  0.00     0.074 A 
ATOM     46  C   UNL A   1      40.342  28.217  27.505  1.00  0.00     0.031 C 
ATOM     47  C   UNL A   1      37.971  32.017  32.736  1.00  0.00     0.029 A 
ATOM     48  C   UNL A   1      39.172  31.234  33.007  1.00  0.00     0.049 A 
ATOM     49  H   UNL A   1      40.231  30.033  31.674  1.00  0.00     0.167 HD
ATOM     50  C   UNL A   1      42.099  27.210  28.938  1.00  0.00     0.037 A 
ATOM     51  C   UNL A   1      39.803  31.160  34.193  1.00  0.00     0.037 A 
ATOM     52  C   UNL A   1      42.836  27.062  30.163  1.00  0.00     0.049 A 
ATOM     53  C   UNL A   1      40.991  30.256  34.352  1.00  0.00     0.074 A 
ATOM     54  C   UNL A   1      43.927  26.252  30.425  1.00  0.00     0.029 A 
ATOM     55  N   UNL A   1      42.560  27.752  31.331  1.00  0.00    -0.354 N 
ATOM     56  N   UNL A   1      41.545  29.462  33.472  1.00  0.00    -0.248 NA
ATOM     57  C   UNL A   1      41.627  30.226  35.678  1.00  0.00     0.031 C 
ATOM     58  C   UNL A   1      44.312  26.451  31.757  1.00  0.00     0.029 A 
ATOM     59  C   UNL A   1      43.463  27.391  32.318  1.00  0.00     0.049 A 
ATOM     60  H   UNL A   1      41.830  28.404  31.444  1.00  0.00     0.167 HD
ATOM     61  C   UNL A   1      42.596  28.841  34.130  1.00  0.00     0.074 A 
ATOM     62  C   UNL A   1      42.609  29.355  35.484  1.00  0.00     0.031 C 
ATOM     63  C   UNL A   1      43.468  27.923  33.653  1.00  0.00     0.037 A 
BRANCH  50  64
ATOM     64  C   UNL A   1      42.486  26.361  27.772  1.00  0.00     0.064 A 
ATOM     65  C   UNL A   1      41.900  25.108  27.556  1.00  0.00     0.173 A 
ATOM     66  C   UNL A   1      43.453  26.810  26.862  1.00  0.00     0.173 A 
ATOM     67  F   UNL A   1      40.983  24.635  28.413  1.00  0.00    -0.203 F 
ATOM     68  C   UNL A   1      42.280  24.324  26.471  1.00  0.00     0.198 A 
ATOM     69  C   UNL A   1      43.825  26.028  25.774  1.00  0.00     0.198 A 
ATOM     70  F   UNL A   1      44.043  28.002  27.037  1.00  0.00    -0.203 F 
ATOM     71  F   UNL A   1      41.728  23.115  26.293  1.00  0.00    -0.200 F 
ATOM     72  C   UNL A   1      43.240  24.785  25.580  1.00  0.00     0.200 A 
ATOM     73  F   UNL A   1      44.756  26.471  24.916  1.00  0.00    -0.200 F 
ATOM     74  F   UNL A   1      43.611  24.024  24.540  1.00  0.00    -0.200 F 
ENDBRANCH  50  64
BRANCH  51  75
ATOM     75  C   UNL A   1      39.315  31.961  35.340  1.00  0.00     0.064 A 
ATOM     76  C   UNL A   1      39.702  33.298  35.490  1.00  0.00     0.173 A 
ATOM     77  C   UNL A   1      38.470  31.404  36.309  1.00  0.00     0.173 A 
ATOM     78  F   UNL A   1      40.527  33.861  34.596  1.00  0.00    -0.203 F 
ATOM     79  C   UNL A   1      39.265  34.051  36.577  1.00  0.00     0.198 A 
ATOM     80  C   UNL A   1      38.026  32.162  37.389  1.00  0.00     0.198 A 
ATOM     81  F   UNL A   1      38.080  30.126  36.204  1.00  0.00    -0.203 F 
ATOM     82  F   UNL A   1      39.667  35.323  36.714  1.00  0.00    -0.200 F 
ATOM     83  C   UNL A   1      38.427  33.483  37.525  1.00  0.00     0.200 A 
ATOM     84  F   UNL A   1      37.214  31.613  38.303  1.00  0.00    -0.200 F 
ATOM     85  F   UNL A   1      38.009  34.208  38.572  1.00  0.00    -0.200 F 
ENDBRANCH  51  75
BRANCH  63  86
ATOM     86  C   UNL A   1      44.522  27.437  34.596  1.00  0.00     0.064 A 
ATOM     87  C   UNL A   1      45.743  28.112  34.725  1.00  0.00     0.173 A 
ATOM     88  C   UNL A   1      44.298  26.306  35.392  1.00  0.00     0.173 A 
ATOM     89  F   UNL A   1      46.003  29.188  33.968  1.00  0.00    -0.203 F 
ATOM     90  C   UNL A   1      46.710  27.666  35.621  1.00  0.00     0.198 A 
ATOM     91  C   UNL A   1      45.265  25.866  36.291  1.00  0.00     0.198 A 
ATOM     92  F   UNL A   1      43.147  25.626  35.290  1.00  0.00    -0.203 F 
ATOM     93  F   UNL A   1      47.879  28.312  35.721  1.00  0.00    -0.200 F 
ATOM     94  C   UNL A   1      46.468  26.547  36.405  1.00  0.00     0.200 A 
ATOM     95  F   UNL A   1      45.034  24.781  37.043  1.00  0.00    -0.200 F 
ATOM     96  F   UNL A   1      47.403  26.116  37.265  1.00  0.00    -0.200 F 
ENDBRANCH  63  86
ENDBRANCH  37  38
ENDBRANCH  29  32
ENDBRANCH  27  28
ENDBRANCH  26  27
ENDBRANCH   1  26
TORSDOF 13
ENDMDL
MODEL 2
REMARK VINA RESULT:     -14.8      2.946      8.776
REMARK SMILES CC1(C)OC(=O)C(=CNc2ccccc2C(=O)NCCCCNC(=O)c2ccc(-c3c4nc(c(-c5c(F)c(F)c(F)c(F)c5F)c5ccc([nH]5)c(-c5c(F)c(F)c(F)c(F)c5F)c5nc(c(-c6c(F)c(F)c(F)c(F)c6F)c6ccc3[nH]6)C=C5)C=C4)cc2)C(=O)O1
REMARK SMILES IDX 20 1 19 2 18 3 16 4 17 5 15 7 10 8 11 9 12 10 14 11 13 12
REMARK SMILES IDX 9 13 8 15 1 16 2 17 3 18 4 19 91 20 5 21 89 22 6 23 7 24
REMARK SMILES IDX 90 25 21 26 22 27 23 28 24 29 25 31 26 32 27 33 88 34 28 35
REMARK SMILES IDX 87 36 29 37 30 38 31 39 81 40 32 41 86 42 80 43 82 44 33 45
REMARK SMILES IDX 85 46 79 47 78 48 34 50 66 51 46 52 65 53 47 54 50 55 64 56
REMARK SMILES IDX 83 57 48 58 49 59 63 61 84 62 51 63 35 64 36 65 44 66 37 67
REMARK SMILES IDX 38 68 42 69 45 70 39 71 40 72 43 73 41 74 67 75 68 76 76 77
REMARK SMILES IDX 69 78 70 79 74 80 77 81 71 82 72 83 75 84 73 85 52 86 53 87
REMARK SMILES IDX 61 88 54 89 55 90 59 91 62 92 56 93 57 94 60 95 58 96
REMARK H PARENT 18 6 9 14 23 30 82 49 50 60
REMARK Flexibility Score: inf
ROOT
ATOM      1  C   UNL A   1      31.995  29.828  26.654  1.00  0.00     0.023 C 
ENDROOT
BRANCH   1   2
ATOM      2  C   UNL A   1      31.881  28.413  26.095  1.00  0.00     0.116 C 
BRANCH   2   3
ATOM      3  N   UNL A   1      32.891  28.040  25.132  1.00  0.00    -0.352 N 
ATOM      4  C   UNL A   1      33.108  26.782  24.608  1.00  0.00     0.253 C 
ATOM      5  O   UNL A   1      34.041  26.593  23.832  1.00  0.00    -0.269 OA
ATOM      6  H   UNL A   1      33.487  28.758  24.817  1.00  0.00     0.163 HD
BRANCH   4   7
ATOM      7  C   UNL A   1      32.289  25.640  25.071  1.00  0.00     0.063 A 
ATOM      8  C   UNL A   1      30.989  25.348  24.608  1.00  0.00     0.051 A 
ATOM      9  C   UNL A   1      30.282  24.324  25.261  1.00  0.00     0.027 A 
ATOM     10  C   UNL A   1      30.849  23.603  26.318  1.00  0.00     0.002 A 
ATOM     11  C   UNL A   1      32.866  24.896  26.115  1.00  0.00     0.016 A 
ATOM     12  C   UNL A   1      32.143  23.882  26.739  1.00  0.00     0.001 A 
BRANCH   8  13
ATOM     13  N   UNL A   1      30.319  26.024  23.563  1.00  0.00    -0.360 N 
ATOM     14  H   UNL A   1      30.711  25.947  22.662  1.00  0.00     0.166 HD
BRANCH  13  15
ATOM     15  C   UNL A   1      29.177  26.777  23.678  1.00  0.00     0.106 C 
ATOM     16  C   UNL A   1      27.918  31.793  20.443  1.00  0.00     0.106 C 
ATOM     17  C   UNL A   1      28.455  31.384  21.844  1.00  0.00     0.252 C 
ATOM     18  C   UNL A   1      28.757  32.736  22.539  1.00  0.00     0.106 C 
ATOM     19  O   UNL A   1      27.121  30.430  22.681  1.00  0.00    -0.419 OA
ATOM     20  O   UNL A   1      30.084  30.500  21.808  1.00  0.00    -0.419 OA
ATOM     21  C   UNL A   1      27.309  28.847  23.368  1.00  0.00     0.350 C 
ATOM     22  C   UNL A   1      30.435  28.959  22.526  1.00  0.00     0.350 C 
ATOM     23  O   UNL A   1      26.309  28.214  23.692  1.00  0.00    -0.246 OA
ATOM     24  C   UNL A   1      29.033  28.075  23.381  1.00  0.00     0.161 C 
ATOM     25  O   UNL A   1      31.581  28.524  22.472  1.00  0.00    -0.246 OA
ENDBRANCH  13  15
ENDBRANCH   8  13
ENDBRANCH   4   7
ENDBRANCH   2   3
ENDBRANCH   1   2
BRANCH   1  26
ATOM     26  C   UNL A   1      31.276  31.023  26.002  1.00  0.00     0.023 C 
BRANCH  26  27
ATOM     27  C   UNL A   1      31.345  32.601  26.523  1.00  0.00     0.116 C 
BRANCH  27  28
ATOM     28  N   UNL A   1      32.808  33.637  27.502  1.00  0.00    -0.352 N 
ATOM     29  C   UNL A   1      34.186  33.971  27.844  1.00  0.00     0.251 C 
ATOM     30  H   UNL A   1      32.292  34.266  28.056  1.00  0.00     0.163 HD
ATOM     31  O   UNL A   1      34.338  35.124  28.264  1.00  0.00    -0.269 OA
BRANCH  29  32
ATOM     32  C   UNL A   1      35.329  33.024  28.106  1.00  0.00     0.039 A 
ATOM     33  C   UNL A   1      36.561  33.619  28.432  1.00  0.00     0.014 A 
ATOM     34  C   UNL A   1      35.271  31.634  28.084  1.00  0.00     0.014 A 
ATOM     35  C   UNL A   1      37.605  32.868  28.981  1.00  0.00     0.010 A 
ATOM     36  C   UNL A   1      36.291  30.877  28.670  1.00  0.00     0.010 A 
ATOM     37  C   UNL A   1      37.434  31.497  29.188  1.00  0.00    -0.014 A 
BRANCH  37  38
ATOM     38  C   UNL A   1      38.395  30.706  29.994  1.00  0.00     0.031 A 
ATOM     39  C   UNL A   1      38.570  30.982  31.454  1.00  0.00     0.074 A 
ATOM     40  C   UNL A   1      39.187  29.801  29.385  1.00  0.00     0.049 A 
ATOM     41  N   UNL A   1      39.493  30.545  32.272  1.00  0.00    -0.248 NA
ATOM     42  C   UNL A   1      37.586  31.882  32.072  1.00  0.00     0.031 C 
ATOM     43  C   UNL A   1      39.133  29.445  27.965  1.00  0.00     0.029 A 
ATOM     44  N   UNL A   1      40.212  29.033  29.879  1.00  0.00    -0.354 N 
ATOM     45  C   UNL A   1      39.235  31.156  33.488  1.00  0.00     0.074 A 
ATOM     46  C   UNL A   1      38.051  31.973  33.311  1.00  0.00     0.031 C 
ATOM     47  C   UNL A   1      40.077  28.526  27.705  1.00  0.00     0.029 A 
ATOM     48  C   UNL A   1      40.830  28.260  28.926  1.00  0.00     0.049 A 
ATOM     49  H   UNL A   1      40.478  29.036  30.827  1.00  0.00     0.167 HD
ATOM     50  C   UNL A   1      39.932  31.057  34.644  1.00  0.00     0.037 A 
ATOM     51  C   UNL A   1      41.901  27.451  29.021  1.00  0.00     0.037 A 
ATOM     52  C   UNL A   1      41.085  30.221  34.843  1.00  0.00     0.049 A 
ATOM     53  C   UNL A   1      42.627  27.324  30.328  1.00  0.00     0.074 A 
ATOM     54  C   UNL A   1      41.836  30.042  35.991  1.00  0.00     0.029 A 
ATOM     55  N   UNL A   1      41.645  29.414  33.867  1.00  0.00    -0.354 N 
ATOM     56  N   UNL A   1      42.385  27.922  31.467  1.00  0.00    -0.248 NA
ATOM     57  C   UNL A   1      43.790  26.422  30.355  1.00  0.00     0.031 C 
ATOM     58  C   UNL A   1      42.857  29.124  35.708  1.00  0.00     0.029 A 
ATOM     59  C   UNL A   1      42.731  28.730  34.387  1.00  0.00     0.049 A 
ATOM     60  H   UNL A   1      41.319  29.337  32.941  1.00  0.00     0.167 HD
ATOM     61  C   UNL A   1      43.355  27.468  32.347  1.00  0.00     0.074 A 
ATOM     62  C   UNL A   1      44.190  26.539  31.614  1.00  0.00     0.031 C 
ATOM     63  C   UNL A   1      43.540  27.799  33.647  1.00  0.00     0.037 A 
BRANCH  50  64
ATOM     64  C   UNL A   1      39.471  31.909  35.780  1.00  0.00     0.064 A 
ATOM     65  C   UNL A   1      38.471  31.474  36.658  1.00  0.00     0.173 A 
ATOM     66  C   UNL A   1      40.037  33.174  35.989  1.00  0.00     0.173 A 
ATOM     67  F   UNL A   1      37.891  30.277  36.481  1.00  0.00    -0.203 F 
ATOM     68  C   UNL A   1      38.042  32.285  37.704  1.00  0.00     0.198 A 
ATOM     69  C   UNL A   1      39.613  33.979  37.040  1.00  0.00     0.198 A 
ATOM     70  F   UNL A   1      40.992  33.631  35.166  1.00  0.00    -0.203 F 
ATOM     71  F   UNL A   1      37.066  31.864  38.520  1.00  0.00    -0.200 F 
ATOM     72  C   UNL A   1      38.614  33.535  37.896  1.00  0.00     0.200 A 
ATOM     73  F   UNL A   1      40.161  35.189  37.222  1.00  0.00    -0.200 F 
ATOM     74  F   UNL A   1      38.195  34.319  38.899  1.00  0.00    -0.200 F 
ENDBRANCH  50  64
BRANCH  51  75
ATOM     75  C   UNL A   1      42.366  26.699  27.832  1.00  0.00     0.064 A 
ATOM     76  C   UNL A   1      41.877  25.413  27.567  1.00  0.00     0.173 A 
ATOM     77  C   UNL A   1      43.311  27.242  26.952  1.00  0.00     0.173 A 
ATOM     78  F   UNL A   1      40.988  24.851  28.398  1.00  0.00    -0.203 F 
ATOM     79  C   UNL A   1      42.326  24.692  26.464  1.00  0.00     0.198 A 
ATOM     80  C   UNL A   1      43.749  26.523  25.843  1.00  0.00     0.198 A 
ATOM     81  F   UNL A   1      43.806  28.468  27.172  1.00  0.00    -0.203 F 
ATOM     82  F   UNL A   1      41.862  23.453  26.243  1.00  0.00    -0.200 F 
ATOM     83  C   UNL A   1      43.260  25.247  25.602  1.00  0.00     0.200 A 
ATOM     84  F   UNL A   1      44.650  27.061  25.010  1.00  0.00    -0.200 F 
ATOM     85  F   UNL A   1      43.693  24.551  24.542  1.00  0.00    -0.200 F 
ENDBRANCH  51  75
BRANCH  63  86
ATOM     86  C   UNL A   1      44.671  27.132  34.361  1.00  0.00     0.064 A 
ATOM     87  C   UNL A   1      44.496  25.897  34.997  1.00  0.00     0.173 A 
ATOM     88  C   UNL A   1      45.943  27.721  34.386  1.00  0.00     0.173 A 
ATOM     89  F   UNL A   1      43.291  25.310  35.011  1.00  0.00    -0.203 F 
ATOM     90  C   UNL A   1      45.560  25.272  35.641  1.00  0.00     0.198 A 
ATOM     91  C   UNL A   1      47.005  27.091  35.026  1.00  0.00     0.198 A 
ATOM     92  F   UNL A   1      46.148  28.908  33.798  1.00  0.00    -0.203 F 
ATOM     93  F   UNL A   1      45.372  24.098  36.259  1.00  0.00    -0.200 F 
ATOM     94  C   UNL A   1      46.813  25.867  35.651  1.00  0.00     0.200 A 
ATOM     95  F   UNL A   1      48.214  27.669  35.042  1.00  0.00    -0.200 F 
ATOM     96  F   UNL A   1      47.836  25.266  36.275  1.00  0.00    -0.200 F 
ENDBRANCH  63  86
ENDBRANCH  37  38
ENDBRANCH  29  32
ENDBRANCH  27  28
ENDBRANCH  26  27
ENDBRANCH   1  26
TORSDOF 13
ENDMDL
MODEL 3
REMARK VINA RESULT:     -14.6      2.200      8.069
REMARK SMILES CC1(C)OC(=O)C(=CNc2ccccc2C(=O)NCCCCNC(=O)c2ccc(-c3c4nc(c(-c5c(F)c(F)c(F)c(F)c5F)c5ccc([nH]5)c(-c5c(F)c(F)c(F)c(F)c5F)c5nc(c(-c6c(F)c(F)c(F)c(F)c6F)c6ccc3[nH]6)C=C5)C=C4)cc2)C(=O)O1
REMARK SMILES IDX 20 1 19 2 18 3 16 4 17 5 15 7 10 8 11 9 12 10 14 11 13 12
REMARK SMILES IDX 9 13 8 15 1 16 2 17 3 18 4 19 91 20 5 21 89 22 6 23 7 24
REMARK SMILES IDX 90 25 21 26 22 27 23 28 24 29 25 31 26 32 27 33 88 34 28 35
REMARK SMILES IDX 87 36 29 37 30 38 31 39 81 40 32 41 86 42 80 43 82 44 33 45
REMARK SMILES IDX 85 46 79 47 78 48 34 50 66 51 46 52 65 53 47 54 50 55 64 56
REMARK SMILES IDX 83 57 48 58 49 59 63 61 84 62 51 63 35 64 36 65 44 66 37 67
REMARK SMILES IDX 38 68 42 69 45 70 39 71 40 72 43 73 41 74 67 75 68 76 76 77
REMARK SMILES IDX 69 78 70 79 74 80 77 81 71 82 72 83 75 84 73 85 52 86 53 87
REMARK SMILES IDX 61 88 54 89 55 90 59 91 62 92 56 93 57 94 60 95 58 96
REMARK H PARENT 18 6 9 14 23 30 82 49 50 60
REMARK Flexibility Score: inf
ROOT
ATOM      1  C   UNL A   1      32.218  30.155  26.603  1.00  0.00     0.023 C 
ENDROOT
BRANCH   1   2
ATOM      2  C   UNL A   1      32.107  28.781  25.948  1.00  0.00     0.116 C 
BRANCH   2   3
ATOM      3  N   UNL A   1      32.670  28.675  24.623  1.00  0.00    -0.352 N 
ATOM      4  C   UNL A   1      31.978  28.658  23.429  1.00  0.00     0.253 C 
ATOM      5  O   UNL A   1      32.582  28.509  22.371  1.00  0.00    -0.269 OA
ATOM      6  H   UNL A   1      33.651  28.607  24.564  1.00  0.00     0.163 HD
BRANCH   4   7
ATOM      7  C   UNL A   1      30.498  28.702  23.436  1.00  0.00     0.063 A 
ATOM      8  C   UNL A   1      29.665  27.566  23.371  1.00  0.00     0.051 A 
ATOM      9  C   UNL A   1      28.283  27.783  23.225  1.00  0.00     0.027 A 
ATOM     10  C   UNL A   1      27.747  29.075  23.169  1.00  0.00     0.002 A 
ATOM     11  C   UNL A   1      29.955  29.998  23.406  1.00  0.00     0.016 A 
ATOM     12  C   UNL A   1      28.581  30.182  23.268  1.00  0.00     0.001 A 
BRANCH   8  13
ATOM     13  N   UNL A   1      30.103  26.223  23.402  1.00  0.00    -0.360 N 
ATOM     14  H   UNL A   1      30.115  25.741  22.543  1.00  0.00     0.166 HD
BRANCH  13  15
ATOM     15  C   UNL A   1      30.513  25.523  24.509  1.00  0.00     0.106 C 
ATOM     16  C   UNL A   1      36.263  23.874  25.709  1.00  0.00     0.106 C 
ATOM     17  C   UNL A   1      34.949  23.275  25.132  1.00  0.00     0.252 C 
ATOM     18  C   UNL A   1      35.333  21.823  24.751  1.00  0.00     0.106 C 
ATOM     19  O   UNL A   1      33.682  23.356  26.465  1.00  0.00    -0.419 OA
ATOM     20  O   UNL A   1      34.394  24.046  23.539  1.00  0.00    -0.419 OA
ATOM     21  C   UNL A   1      32.115  24.087  26.310  1.00  0.00     0.350 C 
ATOM     22  C   UNL A   1      32.833  24.735  23.218  1.00  0.00     0.350 C 
ATOM     23  O   UNL A   1      31.447  24.288  27.318  1.00  0.00    -0.246 OA
ATOM     24  C   UNL A   1      31.599  24.747  24.616  1.00  0.00     0.161 C 
ATOM     25  O   UNL A   1      32.588  25.157  22.092  1.00  0.00    -0.246 OA
ENDBRANCH  13  15
ENDBRANCH   8  13
ENDBRANCH   4   7
ENDBRANCH   2   3
ENDBRANCH   1   2
BRANCH   1  26
ATOM     26  C   UNL A   1      31.201  31.275  26.326  1.00  0.00     0.023 C 
BRANCH  26  27
ATOM     27  C   UNL A   1      31.416  32.890  26.666  1.00  0.00     0.116 C 
BRANCH  27  28
ATOM     28  N   UNL A   1      32.954  33.886  27.566  1.00  0.00    -0.352 N 
ATOM     29  C   UNL A   1      34.356  34.166  27.856  1.00  0.00     0.251 C 
ATOM     30  H   UNL A   1      32.485  34.557  28.112  1.00  0.00     0.163 HD
ATOM     31  O   UNL A   1      34.574  35.323  28.231  1.00  0.00    -0.269 OA
BRANCH  29  32
ATOM     32  C   UNL A   1      35.461  33.175  28.118  1.00  0.00     0.039 A 
ATOM     33  C   UNL A   1      36.722  33.722  28.422  1.00  0.00     0.014 A 
ATOM     34  C   UNL A   1      35.344  31.789  28.116  1.00  0.00     0.014 A 
ATOM     35  C   UNL A   1      37.739  32.934  28.969  1.00  0.00     0.010 A 
ATOM     36  C   UNL A   1      36.339  30.997  28.701  1.00  0.00     0.010 A 
ATOM     37  C   UNL A   1      37.513  31.575  29.197  1.00  0.00    -0.014 A 
BRANCH  37  38
ATOM     38  C   UNL A   1      38.450  30.754  30.002  1.00  0.00     0.031 A 
ATOM     39  C   UNL A   1      38.616  31.010  31.467  1.00  0.00     0.074 A 
ATOM     40  C   UNL A   1      39.228  29.841  29.390  1.00  0.00     0.049 A 
ATOM     41  N   UNL A   1      39.522  30.544  32.288  1.00  0.00    -0.248 NA
ATOM     42  C   UNL A   1      37.645  31.922  32.086  1.00  0.00     0.031 C 
ATOM     43  C   UNL A   1      39.181  29.502  27.966  1.00  0.00     0.029 A 
ATOM     44  N   UNL A   1      40.232  29.045  29.884  1.00  0.00    -0.354 N 
ATOM     45  C   UNL A   1      39.265  31.146  33.509  1.00  0.00     0.074 A 
ATOM     46  C   UNL A   1      38.100  31.990  33.330  1.00  0.00     0.031 C 
ATOM     47  C   UNL A   1      40.109  28.567  27.703  1.00  0.00     0.029 A 
ATOM     48  C   UNL A   1      40.844  28.271  28.929  1.00  0.00     0.049 A 
ATOM     49  H   UNL A   1      40.490  29.032  30.835  1.00  0.00     0.167 HD
ATOM     50  C   UNL A   1      39.948  31.019  34.671  1.00  0.00     0.037 A 
ATOM     51  C   UNL A   1      41.897  27.439  29.024  1.00  0.00     0.037 A 
ATOM     52  C   UNL A   1      41.081  30.157  34.871  1.00  0.00     0.049 A 
ATOM     53  C   UNL A   1      42.607  27.281  30.337  1.00  0.00     0.074 A 
ATOM     54  C   UNL A   1      41.818  29.949  36.023  1.00  0.00     0.029 A 
ATOM     55  N   UNL A   1      41.634  29.350  33.891  1.00  0.00    -0.354 N 
ATOM     56  N   UNL A   1      42.366  27.871  31.480  1.00  0.00    -0.248 NA
ATOM     57  C   UNL A   1      43.751  26.356  30.364  1.00  0.00     0.031 C 
ATOM     58  C   UNL A   1      42.822  29.014  35.740  1.00  0.00     0.029 A 
ATOM     59  C   UNL A   1      42.701  28.637  34.412  1.00  0.00     0.049 A 
ATOM     60  H   UNL A   1      41.316  29.291  32.961  1.00  0.00     0.167 HD
ATOM     61  C   UNL A   1      43.319  27.387  32.364  1.00  0.00     0.074 A 
ATOM     62  C   UNL A   1      44.141  26.449  31.628  1.00  0.00     0.031 C 
ATOM     63  C   UNL A   1      43.497  27.699  33.669  1.00  0.00     0.037 A 
BRANCH  50  64
ATOM     64  C   UNL A   1      39.493  31.867  35.812  1.00  0.00     0.064 A 
ATOM     65  C   UNL A   1      38.467  31.449  36.668  1.00  0.00     0.173 A 
ATOM     66  C   UNL A   1      40.092  33.112  36.049  1.00  0.00     0.173 A 
ATOM     67  F   UNL A   1      37.856  30.272  36.463  1.00  0.00    -0.203 F 
ATOM     68  C   UNL A   1      38.045  32.257  37.719  1.00  0.00     0.198 A 
ATOM     69  C   UNL A   1      39.675  33.914  37.106  1.00  0.00     0.198 A 
ATOM     70  F   UNL A   1      41.074  33.553  35.249  1.00  0.00    -0.203 F 
ATOM     71  F   UNL A   1      37.044  31.852  38.513  1.00  0.00    -0.200 F 
ATOM     72  C   UNL A   1      38.650  33.486  37.939  1.00  0.00     0.200 A 
ATOM     73  F   UNL A   1      40.255  35.104  37.316  1.00  0.00    -0.200 F 
ATOM     74  F   UNL A   1      38.238  34.267  38.948  1.00  0.00    -0.200 F 
ENDBRANCH  50  64
BRANCH  51  75
ATOM     75  C   UNL A   1      42.357  26.692  27.831  1.00  0.00     0.064 A 
ATOM     76  C   UNL A   1      41.875  25.403  27.568  1.00  0.00     0.173 A 
ATOM     77  C   UNL A   1      43.293  27.241  26.945  1.00  0.00     0.173 A 
ATOM     78  F   UNL A   1      40.995  24.834  28.405  1.00  0.00    -0.203 F 
ATOM     79  C   UNL A   1      42.319  24.685  26.460  1.00  0.00     0.198 A 
ATOM     80  C   UNL A   1      43.728  26.526  25.832  1.00  0.00     0.198 A 
ATOM     81  F   UNL A   1      43.782  28.470  27.163  1.00  0.00    -0.203 F 
ATOM     82  F   UNL A   1      41.862  23.445  26.241  1.00  0.00    -0.200 F 
ATOM     83  C   UNL A   1      43.244  25.248  25.593  1.00  0.00     0.200 A 
ATOM     84  F   UNL A   1      44.619  27.071  24.993  1.00  0.00    -0.200 F 
ATOM     85  F   UNL A   1      43.674  24.556  24.529  1.00  0.00    -0.200 F 
ENDBRANCH  51  75
BRANCH  63  86
ATOM     86  C   UNL A   1      44.607  27.000  34.386  1.00  0.00     0.064 A 
ATOM     87  C   UNL A   1      44.405  25.752  34.989  1.00  0.00     0.173 A 
ATOM     88  C   UNL A   1      45.886  27.572  34.447  1.00  0.00     0.173 A 
ATOM     89  F   UNL A   1      43.193  25.181  34.968  1.00  0.00    -0.203 F 
ATOM     90  C   UNL A   1      45.450  25.098  35.636  1.00  0.00     0.198 A 
ATOM     91  C   UNL A   1      46.929  26.912  35.089  1.00  0.00     0.198 A 
ATOM     92  F   UNL A   1      46.116  28.770  33.892  1.00  0.00    -0.203 F 
ATOM     93  F   UNL A   1      45.237  23.913  36.222  1.00  0.00    -0.200 F 
ATOM     94  C   UNL A   1      46.711  25.677  35.682  1.00  0.00     0.200 A 
ATOM     95  F   UNL A   1      48.144  27.474  35.140  1.00  0.00    -0.200 F 
ATOM     96  F   UNL A   1      47.715  25.047  36.308  1.00  0.00    -0.200 F 
ENDBRANCH  63  86
ENDBRANCH  37  38
ENDBRANCH  29  32
ENDBRANCH  27  28
ENDBRANCH  26  27
ENDBRANCH   1  26
TORSDOF 13
ENDMDL
