MODEL 1
REMARK VINA RESULT:     -12.3      0.000      0.000
REMARK SMILES O=C(NCCCCNC(=O)[C@H]1CSC2(CCCCC2)[NH2+]1)c1ccc(-c2c3nc(c(-c4c(F)c(F)c(F)c(F)c4F)c4ccc([nH]4)c(-c4c(F)c(F)c(F)c(F)c4F)c4nc(c(-c5c(F)c(F)c(F)c(F)c5F)c5ccc2[nH]5)C=C4)C=C3)cc1
REMARK SMILES IDX 4 1 3 2 1 3 2 4 21 6 22 7 83 8 23 9 82 10 24 11 25 12 26 13
REMARK SMILES IDX 76 14 27 15 81 16 75 17 77 18 28 19 80 20 74 21 73 22 29 24
REMARK SMILES IDX 61 25 41 26 60 27 42 28 45 29 59 30 78 31 43 32 44 33 58 35
REMARK SMILES IDX 79 36 46 37 30 38 31 39 39 40 32 41 33 42 37 43 40 44 34 45
REMARK SMILES IDX 35 46 38 47 36 48 62 49 63 50 71 51 64 52 65 53 69 54 72 55
REMARK SMILES IDX 66 56 67 57 70 58 68 59 47 60 48 61 56 62 49 63 50 64 54 65
REMARK SMILES IDX 57 66 51 67 52 68 55 69 53 70 5 71 6 72 7 73 8 74 9 75 10 77
REMARK SMILES IDX 11 78 12 79 20 80 13 81 14 82 15 85 19 86 16 87 18 88 17 89
REMARK H PARENT 3 5 77 23 45 34 8 76 20 83 20 84
REMARK Flexibility Score: inf
ROOT
ATOM      1  C   UNL A   1      32.673  32.866  27.377  1.00  0.00     0.116 C 
ENDROOT
BRANCH   1   2
ATOM      2  N   UNL A   1      32.361  34.247  27.716  1.00  0.00    -0.352 N 
ATOM      3  O   UNL A   1      32.601  36.181  28.872  1.00  0.00    -0.269 OA
ATOM      4  C   UNL A   1      33.004  35.055  28.628  1.00  0.00     0.251 C 
ATOM      5  H   UNL A   1      31.602  34.651  27.237  1.00  0.00     0.163 HD
BRANCH   4   6
ATOM      6  C   UNL A   1      34.174  34.508  29.345  1.00  0.00     0.039 A 
ATOM      7  C   UNL A   1      35.453  34.632  28.797  1.00  0.00     0.014 A 
ATOM      8  C   UNL A   1      33.973  33.805  30.535  1.00  0.00     0.014 A 
ATOM      9  C   UNL A   1      36.508  33.930  29.363  1.00  0.00     0.010 A 
ATOM     10  C   UNL A   1      35.052  33.163  31.144  1.00  0.00     0.010 A 
ATOM     11  C   UNL A   1      36.320  33.190  30.542  1.00  0.00    -0.014 A 
BRANCH  11  12
ATOM     12  C   UNL A   1      37.477  32.495  31.151  1.00  0.00     0.031 A 
ATOM     13  C   UNL A   1      37.946  32.833  32.537  1.00  0.00     0.074 A 
ATOM     14  C   UNL A   1      38.083  31.523  30.444  1.00  0.00     0.049 A 
ATOM     15  N   UNL A   1      38.936  32.314  33.220  1.00  0.00    -0.248 NA
ATOM     16  C   UNL A   1      37.216  33.892  33.249  1.00  0.00     0.031 C 
ATOM     17  C   UNL A   1      37.713  31.120  29.086  1.00  0.00     0.029 A 
ATOM     18  N   UNL A   1      39.120  30.690  30.769  1.00  0.00    -0.354 N 
ATOM     19  C   UNL A   1      38.963  32.997  34.429  1.00  0.00     0.074 A 
ATOM     20  C   UNL A   1      37.900  33.979  34.383  1.00  0.00     0.031 C 
ATOM     21  C   UNL A   1      38.481  30.087  28.710  1.00  0.00     0.029 A 
ATOM     22  C   UNL A   1      39.435  29.797  29.775  1.00  0.00     0.049 A 
ATOM     23  H   UNL A   1      39.595  30.728  31.631  1.00  0.00     0.167 HD
ATOM     24  C   UNL A   1      39.799  32.814  35.479  1.00  0.00     0.037 A 
ATOM     25  C   UNL A   1      40.395  28.857  29.720  1.00  0.00     0.037 A 
ATOM     26  C   UNL A   1      40.840  31.819  35.524  1.00  0.00     0.049 A 
ATOM     27  C   UNL A   1      41.309  28.682  30.896  1.00  0.00     0.074 A 
ATOM     28  C   UNL A   1      41.715  31.529  36.558  1.00  0.00     0.029 A 
ATOM     29  N   UNL A   1      41.146  30.948  34.487  1.00  0.00    -0.354 N 
ATOM     30  N   UNL A   1      41.312  29.321  32.040  1.00  0.00    -0.248 NA
ATOM     31  C   UNL A   1      42.356  27.661  30.770  1.00  0.00     0.031 C 
ATOM     32  C   UNL A   1      42.574  30.510  36.132  1.00  0.00     0.029 A 
ATOM     33  C   UNL A   1      42.209  30.136  34.849  1.00  0.00     0.049 A 
ATOM     34  H   UNL A   1      40.677  30.914  33.622  1.00  0.00     0.167 HD
ATOM     35  C   UNL A   1      42.355  28.778  32.775  1.00  0.00     0.074 A 
ATOM     36  C   UNL A   1      42.947  27.740  31.955  1.00  0.00     0.031 C 
ATOM     37  C   UNL A   1      42.788  29.114  34.014  1.00  0.00     0.037 A 
BRANCH  24  38
ATOM     38  C   UNL A   1      39.641  33.719  36.665  1.00  0.00     0.064 A 
ATOM     39  C   UNL A   1      40.241  34.986  36.712  1.00  0.00     0.173 A 
ATOM     40  C   UNL A   1      38.831  33.336  37.746  1.00  0.00     0.173 A 
ATOM     41  F   UNL A   1      41.033  35.395  35.710  1.00  0.00    -0.203 F 
ATOM     42  C   UNL A   1      40.049  35.830  37.805  1.00  0.00     0.198 A 
ATOM     43  C   UNL A   1      38.623  34.191  38.826  1.00  0.00     0.198 A 
ATOM     44  F   UNL A   1      38.231  32.136  37.748  1.00  0.00    -0.203 F 
ATOM     45  F   UNL A   1      40.658  37.023  37.842  1.00  0.00    -0.200 F 
ATOM     46  C   UNL A   1      39.235  35.435  38.856  1.00  0.00     0.200 A 
ATOM     47  F   UNL A   1      37.828  33.812  39.836  1.00  0.00    -0.200 F 
ATOM     48  F   UNL A   1      39.044  36.252  39.901  1.00  0.00    -0.200 F 
ENDBRANCH  24  38
BRANCH  25  49
ATOM     49  C   UNL A   1      40.528  28.021  28.502  1.00  0.00     0.064 A 
ATOM     50  C   UNL A   1      41.311  28.442  27.420  1.00  0.00     0.173 A 
ATOM     51  C   UNL A   1      39.907  26.766  28.414  1.00  0.00     0.173 A 
ATOM     52  F   UNL A   1      41.907  29.642  27.454  1.00  0.00    -0.203 F 
ATOM     53  C   UNL A   1      41.463  27.641  26.291  1.00  0.00     0.198 A 
ATOM     54  C   UNL A   1      40.083  25.954  27.296  1.00  0.00     0.198 A 
ATOM     55  F   UNL A   1      39.154  26.316  29.428  1.00  0.00    -0.203 F 
ATOM     56  F   UNL A   1      42.194  28.078  25.257  1.00  0.00    -0.200 F 
ATOM     57  C   UNL A   1      40.857  26.395  26.234  1.00  0.00     0.200 A 
ATOM     58  F   UNL A   1      39.511  24.744  27.253  1.00  0.00    -0.200 F 
ATOM     59  F   UNL A   1      41.019  25.619  25.153  1.00  0.00    -0.200 F 
ENDBRANCH  25  49
BRANCH  37  60
ATOM     60  C   UNL A   1      43.952  28.342  34.555  1.00  0.00     0.064 A 
ATOM     61  C   UNL A   1      45.269  28.793  34.388  1.00  0.00     0.173 A 
ATOM     62  C   UNL A   1      43.747  27.150  35.266  1.00  0.00     0.173 A 
ATOM     63  F   UNL A   1      45.514  29.918  33.700  1.00  0.00    -0.203 F 
ATOM     64  C   UNL A   1      46.343  28.064  34.891  1.00  0.00     0.198 A 
ATOM     65  C   UNL A   1      44.822  26.437  35.789  1.00  0.00     0.198 A 
ATOM     66  F   UNL A   1      42.505  26.680  35.454  1.00  0.00    -0.203 F 
ATOM     67  F   UNL A   1      47.595  28.490  34.681  1.00  0.00    -0.200 F 
ATOM     68  C   UNL A   1      46.118  26.891  35.595  1.00  0.00     0.200 A 
ATOM     69  F   UNL A   1      44.604  25.307  36.475  1.00  0.00    -0.200 F 
ATOM     70  F   UNL A   1      47.153  26.191  36.080  1.00  0.00    -0.200 F 
ENDBRANCH  37  60
ENDBRANCH  11  12
ENDBRANCH   4   6
ENDBRANCH   1   2
BRANCH   1  71
ATOM     71  C   UNL A   1      31.554  32.131  26.648  1.00  0.00     0.023 C 
BRANCH  71  72
ATOM     72  C   UNL A   1      31.690  30.611  26.597  1.00  0.00     0.023 C 
BRANCH  72  73
ATOM     73  C   UNL A   1      33.085  30.099  26.249  1.00  0.00     0.116 C 
BRANCH  73  74
ATOM     74  N   UNL A   1      33.219  29.721  24.859  1.00  0.00    -0.351 N 
ATOM     75  C   UNL A   1      32.486  28.917  24.053  1.00  0.00     0.279 C 
ATOM     76  H   UNL A   1      33.995  30.129  24.412  1.00  0.00     0.163 HD
ATOM     77  O   UNL A   1      32.744  29.014  22.842  1.00  0.00    -0.268 OA
BRANCH  75  78
ATOM     78  C   UNL A   1      31.374  27.925  24.488  1.00  0.00     0.283 C 
ATOM     79  C   UNL A   1      30.757  26.907  23.555  1.00  0.00     0.151 C 
ATOM     80  N   UNL A   1      31.783  27.203  25.721  1.00  0.00    -0.322 N 
ATOM     81  S   UNL A   1      31.742  25.409  23.762  1.00  0.00    -0.089 SA
ATOM     82  C   UNL A   1      32.428  25.931  25.381  1.00  0.00     0.143 C 
ATOM     83  H   UNL A   1      30.958  27.020  26.292  1.00  0.00     0.348 HD
ATOM     84  H   UNL A   1      32.445  27.782  26.237  1.00  0.00     0.348 HD
ATOM     85  C   UNL A   1      33.964  26.074  25.335  1.00  0.00     0.081 C 
ATOM     86  C   UNL A   1      32.032  24.880  26.438  1.00  0.00     0.081 C 
ATOM     87  C   UNL A   1      34.701  24.742  25.171  1.00  0.00     0.007 C 
ATOM     88  C   UNL A   1      32.748  23.538  26.246  1.00  0.00     0.007 C 
ATOM     89  C   UNL A   1      34.263  23.710  26.206  1.00  0.00     0.001 C 
ENDBRANCH  75  78
ENDBRANCH  73  74
ENDBRANCH  72  73
ENDBRANCH  71  72
ENDBRANCH   1  71
TORSDOF 11
ENDMDL
MODEL 2
REMARK VINA RESULT:     -12.3      4.090      6.975
REMARK SMILES O=C(NCCCCNC(=O)[C@H]1CSC2(CCCCC2)[NH2+]1)c1ccc(-c2c3nc(c(-c4c(F)c(F)c(F)c(F)c4F)c4ccc([nH]4)c(-c4c(F)c(F)c(F)c(F)c4F)c4nc(c(-c5c(F)c(F)c(F)c(F)c5F)c5ccc2[nH]5)C=C4)C=C3)cc1
REMARK SMILES IDX 4 1 3 2 1 3 2 4 21 6 22 7 83 8 23 9 82 10 24 11 25 12 26 13
REMARK SMILES IDX 76 14 27 15 81 16 75 17 77 18 28 19 80 20 74 21 73 22 29 24
REMARK SMILES IDX 61 25 41 26 60 27 42 28 45 29 59 30 78 31 43 32 44 33 58 35
REMARK SMILES IDX 79 36 46 37 30 38 31 39 39 40 32 41 33 42 37 43 40 44 34 45
REMARK SMILES IDX 35 46 38 47 36 48 62 49 63 50 71 51 64 52 65 53 69 54 72 55
REMARK SMILES IDX 66 56 67 57 70 58 68 59 47 60 48 61 56 62 49 63 50 64 54 65
REMARK SMILES IDX 57 66 51 67 52 68 55 69 53 70 5 71 6 72 7 73 8 74 9 75 10 77
REMARK SMILES IDX 11 78 12 79 20 80 13 81 14 82 15 85 19 86 16 87 18 88 17 89
REMARK H PARENT 3 5 77 23 45 34 8 76 20 83 20 84
REMARK Flexibility Score: inf
ROOT
ATOM      1  C   UNL A   1      34.588  32.434  28.324  1.00  0.00     0.116 C 
ENDROOT
BRANCH   1   2
ATOM      2  N   UNL A   1      33.942  31.183  27.953  1.00  0.00    -0.352 N 
ATOM      3  O   UNL A   1      33.876  28.969  27.477  1.00  0.00    -0.269 OA
ATOM      4  C   UNL A   1      34.514  29.933  27.869  1.00  0.00     0.251 C 
ATOM      5  H   UNL A   1      32.983  31.238  27.737  1.00  0.00     0.163 HD
BRANCH   4   6
ATOM      6  C   UNL A   1      35.943  29.792  28.220  1.00  0.00     0.039 A 
ATOM      7  C   UNL A   1      36.927  30.048  27.263  1.00  0.00     0.014 A 
ATOM      8  C   UNL A   1      36.286  29.330  29.492  1.00  0.00     0.014 A 
ATOM      9  C   UNL A   1      38.245  29.704  27.531  1.00  0.00     0.010 A 
ATOM     10  C   UNL A   1      37.623  29.056  29.785  1.00  0.00     0.010 A 
ATOM     11  C   UNL A   1      38.607  29.207  28.794  1.00  0.00    -0.014 A 
BRANCH  11  12
ATOM     12  C   UNL A   1      40.030  28.898  29.069  1.00  0.00     0.031 A 
ATOM     13  C   UNL A   1      40.889  29.836  29.865  1.00  0.00     0.074 A 
ATOM     14  C   UNL A   1      40.530  27.735  28.614  1.00  0.00     0.049 A 
ATOM     15  N   UNL A   1      42.149  29.713  30.203  1.00  0.00    -0.248 NA
ATOM     16  C   UNL A   1      40.259  31.076  30.344  1.00  0.00     0.031 C 
ATOM     17  C   UNL A   1      39.784  26.754  27.823  1.00  0.00     0.029 A 
ATOM     18  N   UNL A   1      41.769  27.171  28.761  1.00  0.00    -0.354 N 
ATOM     19  C   UNL A   1      42.468  30.865  30.909  1.00  0.00     0.074 A 
ATOM     20  C   UNL A   1      41.275  31.685  30.942  1.00  0.00     0.031 C 
ATOM     21  C   UNL A   1      40.566  25.689  27.592  1.00  0.00     0.029 A 
ATOM     22  C   UNL A   1      41.883  25.940  28.166  1.00  0.00     0.049 A 
ATOM     23  H   UNL A   1      42.507  27.607  29.246  1.00  0.00     0.167 HD
ATOM     24  C   UNL A   1      43.650  31.200  31.480  1.00  0.00     0.037 A 
ATOM     25  C   UNL A   1      42.937  25.108  28.079  1.00  0.00     0.037 A 
ATOM     26  C   UNL A   1      44.826  30.367  31.461  1.00  0.00     0.049 A 
ATOM     27  C   UNL A   1      44.234  25.510  28.716  1.00  0.00     0.074 A 
ATOM     28  C   UNL A   1      46.061  30.601  32.043  1.00  0.00     0.029 A 
ATOM     29  N   UNL A   1      44.912  29.136  30.826  1.00  0.00    -0.354 N 
ATOM     30  N   UNL A   1      44.518  26.593  29.397  1.00  0.00    -0.248 NA
ATOM     31  C   UNL A   1      45.358  24.578  28.565  1.00  0.00     0.031 C 
ATOM     32  C   UNL A   1      46.904  29.530  31.727  1.00  0.00     0.029 A 
ATOM     33  C   UNL A   1      46.184  28.609  30.984  1.00  0.00     0.049 A 
ATOM     34  H   UNL A   1      44.177  28.702  30.335  1.00  0.00     0.167 HD
ATOM     35  C   UNL A   1      45.850  26.473  29.763  1.00  0.00     0.074 A 
ATOM     36  C   UNL A   1      46.311  25.199  29.247  1.00  0.00     0.031 C 
ATOM     37  C   UNL A   1      46.624  27.342  30.456  1.00  0.00     0.037 A 
BRANCH  24  38
ATOM     38  C   UNL A   1      43.746  32.534  32.160  1.00  0.00     0.064 A 
ATOM     39  C   UNL A   1      44.087  33.698  31.457  1.00  0.00     0.173 A 
ATOM     40  C   UNL A   1      43.436  32.658  33.524  1.00  0.00     0.173 A 
ATOM     41  F   UNL A   1      44.403  33.633  30.155  1.00  0.00    -0.203 F 
ATOM     42  C   UNL A   1      44.129  34.936  32.097  1.00  0.00     0.198 A 
ATOM     43  C   UNL A   1      43.458  33.899  34.155  1.00  0.00     0.198 A 
ATOM     44  F   UNL A   1      43.099  31.575  34.241  1.00  0.00    -0.203 F 
ATOM     45  F   UNL A   1      44.489  36.030  31.412  1.00  0.00    -0.200 F 
ATOM     46  C   UNL A   1      43.808  35.036  33.442  1.00  0.00     0.200 A 
ATOM     47  F   UNL A   1      43.137  33.995  35.452  1.00  0.00    -0.200 F 
ATOM     48  F   UNL A   1      43.840  36.228  34.054  1.00  0.00    -0.200 F 
ENDBRANCH  24  38
BRANCH  25  49
ATOM     49  C   UNL A   1      42.792  23.821  27.357  1.00  0.00     0.064 A 
ATOM     50  C   UNL A   1      43.170  23.702  26.013  1.00  0.00     0.173 A 
ATOM     51  C   UNL A   1      42.312  22.675  28.008  1.00  0.00     0.173 A 
ATOM     52  F   UNL A   1      43.617  24.775  25.347  1.00  0.00    -0.203 F 
ATOM     53  C   UNL A   1      43.066  22.484  25.345  1.00  0.00     0.198 A 
ATOM     54  C   UNL A   1      42.235  21.452  27.347  1.00  0.00     0.198 A 
ATOM     55  F   UNL A   1      41.946  22.738  29.297  1.00  0.00    -0.203 F 
ATOM     56  F   UNL A   1      43.407  22.402  24.053  1.00  0.00    -0.200 F 
ATOM     57  C   UNL A   1      42.608  21.359  26.015  1.00  0.00     0.200 A 
ATOM     58  F   UNL A   1      41.809  20.364  28.002  1.00  0.00    -0.200 F 
ATOM     59  F   UNL A   1      42.524  20.184  25.375  1.00  0.00    -0.200 F 
ENDBRANCH  25  49
BRANCH  37  60
ATOM     60  C   UNL A   1      48.044  26.935  30.702  1.00  0.00     0.064 A 
ATOM     61  C   UNL A   1      48.393  26.123  31.791  1.00  0.00     0.173 A 
ATOM     62  C   UNL A   1      49.063  27.344  29.831  1.00  0.00     0.173 A 
ATOM     63  F   UNL A   1      47.454  25.722  32.661  1.00  0.00    -0.203 F 
ATOM     64  C   UNL A   1      49.717  25.755  32.012  1.00  0.00     0.198 A 
ATOM     65  C   UNL A   1      50.382  26.954  30.041  1.00  0.00     0.198 A 
ATOM     66  F   UNL A   1      48.778  28.120  28.774  1.00  0.00    -0.203 F 
ATOM     67  F   UNL A   1      50.034  25.016  33.084  1.00  0.00    -0.200 F 
ATOM     68  C   UNL A   1      50.709  26.167  31.135  1.00  0.00     0.200 A 
ATOM     69  F   UNL A   1      51.340  27.346  29.189  1.00  0.00    -0.200 F 
ATOM     70  F   UNL A   1      51.983  25.810  31.349  1.00  0.00    -0.200 F 
ENDBRANCH  37  60
ENDBRANCH  11  12
ENDBRANCH   4   6
ENDBRANCH   1   2
BRANCH   1  71
ATOM     71  C   UNL A   1      33.685  33.658  28.234  1.00  0.00     0.023 C 
BRANCH  71  72
ATOM     72  C   UNL A   1      34.383  35.005  28.411  1.00  0.00     0.023 C 
BRANCH  72  73
ATOM     73  C   UNL A   1      33.635  36.009  29.283  1.00  0.00     0.116 C 
BRANCH  73  74
ATOM     74  N   UNL A   1      32.896  35.386  30.358  1.00  0.00    -0.351 N 
ATOM     75  C   UNL A   1      33.053  35.393  31.704  1.00  0.00     0.279 C 
ATOM     76  H   UNL A   1      32.128  34.852  30.052  1.00  0.00     0.163 HD
ATOM     77  O   UNL A   1      32.086  34.953  32.346  1.00  0.00    -0.268 OA
BRANCH  75  78
ATOM     78  C   UNL A   1      34.288  35.902  32.495  1.00  0.00     0.283 C 
ATOM     79  C   UNL A   1      34.403  35.816  34.000  1.00  0.00     0.151 C 
ATOM     80  N   UNL A   1      35.535  35.331  31.922  1.00  0.00    -0.322 N 
ATOM     81  S   UNL A   1      35.230  34.245  34.327  1.00  0.00    -0.089 SA
ATOM     82  C   UNL A   1      35.909  34.102  32.630  1.00  0.00     0.143 C 
ATOM     83  H   UNL A   1      36.289  36.014  32.012  1.00  0.00     0.348 HD
ATOM     84  H   UNL A   1      35.376  35.112  30.939  1.00  0.00     0.348 HD
ATOM     85  C   UNL A   1      35.378  32.850  31.901  1.00  0.00     0.081 C 
ATOM     86  C   UNL A   1      37.447  34.038  32.726  1.00  0.00     0.081 C 
ATOM     87  C   UNL A   1      35.894  31.533  32.485  1.00  0.00     0.007 C 
ATOM     88  C   UNL A   1      37.955  32.731  33.345  1.00  0.00     0.007 C 
ATOM     89  C   UNL A   1      37.415  31.512  32.604  1.00  0.00     0.001 C 
ENDBRANCH  75  78
ENDBRANCH  73  74
ENDBRANCH  72  73
ENDBRANCH  71  72
ENDBRANCH   1  71
TORSDOF 11
ENDMDL
MODEL 3
REMARK VINA RESULT:     -12.3      0.390      1.694
REMARK SMILES O=C(NCCCCNC(=O)[C@H]1CSC2(CCCCC2)[NH2+]1)c1ccc(-c2c3nc(c(-c4c(F)c(F)c(F)c(F)c4F)c4ccc([nH]4)c(-c4c(F)c(F)c(F)c(F)c4F)c4nc(c(-c5c(F)c(F)c(F)c(F)c5F)c5ccc2[nH]5)C=C4)C=C3)cc1
REMARK SMILES IDX 4 1 3 2 1 3 2 4 21 6 22 7 83 8 23 9 82 10 24 11 25 12 26 13
REMARK SMILES IDX 76 14 27 15 81 16 75 17 77 18 28 19 80 20 74 21 73 22 29 24
REMARK SMILES IDX 61 25 41 26 60 27 42 28 45 29 59 30 78 31 43 32 44 33 58 35
REMARK SMILES IDX 79 36 46 37 30 38 31 39 39 40 32 41 33 42 37 43 40 44 34 45
REMARK SMILES IDX 35 46 38 47 36 48 62 49 63 50 71 51 64 52 65 53 69 54 72 55
REMARK SMILES IDX 66 56 67 57 70 58 68 59 47 60 48 61 56 62 49 63 50 64 54 65
REMARK SMILES IDX 57 66 51 67 52 68 55 69 53 70 5 71 6 72 7 73 8 74 9 75 10 77
REMARK SMILES IDX 11 78 12 79 20 80 13 81 14 82 15 85 19 86 16 87 18 88 17 89
REMARK H PARENT 3 5 77 23 45 34 8 76 20 83 20 84
REMARK Flexibility Score: inf
ROOT
ATOM      1  C   UNL A   1      32.677  32.812  27.318  1.00  0.00     0.116 C 
ENDROOT
BRANCH   1   2
ATOM      2  N   UNL A   1      32.348  34.193  27.641  1.00  0.00    -0.352 N 
ATOM      3  O   UNL A   1      32.552  36.137  28.786  1.00  0.00    -0.269 OA
ATOM      4  C   UNL A   1      32.969  35.013  28.557  1.00  0.00     0.251 C 
ATOM      5  H   UNL A   1      31.593  34.587  27.147  1.00  0.00     0.163 HD
BRANCH   4   6
ATOM      6  C   UNL A   1      34.131  34.482  29.298  1.00  0.00     0.039 A 
ATOM      7  C   UNL A   1      35.417  34.609  28.769  1.00  0.00     0.014 A 
ATOM      8  C   UNL A   1      33.916  33.790  30.492  1.00  0.00     0.014 A 
ATOM      9  C   UNL A   1      36.468  33.920  29.358  1.00  0.00     0.010 A 
ATOM     10  C   UNL A   1      34.990  33.161  31.124  1.00  0.00     0.010 A 
ATOM     11  C   UNL A   1      36.267  33.192  30.541  1.00  0.00    -0.014 A 
BRANCH  11  12
ATOM     12  C   UNL A   1      37.420  32.511  31.176  1.00  0.00     0.031 A 
ATOM     13  C   UNL A   1      37.867  32.870  32.563  1.00  0.00     0.074 A 
ATOM     14  C   UNL A   1      38.040  31.533  30.490  1.00  0.00     0.049 A 
ATOM     15  N   UNL A   1      38.850  32.366  33.267  1.00  0.00    -0.248 NA
ATOM     16  C   UNL A   1      37.121  33.934  33.251  1.00  0.00     0.031 C 
ATOM     17  C   UNL A   1      37.691  31.110  29.133  1.00  0.00     0.029 A 
ATOM     18  N   UNL A   1      39.077  30.710  30.840  1.00  0.00    -0.354 N 
ATOM     19  C   UNL A   1      38.857  33.064  34.467  1.00  0.00     0.074 A 
ATOM     20  C   UNL A   1      37.789  34.039  34.393  1.00  0.00     0.031 C 
ATOM     21  C   UNL A   1      38.470  30.077  28.781  1.00  0.00     0.029 A 
ATOM     22  C   UNL A   1      39.410  29.806  29.863  1.00  0.00     0.049 A 
ATOM     23  H   UNL A   1      39.540  30.762  31.708  1.00  0.00     0.167 HD
ATOM     24  C   UNL A   1      39.679  32.900  35.531  1.00  0.00     0.037 A 
ATOM     25  C   UNL A   1      40.376  28.871  29.833  1.00  0.00     0.037 A 
ATOM     26  C   UNL A   1      40.725  31.911  35.603  1.00  0.00     0.049 A 
ATOM     27  C   UNL A   1      41.274  28.716  31.024  1.00  0.00     0.074 A 
ATOM     28  C   UNL A   1      41.587  31.640  36.653  1.00  0.00     0.029 A 
ATOM     29  N   UNL A   1      41.050  31.028  34.583  1.00  0.00    -0.354 N 
ATOM     30  N   UNL A   1      41.258  29.370  32.160  1.00  0.00    -0.248 NA
ATOM     31  C   UNL A   1      42.329  27.700  30.926  1.00  0.00     0.031 C 
ATOM     32  C   UNL A   1      42.457  30.620  36.252  1.00  0.00     0.029 A 
ATOM     33  C   UNL A   1      42.112  30.227  34.969  1.00  0.00     0.049 A 
ATOM     34  H   UNL A   1      40.593  30.980  33.712  1.00  0.00     0.167 HD
ATOM     35  C   UNL A   1      42.294  28.843  32.916  1.00  0.00     0.074 A 
ATOM     36  C   UNL A   1      42.903  27.797  32.118  1.00  0.00     0.031 C 
ATOM     37  C   UNL A   1      42.708  29.197  34.156  1.00  0.00     0.037 A 
BRANCH  24  38
ATOM     38  C   UNL A   1      39.500  33.820  36.703  1.00  0.00     0.064 A 
ATOM     39  C   UNL A   1      38.739  33.450  37.821  1.00  0.00     0.173 A 
ATOM     40  C   UNL A   1      40.146  35.066  36.730  1.00  0.00     0.173 A 
ATOM     41  F   UNL A   1      38.092  32.275  37.839  1.00  0.00    -0.203 F 
ATOM     42  C   UNL A   1      38.618  34.301  38.918  1.00  0.00     0.198 A 
ATOM     43  C   UNL A   1      40.041  35.904  37.838  1.00  0.00     0.198 A 
ATOM     44  F   UNL A   1      40.890  35.465  35.688  1.00  0.00    -0.203 F 
ATOM     45  F   UNL A   1      37.859  33.940  39.962  1.00  0.00    -0.200 F 
ATOM     46  C   UNL A   1      39.274  35.523  38.929  1.00  0.00     0.200 A 
ATOM     47  F   UNL A   1      40.684  37.079  37.850  1.00  0.00    -0.200 F 
ATOM     48  F   UNL A   1      39.164  36.335  39.989  1.00  0.00    -0.200 F 
ENDBRANCH  24  38
BRANCH  25  49
ATOM     49  C   UNL A   1      40.530  28.019  28.628  1.00  0.00     0.064 A 
ATOM     50  C   UNL A   1      39.876  26.785  28.529  1.00  0.00     0.173 A 
ATOM     51  C   UNL A   1      41.303  28.443  27.537  1.00  0.00     0.173 A 
ATOM     52  F   UNL A   1      39.142  26.333  29.555  1.00  0.00    -0.203 F 
ATOM     53  C   UNL A   1      39.994  26.002  27.383  1.00  0.00     0.198 A 
ATOM     54  C   UNL A   1      41.397  27.672  26.381  1.00  0.00     0.198 A 
ATOM     55  F   UNL A   1      41.941  29.621  27.582  1.00  0.00    -0.203 F 
ATOM     56  F   UNL A   1      39.382  24.812  27.323  1.00  0.00    -0.200 F 
ATOM     57  C   UNL A   1      40.747  26.450  26.307  1.00  0.00     0.200 A 
ATOM     58  F   UNL A   1      42.110  28.116  25.338  1.00  0.00    -0.200 F 
ATOM     59  F   UNL A   1      40.846  25.702  25.199  1.00  0.00    -0.200 F 
ENDBRANCH  25  49
BRANCH  37  60
ATOM     60  C   UNL A   1      43.868  28.439  34.724  1.00  0.00     0.064 A 
ATOM     61  C   UNL A   1      45.185  28.896  34.571  1.00  0.00     0.173 A 
ATOM     62  C   UNL A   1      43.660  27.254  35.445  1.00  0.00     0.173 A 
ATOM     63  F   UNL A   1      45.433  30.015  33.873  1.00  0.00    -0.203 F 
ATOM     64  C   UNL A   1      46.255  28.180  35.098  1.00  0.00     0.198 A 
ATOM     65  C   UNL A   1      44.731  26.554  35.992  1.00  0.00     0.198 A 
ATOM     66  F   UNL A   1      42.418  26.778  35.620  1.00  0.00    -0.203 F 
ATOM     67  F   UNL A   1      47.509  28.611  34.901  1.00  0.00    -0.200 F 
ATOM     68  C   UNL A   1      46.027  27.013  35.812  1.00  0.00     0.200 A 
ATOM     69  F   UNL A   1      44.510  25.430  36.688  1.00  0.00    -0.200 F 
ATOM     70  F   UNL A   1      47.059  26.326  36.321  1.00  0.00    -0.200 F 
ENDBRANCH  37  60
ENDBRANCH  11  12
ENDBRANCH   4   6
ENDBRANCH   1   2
BRANCH   1  71
ATOM     71  C   UNL A   1      31.489  31.975  26.861  1.00  0.00     0.023 C 
BRANCH  71  72
ATOM     72  C   UNL A   1      31.838  30.699  26.097  1.00  0.00     0.023 C 
BRANCH  72  73
ATOM     73  C   UNL A   1      33.208  30.109  26.420  1.00  0.00     0.116 C 
BRANCH  73  74
ATOM     74  N   UNL A   1      33.819  29.444  25.290  1.00  0.00    -0.351 N 
ATOM     75  C   UNL A   1      33.392  28.459  24.464  1.00  0.00     0.279 C 
ATOM     76  H   UNL A   1      34.723  29.773  25.080  1.00  0.00     0.163 HD
ATOM     77  O   UNL A   1      34.076  28.302  23.440  1.00  0.00    -0.268 OA
BRANCH  75  78
ATOM     78  C   UNL A   1      32.153  27.547  24.666  1.00  0.00     0.283 C 
ATOM     79  C   UNL A   1      31.594  26.653  23.581  1.00  0.00     0.151 C 
ATOM     80  N   UNL A   1      32.322  26.711  25.883  1.00  0.00    -0.322 N 
ATOM     81  S   UNL A   1      32.414  25.061  23.804  1.00  0.00    -0.089 SA
ATOM     82  C   UNL A   1      32.904  25.410  25.536  1.00  0.00     0.143 C 
ATOM     83  H   UNL A   1      31.412  26.567  26.321  1.00  0.00     0.348 HD
ATOM     84  H   UNL A   1      32.949  27.192  26.528  1.00  0.00     0.348 HD
ATOM     85  C   UNL A   1      34.437  25.416  25.711  1.00  0.00     0.081 C 
ATOM     86  C   UNL A   1      32.278  24.333  26.444  1.00  0.00     0.081 C 
ATOM     87  C   UNL A   1      35.080  24.036  25.546  1.00  0.00     0.007 C 
ATOM     88  C   UNL A   1      32.902  22.947  26.248  1.00  0.00     0.007 C 
ATOM     89  C   UNL A   1      34.416  22.983  26.428  1.00  0.00     0.001 C 
ENDBRANCH  75  78
ENDBRANCH  73  74
ENDBRANCH  72  73
ENDBRANCH  71  72
ENDBRANCH   1  71
TORSDOF 11
ENDMDL
