MODEL 1
REMARK VINA RESULT:     -11.1      0.000      0.000
REMARK SMILES C#CC[N@@H+](CC(=O)NCCCCNC(=O)c1ccc(-c2c3nc(c(-c4c(F)c(F)c(F)c(F)c4F)c4ccc([nH]4)c(-c4c(F)c(F)c(F)c(F)c4F)c4nc(c(-c5c(F)c(F)c(F)c(F)c5F)c5ccc2[nH]5)C=C4)C=C3)cc1)Cc1cn(CC)c2ccccc12
REMARK SMILES IDX 9 1 8 2 6 3 7 4 5 6 4 7 3 9 2 10 1 11 79 12 80 13 81 14
REMARK SMILES IDX 90 15 82 16 85 17 89 18 86 19 88 20 87 21 83 22 84 23 10 24
REMARK SMILES IDX 11 25 12 26 13 27 14 28 15 30 16 31 17 32 78 33 18 34 77 35
REMARK SMILES IDX 19 36 20 37 21 38 71 39 22 40 76 41 70 42 72 43 23 44 75 45
REMARK SMILES IDX 69 46 68 47 24 49 56 50 36 51 55 52 37 53 40 54 54 55 73 56
REMARK SMILES IDX 38 57 39 58 53 60 74 61 41 62 25 63 26 64 34 65 27 66 28 67
REMARK SMILES IDX 32 68 35 69 29 70 30 71 33 72 31 73 57 74 58 75 66 76 59 77
REMARK SMILES IDX 60 78 64 79 67 80 61 81 62 82 65 83 63 84 42 85 43 86 51 87
REMARK SMILES IDX 44 88 45 89 49 90 52 91 46 92 47 93 50 94 48 95
REMARK H PARENT 8 5 4 8 13 29 72 48 40 59
REMARK Flexibility Score: inf
ROOT
ATOM      1  C   UNL A   1      36.990  22.102  25.658  1.00  0.00     0.116 C 
ENDROOT
BRANCH   1   2
ATOM      2  N   UNL A   1      35.843  21.714  26.466  1.00  0.00    -0.351 N 
ATOM      3  C   UNL A   1      34.493  21.695  26.234  1.00  0.00     0.275 C 
ATOM      4  O   UNL A   1      33.815  21.212  27.146  1.00  0.00    -0.269 OA
ATOM      5  H   UNL A   1      36.088  21.401  27.367  1.00  0.00     0.163 HD
BRANCH   3   6
ATOM      6  C   UNL A   1      33.837  22.177  24.909  1.00  0.00     0.364 C 
BRANCH   6   7
ATOM      7  N   UNL A   1      33.405  23.627  24.841  1.00  0.00    -0.313 N 
ATOM      8  H   UNL A   1      32.391  23.678  24.751  1.00  0.00     0.349 HD
BRANCH   7   9
ATOM      9  C   UNL A   1      34.139  24.152  23.727  1.00  0.00     0.354 C 
BRANCH   9  10
ATOM     10  C   UNL A   1      33.764  25.425  22.986  1.00  0.00    -0.047 C 
ATOM     11  C   UNL A   1      33.442  26.518  22.351  1.00  0.00     0.010 C 
ENDBRANCH   9  10
ENDBRANCH   7   9
BRANCH   7  12
ATOM     12  C   UNL A   1      33.683  24.432  26.059  1.00  0.00     0.302 C 
BRANCH  12  13
ATOM     13  C   UNL A   1      32.628  25.466  26.207  1.00  0.00     0.032 A 
ATOM     14  C   UNL A   1      31.269  25.241  26.117  1.00  0.00     0.096 A 
ATOM     15  C   UNL A   1      32.823  26.874  26.195  1.00  0.00     0.008 A 
ATOM     16  N   UNL A   1      30.740  26.385  25.557  1.00  0.00    -0.347 N 
ATOM     17  C   UNL A   1      31.630  27.434  25.723  1.00  0.00     0.048 A 
ATOM     18  C   UNL A   1      33.967  27.684  26.341  1.00  0.00     0.011 A 
ATOM     19  C   UNL A   1      31.558  28.793  25.387  1.00  0.00     0.027 A 
ATOM     20  C   UNL A   1      33.895  29.038  26.026  1.00  0.00     0.001 A 
ATOM     21  C   UNL A   1      32.705  29.581  25.551  1.00  0.00     0.002 A 
BRANCH  16  22
ATOM     22  C   UNL A   1      29.698  26.296  24.543  1.00  0.00     0.119 C 
ATOM     23  C   UNL A   1      29.926  25.290  23.441  1.00  0.00     0.027 C 
ENDBRANCH  16  22
ENDBRANCH  12  13
ENDBRANCH   7  12
ENDBRANCH   6   7
ENDBRANCH   3   6
ENDBRANCH   1   2
BRANCH   1  24
ATOM     24  C   UNL A   1      37.306  21.099  24.518  1.00  0.00     0.023 C 
BRANCH  24  25
ATOM     25  C   UNL A   1      38.025  19.843  24.950  1.00  0.00     0.023 C 
BRANCH  25  26
ATOM     26  C   UNL A   1      39.077  20.132  25.977  1.00  0.00     0.116 C 
BRANCH  26  27
ATOM     27  N   UNL A   1      40.162  19.153  25.959  1.00  0.00    -0.352 N 
ATOM     28  C   UNL A   1      41.503  19.402  26.096  1.00  0.00     0.251 C 
ATOM     29  H   UNL A   1      39.900  18.212  25.835  1.00  0.00     0.163 HD
ATOM     30  O   UNL A   1      42.345  18.544  25.932  1.00  0.00    -0.269 OA
BRANCH  28  31
ATOM     31  C   UNL A   1      41.855  20.785  26.428  1.00  0.00     0.039 A 
ATOM     32  C   UNL A   1      42.293  21.080  27.715  1.00  0.00     0.014 A 
ATOM     33  C   UNL A   1      41.938  21.711  25.383  1.00  0.00     0.014 A 
ATOM     34  C   UNL A   1      42.837  22.333  27.953  1.00  0.00     0.010 A 
ATOM     35  C   UNL A   1      42.624  22.887  25.587  1.00  0.00     0.010 A 
ATOM     36  C   UNL A   1      43.018  23.232  26.886  1.00  0.00    -0.014 A 
BRANCH  36  37
ATOM     37  C   UNL A   1      43.495  24.605  27.124  1.00  0.00     0.031 A 
ATOM     38  C   UNL A   1      42.528  25.604  27.693  1.00  0.00     0.074 A 
ATOM     39  C   UNL A   1      44.755  24.939  26.799  1.00  0.00     0.049 A 
ATOM     40  N   UNL A   1      42.709  26.870  27.959  1.00  0.00    -0.248 NA
ATOM     41  C   UNL A   1      41.153  25.134  27.949  1.00  0.00     0.031 C 
ATOM     42  C   UNL A   1      45.736  24.053  26.165  1.00  0.00     0.029 A 
ATOM     43  N   UNL A   1      45.428  26.118  26.966  1.00  0.00    -0.354 N 
ATOM     44  C   UNL A   1      41.472  27.340  28.378  1.00  0.00     0.074 A 
ATOM     45  C   UNL A   1      40.527  26.259  28.248  1.00  0.00     0.031 C 
ATOM     46  C   UNL A   1      46.901  24.711  26.039  1.00  0.00     0.029 A 
ATOM     47  C   UNL A   1      46.737  26.063  26.562  1.00  0.00     0.049 A 
ATOM     48  H   UNL A   1      45.012  26.928  27.340  1.00  0.00     0.167 HD
ATOM     49  C   UNL A   1      41.163  28.556  28.879  1.00  0.00     0.037 A 
ATOM     50  C   UNL A   1      47.694  27.006  26.633  1.00  0.00     0.037 A 
ATOM     51  C   UNL A   1      42.136  29.594  29.068  1.00  0.00     0.049 A 
ATOM     52  C   UNL A   1      47.346  28.325  27.270  1.00  0.00     0.074 A 
ATOM     53  C   UNL A   1      41.969  30.844  29.629  1.00  0.00     0.029 A 
ATOM     54  N   UNL A   1      43.472  29.481  28.711  1.00  0.00    -0.354 N 
ATOM     55  N   UNL A   1      46.192  28.739  27.739  1.00  0.00    -0.248 NA
ATOM     56  C   UNL A   1      48.436  29.296  27.412  1.00  0.00     0.031 C 
ATOM     57  C   UNL A   1      43.202  31.504  29.583  1.00  0.00     0.029 A 
ATOM     58  C   UNL A   1      44.145  30.644  29.038  1.00  0.00     0.049 A 
ATOM     59  H   UNL A   1      43.881  28.692  28.289  1.00  0.00     0.167 HD
ATOM     60  C   UNL A   1      46.423  30.004  28.259  1.00  0.00     0.074 A 
ATOM     61  C   UNL A   1      47.833  30.278  28.065  1.00  0.00     0.031 C 
ATOM     62  C   UNL A   1      45.554  30.868  28.842  1.00  0.00     0.037 A 
BRANCH  49  63
ATOM     63  C   UNL A   1      39.736  28.804  29.270  1.00  0.00     0.064 A 
ATOM     64  C   UNL A   1      38.793  29.296  28.352  1.00  0.00     0.173 A 
ATOM     65  C   UNL A   1      39.304  28.548  30.579  1.00  0.00     0.173 A 
ATOM     66  F   UNL A   1      39.161  29.583  27.094  1.00  0.00    -0.203 F 
ATOM     67  C   UNL A   1      37.480  29.549  28.739  1.00  0.00     0.198 A 
ATOM     68  C   UNL A   1      37.981  28.770  30.953  1.00  0.00     0.198 A 
ATOM     69  F   UNL A   1      40.166  28.085  31.497  1.00  0.00    -0.203 F 
ATOM     70  F   UNL A   1      36.615  30.076  27.862  1.00  0.00    -0.200 F 
ATOM     71  C   UNL A   1      37.074  29.278  30.037  1.00  0.00     0.200 A 
ATOM     72  F   UNL A   1      37.588  28.502  32.206  1.00  0.00    -0.200 F 
ATOM     73  F   UNL A   1      35.808  29.517  30.407  1.00  0.00    -0.200 F 
ENDBRANCH  49  63
BRANCH  50  74
ATOM     74  C   UNL A   1      49.070  26.713  26.156  1.00  0.00     0.064 A 
ATOM     75  C   UNL A   1      49.457  27.013  24.842  1.00  0.00     0.173 A 
ATOM     76  C   UNL A   1      50.025  26.125  26.998  1.00  0.00     0.173 A 
ATOM     77  F   UNL A   1      48.579  27.568  23.996  1.00  0.00    -0.203 F 
ATOM     78  C   UNL A   1      50.736  26.706  24.379  1.00  0.00     0.198 A 
ATOM     79  C   UNL A   1      51.311  25.844  26.543  1.00  0.00     0.198 A 
ATOM     80  F   UNL A   1      49.710  25.833  28.269  1.00  0.00    -0.203 F 
ATOM     81  F   UNL A   1      51.062  26.957  23.104  1.00  0.00    -0.200 F 
ATOM     82  C   UNL A   1      51.662  26.124  25.231  1.00  0.00     0.200 A 
ATOM     83  F   UNL A   1      52.210  25.298  27.374  1.00  0.00    -0.200 F 
ATOM     84  F   UNL A   1      52.892  25.828  24.785  1.00  0.00    -0.200 F 
ENDBRANCH  50  74
BRANCH  62  85
ATOM     85  C   UNL A   1      46.120  32.160  29.347  1.00  0.00     0.064 A 
ATOM     86  C   UNL A   1      46.632  32.279  30.647  1.00  0.00     0.173 A 
ATOM     87  C   UNL A   1      46.179  33.281  28.507  1.00  0.00     0.173 A 
ATOM     88  F   UNL A   1      46.587  31.235  31.489  1.00  0.00    -0.203 F 
ATOM     89  C   UNL A   1      47.147  33.488  31.101  1.00  0.00     0.198 A 
ATOM     90  C   UNL A   1      46.726  34.479  28.953  1.00  0.00     0.198 A 
ATOM     91  F   UNL A   1      45.714  33.210  27.250  1.00  0.00    -0.203 F 
ATOM     92  F   UNL A   1      47.575  33.598  32.366  1.00  0.00    -0.200 F 
ATOM     93  C   UNL A   1      47.198  34.585  30.253  1.00  0.00     0.200 A 
ATOM     94  F   UNL A   1      46.791  35.532  28.128  1.00  0.00    -0.200 F 
ATOM     95  F   UNL A   1      47.697  35.748  30.692  1.00  0.00    -0.200 F 
ENDBRANCH  62  85
ENDBRANCH  36  37
ENDBRANCH  28  31
ENDBRANCH  26  27
ENDBRANCH  25  26
ENDBRANCH  24  25
ENDBRANCH   1  24
TORSDOF 17
ENDMDL
MODEL 2
REMARK VINA RESULT:     -11.1      4.754      9.556
REMARK SMILES C#CC[N@@H+](CC(=O)NCCCCNC(=O)c1ccc(-c2c3nc(c(-c4c(F)c(F)c(F)c(F)c4F)c4ccc([nH]4)c(-c4c(F)c(F)c(F)c(F)c4F)c4nc(c(-c5c(F)c(F)c(F)c(F)c5F)c5ccc2[nH]5)C=C4)C=C3)cc1)Cc1cn(CC)c2ccccc12
REMARK SMILES IDX 9 1 8 2 6 3 7 4 5 6 4 7 3 9 2 10 1 11 79 12 80 13 81 14
REMARK SMILES IDX 90 15 82 16 85 17 89 18 86 19 88 20 87 21 83 22 84 23 10 24
REMARK SMILES IDX 11 25 12 26 13 27 14 28 15 30 16 31 17 32 78 33 18 34 77 35
REMARK SMILES IDX 19 36 20 37 21 38 71 39 22 40 76 41 70 42 72 43 23 44 75 45
REMARK SMILES IDX 69 46 68 47 24 49 56 50 36 51 55 52 37 53 40 54 54 55 73 56
REMARK SMILES IDX 38 57 39 58 53 60 74 61 41 62 25 63 26 64 34 65 27 66 28 67
REMARK SMILES IDX 32 68 35 69 29 70 30 71 33 72 31 73 57 74 58 75 66 76 59 77
REMARK SMILES IDX 60 78 64 79 67 80 61 81 62 82 65 83 63 84 42 85 43 86 51 87
REMARK SMILES IDX 44 88 45 89 49 90 52 91 46 92 47 93 50 94 48 95
REMARK H PARENT 8 5 4 8 13 29 72 48 40 59
REMARK Flexibility Score: inf
ROOT
ATOM      1  C   UNL A   1      33.580  34.943  29.816  1.00  0.00     0.116 C 
ENDROOT
BRANCH   1   2
ATOM      2  N   UNL A   1      34.035  35.577  31.045  1.00  0.00    -0.351 N 
ATOM      3  C   UNL A   1      34.547  35.091  32.220  1.00  0.00     0.275 C 
ATOM      4  O   UNL A   1      34.909  35.954  33.026  1.00  0.00    -0.269 OA
ATOM      5  H   UNL A   1      33.961  36.558  31.029  1.00  0.00     0.163 HD
BRANCH   3   6
ATOM      6  C   UNL A   1      34.729  33.576  32.522  1.00  0.00     0.364 C 
BRANCH   6   7
ATOM      7  N   UNL A   1      36.144  33.083  32.747  1.00  0.00    -0.313 N 
ATOM      8  H   UNL A   1      36.455  33.351  33.680  1.00  0.00     0.349 HD
BRANCH   7   9
ATOM      9  C   UNL A   1      36.886  33.668  31.668  1.00  0.00     0.354 C 
BRANCH   9  10
ATOM     10  C   UNL A   1      38.316  34.167  31.794  1.00  0.00    -0.047 C 
ATOM     11  C   UNL A   1      39.543  34.595  31.902  1.00  0.00     0.010 C 
ENDBRANCH   9  10
ENDBRANCH   7   9
BRANCH   7  12
ATOM     12  C   UNL A   1      36.312  31.607  32.740  1.00  0.00     0.302 C 
BRANCH  12  13
ATOM     13  C   UNL A   1      37.373  31.237  33.711  1.00  0.00     0.032 A 
ATOM     14  C   UNL A   1      37.796  32.014  34.769  1.00  0.00     0.096 A 
ATOM     15  C   UNL A   1      38.307  30.174  33.570  1.00  0.00     0.008 A 
ATOM     16  N   UNL A   1      39.143  31.755  34.906  1.00  0.00    -0.347 N 
ATOM     17  C   UNL A   1      39.446  30.551  34.290  1.00  0.00     0.048 A 
ATOM     18  C   UNL A   1      38.352  29.043  32.730  1.00  0.00     0.011 A 
ATOM     19  C   UNL A   1      40.638  29.821  34.183  1.00  0.00     0.027 A 
ATOM     20  C   UNL A   1      39.529  28.304  32.635  1.00  0.00     0.001 A 
ATOM     21  C   UNL A   1      40.656  28.694  33.350  1.00  0.00     0.002 A 
BRANCH  16  22
ATOM     22  C   UNL A   1      40.078  32.838  35.180  1.00  0.00     0.119 C 
ATOM     23  C   UNL A   1      39.469  34.146  35.624  1.00  0.00     0.027 C 
ENDBRANCH  16  22
ENDBRANCH  12  13
ENDBRANCH   7  12
ENDBRANCH   6   7
ENDBRANCH   3   6
ENDBRANCH   1   2
BRANCH   1  24
ATOM     24  C   UNL A   1      34.638  34.970  28.683  1.00  0.00     0.023 C 
BRANCH  24  25
ATOM     25  C   UNL A   1      34.885  33.643  28.004  1.00  0.00     0.023 C 
BRANCH  25  26
ATOM     26  C   UNL A   1      34.662  32.493  28.939  1.00  0.00     0.116 C 
BRANCH  26  27
ATOM     27  N   UNL A   1      33.977  31.374  28.298  1.00  0.00    -0.352 N 
ATOM     28  C   UNL A   1      34.533  30.191  27.882  1.00  0.00     0.251 C 
ATOM     29  H   UNL A   1      33.009  31.480  28.148  1.00  0.00     0.163 HD
ATOM     30  O   UNL A   1      33.914  29.372  27.235  1.00  0.00    -0.269 OA
BRANCH  28  31
ATOM     31  C   UNL A   1      35.938  29.995  28.249  1.00  0.00     0.039 A 
ATOM     32  C   UNL A   1      36.239  29.358  29.449  1.00  0.00     0.014 A 
ATOM     33  C   UNL A   1      36.913  30.262  27.283  1.00  0.00     0.014 A 
ATOM     34  C   UNL A   1      37.552  28.974  29.677  1.00  0.00     0.010 A 
ATOM     35  C   UNL A   1      38.175  29.736  27.445  1.00  0.00     0.010 A 
ATOM     36  C   UNL A   1      38.517  29.148  28.669  1.00  0.00    -0.014 A 
BRANCH  36  37
ATOM     37  C   UNL A   1      39.937  28.846  28.920  1.00  0.00     0.031 A 
ATOM     38  C   UNL A   1      40.750  29.848  29.691  1.00  0.00     0.074 A 
ATOM     39  C   UNL A   1      40.476  27.718  28.430  1.00  0.00     0.049 A 
ATOM     40  N   UNL A   1      42.017  29.815  30.006  1.00  0.00    -0.248 NA
ATOM     41  C   UNL A   1      40.062  31.080  30.121  1.00  0.00     0.031 C 
ATOM     42  C   UNL A   1      39.780  26.730  27.601  1.00  0.00     0.029 A 
ATOM     43  N   UNL A   1      41.738  27.208  28.569  1.00  0.00    -0.354 N 
ATOM     44  C   UNL A   1      42.271  31.026  30.637  1.00  0.00     0.074 A 
ATOM     45  C   UNL A   1      41.063  31.809  30.582  1.00  0.00     0.031 C 
ATOM     46  C   UNL A   1      40.615  25.710  27.342  1.00  0.00     0.029 A 
ATOM     47  C   UNL A   1      41.903  25.986  27.969  1.00  0.00     0.049 A 
ATOM     48  H   UNL A   1      42.458  27.674  29.052  1.00  0.00     0.167 HD
ATOM     49  C   UNL A   1      43.404  31.426  31.255  1.00  0.00     0.037 A 
ATOM     50  C   UNL A   1      42.980  25.179  27.955  1.00  0.00     0.037 A 
ATOM     51  C   UNL A   1      44.572  30.600  31.361  1.00  0.00     0.049 A 
ATOM     52  C   UNL A   1      44.202  25.612  28.720  1.00  0.00     0.074 A 
ATOM     53  C   UNL A   1      45.758  30.858  32.020  1.00  0.00     0.029 A 
ATOM     54  N   UNL A   1      44.683  29.335  30.800  1.00  0.00    -0.354 N 
ATOM     55  N   UNL A   1      44.413  26.725  29.384  1.00  0.00    -0.248 NA
ATOM     56  C   UNL A   1      45.324  24.669  28.758  1.00  0.00     0.031 C 
ATOM     57  C   UNL A   1      46.603  29.759  31.830  1.00  0.00     0.029 A 
ATOM     58  C   UNL A   1      45.923  28.798  31.095  1.00  0.00     0.049 A 
ATOM     59  H   UNL A   1      43.985  28.888  30.272  1.00  0.00     0.167 HD
ATOM     60  C   UNL A   1      45.677  26.603  29.942  1.00  0.00     0.074 A 
ATOM     61  C   UNL A   1      46.174  25.298  29.556  1.00  0.00     0.031 C 
ATOM     62  C   UNL A   1      46.371  27.487  30.703  1.00  0.00     0.037 A 
BRANCH  49  63
ATOM     63  C   UNL A   1      43.412  32.794  31.872  1.00  0.00     0.064 A 
ATOM     64  C   UNL A   1      43.576  33.954  31.097  1.00  0.00     0.173 A 
ATOM     65  C   UNL A   1      43.252  32.949  33.256  1.00  0.00     0.173 A 
ATOM     66  F   UNL A   1      43.759  33.860  29.771  1.00  0.00    -0.203 F 
ATOM     67  C   UNL A   1      43.611  35.213  31.688  1.00  0.00     0.198 A 
ATOM     68  C   UNL A   1      43.253  34.213  33.840  1.00  0.00     0.198 A 
ATOM     69  F   UNL A   1      43.099  31.874  34.044  1.00  0.00    -0.203 F 
ATOM     70  F   UNL A   1      43.831  36.299  30.935  1.00  0.00    -0.200 F 
ATOM     71  C   UNL A   1      43.441  35.342  33.059  1.00  0.00     0.200 A 
ATOM     72  F   UNL A   1      43.082  34.337  35.164  1.00  0.00    -0.200 F 
ATOM     73  F   UNL A   1      43.469  36.556  33.626  1.00  0.00    -0.200 F 
ENDBRANCH  49  63
BRANCH  50  74
ATOM     74  C   UNL A   1      42.924  23.868  27.258  1.00  0.00     0.064 A 
ATOM     75  C   UNL A   1      42.428  22.728  27.905  1.00  0.00     0.173 A 
ATOM     76  C   UNL A   1      43.368  23.726  25.936  1.00  0.00     0.173 A 
ATOM     77  F   UNL A   1      42.000  22.810  29.172  1.00  0.00    -0.203 F 
ATOM     78  C   UNL A   1      42.408  21.488  27.267  1.00  0.00     0.198 A 
ATOM     79  C   UNL A   1      43.322  22.493  25.289  1.00  0.00     0.198 A 
ATOM     80  F   UNL A   1      43.837  24.789  25.267  1.00  0.00    -0.203 F 
ATOM     81  F   UNL A   1      41.977  20.405  27.926  1.00  0.00    -0.200 F 
ATOM     82  C   UNL A   1      42.853  21.373  25.960  1.00  0.00     0.200 A 
ATOM     83  F   UNL A   1      43.736  22.388  24.019  1.00  0.00    -0.200 F 
ATOM     84  F   UNL A   1      42.835  20.180  25.346  1.00  0.00    -0.200 F 
ENDBRANCH  50  74
BRANCH  62  85
ATOM     85  C   UNL A   1      47.713  27.044  31.199  1.00  0.00     0.064 A 
ATOM     86  C   UNL A   1      47.853  26.310  32.386  1.00  0.00     0.173 A 
ATOM     87  C   UNL A   1      48.869  27.332  30.458  1.00  0.00     0.173 A 
ATOM     88  F   UNL A   1      46.776  26.022  33.132  1.00  0.00    -0.203 F 
ATOM     89  C   UNL A   1      49.108  25.915  32.833  1.00  0.00     0.198 A 
ATOM     90  C   UNL A   1      50.119  26.905  30.892  1.00  0.00     0.198 A 
ATOM     91  F   UNL A   1      48.783  28.019  29.309  1.00  0.00    -0.203 F 
ATOM     92  F   UNL A   1      49.227  25.267  34.001  1.00  0.00    -0.200 F 
ATOM     93  C   UNL A   1      50.239  26.207  32.084  1.00  0.00     0.200 A 
ATOM     94  F   UNL A   1      51.208  27.172  30.159  1.00  0.00    -0.200 F 
ATOM     95  F   UNL A   1      51.447  25.822  32.517  1.00  0.00    -0.200 F 
ENDBRANCH  62  85
ENDBRANCH  36  37
ENDBRANCH  28  31
ENDBRANCH  26  27
ENDBRANCH  25  26
ENDBRANCH  24  25
ENDBRANCH   1  24
TORSDOF 17
ENDMDL
MODEL 3
REMARK VINA RESULT:     -10.9      0.824      1.963
REMARK SMILES C#CC[N@@H+](CC(=O)NCCCCNC(=O)c1ccc(-c2c3nc(c(-c4c(F)c(F)c(F)c(F)c4F)c4ccc([nH]4)c(-c4c(F)c(F)c(F)c(F)c4F)c4nc(c(-c5c(F)c(F)c(F)c(F)c5F)c5ccc2[nH]5)C=C4)C=C3)cc1)Cc1cn(CC)c2ccccc12
REMARK SMILES IDX 9 1 8 2 6 3 7 4 5 6 4 7 3 9 2 10 1 11 79 12 80 13 81 14
REMARK SMILES IDX 90 15 82 16 85 17 89 18 86 19 88 20 87 21 83 22 84 23 10 24
REMARK SMILES IDX 11 25 12 26 13 27 14 28 15 30 16 31 17 32 78 33 18 34 77 35
REMARK SMILES IDX 19 36 20 37 21 38 71 39 22 40 76 41 70 42 72 43 23 44 75 45
REMARK SMILES IDX 69 46 68 47 24 49 56 50 36 51 55 52 37 53 40 54 54 55 73 56
REMARK SMILES IDX 38 57 39 58 53 60 74 61 41 62 25 63 26 64 34 65 27 66 28 67
REMARK SMILES IDX 32 68 35 69 29 70 30 71 33 72 31 73 57 74 58 75 66 76 59 77
REMARK SMILES IDX 60 78 64 79 67 80 61 81 62 82 65 83 63 84 42 85 43 86 51 87
REMARK SMILES IDX 44 88 45 89 49 90 52 91 46 92 47 93 50 94 48 95
REMARK H PARENT 8 5 4 8 13 29 72 48 40 59
REMARK Flexibility Score: inf
ROOT
ATOM      1  C   UNL A   1      37.432  22.093  25.483  1.00  0.00     0.116 C 
ENDROOT
BRANCH   1   2
ATOM      2  N   UNL A   1      36.229  22.394  26.246  1.00  0.00    -0.351 N 
ATOM      3  C   UNL A   1      35.241  23.334  26.110  1.00  0.00     0.275 C 
ATOM      4  O   UNL A   1      34.311  23.231  26.917  1.00  0.00    -0.269 OA
ATOM      5  H   UNL A   1      36.098  21.800  27.019  1.00  0.00     0.163 HD
BRANCH   3   6
ATOM      6  C   UNL A   1      35.229  24.421  24.998  1.00  0.00     0.364 C 
BRANCH   6   7
ATOM      7  N   UNL A   1      33.905  24.694  24.314  1.00  0.00    -0.313 N 
ATOM      8  H   UNL A   1      33.153  24.670  25.002  1.00  0.00     0.349 HD
BRANCH   7   9
ATOM      9  C   UNL A   1      33.830  23.685  23.298  1.00  0.00     0.354 C 
BRANCH   9  10
ATOM     10  C   UNL A   1      33.122  22.351  23.477  1.00  0.00    -0.047 C 
ATOM     11  C   UNL A   1      32.516  21.207  23.631  1.00  0.00     0.010 C 
ENDBRANCH   9  10
ENDBRANCH   7   9
BRANCH   7  12
ATOM     12  C   UNL A   1      33.770  26.042  23.704  1.00  0.00     0.302 C 
BRANCH  12  13
ATOM     13  C   UNL A   1      32.685  26.780  24.399  1.00  0.00     0.032 A 
ATOM     14  C   UNL A   1      31.405  26.964  23.916  1.00  0.00     0.096 A 
ATOM     15  C   UNL A   1      32.837  27.638  25.523  1.00  0.00     0.008 A 
ATOM     16  N   UNL A   1      31.012  28.205  24.371  1.00  0.00    -0.347 N 
ATOM     17  C   UNL A   1      31.798  28.572  25.452  1.00  0.00     0.048 A 
ATOM     18  C   UNL A   1      33.880  27.820  26.454  1.00  0.00     0.011 A 
ATOM     19  C   UNL A   1      31.780  29.693  26.293  1.00  0.00     0.027 A 
ATOM     20  C   UNL A   1      33.856  28.923  27.304  1.00  0.00     0.001 A 
ATOM     21  C   UNL A   1      32.821  29.847  27.218  1.00  0.00     0.002 A 
BRANCH  16  22
ATOM     22  C   UNL A   1      30.278  29.111  23.497  1.00  0.00     0.119 C 
ATOM     23  C   UNL A   1      29.102  28.518  22.759  1.00  0.00     0.027 C 
ENDBRANCH  16  22
ENDBRANCH  12  13
ENDBRANCH   7  12
ENDBRANCH   6   7
ENDBRANCH   3   6
ENDBRANCH   1   2
BRANCH   1  24
ATOM     24  C   UNL A   1      37.300  20.823  24.604  1.00  0.00     0.023 C 
BRANCH  24  25
ATOM     25  C   UNL A   1      38.183  19.667  25.011  1.00  0.00     0.023 C 
BRANCH  25  26
ATOM     26  C   UNL A   1      39.274  20.103  25.940  1.00  0.00     0.116 C 
BRANCH  26  27
ATOM     27  N   UNL A   1      40.359  19.129  26.029  1.00  0.00    -0.352 N 
ATOM     28  C   UNL A   1      41.694  19.389  26.206  1.00  0.00     0.251 C 
ATOM     29  H   UNL A   1      40.103  18.180  25.955  1.00  0.00     0.163 HD
ATOM     30  O   UNL A   1      42.541  18.525  26.131  1.00  0.00    -0.269 OA
BRANCH  28  31
ATOM     31  C   UNL A   1      42.031  20.792  26.463  1.00  0.00     0.039 A 
ATOM     32  C   UNL A   1      42.321  21.187  27.765  1.00  0.00     0.014 A 
ATOM     33  C   UNL A   1      42.254  21.626  25.364  1.00  0.00     0.014 A 
ATOM     34  C   UNL A   1      42.858  22.451  27.963  1.00  0.00     0.010 A 
ATOM     35  C   UNL A   1      42.935  22.808  25.552  1.00  0.00     0.010 A 
ATOM     36  C   UNL A   1      43.180  23.256  26.856  1.00  0.00    -0.014 A 
BRANCH  36  37
ATOM     37  C   UNL A   1      43.654  24.639  27.037  1.00  0.00     0.031 A 
ATOM     38  C   UNL A   1      42.682  25.659  27.559  1.00  0.00     0.074 A 
ATOM     39  C   UNL A   1      44.914  24.962  26.703  1.00  0.00     0.049 A 
ATOM     40  N   UNL A   1      42.859  26.936  27.770  1.00  0.00    -0.248 NA
ATOM     41  C   UNL A   1      41.307  25.197  27.829  1.00  0.00     0.031 C 
ATOM     42  C   UNL A   1      45.900  24.053  26.112  1.00  0.00     0.029 A 
ATOM     43  N   UNL A   1      45.583  26.149  26.822  1.00  0.00    -0.354 N 
ATOM     44  C   UNL A   1      41.619  27.420  28.164  1.00  0.00     0.074 A 
ATOM     45  C   UNL A   1      40.677  26.332  28.077  1.00  0.00     0.031 C 
ATOM     46  C   UNL A   1      47.063  24.707  25.962  1.00  0.00     0.029 A 
ATOM     47  C   UNL A   1      46.895  26.080  26.425  1.00  0.00     0.049 A 
ATOM     48  H   UNL A   1      45.164  26.973  27.159  1.00  0.00     0.167 HD
ATOM     49  C   UNL A   1      41.306  28.656  28.611  1.00  0.00     0.037 A 
ATOM     50  C   UNL A   1      47.849  27.027  26.460  1.00  0.00     0.037 A 
ATOM     51  C   UNL A   1      42.275  29.703  28.759  1.00  0.00     0.049 A 
ATOM     52  C   UNL A   1      47.495  28.371  27.038  1.00  0.00     0.074 A 
ATOM     53  C   UNL A   1      42.103  30.976  29.265  1.00  0.00     0.029 A 
ATOM     54  N   UNL A   1      43.613  29.579  28.413  1.00  0.00    -0.354 N 
ATOM     55  N   UNL A   1      46.339  28.803  27.485  1.00  0.00    -0.248 NA
ATOM     56  C   UNL A   1      48.582  29.350  27.143  1.00  0.00     0.031 C 
ATOM     57  C   UNL A   1      43.334  31.636  29.196  1.00  0.00     0.029 A 
ATOM     58  C   UNL A   1      44.282  30.757  28.692  1.00  0.00     0.049 A 
ATOM     59  H   UNL A   1      44.025  28.773  28.027  1.00  0.00     0.167 HD
ATOM     60  C   UNL A   1      46.565  30.090  27.951  1.00  0.00     0.074 A 
ATOM     61  C   UNL A   1      47.975  30.358  27.751  1.00  0.00     0.031 C 
ATOM     62  C   UNL A   1      45.691  30.975  28.492  1.00  0.00     0.037 A 
BRANCH  49  63
ATOM     63  C   UNL A   1      39.876  28.917  28.985  1.00  0.00     0.064 A 
ATOM     64  C   UNL A   1      39.398  28.686  30.286  1.00  0.00     0.173 A 
ATOM     65  C   UNL A   1      38.971  29.405  28.033  1.00  0.00     0.173 A 
ATOM     66  F   UNL A   1      40.217  28.193  31.228  1.00  0.00    -0.203 F 
ATOM     67  C   UNL A   1      38.062  28.904  30.609  1.00  0.00     0.198 A 
ATOM     68  C   UNL A   1      37.643  29.655  28.368  1.00  0.00     0.198 A 
ATOM     69  F   UNL A   1      39.373  29.636  26.774  1.00  0.00    -0.203 F 
ATOM     70  F   UNL A   1      37.617  28.617  31.839  1.00  0.00    -0.200 F 
ATOM     71  C   UNL A   1      37.188  29.396  29.652  1.00  0.00     0.200 A 
ATOM     72  F   UNL A   1      36.800  30.137  27.444  1.00  0.00    -0.200 F 
ATOM     73  F   UNL A   1      35.903  29.612  29.965  1.00  0.00    -0.200 F 
ENDBRANCH  49  63
BRANCH  50  74
ATOM     74  C   UNL A   1      49.228  26.718  26.001  1.00  0.00     0.064 A 
ATOM     75  C   UNL A   1      49.635  27.008  24.691  1.00  0.00     0.173 A 
ATOM     76  C   UNL A   1      50.165  26.123  26.858  1.00  0.00     0.173 A 
ATOM     77  F   UNL A   1      48.773  27.569  23.832  1.00  0.00    -0.203 F 
ATOM     78  C   UNL A   1      50.915  26.686  24.246  1.00  0.00     0.198 A 
ATOM     79  C   UNL A   1      51.454  25.826  26.419  1.00  0.00     0.198 A 
ATOM     80  F   UNL A   1      49.832  25.839  28.125  1.00  0.00    -0.203 F 
ATOM     81  F   UNL A   1      51.261  26.928  22.974  1.00  0.00    -0.200 F 
ATOM     82  C   UNL A   1      51.824  26.097  25.111  1.00  0.00     0.200 A 
ATOM     83  F   UNL A   1      52.336  25.274  27.264  1.00  0.00    -0.200 F 
ATOM     84  F   UNL A   1      53.056  25.786  24.682  1.00  0.00    -0.200 F 
ENDBRANCH  50  74
BRANCH  62  85
ATOM     85  C   UNL A   1      46.252  32.289  28.944  1.00  0.00     0.064 A 
ATOM     86  C   UNL A   1      46.301  33.400  28.089  1.00  0.00     0.173 A 
ATOM     87  C   UNL A   1      46.716  32.443  30.258  1.00  0.00     0.173 A 
ATOM     88  F   UNL A   1      45.877  33.295  26.820  1.00  0.00    -0.203 F 
ATOM     89  C   UNL A   1      46.832  34.609  28.524  1.00  0.00     0.198 A 
ATOM     90  C   UNL A   1      47.215  33.664  30.699  1.00  0.00     0.198 A 
ATOM     91  F   UNL A   1      46.676  31.412  31.115  1.00  0.00    -0.203 F 
ATOM     92  F   UNL A   1      46.925  35.641  27.674  1.00  0.00    -0.200 F 
ATOM     93  C   UNL A   1      47.283  34.742  29.829  1.00  0.00     0.200 A 
ATOM     94  F   UNL A   1      47.635  33.796  31.964  1.00  0.00    -0.200 F 
ATOM     95  F   UNL A   1      47.793  35.908  30.246  1.00  0.00    -0.200 F 
ENDBRANCH  62  85
ENDBRANCH  36  37
ENDBRANCH  28  31
ENDBRANCH  26  27
ENDBRANCH  25  26
ENDBRANCH  24  25
ENDBRANCH   1  24
TORSDOF 17
ENDMDL
