MODEL 1
REMARK VINA RESULT:     -13.9      0.000      0.000
REMARK SMILES O=C(NCCCCNC(=O)c1[nH]ncc1C[NH+]1CCC([N@H+]2CCC[C@@H](C(=O)N3CCCC3)C2)CC1)c1ccc(-c2c3nc(c(-c4c(F)c(F)c(F)c(F)c4F)c4ccc([nH]4)c(-c4c(F)c(F)c(F)c(F)c4F)c4nc(c(-c5c(F)c(F)c(F)c(F)c5F)c5ccc2[nH]5)C=C4)C=C3)cc1
REMARK SMILES IDX 6 1 5 2 4 3 3 4 1 5 2 6 36 8 37 9 98 10 38 11 97 12 39 13
REMARK SMILES IDX 40 14 41 15 91 16 42 17 96 18 90 19 92 20 43 21 95 22 89 23
REMARK SMILES IDX 88 24 44 26 76 27 56 28 75 29 57 30 60 31 74 32 93 33 58 34
REMARK SMILES IDX 59 35 73 37 94 38 61 39 45 40 46 41 54 42 47 43 48 44 52 45
REMARK SMILES IDX 55 46 49 47 50 48 53 49 51 50 77 51 78 52 86 53 79 54 80 55
REMARK SMILES IDX 84 56 87 57 81 58 82 59 85 60 83 61 62 62 63 63 71 64 64 65
REMARK SMILES IDX 65 66 69 67 72 68 66 69 67 70 70 71 68 72 7 73 8 74 9 75
REMARK SMILES IDX 10 77 11 78 12 79 15 80 13 81 14 83 16 84 17 85 18 86 35 87
REMARK SMILES IDX 19 89 34 90 20 91 21 92 22 93 33 94 23 96 25 97 24 98 26 99
REMARK SMILES IDX 27 100 28 101 29 102 32 103 30 104 31 105
REMARK H PARENT 3 7 92 25 60 36 8 76 12 82 17 88 21 95
REMARK Flexibility Score: inf
ROOT
ATOM      1  C   UNL A   1      37.924  21.152  25.005  1.00  0.00     0.023 C 
ENDROOT
BRANCH   1   2
ATOM      2  C   UNL A   1      38.753  19.875  25.070  1.00  0.00     0.023 C 
BRANCH   2   3
ATOM      3  C   UNL A   1      39.690  19.767  26.266  1.00  0.00     0.116 C 
BRANCH   3   4
ATOM      4  N   UNL A   1      40.791  18.840  26.051  1.00  0.00    -0.352 N 
ATOM      5  O   UNL A   1      42.929  18.207  25.677  1.00  0.00    -0.269 OA
ATOM      6  C   UNL A   1      42.142  19.091  25.999  1.00  0.00     0.251 C 
ATOM      7  H   UNL A   1      40.532  17.899  25.924  1.00  0.00     0.163 HD
BRANCH   6   8
ATOM      8  C   UNL A   1      42.641  20.448  26.304  1.00  0.00     0.039 A 
ATOM      9  C   UNL A   1      42.689  20.899  27.624  1.00  0.00     0.014 A 
ATOM     10  C   UNL A   1      43.036  21.287  25.259  1.00  0.00     0.014 A 
ATOM     11  C   UNL A   1      42.963  22.235  27.883  1.00  0.00     0.010 A 
ATOM     12  C   UNL A   1      43.411  22.605  25.532  1.00  0.00     0.010 A 
ATOM     13  C   UNL A   1      43.343  23.099  26.843  1.00  0.00    -0.014 A 
BRANCH  13  14
ATOM     14  C   UNL A   1      43.730  24.493  27.178  1.00  0.00     0.031 A 
ATOM     15  C   UNL A   1      45.112  25.013  26.901  1.00  0.00     0.074 A 
ATOM     16  C   UNL A   1      42.789  25.306  27.695  1.00  0.00     0.049 A 
ATOM     17  N   UNL A   1      45.593  26.216  27.099  1.00  0.00    -0.248 NA
ATOM     18  C   UNL A   1      46.086  24.066  26.337  1.00  0.00     0.031 C 
ATOM     19  C   UNL A   1      41.418  24.902  28.019  1.00  0.00     0.029 A 
ATOM     20  N   UNL A   1      42.825  26.638  28.015  1.00  0.00    -0.354 N 
ATOM     21  C   UNL A   1      46.922  26.167  26.701  1.00  0.00     0.074 A 
ATOM     22  C   UNL A   1      47.183  24.810  26.270  1.00  0.00     0.031 C 
ATOM     23  C   UNL A   1      40.730  25.973  28.436  1.00  0.00     0.029 A 
ATOM     24  C   UNL A   1      41.626  27.122  28.474  1.00  0.00     0.049 A 
ATOM     25  H   UNL A   1      43.634  27.193  27.926  1.00  0.00     0.167 HD
ATOM     26  C   UNL A   1      47.835  27.169  26.691  1.00  0.00     0.037 A 
ATOM     27  C   UNL A   1      41.286  28.354  28.895  1.00  0.00     0.037 A 
ATOM     28  C   UNL A   1      47.562  28.523  27.106  1.00  0.00     0.049 A 
ATOM     29  C   UNL A   1      42.323  29.437  28.881  1.00  0.00     0.074 A 
ATOM     30  C   UNL A   1      48.413  29.615  27.105  1.00  0.00     0.029 A 
ATOM     31  N   UNL A   1      46.342  28.969  27.595  1.00  0.00    -0.354 N 
ATOM     32  N   UNL A   1      43.570  29.382  28.479  1.00  0.00    -0.248 NA
ATOM     33  C   UNL A   1      41.909  30.753  29.384  1.00  0.00     0.031 C 
ATOM     34  C   UNL A   1      47.723  30.712  27.631  1.00  0.00     0.029 A 
ATOM     35  C   UNL A   1      46.426  30.315  27.918  1.00  0.00     0.049 A 
ATOM     36  H   UNL A   1      45.537  28.412  27.697  1.00  0.00     0.167 HD
ATOM     37  C   UNL A   1      44.087  30.653  28.673  1.00  0.00     0.074 A 
ATOM     38  C   UNL A   1      43.010  31.467  29.201  1.00  0.00     0.031 C 
ATOM     39  C   UNL A   1      45.345  31.105  28.447  1.00  0.00     0.037 A 
BRANCH  26  40
ATOM     40  C   UNL A   1      49.226  26.848  26.227  1.00  0.00     0.064 A 
ATOM     41  C   UNL A   1      50.164  26.244  27.077  1.00  0.00     0.173 A 
ATOM     42  C   UNL A   1      49.602  27.078  24.894  1.00  0.00     0.173 A 
ATOM     43  F   UNL A   1      49.859  26.011  28.362  1.00  0.00    -0.203 F 
ATOM     44  C   UNL A   1      51.430  25.895  26.613  1.00  0.00     0.198 A 
ATOM     45  C   UNL A   1      50.860  26.706  24.429  1.00  0.00     0.198 A 
ATOM     46  F   UNL A   1      48.741  27.647  24.038  1.00  0.00    -0.203 F 
ATOM     47  F   UNL A   1      52.321  25.345  27.451  1.00  0.00    -0.200 F 
ATOM     48  C   UNL A   1      51.775  26.118  25.288  1.00  0.00     0.200 A 
ATOM     49  F   UNL A   1      51.187  26.911  23.144  1.00  0.00    -0.200 F 
ATOM     50  F   UNL A   1      52.989  25.768  24.841  1.00  0.00    -0.200 F 
ENDBRANCH  26  40
BRANCH  27  51
ATOM     51  C   UNL A   1      39.904  28.615  29.372  1.00  0.00     0.064 A 
ATOM     52  C   UNL A   1      38.917  29.096  28.504  1.00  0.00     0.173 A 
ATOM     53  C   UNL A   1      39.542  28.377  30.707  1.00  0.00     0.173 A 
ATOM     54  F   UNL A   1      39.220  29.355  27.222  1.00  0.00    -0.203 F 
ATOM     55  C   UNL A   1      37.623  29.347  28.955  1.00  0.00     0.198 A 
ATOM     56  C   UNL A   1      38.241  28.597  31.149  1.00  0.00     0.198 A 
ATOM     57  F   UNL A   1      40.450  27.909  31.576  1.00  0.00    -0.203 F 
ATOM     58  F   UNL A   1      36.708  29.849  28.115  1.00  0.00    -0.200 F 
ATOM     59  C   UNL A   1      37.285  29.090  30.276  1.00  0.00     0.200 A 
ATOM     60  F   UNL A   1      37.914  28.330  32.421  1.00  0.00    -0.200 F 
ATOM     61  F   UNL A   1      36.038  29.324  30.707  1.00  0.00    -0.200 F 
ENDBRANCH  27  51
BRANCH  39  62
ATOM     62  C   UNL A   1      45.610  32.547  28.760  1.00  0.00     0.064 A 
ATOM     63  C   UNL A   1      45.391  33.554  27.807  1.00  0.00     0.173 A 
ATOM     64  C   UNL A   1      46.081  32.927  30.025  1.00  0.00     0.173 A 
ATOM     65  F   UNL A   1      44.959  33.237  26.577  1.00  0.00    -0.203 F 
ATOM     66  C   UNL A   1      45.665  34.887  28.101  1.00  0.00     0.198 A 
ATOM     67  C   UNL A   1      46.327  34.263  30.324  1.00  0.00     0.198 A 
ATOM     68  F   UNL A   1      46.302  32.001  30.969  1.00  0.00    -0.203 F 
ATOM     69  F   UNL A   1      45.500  35.826  27.160  1.00  0.00    -0.200 F 
ATOM     70  C   UNL A   1      46.127  35.241  29.361  1.00  0.00     0.200 A 
ATOM     71  F   UNL A   1      46.765  34.606  31.543  1.00  0.00    -0.200 F 
ATOM     72  F   UNL A   1      46.393  36.524  29.641  1.00  0.00    -0.200 F 
ENDBRANCH  39  62
ENDBRANCH  13  14
ENDBRANCH   6   8
ENDBRANCH   3   4
ENDBRANCH   2   3
ENDBRANCH   1   2
BRANCH   1  73
ATOM     73  C   UNL A   1      36.414  20.945  24.986  1.00  0.00     0.116 C 
BRANCH  73  74
ATOM     74  N   UNL A   1      35.758  21.406  26.199  1.00  0.00    -0.351 N 
ATOM     75  C   UNL A   1      34.447  21.264  26.568  1.00  0.00     0.269 C 
ATOM     76  H   UNL A   1      36.332  21.885  26.838  1.00  0.00     0.163 HD
ATOM     77  O   UNL A   1      34.043  21.894  27.551  1.00  0.00    -0.268 OA
BRANCH  75  78
ATOM     78  C   UNL A   1      33.579  20.457  25.766  1.00  0.00     0.131 A 
ATOM     79  N   UNL A   1      33.156  19.225  26.185  1.00  0.00    -0.272 N 
ATOM     80  C   UNL A   1      33.025  20.629  24.499  1.00  0.00     0.057 A 
ATOM     81  N   UNL A   1      32.220  18.678  25.395  1.00  0.00    -0.183 NA
ATOM     82  H   UNL A   1      33.506  18.783  26.992  1.00  0.00     0.190 HD
ATOM     83  C   UNL A   1      32.146  19.528  24.370  1.00  0.00     0.145 A 
BRANCH  80  84
ATOM     84  C   UNL A   1      33.245  21.749  23.536  1.00  0.00     0.303 C 
BRANCH  84  85
ATOM     85  N   UNL A   1      32.784  23.057  23.995  1.00  0.00    -0.331 N 
ATOM     86  C   UNL A   1      31.612  23.002  24.867  1.00  0.00     0.268 C 
ATOM     87  C   UNL A   1      33.833  23.925  24.523  1.00  0.00     0.268 C 
ATOM     88  H   UNL A   1      32.474  23.511  23.135  1.00  0.00     0.348 HD
ATOM     89  C   UNL A   1      31.013  24.398  25.040  1.00  0.00     0.126 C 
ATOM     90  C   UNL A   1      33.314  25.357  24.655  1.00  0.00     0.126 C 
ATOM     91  C   UNL A   1      32.068  25.397  25.556  1.00  0.00     0.195 C 
BRANCH  91  92
ATOM     92  N   UNL A   1      31.590  26.785  25.778  1.00  0.00    -0.331 N 
ATOM     93  C   UNL A   1      32.437  27.591  26.669  1.00  0.00     0.262 C 
ATOM     94  C   UNL A   1      31.398  27.473  24.490  1.00  0.00     0.275 C 
ATOM     95  H   UNL A   1      30.699  26.691  26.265  1.00  0.00     0.348 HD
ATOM     96  C   UNL A   1      31.835  28.982  26.903  1.00  0.00     0.062 C 
ATOM     97  C   UNL A   1      30.762  28.863  24.655  1.00  0.00     0.134 C 
ATOM     98  C   UNL A   1      31.601  29.726  25.589  1.00  0.00     0.025 C 
BRANCH  97  99
ATOM     99  C   UNL A   1      30.670  29.432  23.246  1.00  0.00     0.231 C 
ATOM    100  O   UNL A   1      31.370  28.987  22.334  1.00  0.00    -0.274 OA
ATOM    101  N   UNL A   1      29.648  30.316  22.998  1.00  0.00    -0.342 N 
ATOM    102  C   UNL A   1      29.080  31.309  23.889  1.00  0.00     0.119 C 
ATOM    103  C   UNL A   1      29.031  30.376  21.687  1.00  0.00     0.119 C 
ATOM    104  C   UNL A   1      27.680  31.506  23.340  1.00  0.00     0.023 C 
ATOM    105  C   UNL A   1      27.874  31.359  21.832  1.00  0.00     0.023 C 
ENDBRANCH  97  99
ENDBRANCH  91  92
ENDBRANCH  84  85
ENDBRANCH  80  84
ENDBRANCH  75  78
ENDBRANCH  73  74
ENDBRANCH   1  73
TORSDOF 15
ENDMDL
MODEL 2
REMARK VINA RESULT:     -13.7      4.242     10.789
REMARK SMILES O=C(NCCCCNC(=O)c1[nH]ncc1C[NH+]1CCC([N@H+]2CCC[C@@H](C(=O)N3CCCC3)C2)CC1)c1ccc(-c2c3nc(c(-c4c(F)c(F)c(F)c(F)c4F)c4ccc([nH]4)c(-c4c(F)c(F)c(F)c(F)c4F)c4nc(c(-c5c(F)c(F)c(F)c(F)c5F)c5ccc2[nH]5)C=C4)C=C3)cc1
REMARK SMILES IDX 6 1 5 2 4 3 3 4 1 5 2 6 36 8 37 9 98 10 38 11 97 12 39 13
REMARK SMILES IDX 40 14 41 15 91 16 42 17 96 18 90 19 92 20 43 21 95 22 89 23
REMARK SMILES IDX 88 24 44 26 76 27 56 28 75 29 57 30 60 31 74 32 93 33 58 34
REMARK SMILES IDX 59 35 73 37 94 38 61 39 45 40 46 41 54 42 47 43 48 44 52 45
REMARK SMILES IDX 55 46 49 47 50 48 53 49 51 50 77 51 78 52 86 53 79 54 80 55
REMARK SMILES IDX 84 56 87 57 81 58 82 59 85 60 83 61 62 62 63 63 71 64 64 65
REMARK SMILES IDX 65 66 69 67 72 68 66 69 67 70 70 71 68 72 7 73 8 74 9 75
REMARK SMILES IDX 10 77 11 78 12 79 15 80 13 81 14 83 16 84 17 85 18 86 35 87
REMARK SMILES IDX 19 89 34 90 20 91 21 92 22 93 33 94 23 96 25 97 24 98 26 99
REMARK SMILES IDX 27 100 28 101 29 102 32 103 30 104 31 105
REMARK H PARENT 3 7 92 25 60 36 8 76 12 82 17 88 21 95
REMARK Flexibility Score: inf
ROOT
ATOM      1  C   UNL A   1      32.880  26.721  24.610  1.00  0.00     0.023 C 
ENDROOT
BRANCH   1   2
ATOM      2  C   UNL A   1      33.538  27.565  25.696  1.00  0.00     0.023 C 
BRANCH   2   3
ATOM      3  C   UNL A   1      34.028  28.935  25.246  1.00  0.00     0.116 C 
BRANCH   3   4
ATOM      4  N   UNL A   1      33.277  30.035  25.836  1.00  0.00    -0.352 N 
ATOM      5  O   UNL A   1      32.768  31.610  27.374  1.00  0.00    -0.269 OA
ATOM      6  C   UNL A   1      33.581  30.805  26.933  1.00  0.00     0.251 C 
ATOM      7  H   UNL A   1      32.431  30.258  25.385  1.00  0.00     0.163 HD
BRANCH   6   8
ATOM      8  C   UNL A   1      34.888  30.634  27.601  1.00  0.00     0.039 A 
ATOM      9  C   UNL A   1      35.220  29.416  28.196  1.00  0.00     0.014 A 
ATOM     10  C   UNL A   1      35.777  31.711  27.658  1.00  0.00     0.014 A 
ATOM     11  C   UNL A   1      36.354  29.327  28.991  1.00  0.00     0.010 A 
ATOM     12  C   UNL A   1      36.969  31.587  28.376  1.00  0.00     0.010 A 
ATOM     13  C   UNL A   1      37.250  30.406  29.078  1.00  0.00    -0.014 A 
BRANCH  13  14
ATOM     14  C   UNL A   1      38.504  30.232  29.854  1.00  0.00     0.031 A 
ATOM     15  C   UNL A   1      38.633  30.740  31.263  1.00  0.00     0.074 A 
ATOM     16  C   UNL A   1      39.518  29.555  29.281  1.00  0.00     0.049 A 
ATOM     17  N   UNL A   1      39.646  30.632  32.086  1.00  0.00    -0.248 NA
ATOM     18  C   UNL A   1      37.484  31.471  31.821  1.00  0.00     0.031 C 
ATOM     19  C   UNL A   1      39.507  29.029  27.913  1.00  0.00     0.029 A 
ATOM     20  N   UNL A   1      40.736  29.170  29.774  1.00  0.00    -0.354 N 
ATOM     21  C   UNL A   1      39.267  31.291  33.248  1.00  0.00     0.074 A 
ATOM     22  C   UNL A   1      37.938  31.817  33.019  1.00  0.00     0.031 C 
ATOM     23  C   UNL A   1      40.636  28.343  27.697  1.00  0.00     0.029 A 
ATOM     24  C   UNL A   1      41.478  28.436  28.882  1.00  0.00     0.049 A 
ATOM     25  H   UNL A   1      41.049  29.397  30.679  1.00  0.00     0.167 HD
ATOM     26  C   UNL A   1      39.965  31.433  34.402  1.00  0.00     0.037 A 
ATOM     27  C   UNL A   1      42.710  27.908  28.998  1.00  0.00     0.037 A 
ATOM     28  C   UNL A   1      41.281  30.890  34.627  1.00  0.00     0.049 A 
ATOM     29  C   UNL A   1      43.459  28.093  30.284  1.00  0.00     0.074 A 
ATOM     30  C   UNL A   1      42.058  30.957  35.771  1.00  0.00     0.029 A 
ATOM     31  N   UNL A   1      42.015  30.179  33.689  1.00  0.00    -0.354 N 
ATOM     32  N   UNL A   1      43.079  28.697  31.383  1.00  0.00    -0.248 NA
ATOM     33  C   UNL A   1      44.814  27.528  30.345  1.00  0.00     0.031 C 
ATOM     34  C   UNL A   1      43.278  30.322  35.513  1.00  0.00     0.029 A 
ATOM     35  C   UNL A   1      43.244  29.820  34.222  1.00  0.00     0.049 A 
ATOM     36  H   UNL A   1      41.709  29.962  32.779  1.00  0.00     0.167 HD
ATOM     37  C   UNL A   1      44.139  28.580  32.268  1.00  0.00     0.074 A 
ATOM     38  C   UNL A   1      45.169  27.820  31.588  1.00  0.00     0.031 C 
ATOM     39  C   UNL A   1      44.256  29.068  33.527  1.00  0.00     0.037 A 
BRANCH  26  40
ATOM     40  C   UNL A   1      39.331  32.215  35.515  1.00  0.00     0.064 A 
ATOM     41  C   UNL A   1      38.496  31.603  36.461  1.00  0.00     0.173 A 
ATOM     42  C   UNL A   1      39.622  33.578  35.682  1.00  0.00     0.173 A 
ATOM     43  F   UNL A   1      38.179  30.305  36.342  1.00  0.00    -0.203 F 
ATOM     44  C   UNL A   1      37.965  32.330  37.525  1.00  0.00     0.198 A 
ATOM     45  C   UNL A   1      39.109  34.295  36.759  1.00  0.00     0.198 A 
ATOM     46  F   UNL A   1      40.420  34.210  34.809  1.00  0.00    -0.203 F 
ATOM     47  F   UNL A   1      37.146  31.731  38.401  1.00  0.00    -0.200 F 
ATOM     48  C   UNL A   1      38.278  33.672  37.678  1.00  0.00     0.200 A 
ATOM     49  F   UNL A   1      39.423  35.589  36.913  1.00  0.00    -0.200 F 
ATOM     50  F   UNL A   1      37.779  34.366  38.710  1.00  0.00    -0.200 F 
ENDBRANCH  26  40
BRANCH  27  51
ATOM     51  C   UNL A   1      43.306  27.167  27.857  1.00  0.00     0.064 A 
ATOM     52  C   UNL A   1      43.252  25.769  27.795  1.00  0.00     0.173 A 
ATOM     53  C   UNL A   1      43.933  27.846  26.801  1.00  0.00     0.173 A 
ATOM     54  F   UNL A   1      42.678  25.076  28.791  1.00  0.00    -0.203 F 
ATOM     55  C   UNL A   1      43.817  25.075  26.727  1.00  0.00     0.198 A 
ATOM     56  C   UNL A   1      44.469  27.153  25.719  1.00  0.00     0.198 A 
ATOM     57  F   UNL A   1      44.004  29.185  26.811  1.00  0.00    -0.203 F 
ATOM     58  F   UNL A   1      43.791  23.736  26.713  1.00  0.00    -0.200 F 
ATOM     59  C   UNL A   1      44.419  25.768  25.687  1.00  0.00     0.200 A 
ATOM     60  F   UNL A   1      45.032  27.828  24.708  1.00  0.00    -0.200 F 
ATOM     61  F   UNL A   1      44.955  25.101  24.657  1.00  0.00    -0.200 F 
ENDBRANCH  27  51
BRANCH  39  62
ATOM     62  C   UNL A   1      45.540  28.778  34.246  1.00  0.00     0.064 A 
ATOM     63  C   UNL A   1      45.701  27.616  35.014  1.00  0.00     0.173 A 
ATOM     64  C   UNL A   1      46.621  29.668  34.160  1.00  0.00     0.173 A 
ATOM     65  F   UNL A   1      44.689  26.745  35.142  1.00  0.00    -0.203 F 
ATOM     66  C   UNL A   1      46.889  27.371  35.698  1.00  0.00     0.198 A 
ATOM     67  C   UNL A   1      47.816  29.405  34.821  1.00  0.00     0.198 A 
ATOM     68  F   UNL A   1      46.516  30.791  33.434  1.00  0.00    -0.203 F 
ATOM     69  F   UNL A   1      47.003  26.282  36.471  1.00  0.00    -0.200 F 
ATOM     70  C   UNL A   1      47.947  28.263  35.596  1.00  0.00     0.200 A 
ATOM     71  F   UNL A   1      48.841  30.262  34.716  1.00  0.00    -0.200 F 
ATOM     72  F   UNL A   1      49.089  28.026  36.257  1.00  0.00    -0.200 F 
ENDBRANCH  39  62
ENDBRANCH  13  14
ENDBRANCH   6   8
ENDBRANCH   3   4
ENDBRANCH   2   3
ENDBRANCH   1   2
BRANCH   1  73
ATOM     73  C   UNL A   1      31.356  26.717  24.627  1.00  0.00     0.116 C 
BRANCH  73  74
ATOM     74  N   UNL A   1      30.776  25.775  23.684  1.00  0.00    -0.351 N 
ATOM     75  C   UNL A   1      30.645  24.417  23.801  1.00  0.00     0.269 C 
ATOM     76  H   UNL A   1      30.431  26.166  22.849  1.00  0.00     0.163 HD
ATOM     77  O   UNL A   1      30.297  23.773  22.807  1.00  0.00    -0.268 OA
BRANCH  75  78
ATOM     78  C   UNL A   1      30.987  23.788  25.041  1.00  0.00     0.131 A 
ATOM     79  N   UNL A   1      30.398  24.158  26.218  1.00  0.00    -0.272 N 
ATOM     80  C   UNL A   1      31.907  22.799  25.380  1.00  0.00     0.057 A 
ATOM     81  N   UNL A   1      30.706  23.360  27.251  1.00  0.00    -0.183 NA
ATOM     82  H   UNL A   1      29.801  24.938  26.299  1.00  0.00     0.190 HD
ATOM     83  C   UNL A   1      31.626  22.540  26.743  1.00  0.00     0.145 A 
BRANCH  80  84
ATOM     84  C   UNL A   1      32.901  22.116  24.499  1.00  0.00     0.303 C 
BRANCH  84  85
ATOM     85  N   UNL A   1      34.300  22.346  24.854  1.00  0.00    -0.331 N 
ATOM     86  C   UNL A   1      35.062  21.120  25.089  1.00  0.00     0.268 C 
ATOM     87  C   UNL A   1      35.005  23.284  23.984  1.00  0.00     0.268 C 
ATOM     88  H   UNL A   1      34.239  22.817  25.756  1.00  0.00     0.348 HD
ATOM     89  C   UNL A   1      36.400  21.447  25.752  1.00  0.00     0.126 C 
ATOM     90  C   UNL A   1      36.327  23.703  24.626  1.00  0.00     0.126 C 
ATOM     91  C   UNL A   1      37.198  22.471  24.920  1.00  0.00     0.195 C 
BRANCH  91  92
ATOM     92  N   UNL A   1      38.528  22.849  25.462  1.00  0.00    -0.331 N 
ATOM     93  C   UNL A   1      38.494  23.890  26.501  1.00  0.00     0.262 C 
ATOM     94  C   UNL A   1      39.240  21.657  25.952  1.00  0.00     0.275 C 
ATOM     95  H   UNL A   1      39.032  23.265  24.679  1.00  0.00     0.348 HD
ATOM     96  C   UNL A   1      39.909  24.273  26.952  1.00  0.00     0.062 C 
ATOM     97  C   UNL A   1      40.681  21.970  26.387  1.00  0.00     0.134 C 
ATOM     98  C   UNL A   1      40.692  23.060  27.452  1.00  0.00     0.025 C 
BRANCH  97  99
ATOM     99  C   UNL A   1      41.245  20.647  26.888  1.00  0.00     0.231 C 
ATOM    100  O   UNL A   1      40.614  19.948  27.684  1.00  0.00    -0.274 OA
ATOM    101  N   UNL A   1      42.381  20.183  26.271  1.00  0.00    -0.342 N 
ATOM    102  C   UNL A   1      43.500  20.945  25.751  1.00  0.00     0.119 C 
ATOM    103  C   UNL A   1      42.607  18.758  26.124  1.00  0.00     0.119 C 
ATOM    104  C   UNL A   1      44.083  20.027  24.695  1.00  0.00     0.023 C 
ATOM    105  C   UNL A   1      43.879  18.636  25.292  1.00  0.00     0.023 C 
ENDBRANCH  97  99
ENDBRANCH  91  92
ENDBRANCH  84  85
ENDBRANCH  80  84
ENDBRANCH  75  78
ENDBRANCH  73  74
ENDBRANCH   1  73
TORSDOF 15
ENDMDL
MODEL 3
REMARK VINA RESULT:     -13.7      2.894      4.519
REMARK SMILES O=C(NCCCCNC(=O)c1[nH]ncc1C[NH+]1CCC([N@H+]2CCC[C@@H](C(=O)N3CCCC3)C2)CC1)c1ccc(-c2c3nc(c(-c4c(F)c(F)c(F)c(F)c4F)c4ccc([nH]4)c(-c4c(F)c(F)c(F)c(F)c4F)c4nc(c(-c5c(F)c(F)c(F)c(F)c5F)c5ccc2[nH]5)C=C4)C=C3)cc1
REMARK SMILES IDX 6 1 5 2 4 3 3 4 1 5 2 6 36 8 37 9 98 10 38 11 97 12 39 13
REMARK SMILES IDX 40 14 41 15 91 16 42 17 96 18 90 19 92 20 43 21 95 22 89 23
REMARK SMILES IDX 88 24 44 26 76 27 56 28 75 29 57 30 60 31 74 32 93 33 58 34
REMARK SMILES IDX 59 35 73 37 94 38 61 39 45 40 46 41 54 42 47 43 48 44 52 45
REMARK SMILES IDX 55 46 49 47 50 48 53 49 51 50 77 51 78 52 86 53 79 54 80 55
REMARK SMILES IDX 84 56 87 57 81 58 82 59 85 60 83 61 62 62 63 63 71 64 64 65
REMARK SMILES IDX 65 66 69 67 72 68 66 69 67 70 70 71 68 72 7 73 8 74 9 75
REMARK SMILES IDX 10 77 11 78 12 79 15 80 13 81 14 83 16 84 17 85 18 86 35 87
REMARK SMILES IDX 19 89 34 90 20 91 21 92 22 93 33 94 23 96 25 97 24 98 26 99
REMARK SMILES IDX 27 100 28 101 29 102 32 103 30 104 31 105
REMARK H PARENT 3 7 92 25 60 36 8 76 12 82 17 88 21 95
REMARK Flexibility Score: inf
ROOT
ATOM      1  C   UNL A   1      34.969  24.592  24.747  1.00  0.00     0.023 C 
ENDROOT
BRANCH   1   2
ATOM      2  C   UNL A   1      35.446  23.161  24.972  1.00  0.00     0.023 C 
BRANCH   2   3
ATOM      3  C   UNL A   1      36.402  22.971  26.142  1.00  0.00     0.116 C 
BRANCH   3   4
ATOM      4  N   UNL A   1      37.291  21.829  25.977  1.00  0.00    -0.352 N 
ATOM      5  O   UNL A   1      39.266  20.746  25.801  1.00  0.00    -0.269 OA
ATOM      6  C   UNL A   1      38.658  21.766  26.104  1.00  0.00     0.251 C 
ATOM      7  H   UNL A   1      36.849  20.982  25.740  1.00  0.00     0.163 HD
BRANCH   6   8
ATOM      8  C   UNL A   1      39.399  22.953  26.581  1.00  0.00     0.039 A 
ATOM      9  C   UNL A   1      39.159  24.206  26.014  1.00  0.00     0.014 A 
ATOM     10  C   UNL A   1      40.360  22.805  27.584  1.00  0.00     0.014 A 
ATOM     11  C   UNL A   1      39.997  25.269  26.323  1.00  0.00     0.010 A 
ATOM     12  C   UNL A   1      41.135  23.903  27.967  1.00  0.00     0.010 A 
ATOM     13  C   UNL A   1      40.983  25.135  27.315  1.00  0.00    -0.014 A 
BRANCH  13  14
ATOM     14  C   UNL A   1      41.786  26.327  27.688  1.00  0.00     0.031 A 
ATOM     15  C   UNL A   1      43.140  26.582  27.087  1.00  0.00     0.074 A 
ATOM     16  C   UNL A   1      41.248  27.212  28.548  1.00  0.00     0.049 A 
ATOM     17  N   UNL A   1      43.948  27.596  27.281  1.00  0.00    -0.248 NA
ATOM     18  C   UNL A   1      43.664  25.570  26.157  1.00  0.00     0.031 C 
ATOM     19  C   UNL A   1      39.945  27.058  29.204  1.00  0.00     0.029 A 
ATOM     20  N   UNL A   1      41.704  28.422  29.001  1.00  0.00    -0.354 N 
ATOM     21  C   UNL A   1      45.076  27.338  26.513  1.00  0.00     0.074 A 
ATOM     22  C   UNL A   1      44.862  26.061  25.866  1.00  0.00     0.031 C 
ATOM     23  C   UNL A   1      39.684  28.155  29.926  1.00  0.00     0.029 A 
ATOM     24  C   UNL A   1      40.824  29.058  29.841  1.00  0.00     0.049 A 
ATOM     25  H   UNL A   1      42.579  28.798  28.748  1.00  0.00     0.167 HD
ATOM     26  C   UNL A   1      46.183  28.106  26.359  1.00  0.00     0.037 A 
ATOM     27  C   UNL A   1      40.929  30.234  30.486  1.00  0.00     0.037 A 
ATOM     28  C   UNL A   1      46.379  29.385  26.994  1.00  0.00     0.049 A 
ATOM     29  C   UNL A   1      42.172  31.053  30.302  1.00  0.00     0.074 A 
ATOM     30  C   UNL A   1      47.454  30.250  26.877  1.00  0.00     0.029 A 
ATOM     31  N   UNL A   1      45.479  29.984  27.864  1.00  0.00    -0.354 N 
ATOM     32  N   UNL A   1      43.220  30.808  29.554  1.00  0.00    -0.248 NA
ATOM     33  C   UNL A   1      42.250  32.310  31.057  1.00  0.00     0.031 C 
ATOM     34  C   UNL A   1      47.223  31.353  27.708  1.00  0.00     0.029 A 
ATOM     35  C   UNL A   1      45.984  31.196  28.307  1.00  0.00     0.049 A 
ATOM     36  H   UNL A   1      44.610  29.603  28.127  1.00  0.00     0.167 HD
ATOM     37  C   UNL A   1      44.078  31.881  29.741  1.00  0.00     0.074 A 
ATOM     38  C   UNL A   1      43.414  32.794  30.650  1.00  0.00     0.031 C 
ATOM     39  C   UNL A   1      45.310  32.087  29.216  1.00  0.00     0.037 A 
BRANCH  26  40
ATOM     40  C   UNL A   1      47.281  27.586  25.478  1.00  0.00     0.064 A 
ATOM     41  C   UNL A   1      47.293  27.830  24.096  1.00  0.00     0.173 A 
ATOM     42  C   UNL A   1      48.373  26.900  26.032  1.00  0.00     0.173 A 
ATOM     43  F   UNL A   1      46.270  28.473  23.515  1.00  0.00    -0.203 F 
ATOM     44  C   UNL A   1      48.352  27.396  23.302  1.00  0.00     0.198 A 
ATOM     45  C   UNL A   1      49.440  26.488  25.238  1.00  0.00     0.198 A 
ATOM     46  F   UNL A   1      48.414  26.647  27.348  1.00  0.00    -0.203 F 
ATOM     47  F   UNL A   1      48.329  27.615  21.979  1.00  0.00    -0.200 F 
ATOM     48  C   UNL A   1      49.428  26.733  23.873  1.00  0.00     0.200 A 
ATOM     49  F   UNL A   1      50.485  25.859  25.795  1.00  0.00    -0.200 F 
ATOM     50  F   UNL A   1      50.451  26.328  23.109  1.00  0.00    -0.200 F 
ENDBRANCH  26  40
BRANCH  27  51
ATOM     51  C   UNL A   1      39.827  30.691  31.370  1.00  0.00     0.064 A 
ATOM     52  C   UNL A   1      38.885  31.628  30.927  1.00  0.00     0.173 A 
ATOM     53  C   UNL A   1      39.689  30.190  32.673  1.00  0.00     0.173 A 
ATOM     54  F   UNL A   1      38.987  32.148  29.694  1.00  0.00    -0.203 F 
ATOM     55  C   UNL A   1      37.856  32.060  31.760  1.00  0.00     0.198 A 
ATOM     56  C   UNL A   1      38.641  30.599  33.493  1.00  0.00     0.198 A 
ATOM     57  F   UNL A   1      40.561  29.285  33.141  1.00  0.00    -0.203 F 
ATOM     58  F   UNL A   1      36.994  32.991  31.328  1.00  0.00    -0.200 F 
ATOM     59  C   UNL A   1      37.731  31.540  33.040  1.00  0.00     0.200 A 
ATOM     60  F   UNL A   1      38.514  30.079  34.722  1.00  0.00    -0.200 F 
ATOM     61  F   UNL A   1      36.736  31.951  33.837  1.00  0.00    -0.200 F 
ENDBRANCH  27  51
BRANCH  39  62
ATOM     62  C   UNL A   1      46.007  33.356  29.609  1.00  0.00     0.064 A 
ATOM     63  C   UNL A   1      45.844  34.537  28.871  1.00  0.00     0.173 A 
ATOM     64  C   UNL A   1      46.840  33.391  30.737  1.00  0.00     0.173 A 
ATOM     65  F   UNL A   1      45.073  34.547  27.773  1.00  0.00    -0.203 F 
ATOM     66  C   UNL A   1      46.516  35.703  29.231  1.00  0.00     0.198 A 
ATOM     67  C   UNL A   1      47.487  34.565  31.110  1.00  0.00     0.198 A 
ATOM     68  F   UNL A   1      47.023  32.288  31.476  1.00  0.00    -0.203 F 
ATOM     69  F   UNL A   1      46.389  36.806  28.481  1.00  0.00    -0.200 F 
ATOM     70  C   UNL A   1      47.332  35.716  30.353  1.00  0.00     0.200 A 
ATOM     71  F   UNL A   1      48.269  34.580  32.198  1.00  0.00    -0.200 F 
ATOM     72  F   UNL A   1      47.980  36.839  30.696  1.00  0.00    -0.200 F 
ENDBRANCH  39  62
ENDBRANCH  13  14
ENDBRANCH   6   8
ENDBRANCH   3   4
ENDBRANCH   2   3
ENDBRANCH   1   2
BRANCH   1  73
ATOM     73  C   UNL A   1      33.749  25.004  25.562  1.00  0.00     0.116 C 
BRANCH  73  74
ATOM     74  N   UNL A   1      32.633  24.082  25.429  1.00  0.00    -0.351 N 
ATOM     75  C   UNL A   1      31.629  24.082  24.499  1.00  0.00     0.269 C 
ATOM     76  H   UNL A   1      32.595  23.361  26.099  1.00  0.00     0.163 HD
ATOM     77  O   UNL A   1      30.667  23.327  24.673  1.00  0.00    -0.268 OA
BRANCH  75  78
ATOM     78  C   UNL A   1      31.689  25.005  23.406  1.00  0.00     0.131 A 
ATOM     79  N   UNL A   1      32.333  24.693  22.241  1.00  0.00    -0.272 N 
ATOM     80  C   UNL A   1      31.228  26.309  23.239  1.00  0.00     0.057 A 
ATOM     81  N   UNL A   1      32.153  25.597  21.266  1.00  0.00    -0.183 NA
ATOM     82  H   UNL A   1      32.876  23.880  22.128  1.00  0.00     0.190 HD
ATOM     83  C   UNL A   1      31.487  26.579  21.875  1.00  0.00     0.145 A 
BRANCH  80  84
ATOM     84  C   UNL A   1      30.549  27.187  24.239  1.00  0.00     0.303 C 
BRANCH  84  85
ATOM     85  N   UNL A   1      31.448  27.936  25.113  1.00  0.00    -0.331 N 
ATOM     86  C   UNL A   1      31.376  29.386  24.937  1.00  0.00     0.268 C 
ATOM     87  C   UNL A   1      31.403  27.541  26.519  1.00  0.00     0.268 C 
ATOM     88  H   UNL A   1      32.375  27.659  24.790  1.00  0.00     0.348 HD
ATOM     89  C   UNL A   1      32.550  30.064  25.645  1.00  0.00     0.126 C 
ATOM     90  C   UNL A   1      32.595  28.135  27.270  1.00  0.00     0.126 C 
ATOM     91  C   UNL A   1      32.608  29.667  27.133  1.00  0.00     0.195 C 
BRANCH  91  92
ATOM     92  N   UNL A   1      33.702  30.284  27.926  1.00  0.00    -0.331 N 
ATOM     93  C   UNL A   1      35.045  29.767  27.626  1.00  0.00     0.262 C 
ATOM     94  C   UNL A   1      33.673  31.750  27.785  1.00  0.00     0.275 C 
ATOM     95  H   UNL A   1      33.519  30.019  28.893  1.00  0.00     0.348 HD
ATOM     96  C   UNL A   1      36.103  30.402  28.537  1.00  0.00     0.062 C 
ATOM     97  C   UNL A   1      34.689  32.449  28.702  1.00  0.00     0.134 C 
ATOM     98  C   UNL A   1      36.095  31.926  28.436  1.00  0.00     0.025 C 
BRANCH  97  99
ATOM     99  C   UNL A   1      34.544  33.935  28.402  1.00  0.00     0.231 C 
ATOM    100  O   UNL A   1      34.645  34.365  27.251  1.00  0.00    -0.274 OA
ATOM    101  N   UNL A   1      34.107  34.736  29.429  1.00  0.00    -0.342 N 
ATOM    102  C   UNL A   1      34.392  34.620  30.846  1.00  0.00     0.119 C 
ATOM    103  C   UNL A   1      33.295  35.905  29.154  1.00  0.00     0.119 C 
ATOM    104  C   UNL A   1      33.212  35.318  31.495  1.00  0.00     0.023 C 
ATOM    105  C   UNL A   1      32.902  36.454  30.522  1.00  0.00     0.023 C 
ENDBRANCH  97  99
ENDBRANCH  91  92
ENDBRANCH  84  85
ENDBRANCH  80  84
ENDBRANCH  75  78
ENDBRANCH  73  74
ENDBRANCH   1  73
TORSDOF 15
ENDMDL
