MODEL 1
REMARK VINA RESULT:     -13.9      0.000      0.000
REMARK SMILES COc1cccc([C@@H]2[NH2+][C@@](C)(C(=O)NCCCCNC(=O)c3ccc(-c4c5nc(c(-c6c(F)c(F)c(F)c(F)c6F)c6ccc([nH]6)c(-c6c(F)c(F)c(F)c(F)c6F)c6nc(c(-c7c(F)c(F)c(F)c(F)c7F)c7ccc4[nH]7)C=C6)C=C5)cc3)[C@@H]3C(=O)N(C)C(=O)[C@@H]32)c1O
REMARK SMILES IDX 16 1 15 2 14 3 12 4 13 5 10 7 8 8 9 9 92 10 85 13 90 14
REMARK SMILES IDX 11 15 86 16 88 17 91 18 87 19 89 20 7 21 3 22 4 23 93 24
REMARK SMILES IDX 5 25 6 26 2 27 1 28 94 29 17 31 18 32 19 33 20 34 21 36
REMARK SMILES IDX 22 37 23 38 84 39 24 40 83 41 25 42 26 43 27 44 77 45 28 46
REMARK SMILES IDX 82 47 76 48 78 49 29 50 81 51 75 52 74 53 30 55 62 56 42 57
REMARK SMILES IDX 61 58 43 59 46 60 60 61 79 62 44 63 45 64 59 66 80 67 47 68
REMARK SMILES IDX 31 69 32 70 40 71 33 72 34 73 38 74 41 75 35 76 36 77 39 78
REMARK SMILES IDX 37 79 63 80 64 81 72 82 65 83 66 84 70 85 73 86 67 87 68 88
REMARK SMILES IDX 71 89 69 90 48 91 49 92 57 93 50 94 51 95 55 96 58 97 52 98
REMARK SMILES IDX 53 99 56 100 54 101
REMARK H PARENT 14 6 9 11 9 12 94 30 19 35 78 54 46 65
REMARK Flexibility Score: inf
ROOT
ATOM      1  C   UNL A   1      31.422  28.344  25.044  1.00  0.00     0.023 C 
ENDROOT
BRANCH   1   2
ATOM      2  C   UNL A   1      32.019  27.203  25.860  1.00  0.00     0.116 C 
BRANCH   2   3
ATOM      3  N   UNL A   1      30.996  26.391  26.500  1.00  0.00    -0.351 N 
ATOM      4  C   UNL A   1      30.539  25.142  26.184  1.00  0.00     0.281 C 
ATOM      5  O   UNL A   1      29.618  24.693  26.873  1.00  0.00    -0.268 OA
ATOM      6  H   UNL A   1      30.567  26.806  27.283  1.00  0.00     0.163 HD
BRANCH   4   7
ATOM      7  C   UNL A   1      31.189  24.313  25.029  1.00  0.00     0.185 C 
ATOM      8  C   UNL A   1      31.951  22.154  25.810  1.00  0.00     0.232 C 
ATOM      9  N   UNL A   1      30.808  22.889  25.226  1.00  0.00    -0.326 N 
ATOM     10  C   UNL A   1      33.066  23.179  26.055  1.00  0.00     0.161 C 
ATOM     11  H   UNL A   1      30.009  22.834  25.858  1.00  0.00     0.347 HD
ATOM     12  H   UNL A   1      30.557  22.474  24.329  1.00  0.00     0.347 HD
ATOM     13  C   UNL A   1      32.716  24.362  25.164  1.00  0.00     0.169 C 
ATOM     14  C   UNL A   1      34.435  22.779  25.575  1.00  0.00     0.239 C 
ATOM     15  C   UNL A   1      30.680  24.903  23.704  1.00  0.00     0.091 C 
ATOM     16  C   UNL A   1      33.579  24.115  23.951  1.00  0.00     0.240 C 
ATOM     17  N   UNL A   1      34.618  23.311  24.328  1.00  0.00    -0.285 N 
ATOM     18  O   UNL A   1      35.208  22.058  26.181  1.00  0.00    -0.274 OA
ATOM     19  O   UNL A   1      33.399  24.552  22.823  1.00  0.00    -0.274 OA
ATOM     20  C   UNL A   1      35.730  22.957  23.478  1.00  0.00     0.156 C 
BRANCH   8  21
ATOM     21  C   UNL A   1      32.330  20.916  24.998  1.00  0.00     0.056 A 
ATOM     22  C   UNL A   1      33.024  18.567  24.813  1.00  0.00     0.161 A 
ATOM     23  C   UNL A   1      32.764  18.620  23.441  1.00  0.00     0.050 A 
ATOM     24  C   UNL A   1      32.852  19.733  25.569  1.00  0.00     0.166 A 
ATOM     25  C   UNL A   1      32.309  19.792  22.840  1.00  0.00     0.005 A 
ATOM     26  C   UNL A   1      32.074  20.926  23.617  1.00  0.00     0.014 A 
BRANCH  22  27
ATOM     27  O   UNL A   1      33.489  17.352  25.233  1.00  0.00    -0.493 OA
ATOM     28  C   UNL A   1      32.547  16.318  25.475  1.00  0.00     0.278 C 
ENDBRANCH  22  27
BRANCH  24  29
ATOM     29  O   UNL A   1      33.278  19.812  26.866  1.00  0.00    -0.504 OA
ATOM     30  H   UNL A   1      32.864  19.294  27.528  1.00  0.00     0.293 HD
ENDBRANCH  24  29
ENDBRANCH   8  21
ENDBRANCH   4   7
ENDBRANCH   2   3
ENDBRANCH   1   2
BRANCH   1  31
ATOM     31  C   UNL A   1      32.097  29.699  25.257  1.00  0.00     0.023 C 
BRANCH  31  32
ATOM     32  C   UNL A   1      32.238  30.131  26.713  1.00  0.00     0.116 C 
BRANCH  32  33
ATOM     33  N   UNL A   1      32.170  31.576  26.887  1.00  0.00    -0.352 N 
ATOM     34  C   UNL A   1      33.088  32.433  27.448  1.00  0.00     0.251 C 
ATOM     35  H   UNL A   1      31.348  32.001  26.553  1.00  0.00     0.163 HD
ATOM     36  O   UNL A   1      32.802  33.610  27.640  1.00  0.00    -0.269 OA
BRANCH  34  37
ATOM     37  C   UNL A   1      34.408  31.917  27.866  1.00  0.00     0.039 A 
ATOM     38  C   UNL A   1      35.472  32.813  27.982  1.00  0.00     0.014 A 
ATOM     39  C   UNL A   1      34.581  30.569  28.189  1.00  0.00     0.014 A 
ATOM     40  C   UNL A   1      36.682  32.379  28.528  1.00  0.00     0.010 A 
ATOM     41  C   UNL A   1      35.761  30.155  28.800  1.00  0.00     0.010 A 
ATOM     42  C   UNL A   1      36.814  31.062  28.999  1.00  0.00    -0.014 A 
BRANCH  42  43
ATOM     43  C   UNL A   1      38.011  30.638  29.771  1.00  0.00     0.031 A 
ATOM     44  C   UNL A   1      38.967  29.628  29.206  1.00  0.00     0.074 A 
ATOM     45  C   UNL A   1      38.180  31.100  31.026  1.00  0.00     0.049 A 
ATOM     46  N   UNL A   1      40.005  29.065  29.773  1.00  0.00    -0.248 NA
ATOM     47  C   UNL A   1      38.714  29.173  27.829  1.00  0.00     0.031 C 
ATOM     48  C   UNL A   1      37.291  32.046  31.705  1.00  0.00     0.029 A 
ATOM     49  N   UNL A   1      39.143  30.822  31.966  1.00  0.00    -0.354 N 
ATOM     50  C   UNL A   1      40.519  28.185  28.832  1.00  0.00     0.074 A 
ATOM     51  C   UNL A   1      39.658  28.257  27.670  1.00  0.00     0.031 C 
ATOM     52  C   UNL A   1      37.754  32.277  32.944  1.00  0.00     0.029 A 
ATOM     53  C   UNL A   1      38.941  31.458  33.168  1.00  0.00     0.049 A 
ATOM     54  H   UNL A   1      39.906  30.224  31.794  1.00  0.00     0.167 HD
ATOM     55  C   UNL A   1      41.619  27.401  28.925  1.00  0.00     0.037 A 
ATOM     56  C   UNL A   1      39.617  31.370  34.329  1.00  0.00     0.037 A 
ATOM     57  C   UNL A   1      42.483  27.350  30.076  1.00  0.00     0.049 A 
ATOM     58  C   UNL A   1      40.818  30.466  34.412  1.00  0.00     0.074 A 
ATOM     59  C   UNL A   1      43.667  26.650  30.233  1.00  0.00     0.029 A 
ATOM     60  N   UNL A   1      42.250  28.011  31.273  1.00  0.00    -0.354 N 
ATOM     61  N   UNL A   1      41.349  29.709  33.483  1.00  0.00    -0.248 NA
ATOM     62  C   UNL A   1      41.514  30.403  35.705  1.00  0.00     0.031 C 
ATOM     63  C   UNL A   1      44.115  26.834  31.544  1.00  0.00     0.029 A 
ATOM     64  C   UNL A   1      43.244  27.699  32.187  1.00  0.00     0.049 A 
ATOM     65  H   UNL A   1      41.491  28.614  31.447  1.00  0.00     0.167 HD
ATOM     66  C   UNL A   1      42.446  29.095  34.071  1.00  0.00     0.074 A 
ATOM     67  C   UNL A   1      42.524  29.590  35.429  1.00  0.00     0.031 C 
ATOM     68  C   UNL A   1      43.308  28.196  33.537  1.00  0.00     0.037 A 
BRANCH  55  69
ATOM     69  C   UNL A   1      41.963  26.525  27.755  1.00  0.00     0.064 A 
ATOM     70  C   UNL A   1      42.909  26.913  26.796  1.00  0.00     0.173 A 
ATOM     71  C   UNL A   1      41.395  25.246  27.638  1.00  0.00     0.173 A 
ATOM     72  F   UNL A   1      43.475  28.127  26.858  1.00  0.00    -0.203 F 
ATOM     73  C   UNL A   1      43.262  26.059  25.753  1.00  0.00     0.198 A 
ATOM     74  C   UNL A   1      41.773  24.385  26.612  1.00  0.00     0.198 A 
ATOM     75  F   UNL A   1      40.490  24.823  28.533  1.00  0.00    -0.203 F 
ATOM     76  F   UNL A   1      44.145  26.464  24.830  1.00  0.00    -0.200 F 
ATOM     77  C   UNL A   1      42.703  24.794  25.668  1.00  0.00     0.200 A 
ATOM     78  F   UNL A   1      41.243  23.156  26.542  1.00  0.00    -0.200 F 
ATOM     79  F   UNL A   1      43.060  23.967  24.676  1.00  0.00    -0.200 F 
ENDBRANCH  55  69
BRANCH  56  80
ATOM     80  C   UNL A   1      39.166  32.142  35.519  1.00  0.00     0.064 A 
ATOM     81  C   UNL A   1      39.535  33.482  35.696  1.00  0.00     0.173 A 
ATOM     82  C   UNL A   1      38.380  31.547  36.517  1.00  0.00     0.173 A 
ATOM     83  F   UNL A   1      40.304  34.090  34.781  1.00  0.00    -0.203 F 
ATOM     84  C   UNL A   1      39.162  34.187  36.838  1.00  0.00     0.198 A 
ATOM     85  C   UNL A   1      37.977  32.263  37.642  1.00  0.00     0.198 A 
ATOM     86  F   UNL A   1      37.994  30.267  36.397  1.00  0.00    -0.203 F 
ATOM     87  F   UNL A   1      39.580  35.449  37.010  1.00  0.00    -0.200 F 
ATOM     88  C   UNL A   1      38.379  33.579  37.808  1.00  0.00     0.200 A 
ATOM     89  F   UNL A   1      37.207  31.676  38.568  1.00  0.00    -0.200 F 
ATOM     90  F   UNL A   1      38.021  34.258  38.906  1.00  0.00    -0.200 F 
ENDBRANCH  56  80
BRANCH  68  91
ATOM     91  C   UNL A   1      44.418  27.696  34.417  1.00  0.00     0.064 A 
ATOM     92  C   UNL A   1      44.289  26.510  35.156  1.00  0.00     0.173 A 
ATOM     93  C   UNL A   1      45.638  28.384  34.488  1.00  0.00     0.173 A 
ATOM     94  F   UNL A   1      43.137  25.824  35.137  1.00  0.00    -0.203 F 
ATOM     95  C   UNL A   1      45.335  26.045  35.950  1.00  0.00     0.198 A 
ATOM     96  C   UNL A   1      46.693  27.898  35.256  1.00  0.00     0.198 A 
ATOM     97  F   UNL A   1      45.815  29.521  33.796  1.00  0.00    -0.203 F 
ATOM     98  F   UNL A   1      45.172  24.935  36.683  1.00  0.00    -0.200 F 
ATOM     99  C   UNL A   1      46.537  26.733  35.991  1.00  0.00     0.200 A 
ATOM    100  F   UNL A   1      47.860  28.556  35.282  1.00  0.00    -0.200 F 
ATOM    101  F   UNL A   1      47.546  26.277  36.746  1.00  0.00    -0.200 F 
ENDBRANCH  68  91
ENDBRANCH  42  43
ENDBRANCH  34  37
ENDBRANCH  32  33
ENDBRANCH  31  32
ENDBRANCH   1  31
TORSDOF 14
ENDMDL
MODEL 2
REMARK VINA RESULT:     -13.8      0.339      1.583
REMARK SMILES COc1cccc([C@@H]2[NH2+][C@@](C)(C(=O)NCCCCNC(=O)c3ccc(-c4c5nc(c(-c6c(F)c(F)c(F)c(F)c6F)c6ccc([nH]6)c(-c6c(F)c(F)c(F)c(F)c6F)c6nc(c(-c7c(F)c(F)c(F)c(F)c7F)c7ccc4[nH]7)C=C6)C=C5)cc3)[C@@H]3C(=O)N(C)C(=O)[C@@H]32)c1O
REMARK SMILES IDX 16 1 15 2 14 3 12 4 13 5 10 7 8 8 9 9 92 10 85 13 90 14
REMARK SMILES IDX 11 15 86 16 88 17 91 18 87 19 89 20 7 21 3 22 4 23 93 24
REMARK SMILES IDX 5 25 6 26 2 27 1 28 94 29 17 31 18 32 19 33 20 34 21 36
REMARK SMILES IDX 22 37 23 38 84 39 24 40 83 41 25 42 26 43 27 44 77 45 28 46
REMARK SMILES IDX 82 47 76 48 78 49 29 50 81 51 75 52 74 53 30 55 62 56 42 57
REMARK SMILES IDX 61 58 43 59 46 60 60 61 79 62 44 63 45 64 59 66 80 67 47 68
REMARK SMILES IDX 31 69 32 70 40 71 33 72 34 73 38 74 41 75 35 76 36 77 39 78
REMARK SMILES IDX 37 79 63 80 64 81 72 82 65 83 66 84 70 85 73 86 67 87 68 88
REMARK SMILES IDX 71 89 69 90 48 91 49 92 57 93 50 94 51 95 55 96 58 97 52 98
REMARK SMILES IDX 53 99 56 100 54 101
REMARK H PARENT 14 6 9 11 9 12 94 30 19 35 78 54 46 65
REMARK Flexibility Score: inf
ROOT
ATOM      1  C   UNL A   1      31.404  28.906  24.931  1.00  0.00     0.023 C 
ENDROOT
BRANCH   1   2
ATOM      2  C   UNL A   1      31.812  27.437  24.902  1.00  0.00     0.116 C 
BRANCH   2   3
ATOM      3  N   UNL A   1      30.983  26.619  25.773  1.00  0.00    -0.351 N 
ATOM      4  C   UNL A   1      30.700  25.282  25.717  1.00  0.00     0.281 C 
ATOM      5  O   UNL A   1      29.919  24.840  26.565  1.00  0.00    -0.268 OA
ATOM      6  H   UNL A   1      30.562  27.103  26.519  1.00  0.00     0.163 HD
BRANCH   4   7
ATOM      7  C   UNL A   1      31.372  24.359  24.650  1.00  0.00     0.185 C 
ATOM      8  C   UNL A   1      32.044  22.243  25.608  1.00  0.00     0.232 C 
ATOM      9  N   UNL A   1      30.944  22.962  24.929  1.00  0.00    -0.326 N 
ATOM     10  C   UNL A   1      33.176  23.255  25.828  1.00  0.00     0.161 C 
ATOM     11  H   UNL A   1      30.121  22.971  25.529  1.00  0.00     0.347 HD
ATOM     12  H   UNL A   1      30.718  22.491  24.053  1.00  0.00     0.347 HD
ATOM     13  C   UNL A   1      32.893  24.380  24.844  1.00  0.00     0.169 C 
ATOM     14  C   UNL A   1      34.551  22.789  25.433  1.00  0.00     0.239 C 
ATOM     15  C   UNL A   1      30.932  24.867  23.267  1.00  0.00     0.091 C 
ATOM     16  C   UNL A   1      33.796  24.028  23.687  1.00  0.00     0.240 C 
ATOM     17  N   UNL A   1      34.797  23.228  24.161  1.00  0.00    -0.285 N 
ATOM     18  O   UNL A   1      35.280  22.093  26.119  1.00  0.00    -0.274 OA
ATOM     19  O   UNL A   1      33.673  24.389  22.526  1.00  0.00    -0.274 OA
ATOM     20  C   UNL A   1      35.932  22.788  23.384  1.00  0.00     0.156 C 
BRANCH   8  21
ATOM     21  C   UNL A   1      32.421  20.942  24.900  1.00  0.00     0.056 A 
ATOM     22  C   UNL A   1      33.065  18.571  24.907  1.00  0.00     0.161 A 
ATOM     23  C   UNL A   1      32.853  18.531  23.526  1.00  0.00     0.050 A 
ATOM     24  C   UNL A   1      32.895  19.791  25.571  1.00  0.00     0.166 A 
ATOM     25  C   UNL A   1      32.447  19.667  22.827  1.00  0.00     0.005 A 
ATOM     26  C   UNL A   1      32.213  20.858  23.513  1.00  0.00     0.014 A 
BRANCH  22  27
ATOM     27  O   UNL A   1      33.486  17.379  25.427  1.00  0.00    -0.493 OA
ATOM     28  C   UNL A   1      33.278  16.201  24.665  1.00  0.00     0.278 C 
ENDBRANCH  22  27
BRANCH  24  29
ATOM     29  O   UNL A   1      33.278  19.954  26.874  1.00  0.00    -0.504 OA
ATOM     30  H   UNL A   1      32.680  20.320  27.496  1.00  0.00     0.293 HD
ENDBRANCH  24  29
ENDBRANCH   8  21
ENDBRANCH   4   7
ENDBRANCH   2   3
ENDBRANCH   1   2
BRANCH   1  31
ATOM     31  C   UNL A   1      32.497  29.861  25.408  1.00  0.00     0.023 C 
BRANCH  31  32
ATOM     32  C   UNL A   1      32.381  30.302  26.864  1.00  0.00     0.116 C 
BRANCH  32  33
ATOM     33  N   UNL A   1      32.386  31.750  27.022  1.00  0.00    -0.352 N 
ATOM     34  C   UNL A   1      33.345  32.566  27.574  1.00  0.00     0.251 C 
ATOM     35  H   UNL A   1      31.586  32.212  26.684  1.00  0.00     0.163 HD
ATOM     36  O   UNL A   1      33.119  33.758  27.752  1.00  0.00    -0.269 OA
BRANCH  34  37
ATOM     37  C   UNL A   1      34.638  31.990  27.996  1.00  0.00     0.039 A 
ATOM     38  C   UNL A   1      35.755  32.825  28.066  1.00  0.00     0.014 A 
ATOM     39  C   UNL A   1      34.736  30.648  28.371  1.00  0.00     0.014 A 
ATOM     40  C   UNL A   1      36.944  32.342  28.614  1.00  0.00     0.010 A 
ATOM     41  C   UNL A   1      35.898  30.188  28.985  1.00  0.00     0.010 A 
ATOM     42  C   UNL A   1      37.005  31.039  29.136  1.00  0.00    -0.014 A 
BRANCH  42  43
ATOM     43  C   UNL A   1      38.185  30.575  29.911  1.00  0.00     0.031 A 
ATOM     44  C   UNL A   1      39.124  29.552  29.337  1.00  0.00     0.074 A 
ATOM     45  C   UNL A   1      38.354  31.013  31.175  1.00  0.00     0.049 A 
ATOM     46  N   UNL A   1      40.143  28.957  29.903  1.00  0.00    -0.248 NA
ATOM     47  C   UNL A   1      38.872  29.126  27.951  1.00  0.00     0.031 C 
ATOM     48  C   UNL A   1      37.481  31.967  31.862  1.00  0.00     0.029 A 
ATOM     49  N   UNL A   1      39.303  30.697  32.118  1.00  0.00    -0.354 N 
ATOM     50  C   UNL A   1      40.645  28.081  28.952  1.00  0.00     0.074 A 
ATOM     51  C   UNL A   1      39.796  28.191  27.785  1.00  0.00     0.031 C 
ATOM     52  C   UNL A   1      37.938  32.167  33.108  1.00  0.00     0.029 A 
ATOM     53  C   UNL A   1      39.105  31.318  33.328  1.00  0.00     0.049 A 
ATOM     54  H   UNL A   1      40.053  30.085  31.942  1.00  0.00     0.167 HD
ATOM     55  C   UNL A   1      41.726  27.270  29.042  1.00  0.00     0.037 A 
ATOM     56  C   UNL A   1      39.769  31.196  34.493  1.00  0.00     0.037 A 
ATOM     57  C   UNL A   1      42.579  27.180  30.199  1.00  0.00     0.049 A 
ATOM     58  C   UNL A   1      40.948  30.264  34.571  1.00  0.00     0.074 A 
ATOM     59  C   UNL A   1      43.745  26.451  30.354  1.00  0.00     0.029 A 
ATOM     60  N   UNL A   1      42.350  27.828  31.404  1.00  0.00    -0.354 N 
ATOM     61  N   UNL A   1      41.469  29.509  33.634  1.00  0.00    -0.248 NA
ATOM     62  C   UNL A   1      41.631  30.164  35.868  1.00  0.00     0.031 C 
ATOM     63  C   UNL A   1      44.186  26.604  31.671  1.00  0.00     0.029 A 
ATOM     64  C   UNL A   1      43.329  27.478  32.321  1.00  0.00     0.049 A 
ATOM     65  H   UNL A   1      41.604  28.445  31.582  1.00  0.00     0.167 HD
ATOM     66  C   UNL A   1      42.547  28.861  34.221  1.00  0.00     0.074 A 
ATOM     67  C   UNL A   1      42.624  29.332  35.588  1.00  0.00     0.031 C 
ATOM     68  C   UNL A   1      43.393  27.951  33.680  1.00  0.00     0.037 A 
BRANCH  55  69
ATOM     69  C   UNL A   1      42.060  26.406  27.860  1.00  0.00     0.064 A 
ATOM     70  C   UNL A   1      43.054  26.766  26.939  1.00  0.00     0.173 A 
ATOM     71  C   UNL A   1      41.431  25.162  27.694  1.00  0.00     0.173 A 
ATOM     72  F   UNL A   1      43.680  27.947  27.049  1.00  0.00    -0.203 F 
ATOM     73  C   UNL A   1      43.394  25.920  25.886  1.00  0.00     0.198 A 
ATOM     74  C   UNL A   1      41.795  24.306  26.658  1.00  0.00     0.198 A 
ATOM     75  F   UNL A   1      40.478  24.765  28.551  1.00  0.00    -0.203 F 
ATOM     76  F   UNL A   1      44.325  26.300  25.000  1.00  0.00    -0.200 F 
ATOM     77  C   UNL A   1      42.773  24.688  25.752  1.00  0.00     0.200 A 
ATOM     78  F   UNL A   1      41.205  23.109  26.541  1.00  0.00    -0.200 F 
ATOM     79  F   UNL A   1      43.117  23.868  24.750  1.00  0.00    -0.200 F 
ENDBRANCH  55  69
BRANCH  56  80
ATOM     80  C   UNL A   1      39.325  31.958  35.691  1.00  0.00     0.064 A 
ATOM     81  C   UNL A   1      38.410  31.411  36.601  1.00  0.00     0.173 A 
ATOM     82  C   UNL A   1      39.783  33.262  35.936  1.00  0.00     0.173 A 
ATOM     83  F   UNL A   1      37.924  30.177  36.399  1.00  0.00    -0.203 F 
ATOM     84  C   UNL A   1      37.949  32.146  37.691  1.00  0.00     0.198 A 
ATOM     85  C   UNL A   1      39.349  33.983  37.046  1.00  0.00     0.198 A 
ATOM     86  F   UNL A   1      40.663  33.834  35.100  1.00  0.00    -0.203 F 
ATOM     87  F   UNL A   1      37.028  31.619  38.510  1.00  0.00    -0.200 F 
ATOM     88  C   UNL A   1      38.422  33.430  37.916  1.00  0.00     0.200 A 
ATOM     89  F   UNL A   1      39.822  35.217  37.268  1.00  0.00    -0.200 F 
ATOM     90  F   UNL A   1      37.978  34.137  38.963  1.00  0.00    -0.200 F 
ENDBRANCH  56  80
BRANCH  68  91
ATOM     91  C   UNL A   1      44.483  27.412  34.560  1.00  0.00     0.064 A 
ATOM     92  C   UNL A   1      45.711  28.078  34.698  1.00  0.00     0.173 A 
ATOM     93  C   UNL A   1      44.284  26.243  35.309  1.00  0.00     0.173 A 
ATOM     94  F   UNL A   1      45.958  29.190  33.991  1.00  0.00    -0.203 F 
ATOM     95  C   UNL A   1      46.704  27.580  35.537  1.00  0.00     0.198 A 
ATOM     96  C   UNL A   1      45.267  25.766  36.172  1.00  0.00     0.198 A 
ATOM     97  F   UNL A   1      43.126  25.571  35.218  1.00  0.00    -0.203 F 
ATOM     98  F   UNL A   1      47.887  28.208  35.616  1.00  0.00    -0.200 F 
ATOM     99  C   UNL A   1      46.478  26.432  36.280  1.00  0.00     0.200 A 
ATOM    100  F   UNL A   1      45.040  24.666  36.902  1.00  0.00    -0.200 F 
ATOM    101  F   UNL A   1      47.432  25.962  37.095  1.00  0.00    -0.200 F 
ENDBRANCH  68  91
ENDBRANCH  42  43
ENDBRANCH  34  37
ENDBRANCH  32  33
ENDBRANCH  31  32
ENDBRANCH   1  31
TORSDOF 14
ENDMDL
MODEL 3
REMARK VINA RESULT:     -13.7      3.050      7.632
REMARK SMILES COc1cccc([C@@H]2[NH2+][C@@](C)(C(=O)NCCCCNC(=O)c3ccc(-c4c5nc(c(-c6c(F)c(F)c(F)c(F)c6F)c6ccc([nH]6)c(-c6c(F)c(F)c(F)c(F)c6F)c6nc(c(-c7c(F)c(F)c(F)c(F)c7F)c7ccc4[nH]7)C=C6)C=C5)cc3)[C@@H]3C(=O)N(C)C(=O)[C@@H]32)c1O
REMARK SMILES IDX 16 1 15 2 14 3 12 4 13 5 10 7 8 8 9 9 92 10 85 13 90 14
REMARK SMILES IDX 11 15 86 16 88 17 91 18 87 19 89 20 7 21 3 22 4 23 93 24
REMARK SMILES IDX 5 25 6 26 2 27 1 28 94 29 17 31 18 32 19 33 20 34 21 36
REMARK SMILES IDX 22 37 23 38 84 39 24 40 83 41 25 42 26 43 27 44 77 45 28 46
REMARK SMILES IDX 82 47 76 48 78 49 29 50 81 51 75 52 74 53 30 55 62 56 42 57
REMARK SMILES IDX 61 58 43 59 46 60 60 61 79 62 44 63 45 64 59 66 80 67 47 68
REMARK SMILES IDX 31 69 32 70 40 71 33 72 34 73 38 74 41 75 35 76 36 77 39 78
REMARK SMILES IDX 37 79 63 80 64 81 72 82 65 83 66 84 70 85 73 86 67 87 68 88
REMARK SMILES IDX 71 89 69 90 48 91 49 92 57 93 50 94 51 95 55 96 58 97 52 98
REMARK SMILES IDX 53 99 56 100 54 101
REMARK H PARENT 14 6 9 11 9 12 94 30 19 35 78 54 46 65
REMARK Flexibility Score: inf
ROOT
ATOM      1  C   UNL A   1      31.538  28.497  25.675  1.00  0.00     0.023 C 
ENDROOT
BRANCH   1   2
ATOM      2  C   UNL A   1      31.147  27.172  25.031  1.00  0.00     0.116 C 
BRANCH   2   3
ATOM      3  N   UNL A   1      30.514  26.266  25.978  1.00  0.00    -0.351 N 
ATOM      4  C   UNL A   1      30.420  24.902  25.961  1.00  0.00     0.281 C 
ATOM      5  O   UNL A   1      29.779  24.375  26.876  1.00  0.00    -0.268 OA
ATOM      6  H   UNL A   1      30.088  26.704  26.749  1.00  0.00     0.163 HD
BRANCH   4   7
ATOM      7  C   UNL A   1      31.131  24.057  24.856  1.00  0.00     0.185 C 
ATOM      8  C   UNL A   1      31.923  21.945  25.728  1.00  0.00     0.232 C 
ATOM      9  N   UNL A   1      30.781  22.630  25.084  1.00  0.00    -0.326 N 
ATOM     10  C   UNL A   1      33.002  23.008  25.979  1.00  0.00     0.161 C 
ATOM     11  H   UNL A   1      29.964  22.572  25.690  1.00  0.00     0.347 HD
ATOM     12  H   UNL A   1      30.573  22.181  24.192  1.00  0.00     0.347 HD
ATOM     13  C   UNL A   1      32.651  24.152  25.040  1.00  0.00     0.169 C 
ATOM     14  C   UNL A   1      34.397  22.631  25.557  1.00  0.00     0.239 C 
ATOM     15  C   UNL A   1      30.653  24.593  23.496  1.00  0.00     0.091 C 
ATOM     16  C   UNL A   1      33.561  23.893  23.865  1.00  0.00     0.240 C 
ATOM     17  N   UNL A   1      34.607  23.130  24.301  1.00  0.00    -0.285 N 
ATOM     18  O   UNL A   1      35.167  21.950  26.211  1.00  0.00    -0.274 OA
ATOM     19  O   UNL A   1      33.409  24.290  22.719  1.00  0.00    -0.274 OA
ATOM     20  C   UNL A   1      35.757  22.781  23.500  1.00  0.00     0.156 C 
BRANCH   8  21
ATOM     21  C   UNL A   1      32.363  20.694  24.968  1.00  0.00     0.056 A 
ATOM     22  C   UNL A   1      33.127  18.361  24.881  1.00  0.00     0.161 A 
ATOM     23  C   UNL A   1      32.911  18.364  23.500  1.00  0.00     0.050 A 
ATOM     24  C   UNL A   1      32.898  19.544  25.593  1.00  0.00     0.166 A 
ATOM     25  C   UNL A   1      32.444  19.505  22.848  1.00  0.00     0.005 A 
ATOM     26  C   UNL A   1      32.153  20.654  23.580  1.00  0.00     0.014 A 
BRANCH  22  27
ATOM     27  O   UNL A   1      33.611  17.173  25.353  1.00  0.00    -0.493 OA
ATOM     28  C   UNL A   1      32.892  15.987  25.054  1.00  0.00     0.278 C 
ENDBRANCH  22  27
BRANCH  24  29
ATOM     29  O   UNL A   1      33.278  19.675  26.900  1.00  0.00    -0.504 OA
ATOM     30  H   UNL A   1      32.796  20.237  27.475  1.00  0.00     0.293 HD
ENDBRANCH  24  29
ENDBRANCH   8  21
ENDBRANCH   4   7
ENDBRANCH   2   3
ENDBRANCH   1   2
BRANCH   1  31
ATOM     31  C   UNL A   1      32.104  28.375  27.090  1.00  0.00     0.023 C 
BRANCH  31  32
ATOM     32  C   UNL A   1      33.550  28.834  27.251  1.00  0.00     0.116 C 
BRANCH  32  33
ATOM     33  N   UNL A   1      33.662  30.224  27.670  1.00  0.00    -0.352 N 
ATOM     34  C   UNL A   1      34.714  30.874  28.271  1.00  0.00     0.251 C 
ATOM     35  H   UNL A   1      32.870  30.781  27.495  1.00  0.00     0.163 HD
ATOM     36  O   UNL A   1      34.582  32.021  28.684  1.00  0.00    -0.269 OA
BRANCH  34  37
ATOM     37  C   UNL A   1      35.996  30.165  28.462  1.00  0.00     0.039 A 
ATOM     38  C   UNL A   1      36.947  30.211  27.441  1.00  0.00     0.014 A 
ATOM     39  C   UNL A   1      36.278  29.504  29.660  1.00  0.00     0.014 A 
ATOM     40  C   UNL A   1      38.223  29.687  27.663  1.00  0.00     0.010 A 
ATOM     41  C   UNL A   1      37.570  29.049  29.907  1.00  0.00     0.010 A 
ATOM     42  C   UNL A   1      38.562  29.159  28.920  1.00  0.00    -0.014 A 
BRANCH  42  43
ATOM     43  C   UNL A   1      39.965  28.792  29.246  1.00  0.00     0.031 A 
ATOM     44  C   UNL A   1      40.870  29.769  29.941  1.00  0.00     0.074 A 
ATOM     45  C   UNL A   1      40.446  27.604  28.828  1.00  0.00     0.049 A 
ATOM     46  N   UNL A   1      42.146  29.662  30.214  1.00  0.00    -0.248 NA
ATOM     47  C   UNL A   1      40.268  31.043  30.365  1.00  0.00     0.031 C 
ATOM     48  C   UNL A   1      39.679  26.591  28.100  1.00  0.00     0.029 A 
ATOM     49  N   UNL A   1      41.701  27.054  28.934  1.00  0.00    -0.354 N 
ATOM     50  C   UNL A   1      42.502  30.853  30.830  1.00  0.00     0.074 A 
ATOM     51  C   UNL A   1      41.319  31.687  30.855  1.00  0.00     0.031 C 
ATOM     52  C   UNL A   1      40.473  25.542  27.834  1.00  0.00     0.029 A 
ATOM     53  C   UNL A   1      41.817  25.827  28.325  1.00  0.00     0.049 A 
ATOM     54  H   UNL A   1      42.445  27.496  29.402  1.00  0.00     0.167 HD
ATOM     55  C   UNL A   1      43.704  31.210  31.340  1.00  0.00     0.037 A 
ATOM     56  C   UNL A   1      42.892  25.032  28.155  1.00  0.00     0.037 A 
ATOM     57  C   UNL A   1      44.872  30.368  31.330  1.00  0.00     0.049 A 
ATOM     58  C   UNL A   1      44.222  25.471  28.707  1.00  0.00     0.074 A 
ATOM     59  C   UNL A   1      46.112  30.608  31.897  1.00  0.00     0.029 A 
ATOM     60  N   UNL A   1      44.951  29.130  30.709  1.00  0.00    -0.354 N 
ATOM     61  N   UNL A   1      44.524  26.561  29.369  1.00  0.00    -0.248 NA
ATOM     62  C   UNL A   1      45.362  24.569  28.487  1.00  0.00     0.031 C 
ATOM     63  C   UNL A   1      46.960  29.549  31.564  1.00  0.00     0.029 A 
ATOM     64  C   UNL A   1      46.232  28.617  30.841  1.00  0.00     0.049 A 
ATOM     65  H   UNL A   1      44.208  28.682  30.245  1.00  0.00     0.167 HD
ATOM     66  C   UNL A   1      45.878  26.468  29.659  1.00  0.00     0.074 A 
ATOM     67  C   UNL A   1      46.335  25.203  29.126  1.00  0.00     0.031 C 
ATOM     68  C   UNL A   1      46.676  27.356  30.302  1.00  0.00     0.037 A 
BRANCH  55  69
ATOM     69  C   UNL A   1      43.832  32.573  31.956  1.00  0.00     0.064 A 
ATOM     70  C   UNL A   1      44.181  33.698  31.195  1.00  0.00     0.173 A 
ATOM     71  C   UNL A   1      43.523  32.768  33.312  1.00  0.00     0.173 A 
ATOM     72  F   UNL A   1      44.493  33.565  29.897  1.00  0.00    -0.203 F 
ATOM     73  C   UNL A   1      44.231  34.965  31.772  1.00  0.00     0.198 A 
ATOM     74  C   UNL A   1      43.545  34.040  33.877  1.00  0.00     0.198 A 
ATOM     75  F   UNL A   1      43.176  31.727  34.083  1.00  0.00    -0.203 F 
ATOM     76  F   UNL A   1      44.599  36.020  31.032  1.00  0.00    -0.200 F 
ATOM     77  C   UNL A   1      43.903  35.136  33.108  1.00  0.00     0.200 A 
ATOM     78  F   UNL A   1      43.211  34.205  35.164  1.00  0.00    -0.200 F 
ATOM     79  F   UNL A   1      43.933  36.359  33.655  1.00  0.00    -0.200 F 
ENDBRANCH  55  69
BRANCH  56  80
ATOM     80  C   UNL A   1      42.765  23.750  27.411  1.00  0.00     0.064 A 
ATOM     81  C   UNL A   1      42.284  22.593  28.038  1.00  0.00     0.173 A 
ATOM     82  C   UNL A   1      43.149  23.648  26.065  1.00  0.00     0.173 A 
ATOM     83  F   UNL A   1      41.925  22.633  29.330  1.00  0.00    -0.203 F 
ATOM     84  C   UNL A   1      42.220  21.378  27.359  1.00  0.00     0.198 A 
ATOM     85  C   UNL A   1      43.052  22.441  25.376  1.00  0.00     0.198 A 
ATOM     86  F   UNL A   1      43.613  24.726  25.414  1.00  0.00    -0.203 F 
ATOM     87  F   UNL A   1      41.814  20.275  28.001  1.00  0.00    -0.200 F 
ATOM     88  C   UNL A   1      42.599  21.304  26.027  1.00  0.00     0.200 A 
ATOM     89  F   UNL A   1      43.403  22.380  24.085  1.00  0.00    -0.200 F 
ATOM     90  F   UNL A   1      42.539  20.136  25.374  1.00  0.00    -0.200 F 
ENDBRANCH  56  80
BRANCH  68  91
ATOM     91  C   UNL A   1      48.120  26.988  30.477  1.00  0.00     0.064 A 
ATOM     92  C   UNL A   1      48.546  26.169  31.534  1.00  0.00     0.173 A 
ATOM     93  C   UNL A   1      49.084  27.419  29.553  1.00  0.00     0.173 A 
ATOM     94  F   UNL A   1      47.667  25.744  32.454  1.00  0.00    -0.203 F 
ATOM     95  C   UNL A   1      49.885  25.814  31.670  1.00  0.00     0.198 A 
ATOM     96  C   UNL A   1      50.417  27.035  29.673  1.00  0.00     0.198 A 
ATOM     97  F   UNL A   1      48.729  28.199  28.520  1.00  0.00    -0.203 F 
ATOM     98  F   UNL A   1      50.275  25.069  32.715  1.00  0.00    -0.200 F 
ATOM     99  C   UNL A   1      50.817  26.239  30.736  1.00  0.00     0.200 A 
ATOM    100  F   UNL A   1      51.313  27.433  28.760  1.00  0.00    -0.200 F 
ATOM    101  F   UNL A   1      52.103  25.886  30.863  1.00  0.00    -0.200 F 
ENDBRANCH  68  91
ENDBRANCH  42  43
ENDBRANCH  34  37
ENDBRANCH  32  33
ENDBRANCH  31  32
ENDBRANCH   1  31
TORSDOF 14
ENDMDL
