MODEL 1
REMARK VINA RESULT:     -12.1      0.000      0.000
REMARK SMILES Cn1cc(/C=C/C(=O)N(CC(=O)NCCCCNC(=O)c2ccc(-c3c4nc(c(-c5c(F)c(F)c(F)c(F)c5F)c5ccc([nH]5)c(-c5c(F)c(F)c(F)c(F)c5F)c5nc(c(-c6c(F)c(F)c(F)c(F)c6F)c6ccc3[nH]6)C=C5)C=C4)cc2)C(C)(C)C)cn1
REMARK SMILES IDX 14 1 13 2 11 3 12 4 10 6 9 7 7 8 8 9 6 10 5 11 4 12 1 13
REMARK SMILES IDX 2 14 3 15 89 16 88 17 84 18 85 19 86 20 87 21 15 22 16 23
REMARK SMILES IDX 17 24 18 25 19 26 20 28 21 29 22 30 83 31 23 32 82 33 24 34
REMARK SMILES IDX 25 35 26 36 76 37 27 38 81 39 75 40 77 41 28 42 80 43 74 44
REMARK SMILES IDX 73 45 29 47 61 48 41 49 60 50 42 51 45 52 59 53 78 54 43 55
REMARK SMILES IDX 44 56 58 58 79 59 46 60 30 61 31 62 39 63 32 64 33 65 37 66
REMARK SMILES IDX 40 67 34 68 35 69 38 70 36 71 62 72 63 73 71 74 64 75 65 76
REMARK SMILES IDX 69 77 72 78 66 79 67 80 70 81 68 82 47 83 48 84 56 85 49 86
REMARK SMILES IDX 50 87 54 88 57 89 51 90 52 91 55 92 53 93
REMARK H PARENT 13 5 18 27 77 46 45 57
REMARK Flexibility Score: inf
ROOT
ATOM      1  C   UNL A   1      33.457  29.692  26.632  1.00  0.00     0.116 C 
ENDROOT
BRANCH   1   2
ATOM      2  N   UNL A   1      33.768  29.606  25.220  1.00  0.00    -0.355 N 
ATOM      3  C   UNL A   1      33.577  28.616  24.304  1.00  0.00     0.239 C 
ATOM      4  O   UNL A   1      33.651  28.959  23.117  1.00  0.00    -0.273 OA
ATOM      5  H   UNL A   1      34.198  30.412  24.855  1.00  0.00     0.163 HD
BRANCH   3   6
ATOM      6  C   UNL A   1      33.133  27.177  24.646  1.00  0.00     0.220 C 
BRANCH   6   7
ATOM      7  N   UNL A   1      31.981  26.624  23.924  1.00  0.00    -0.325 N 
BRANCH   7   8
ATOM      8  C   UNL A   1      30.666  27.060  24.098  1.00  0.00     0.247 C 
ATOM      9  O   UNL A   1      29.871  26.452  24.822  1.00  0.00    -0.270 OA
BRANCH   8  10
ATOM     10  C   UNL A   1      30.057  28.265  23.424  1.00  0.00     0.072 C 
ATOM     11  C   UNL A   1      29.974  29.559  23.778  1.00  0.00     0.017 C 
BRANCH  11  12
ATOM     12  C   UNL A   1      29.208  30.573  23.140  1.00  0.00     0.013 A 
ATOM     13  C   UNL A   1      27.890  32.298  20.271  1.00  0.00     0.173 C 
ATOM     14  N   UNL A   1      28.305  31.781  21.553  1.00  0.00    -0.275 N 
ATOM     15  C   UNL A   1      28.990  30.624  21.781  1.00  0.00     0.116 A 
ATOM     16  N   UNL A   1      28.060  32.485  22.673  1.00  0.00    -0.181 NA
ATOM     17  C   UNL A   1      28.611  31.746  23.642  1.00  0.00     0.143 A 
ENDBRANCH  11  12
ENDBRANCH   8  10
ENDBRANCH   7   8
BRANCH   7  18
ATOM     18  C   UNL A   1      32.269  25.539  22.884  1.00  0.00     0.035 C 
ATOM     19  C   UNL A   1      31.512  24.231  23.186  1.00  0.00     0.034 C 
ATOM     20  C   UNL A   1      31.890  26.031  21.467  1.00  0.00     0.034 C 
ATOM     21  C   UNL A   1      33.767  25.129  22.787  1.00  0.00     0.034 C 
ENDBRANCH   7  18
ENDBRANCH   6   7
ENDBRANCH   3   6
ENDBRANCH   1   2
BRANCH   1  22
ATOM     22  C   UNL A   1      32.050  30.167  26.953  1.00  0.00     0.023 C 
BRANCH  22  23
ATOM     23  C   UNL A   1      31.819  31.661  26.780  1.00  0.00     0.023 C 
BRANCH  23  24
ATOM     24  C   UNL A   1      32.916  32.532  27.373  1.00  0.00     0.116 C 
BRANCH  24  25
ATOM     25  N   UNL A   1      32.496  33.910  27.594  1.00  0.00    -0.352 N 
ATOM     26  C   UNL A   1      33.005  34.821  28.491  1.00  0.00     0.251 C 
ATOM     27  H   UNL A   1      31.756  34.229  27.030  1.00  0.00     0.163 HD
ATOM     28  O   UNL A   1      32.478  35.913  28.652  1.00  0.00    -0.269 OA
BRANCH  26  29
ATOM     29  C   UNL A   1      34.185  34.436  29.288  1.00  0.00     0.039 A 
ATOM     30  C   UNL A   1      33.996  33.782  30.507  1.00  0.00     0.014 A 
ATOM     31  C   UNL A   1      35.468  34.654  28.783  1.00  0.00     0.014 A 
ATOM     32  C   UNL A   1      35.102  33.271  31.188  1.00  0.00     0.010 A 
ATOM     33  C   UNL A   1      36.559  34.083  29.425  1.00  0.00     0.010 A 
ATOM     34  C   UNL A   1      36.385  33.382  30.629  1.00  0.00    -0.014 A 
BRANCH  34  35
ATOM     35  C   UNL A   1      37.576  32.783  31.277  1.00  0.00     0.031 A 
ATOM     36  C   UNL A   1      38.292  31.652  30.599  1.00  0.00     0.074 A 
ATOM     37  C   UNL A   1      37.939  33.179  32.513  1.00  0.00     0.049 A 
ATOM     38  N   UNL A   1      39.234  30.871  31.061  1.00  0.00    -0.248 NA
ATOM     39  C   UNL A   1      37.864  31.334  29.227  1.00  0.00     0.031 C 
ATOM     40  C   UNL A   1      37.296  34.242  33.287  1.00  0.00     0.029 A 
ATOM     41  N   UNL A   1      38.927  32.713  33.343  1.00  0.00    -0.354 N 
ATOM     42  C   UNL A   1      39.486  29.952  30.051  1.00  0.00     0.074 A 
ATOM     43  C   UNL A   1      38.572  30.245  28.970  1.00  0.00     0.031 C 
ATOM     44  C   UNL A   1      37.910  34.353  34.476  1.00  0.00     0.029 A 
ATOM     45  C   UNL A   1      38.961  33.343  34.564  1.00  0.00     0.049 A 
ATOM     46  H   UNL A   1      39.551  31.996  33.090  1.00  0.00     0.167 HD
ATOM     47  C   UNL A   1      40.409  28.963  30.027  1.00  0.00     0.037 A 
ATOM     48  C   UNL A   1      39.741  33.116  35.638  1.00  0.00     0.037 A 
ATOM     49  C   UNL A   1      41.343  28.706  31.089  1.00  0.00     0.049 A 
ATOM     50  C   UNL A   1      40.771  32.022  35.578  1.00  0.00     0.074 A 
ATOM     51  C   UNL A   1      42.358  27.766  31.136  1.00  0.00     0.029 A 
ATOM     52  N   UNL A   1      41.380  29.399  32.289  1.00  0.00    -0.354 N 
ATOM     53  N   UNL A   1      41.033  31.186  34.603  1.00  0.00    -0.248 NA
ATOM     54  C   UNL A   1      41.616  31.838  36.767  1.00  0.00     0.031 C 
ATOM     55  C   UNL A   1      42.991  27.872  32.379  1.00  0.00     0.029 A 
ATOM     56  C   UNL A   1      42.395  28.902  33.089  1.00  0.00     0.049 A 
ATOM     57  H   UNL A   1      40.775  30.136  32.536  1.00  0.00     0.167 HD
ATOM     58  C   UNL A   1      42.089  30.403  35.043  1.00  0.00     0.074 A 
ATOM     59  C   UNL A   1      42.424  30.862  36.375  1.00  0.00     0.031 C 
ATOM     60  C   UNL A   1      42.728  29.395  34.401  1.00  0.00     0.037 A 
BRANCH  47  61
ATOM     61  C   UNL A   1      40.455  28.090  28.808  1.00  0.00     0.064 A 
ATOM     62  C   UNL A   1      41.221  28.435  27.685  1.00  0.00     0.173 A 
ATOM     63  C   UNL A   1      39.747  26.879  28.775  1.00  0.00     0.173 A 
ATOM     64  F   UNL A   1      41.904  29.589  27.663  1.00  0.00    -0.203 F 
ATOM     65  C   UNL A   1      41.255  27.613  26.562  1.00  0.00     0.198 A 
ATOM     66  C   UNL A   1      39.806  26.046  27.661  1.00  0.00     0.198 A 
ATOM     67  F   UNL A   1      39.001  26.501  29.824  1.00  0.00    -0.203 F 
ATOM     68  F   UNL A   1      41.955  27.987  25.482  1.00  0.00    -0.200 F 
ATOM     69  C   UNL A   1      40.553  26.417  26.553  1.00  0.00     0.200 A 
ATOM     70  F   UNL A   1      39.135  24.886  27.657  1.00  0.00    -0.200 F 
ATOM     71  F   UNL A   1      40.591  25.625  25.473  1.00  0.00    -0.200 F 
ENDBRANCH  47  61
BRANCH  48  72
ATOM     72  C   UNL A   1      39.595  33.960  36.851  1.00  0.00     0.064 A 
ATOM     73  C   UNL A   1      38.799  33.537  37.925  1.00  0.00     0.173 A 
ATOM     74  C   UNL A   1      40.244  35.197  36.967  1.00  0.00     0.173 A 
ATOM     75  F   UNL A   1      38.142  32.370  37.851  1.00  0.00    -0.203 F 
ATOM     76  C   UNL A   1      38.645  34.328  39.062  1.00  0.00     0.198 A 
ATOM     77  C   UNL A   1      40.109  35.976  38.115  1.00  0.00     0.198 A 
ATOM     78  F   UNL A   1      41.020  35.644  35.968  1.00  0.00    -0.203 F 
ATOM     79  F   UNL A   1      37.847  33.917  40.058  1.00  0.00    -0.200 F 
ATOM     80  C   UNL A   1      39.304  35.543  39.159  1.00  0.00     0.200 A 
ATOM     81  F   UNL A   1      40.757  37.145  38.210  1.00  0.00    -0.200 F 
ATOM     82  F   UNL A   1      39.160  36.302  40.254  1.00  0.00    -0.200 F 
ENDBRANCH  48  72
BRANCH  60  83
ATOM     83  C   UNL A   1      43.888  28.753  35.100  1.00  0.00     0.064 A 
ATOM     84  C   UNL A   1      45.190  29.251  34.973  1.00  0.00     0.173 A 
ATOM     85  C   UNL A   1      43.675  27.669  35.966  1.00  0.00     0.173 A 
ATOM     86  F   UNL A   1      45.443  30.277  34.146  1.00  0.00    -0.203 F 
ATOM     87  C   UNL A   1      46.243  28.681  35.683  1.00  0.00     0.198 A 
ATOM     88  C   UNL A   1      44.726  27.118  36.692  1.00  0.00     0.198 A 
ATOM     89  F   UNL A   1      42.443  27.162  36.124  1.00  0.00    -0.203 F 
ATOM     90  F   UNL A   1      47.488  29.155  35.528  1.00  0.00    -0.200 F 
ATOM     91  C   UNL A   1      46.009  27.622  36.547  1.00  0.00     0.200 A 
ATOM     92  F   UNL A   1      44.496  26.102  37.536  1.00  0.00    -0.200 F 
ATOM     93  F   UNL A   1      47.022  27.086  37.242  1.00  0.00    -0.200 F 
ENDBRANCH  60  83
ENDBRANCH  34  35
ENDBRANCH  26  29
ENDBRANCH  24  25
ENDBRANCH  23  24
ENDBRANCH  22  23
ENDBRANCH   1  22
TORSDOF 16
ENDMDL
MODEL 2
REMARK VINA RESULT:     -12.0      6.349     11.813
REMARK SMILES Cn1cc(/C=C/C(=O)N(CC(=O)NCCCCNC(=O)c2ccc(-c3c4nc(c(-c5c(F)c(F)c(F)c(F)c5F)c5ccc([nH]5)c(-c5c(F)c(F)c(F)c(F)c5F)c5nc(c(-c6c(F)c(F)c(F)c(F)c6F)c6ccc3[nH]6)C=C5)C=C4)cc2)C(C)(C)C)cn1
REMARK SMILES IDX 14 1 13 2 11 3 12 4 10 6 9 7 7 8 8 9 6 10 5 11 4 12 1 13
REMARK SMILES IDX 2 14 3 15 89 16 88 17 84 18 85 19 86 20 87 21 15 22 16 23
REMARK SMILES IDX 17 24 18 25 19 26 20 28 21 29 22 30 83 31 23 32 82 33 24 34
REMARK SMILES IDX 25 35 26 36 76 37 27 38 81 39 75 40 77 41 28 42 80 43 74 44
REMARK SMILES IDX 73 45 29 47 61 48 41 49 60 50 42 51 45 52 59 53 78 54 43 55
REMARK SMILES IDX 44 56 58 58 79 59 46 60 30 61 31 62 39 63 32 64 33 65 37 66
REMARK SMILES IDX 40 67 34 68 35 69 38 70 36 71 62 72 63 73 71 74 64 75 65 76
REMARK SMILES IDX 69 77 72 78 66 79 67 80 70 81 68 82 47 83 48 84 56 85 49 86
REMARK SMILES IDX 50 87 54 88 57 89 51 90 52 91 55 92 53 93
REMARK H PARENT 13 5 18 27 77 46 45 57
REMARK Flexibility Score: inf
ROOT
ATOM      1  C   UNL A   1      37.196  22.529  25.634  1.00  0.00     0.116 C 
ENDROOT
BRANCH   1   2
ATOM      2  N   UNL A   1      36.118  22.286  26.570  1.00  0.00    -0.355 N 
ATOM      3  C   UNL A   1      34.794  22.609  26.539  1.00  0.00     0.239 C 
ATOM      4  O   UNL A   1      34.070  21.986  27.325  1.00  0.00    -0.273 OA
ATOM      5  H   UNL A   1      36.392  21.797  27.379  1.00  0.00     0.163 HD
BRANCH   3   6
ATOM      6  C   UNL A   1      34.147  23.556  25.507  1.00  0.00     0.220 C 
BRANCH   6   7
ATOM      7  N   UNL A   1      32.976  23.069  24.765  1.00  0.00    -0.325 N 
BRANCH   7   8
ATOM      8  C   UNL A   1      33.038  22.120  23.743  1.00  0.00     0.247 C 
ATOM      9  O   UNL A   1      33.166  22.450  22.559  1.00  0.00    -0.270 OA
BRANCH   8  10
ATOM     10  C   UNL A   1      32.926  20.628  23.939  1.00  0.00     0.072 C 
ATOM     11  C   UNL A   1      33.711  19.732  24.560  1.00  0.00     0.017 C 
BRANCH  11  12
ATOM     12  C   UNL A   1      33.592  18.315  24.517  1.00  0.00     0.013 A 
ATOM     13  C   UNL A   1      32.317  15.148  25.651  1.00  0.00     0.173 C 
ATOM     14  N   UNL A   1      32.961  16.284  25.037  1.00  0.00    -0.275 N 
ATOM     15  C   UNL A   1      32.705  17.600  25.290  1.00  0.00     0.116 A 
ATOM     16  N   UNL A   1      33.955  16.096  24.150  1.00  0.00    -0.181 NA
ATOM     17  C   UNL A   1      34.338  17.337  23.832  1.00  0.00     0.143 A 
ENDBRANCH  11  12
ENDBRANCH   8  10
ENDBRANCH   7   8
BRANCH   7  18
ATOM     18  C   UNL A   1      31.611  23.610  25.192  1.00  0.00     0.035 C 
ATOM     19  C   UNL A   1      30.791  22.564  25.973  1.00  0.00     0.034 C 
ATOM     20  C   UNL A   1      31.776  24.879  26.061  1.00  0.00     0.034 C 
ATOM     21  C   UNL A   1      30.696  24.041  24.008  1.00  0.00     0.034 C 
ENDBRANCH   7  18
ENDBRANCH   6   7
ENDBRANCH   3   6
ENDBRANCH   1   2
BRANCH   1  22
ATOM     22  C   UNL A   1      37.350  21.482  24.543  1.00  0.00     0.023 C 
BRANCH  22  23
ATOM     23  C   UNL A   1      38.050  20.201  24.973  1.00  0.00     0.023 C 
BRANCH  23  24
ATOM     24  C   UNL A   1      39.312  20.427  25.790  1.00  0.00     0.116 C 
BRANCH  24  25
ATOM     25  N   UNL A   1      40.167  19.250  25.858  1.00  0.00    -0.352 N 
ATOM     26  C   UNL A   1      41.522  19.195  26.094  1.00  0.00     0.251 C 
ATOM     27  H   UNL A   1      39.720  18.384  25.718  1.00  0.00     0.163 HD
ATOM     28  O   UNL A   1      42.138  18.142  26.007  1.00  0.00    -0.269 OA
BRANCH  26  29
ATOM     29  C   UNL A   1      42.229  20.448  26.416  1.00  0.00     0.039 A 
ATOM     30  C   UNL A   1      42.757  21.217  25.377  1.00  0.00     0.014 A 
ATOM     31  C   UNL A   1      42.291  20.893  27.739  1.00  0.00     0.014 A 
ATOM     32  C   UNL A   1      43.283  22.479  25.657  1.00  0.00     0.010 A 
ATOM     33  C   UNL A   1      42.747  22.177  28.006  1.00  0.00     0.010 A 
ATOM     34  C   UNL A   1      43.241  22.983  26.967  1.00  0.00    -0.014 A 
BRANCH  34  35
ATOM     35  C   UNL A   1      43.712  24.349  27.296  1.00  0.00     0.031 A 
ATOM     36  C   UNL A   1      42.735  25.356  27.826  1.00  0.00     0.074 A 
ATOM     37  C   UNL A   1      44.980  24.709  27.014  1.00  0.00     0.049 A 
ATOM     38  N   UNL A   1      42.886  26.643  28.009  1.00  0.00    -0.248 NA
ATOM     39  C   UNL A   1      41.393  24.854  28.163  1.00  0.00     0.031 C 
ATOM     40  C   UNL A   1      46.009  23.828  26.460  1.00  0.00     0.029 A 
ATOM     41  N   UNL A   1      45.609  25.922  27.132  1.00  0.00    -0.354 N 
ATOM     42  C   UNL A   1      41.654  27.106  28.448  1.00  0.00     0.074 A 
ATOM     43  C   UNL A   1      40.754  25.973  28.466  1.00  0.00     0.031 C 
ATOM     44  C   UNL A   1      47.144  24.527  26.296  1.00  0.00     0.029 A 
ATOM     45  C   UNL A   1      46.910  25.913  26.691  1.00  0.00     0.049 A 
ATOM     46  H   UNL A   1      45.170  26.724  27.498  1.00  0.00     0.167 HD
ATOM     47  C   UNL A   1      41.311  28.362  28.817  1.00  0.00     0.037 A 
ATOM     48  C   UNL A   1      47.805  26.915  26.599  1.00  0.00     0.037 A 
ATOM     49  C   UNL A   1      42.223  29.473  28.838  1.00  0.00     0.049 A 
ATOM     50  C   UNL A   1      47.403  28.298  27.033  1.00  0.00     0.074 A 
ATOM     51  C   UNL A   1      41.990  30.772  29.253  1.00  0.00     0.029 A 
ATOM     52  N   UNL A   1      43.547  29.412  28.433  1.00  0.00    -0.354 N 
ATOM     53  N   UNL A   1      46.248  28.719  27.489  1.00  0.00    -0.248 NA
ATOM     54  C   UNL A   1      48.428  29.348  26.940  1.00  0.00     0.031 C 
ATOM     55  C   UNL A   1      43.166  31.505  29.070  1.00  0.00     0.029 A 
ATOM     56  C   UNL A   1      44.142  30.653  28.578  1.00  0.00     0.049 A 
ATOM     57  H   UNL A   1      43.997  28.605  28.091  1.00  0.00     0.167 HD
ATOM     58  C   UNL A   1      46.415  30.067  27.769  1.00  0.00     0.074 A 
ATOM     59  C   UNL A   1      47.785  30.397  27.433  1.00  0.00     0.031 C 
ATOM     60  C   UNL A   1      45.516  30.952  28.264  1.00  0.00     0.037 A 
BRANCH  47  61
ATOM     61  C   UNL A   1      39.890  28.596  29.234  1.00  0.00     0.064 A 
ATOM     62  C   UNL A   1      39.462  28.369  30.551  1.00  0.00     0.173 A 
ATOM     63  C   UNL A   1      38.950  29.083  28.313  1.00  0.00     0.173 A 
ATOM     64  F   UNL A   1      40.320  27.890  31.465  1.00  0.00    -0.203 F 
ATOM     65  C   UNL A   1      38.140  28.593  30.923  1.00  0.00     0.198 A 
ATOM     66  C   UNL A   1      37.635  29.332  28.696  1.00  0.00     0.198 A 
ATOM     67  F   UNL A   1      39.307  29.320  27.042  1.00  0.00    -0.203 F 
ATOM     68  F   UNL A   1      37.743  28.322  32.174  1.00  0.00    -0.200 F 
ATOM     69  C   UNL A   1      37.229  29.080  29.998  1.00  0.00     0.200 A 
ATOM     70  F   UNL A   1      36.758  29.813  27.804  1.00  0.00    -0.200 F 
ATOM     71  F   UNL A   1      35.958  29.300  30.360  1.00  0.00    -0.200 F 
ENDBRANCH  47  61
BRANCH  48  72
ATOM     72  C   UNL A   1      49.175  26.641  26.099  1.00  0.00     0.064 A 
ATOM     73  C   UNL A   1      50.149  26.090  26.944  1.00  0.00     0.173 A 
ATOM     74  C   UNL A   1      49.542  26.918  24.775  1.00  0.00     0.173 A 
ATOM     75  F   UNL A   1      49.851  25.828  28.226  1.00  0.00    -0.203 F 
ATOM     76  C   UNL A   1      51.442  25.842  26.487  1.00  0.00     0.198 A 
ATOM     77  C   UNL A   1      50.828  26.647  24.312  1.00  0.00     0.198 A 
ATOM     78  F   UNL A   1      48.645  27.441  23.925  1.00  0.00    -0.203 F 
ATOM     79  F   UNL A   1      52.364  25.351  27.328  1.00  0.00    -0.200 F 
ATOM     80  C   UNL A   1      51.779  26.115  25.171  1.00  0.00     0.200 A 
ATOM     81  F   UNL A   1      51.147  26.900  23.036  1.00  0.00    -0.200 F 
ATOM     82  F   UNL A   1      53.021  25.872  24.730  1.00  0.00    -0.200 F 
ENDBRANCH  48  72
BRANCH  60  83
ATOM     83  C   UNL A   1      45.991  32.349  28.525  1.00  0.00     0.064 A 
ATOM     84  C   UNL A   1      45.881  33.356  27.557  1.00  0.00     0.173 A 
ATOM     85  C   UNL A   1      46.495  32.696  29.788  1.00  0.00     0.173 A 
ATOM     86  F   UNL A   1      45.419  33.066  26.332  1.00  0.00    -0.203 F 
ATOM     87  C   UNL A   1      46.268  34.662  27.842  1.00  0.00     0.198 A 
ATOM     88  C   UNL A   1      46.858  34.008  30.076  1.00  0.00     0.198 A 
ATOM     89  F   UNL A   1      46.612  31.767  30.748  1.00  0.00    -0.203 F 
ATOM     90  F   UNL A   1      46.181  35.606  26.894  1.00  0.00    -0.200 F 
ATOM     91  C   UNL A   1      46.747  34.989  29.102  1.00  0.00     0.200 A 
ATOM     92  F   UNL A   1      47.309  34.324  31.298  1.00  0.00    -0.200 F 
ATOM     93  F   UNL A   1      47.104  36.251  29.379  1.00  0.00    -0.200 F 
ENDBRANCH  60  83
ENDBRANCH  34  35
ENDBRANCH  26  29
ENDBRANCH  24  25
ENDBRANCH  23  24
ENDBRANCH  22  23
ENDBRANCH   1  22
TORSDOF 16
ENDMDL
MODEL 3
REMARK VINA RESULT:     -12.0      0.535      7.418
REMARK SMILES Cn1cc(/C=C/C(=O)N(CC(=O)NCCCCNC(=O)c2ccc(-c3c4nc(c(-c5c(F)c(F)c(F)c(F)c5F)c5ccc([nH]5)c(-c5c(F)c(F)c(F)c(F)c5F)c5nc(c(-c6c(F)c(F)c(F)c(F)c6F)c6ccc3[nH]6)C=C5)C=C4)cc2)C(C)(C)C)cn1
REMARK SMILES IDX 14 1 13 2 11 3 12 4 10 6 9 7 7 8 8 9 6 10 5 11 4 12 1 13
REMARK SMILES IDX 2 14 3 15 89 16 88 17 84 18 85 19 86 20 87 21 15 22 16 23
REMARK SMILES IDX 17 24 18 25 19 26 20 28 21 29 22 30 83 31 23 32 82 33 24 34
REMARK SMILES IDX 25 35 26 36 76 37 27 38 81 39 75 40 77 41 28 42 80 43 74 44
REMARK SMILES IDX 73 45 29 47 61 48 41 49 60 50 42 51 45 52 59 53 78 54 43 55
REMARK SMILES IDX 44 56 58 58 79 59 46 60 30 61 31 62 39 63 32 64 33 65 37 66
REMARK SMILES IDX 40 67 34 68 35 69 38 70 36 71 62 72 63 73 71 74 64 75 65 76
REMARK SMILES IDX 69 77 72 78 66 79 67 80 70 81 68 82 47 83 48 84 56 85 49 86
REMARK SMILES IDX 50 87 54 88 57 89 51 90 52 91 55 92 53 93
REMARK H PARENT 13 5 18 27 77 46 45 57
REMARK Flexibility Score: inf
ROOT
ATOM      1  C   UNL A   1      33.179  30.114  26.379  1.00  0.00     0.116 C 
ENDROOT
BRANCH   1   2
ATOM      2  N   UNL A   1      33.577  29.786  25.026  1.00  0.00    -0.355 N 
ATOM      3  C   UNL A   1      33.380  28.674  24.263  1.00  0.00     0.239 C 
ATOM      4  O   UNL A   1      33.555  28.818  23.046  1.00  0.00    -0.273 OA
ATOM      5  H   UNL A   1      34.084  30.497  24.573  1.00  0.00     0.163 HD
BRANCH   3   6
ATOM      6  C   UNL A   1      32.817  27.337  24.790  1.00  0.00     0.220 C 
BRANCH   6   7
ATOM      7  N   UNL A   1      31.749  26.689  24.019  1.00  0.00    -0.325 N 
BRANCH   7   8
ATOM      8  C   UNL A   1      30.402  27.052  24.092  1.00  0.00     0.247 C 
ATOM      9  O   UNL A   1      29.585  26.385  24.735  1.00  0.00    -0.270 OA
BRANCH   8  10
ATOM     10  C   UNL A   1      29.787  28.240  23.395  1.00  0.00     0.072 C 
ATOM     11  C   UNL A   1      29.926  29.565  23.566  1.00  0.00     0.017 C 
BRANCH  11  12
ATOM     12  C   UNL A   1      29.145  30.592  22.964  1.00  0.00     0.013 A 
ATOM     13  C   UNL A   1      27.837  32.427  20.160  1.00  0.00     0.173 C 
ATOM     14  N   UNL A   1      28.241  31.856  21.422  1.00  0.00    -0.275 N 
ATOM     15  C   UNL A   1      28.951  30.706  21.606  1.00  0.00     0.116 A 
ATOM     16  N   UNL A   1      27.958  32.496  22.571  1.00  0.00    -0.181 NA
ATOM     17  C   UNL A   1      28.510  31.722  23.512  1.00  0.00     0.143 A 
ENDBRANCH  11  12
ENDBRANCH   8  10
ENDBRANCH   7   8
BRANCH   7  18
ATOM     18  C   UNL A   1      32.166  25.586  23.045  1.00  0.00     0.035 C 
ATOM     19  C   UNL A   1      31.430  24.260  23.319  1.00  0.00     0.034 C 
ATOM     20  C   UNL A   1      31.901  26.023  21.584  1.00  0.00     0.034 C 
ATOM     21  C   UNL A   1      33.680  25.229  23.096  1.00  0.00     0.034 C 
ENDBRANCH   7  18
ENDBRANCH   6   7
ENDBRANCH   3   6
ENDBRANCH   1   2
BRANCH   1  22
ATOM     22  C   UNL A   1      31.724  30.521  26.542  1.00  0.00     0.023 C 
BRANCH  22  23
ATOM     23  C   UNL A   1      31.492  32.007  26.769  1.00  0.00     0.023 C 
BRANCH  23  24
ATOM     24  C   UNL A   1      32.717  32.759  27.265  1.00  0.00     0.116 C 
BRANCH  24  25
ATOM     25  N   UNL A   1      32.438  34.149  27.601  1.00  0.00    -0.352 N 
ATOM     26  C   UNL A   1      33.018  34.920  28.582  1.00  0.00     0.251 C 
ATOM     27  H   UNL A   1      31.747  34.592  27.058  1.00  0.00     0.163 HD
ATOM     28  O   UNL A   1      32.604  36.044  28.832  1.00  0.00    -0.269 OA
BRANCH  26  29
ATOM     29  C   UNL A   1      34.133  34.346  29.357  1.00  0.00     0.039 A 
ATOM     30  C   UNL A   1      33.849  33.602  30.505  1.00  0.00     0.014 A 
ATOM     31  C   UNL A   1      35.445  34.480  28.897  1.00  0.00     0.014 A 
ATOM     32  C   UNL A   1      34.881  32.921  31.152  1.00  0.00     0.010 A 
ATOM     33  C   UNL A   1      36.457  33.744  29.499  1.00  0.00     0.010 A 
ATOM     34  C   UNL A   1      36.183  32.954  30.627  1.00  0.00    -0.014 A 
BRANCH  34  35
ATOM     35  C   UNL A   1      37.292  32.181  31.234  1.00  0.00     0.031 A 
ATOM     36  C   UNL A   1      37.788  32.555  32.600  1.00  0.00     0.074 A 
ATOM     37  C   UNL A   1      37.918  31.227  30.517  1.00  0.00     0.049 A 
ATOM     38  N   UNL A   1      38.850  32.137  33.240  1.00  0.00    -0.248 NA
ATOM     39  C   UNL A   1      37.002  33.562  33.330  1.00  0.00     0.031 C 
ATOM     40  C   UNL A   1      37.551  30.804  29.164  1.00  0.00     0.029 A 
ATOM     41  N   UNL A   1      39.014  30.460  30.820  1.00  0.00    -0.354 N 
ATOM     42  C   UNL A   1      38.876  32.854  34.429  1.00  0.00     0.074 A 
ATOM     43  C   UNL A   1      37.749  33.760  34.405  1.00  0.00     0.031 C 
ATOM     44  C   UNL A   1      38.400  29.847  28.758  1.00  0.00     0.029 A 
ATOM     45  C   UNL A   1      39.395  29.619  29.801  1.00  0.00     0.049 A 
ATOM     46  H   UNL A   1      39.483  30.505  31.684  1.00  0.00     0.167 HD
ATOM     47  C   UNL A   1      39.755  32.750  35.452  1.00  0.00     0.037 A 
ATOM     48  C   UNL A   1      40.441  28.776  29.715  1.00  0.00     0.037 A 
ATOM     49  C   UNL A   1      40.847  31.816  35.487  1.00  0.00     0.049 A 
ATOM     50  C   UNL A   1      41.393  28.668  30.875  1.00  0.00     0.074 A 
ATOM     51  C   UNL A   1      41.757  31.590  36.504  1.00  0.00     0.029 A 
ATOM     52  N   UNL A   1      41.169  30.945  34.458  1.00  0.00    -0.354 N 
ATOM     53  N   UNL A   1      41.385  29.317  32.014  1.00  0.00    -0.248 NA
ATOM     54  C   UNL A   1      42.500  27.710  30.740  1.00  0.00     0.031 C 
ATOM     55  C   UNL A   1      42.650  30.603  36.077  1.00  0.00     0.029 A 
ATOM     56  C   UNL A   1      42.272  30.186  34.811  1.00  0.00     0.049 A 
ATOM     57  H   UNL A   1      40.686  30.877  33.602  1.00  0.00     0.167 HD
ATOM     58  C   UNL A   1      42.457  28.825  32.743  1.00  0.00     0.074 A 
ATOM     59  C   UNL A   1      43.097  27.820  31.919  1.00  0.00     0.031 C 
ATOM     60  C   UNL A   1      42.874  29.172  33.985  1.00  0.00     0.037 A 
BRANCH  47  61
ATOM     61  C   UNL A   1      39.564  33.669  36.622  1.00  0.00     0.064 A 
ATOM     62  C   UNL A   1      38.793  33.296  37.733  1.00  0.00     0.173 A 
ATOM     63  C   UNL A   1      40.184  34.927  36.645  1.00  0.00     0.173 A 
ATOM     64  F   UNL A   1      38.168  32.109  37.752  1.00  0.00    -0.203 F 
ATOM     65  C   UNL A   1      38.627  34.160  38.812  1.00  0.00     0.198 A 
ATOM     66  C   UNL A   1      40.039  35.777  37.738  1.00  0.00     0.198 A 
ATOM     67  F   UNL A   1      40.935  35.332  35.609  1.00  0.00    -0.203 F 
ATOM     68  F   UNL A   1      37.846  33.801  39.840  1.00  0.00    -0.200 F 
ATOM     69  C   UNL A   1      39.255  35.396  38.817  1.00  0.00     0.200 A 
ATOM     70  F   UNL A   1      40.654  36.968  37.747  1.00  0.00    -0.200 F 
ATOM     71  F   UNL A   1      39.098  36.224  39.859  1.00  0.00    -0.200 F 
ENDBRANCH  47  61
BRANCH  48  72
ATOM     72  C   UNL A   1      40.629  27.949  28.496  1.00  0.00     0.064 A 
ATOM     73  C   UNL A   1      40.009  26.697  28.378  1.00  0.00     0.173 A 
ATOM     74  C   UNL A   1      41.423  28.388  27.428  1.00  0.00     0.173 A 
ATOM     75  F   UNL A   1      39.256  26.227  29.384  1.00  0.00    -0.203 F 
ATOM     76  C   UNL A   1      40.189  25.909  27.243  1.00  0.00     0.198 A 
ATOM     77  C   UNL A   1      41.583  27.609  26.283  1.00  0.00     0.198 A 
ATOM     78  F   UNL A   1      42.034  29.581  27.491  1.00  0.00    -0.203 F 
ATOM     79  F   UNL A   1      39.616  24.699  27.173  1.00  0.00    -0.200 F 
ATOM     80  C   UNL A   1      40.971  26.367  26.195  1.00  0.00     0.200 A 
ATOM     81  F   UNL A   1      42.330  28.061  25.266  1.00  0.00    -0.200 F 
ATOM     82  F   UNL A   1      41.142  25.611  25.102  1.00  0.00    -0.200 F 
ENDBRANCH  48  72
BRANCH  60  83
ATOM     83  C   UNL A   1      44.043  28.427  34.556  1.00  0.00     0.064 A 
ATOM     84  C   UNL A   1      43.877  27.224  35.255  1.00  0.00     0.173 A 
ATOM     85  C   UNL A   1      45.348  28.890  34.335  1.00  0.00     0.173 A 
ATOM     86  F   UNL A   1      42.646  26.750  35.501  1.00  0.00    -0.203 F 
ATOM     87  C   UNL A   1      44.980  26.513  35.720  1.00  0.00     0.198 A 
ATOM     88  C   UNL A   1      46.449  28.165  34.781  1.00  0.00     0.198 A 
ATOM     89  F   UNL A   1      45.556  30.034  33.666  1.00  0.00    -0.203 F 
ATOM     90  F   UNL A   1      44.800  25.378  36.410  1.00  0.00    -0.200 F 
ATOM     91  C   UNL A   1      46.263  26.979  35.476  1.00  0.00     0.200 A 
ATOM     92  F   UNL A   1      47.688  28.610  34.534  1.00  0.00    -0.200 F 
ATOM     93  F   UNL A   1      47.324  26.285  35.912  1.00  0.00    -0.200 F 
ENDBRANCH  60  83
ENDBRANCH  34  35
ENDBRANCH  26  29
ENDBRANCH  24  25
ENDBRANCH  23  24
ENDBRANCH  22  23
ENDBRANCH   1  22
TORSDOF 16
ENDMDL
