MODEL 1
REMARK VINA RESULT:     -12.4      0.000      0.000
REMARK SMILES CC1(C)[C@H](C(=O)Nc2ccc(C(F)(F)F)nc2)[C@@H]1C(=O)NCCCCNC(=O)c1ccc(-c2c3nc(c(-c4c(F)c(F)c(F)c(F)c4F)c4ccc([nH]4)c(-c4c(F)c(F)c(F)c(F)c4F)c4nc(c(-c5c(F)c(F)c(F)c(F)c5F)c5ccc2[nH]5)C=C4)C=C3)cc1
REMARK SMILES IDX 23 1 22 2 21 3 19 4 20 5 18 7 1 8 2 9 3 10 4 11 5 12 6 13
REMARK SMILES IDX 7 14 8 16 9 17 17 18 10 19 16 20 11 21 12 22 13 23 14 24
REMARK SMILES IDX 15 25 24 26 25 27 26 28 27 29 28 31 29 32 30 33 91 34 31 35
REMARK SMILES IDX 90 36 32 37 33 38 34 39 84 40 35 41 89 42 83 43 85 44 36 45
REMARK SMILES IDX 88 46 82 47 81 48 37 50 69 51 49 52 68 53 50 54 53 55 67 56
REMARK SMILES IDX 86 57 51 58 52 59 66 61 87 62 54 63 38 64 39 65 47 66 40 67
REMARK SMILES IDX 41 68 45 69 48 70 42 71 43 72 46 73 44 74 70 75 71 76 79 77
REMARK SMILES IDX 72 78 73 79 77 80 80 81 74 82 75 83 78 84 76 85 55 86 56 87
REMARK SMILES IDX 64 88 57 89 58 90 62 91 65 92 59 93 60 94 63 95 61 96
REMARK H PARENT 21 6 7 15 26 30 85 49 53 60
REMARK Flexibility Score: inf
ROOT
ATOM      1  C   UNL A   1      33.862  28.259  23.836  1.00  0.00     0.023 C 
ENDROOT
BRANCH   1   2
ATOM      2  C   UNL A   1      33.629  26.849  24.364  1.00  0.00     0.116 C 
BRANCH   2   3
ATOM      3  N   UNL A   1      33.775  25.816  23.356  1.00  0.00    -0.356 N 
ATOM      4  C   UNL A   1      34.402  24.603  23.493  1.00  0.00     0.224 C 
ATOM      5  O   UNL A   1      34.423  23.803  22.564  1.00  0.00    -0.275 OA
ATOM      6  H   UNL A   1      33.379  26.006  22.474  1.00  0.00     0.163 HD
BRANCH   4   7
ATOM      7  C   UNL A   1      35.154  24.358  24.739  1.00  0.00     0.098 C 
ATOM      8  C   UNL A   1      37.393  23.634  25.862  1.00  0.00     0.013 C 
ATOM      9  C   UNL A   1      36.215  23.275  24.970  1.00  0.00    -0.011 C 
ATOM     10  C   UNL A   1      36.635  22.343  23.876  1.00  0.00     0.013 C 
ATOM     11  C   UNL A   1      34.877  23.219  25.686  1.00  0.00     0.098 C 
BRANCH  11  12
ATOM     12  C   UNL A   1      33.746  22.232  25.690  1.00  0.00     0.228 C 
ATOM     13  O   UNL A   1      34.073  21.047  25.789  1.00  0.00    -0.274 OA
ATOM     14  N   UNL A   1      32.421  22.507  25.928  1.00  0.00    -0.324 N 
ATOM     15  H   UNL A   1      31.999  21.924  26.599  1.00  0.00     0.169 HD
BRANCH  14  16
ATOM     16  C   UNL A   1      31.572  23.467  25.384  1.00  0.00     0.059 A 
ATOM     17  C   UNL A   1      31.100  23.387  24.090  1.00  0.00     0.030 A 
ATOM     18  C   UNL A   1      31.114  24.518  26.166  1.00  0.00     0.137 A 
ATOM     19  C   UNL A   1      30.421  24.475  23.544  1.00  0.00     0.035 A 
ATOM     20  N   UNL A   1      30.456  25.592  25.676  1.00  0.00    -0.250 NA
ATOM     21  C   UNL A   1      30.202  25.604  24.335  1.00  0.00     0.144 A 
BRANCH  21  22
ATOM     22  C   UNL A   1      29.703  26.882  23.674  1.00  0.00     0.433 C 
ATOM     23  F   UNL A   1      30.247  27.087  22.440  1.00  0.00    -0.165 F 
ATOM     24  F   UNL A   1      28.351  26.919  23.500  1.00  0.00    -0.165 F 
ATOM     25  F   UNL A   1      30.007  28.005  24.395  1.00  0.00    -0.165 F 
ENDBRANCH  21  22
ENDBRANCH  14  16
ENDBRANCH  11  12
ENDBRANCH   4   7
ENDBRANCH   2   3
ENDBRANCH   1   2
BRANCH   1  26
ATOM     26  C   UNL A   1      32.903  29.328  24.359  1.00  0.00     0.023 C 
BRANCH  26  27
ATOM     27  C   UNL A   1      32.922  29.568  25.864  1.00  0.00     0.116 C 
BRANCH  27  28
ATOM     28  N   UNL A   1      32.647  30.944  26.240  1.00  0.00    -0.352 N 
ATOM     29  C   UNL A   1      33.286  31.746  27.155  1.00  0.00     0.251 C 
ATOM     30  H   UNL A   1      31.891  31.364  25.770  1.00  0.00     0.163 HD
ATOM     31  O   UNL A   1      32.830  32.856  27.414  1.00  0.00    -0.269 OA
BRANCH  29  32
ATOM     32  C   UNL A   1      34.503  31.275  27.852  1.00  0.00     0.039 A 
ATOM     33  C   UNL A   1      35.561  32.171  28.034  1.00  0.00     0.014 A 
ATOM     34  C   UNL A   1      34.620  29.959  28.309  1.00  0.00     0.014 A 
ATOM     35  C   UNL A   1      36.713  31.760  28.710  1.00  0.00     0.010 A 
ATOM     36  C   UNL A   1      35.730  29.580  29.062  1.00  0.00     0.010 A 
ATOM     37  C   UNL A   1      36.799  30.467  29.252  1.00  0.00    -0.014 A 
BRANCH  37  38
ATOM     38  C   UNL A   1      38.022  30.016  29.968  1.00  0.00     0.031 A 
ATOM     39  C   UNL A   1      38.287  30.485  31.374  1.00  0.00     0.074 A 
ATOM     40  C   UNL A   1      38.908  29.210  29.350  1.00  0.00     0.049 A 
ATOM     41  N   UNL A   1      39.301  30.223  32.160  1.00  0.00    -0.248 NA
ATOM     42  C   UNL A   1      37.293  31.395  31.967  1.00  0.00     0.031 C 
ATOM     43  C   UNL A   1      38.793  28.721  27.977  1.00  0.00     0.029 A 
ATOM     44  N   UNL A   1      40.084  28.661  29.801  1.00  0.00    -0.354 N 
ATOM     45  C   UNL A   1      39.071  30.942  33.327  1.00  0.00     0.074 A 
ATOM     46  C   UNL A   1      37.861  31.705  33.122  1.00  0.00     0.031 C 
ATOM     47  C   UNL A   1      39.837  27.921  27.705  1.00  0.00     0.029 A 
ATOM     48  C   UNL A   1      40.713  27.868  28.872  1.00  0.00     0.049 A 
ATOM     49  H   UNL A   1      40.441  28.821  30.703  1.00  0.00     0.167 HD
ATOM     50  C   UNL A   1      39.785  30.943  34.479  1.00  0.00     0.037 A 
ATOM     51  C   UNL A   1      41.867  27.178  28.954  1.00  0.00     0.037 A 
ATOM     52  C   UNL A   1      40.979  30.167  34.689  1.00  0.00     0.049 A 
ATOM     53  C   UNL A   1      42.647  27.201  30.242  1.00  0.00     0.074 A 
ATOM     54  C   UNL A   1      41.752  30.064  35.832  1.00  0.00     0.029 A 
ATOM     55  N   UNL A   1      41.577  29.363  33.728  1.00  0.00    -0.354 N 
ATOM     56  N   UNL A   1      42.383  27.829  31.362  1.00  0.00    -0.248 NA
ATOM     57  C   UNL A   1      43.880  26.403  30.282  1.00  0.00     0.031 C 
ATOM     58  C   UNL A   1      42.847  29.240  35.548  1.00  0.00     0.029 A 
ATOM     59  C   UNL A   1      42.718  28.773  34.249  1.00  0.00     0.049 A 
ATOM     60  H   UNL A   1      41.239  29.230  32.813  1.00  0.00     0.167 HD
ATOM     61  C   UNL A   1      43.388  27.468  32.251  1.00  0.00     0.074 A 
ATOM     62  C   UNL A   1      44.262  26.557  31.541  1.00  0.00     0.031 C 
ATOM     63  C   UNL A   1      43.569  27.853  33.539  1.00  0.00     0.037 A 
BRANCH  50  64
ATOM     64  C   UNL A   1      39.292  31.812  35.601  1.00  0.00     0.064 A 
ATOM     65  C   UNL A   1      38.392  31.332  36.567  1.00  0.00     0.173 A 
ATOM     66  C   UNL A   1      39.742  33.135  35.731  1.00  0.00     0.173 A 
ATOM     67  F   UNL A   1      37.918  30.078  36.484  1.00  0.00    -0.203 F 
ATOM     68  C   UNL A   1      37.936  32.152  37.595  1.00  0.00     0.198 A 
ATOM     69  C   UNL A   1      39.313  33.940  36.782  1.00  0.00     0.198 A 
ATOM     70  F   UNL A   1      40.607  33.645  34.842  1.00  0.00    -0.203 F 
ATOM     71  F   UNL A   1      37.030  31.688  38.467  1.00  0.00    -0.200 F 
ATOM     72  C   UNL A   1      38.402  33.452  37.707  1.00  0.00     0.200 A 
ATOM     73  F   UNL A   1      39.777  35.191  36.898  1.00  0.00    -0.200 F 
ATOM     74  F   UNL A   1      37.968  34.238  38.702  1.00  0.00    -0.200 F 
ENDBRANCH  50  64
BRANCH  51  75
ATOM     75  C   UNL A   1      42.342  26.376  27.794  1.00  0.00     0.064 A 
ATOM     76  C   UNL A   1      41.844  25.087  27.555  1.00  0.00     0.173 A 
ATOM     77  C   UNL A   1      43.316  26.870  26.913  1.00  0.00     0.173 A 
ATOM     78  F   UNL A   1      40.926  24.560  28.379  1.00  0.00    -0.203 F 
ATOM     79  C   UNL A   1      42.323  24.311  26.500  1.00  0.00     0.198 A 
ATOM     80  C   UNL A   1      43.770  26.108  25.839  1.00  0.00     0.198 A 
ATOM     81  F   UNL A   1      43.821  28.100  27.092  1.00  0.00    -0.203 F 
ATOM     82  F   UNL A   1      41.871  23.062  26.331  1.00  0.00    -0.200 F 
ATOM     83  C   UNL A   1      43.282  24.825  25.640  1.00  0.00     0.200 A 
ATOM     84  F   UNL A   1      44.684  26.613  25.000  1.00  0.00    -0.200 F 
ATOM     85  F   UNL A   1      43.742  24.080  24.626  1.00  0.00    -0.200 F 
ENDBRANCH  51  75
BRANCH  63  86
ATOM     86  C   UNL A   1      44.715  27.235  34.290  1.00  0.00     0.064 A 
ATOM     87  C   UNL A   1      45.980  27.838  34.350  1.00  0.00     0.173 A 
ATOM     88  C   UNL A   1      44.531  26.029  34.987  1.00  0.00     0.173 A 
ATOM     89  F   UNL A   1      46.214  28.985  33.694  1.00  0.00    -0.203 F 
ATOM     90  C   UNL A   1      47.028  27.236  35.042  1.00  0.00     0.198 A 
ATOM     91  C   UNL A   1      45.570  25.451  35.710  1.00  0.00     0.198 A 
ATOM     92  F   UNL A   1      43.338  25.415  34.973  1.00  0.00    -0.203 F 
ATOM     93  F   UNL A   1      48.246  27.797  35.031  1.00  0.00    -0.200 F 
ATOM     94  C   UNL A   1      46.821  26.048  35.727  1.00  0.00     0.200 A 
ATOM     95  F   UNL A   1      45.361  24.313  36.386  1.00  0.00    -0.200 F 
ATOM     96  F   UNL A   1      47.829  25.473  36.396  1.00  0.00    -0.200 F 
ENDBRANCH  63  86
ENDBRANCH  37  38
ENDBRANCH  29  32
ENDBRANCH  27  28
ENDBRANCH  26  27
ENDBRANCH   1  26
TORSDOF 14
ENDMDL
MODEL 2
REMARK VINA RESULT:     -12.4      4.445      9.736
REMARK SMILES CC1(C)[C@H](C(=O)Nc2ccc(C(F)(F)F)nc2)[C@@H]1C(=O)NCCCCNC(=O)c1ccc(-c2c3nc(c(-c4c(F)c(F)c(F)c(F)c4F)c4ccc([nH]4)c(-c4c(F)c(F)c(F)c(F)c4F)c4nc(c(-c5c(F)c(F)c(F)c(F)c5F)c5ccc2[nH]5)C=C4)C=C3)cc1
REMARK SMILES IDX 23 1 22 2 21 3 19 4 20 5 18 7 1 8 2 9 3 10 4 11 5 12 6 13
REMARK SMILES IDX 7 14 8 16 9 17 17 18 10 19 16 20 11 21 12 22 13 23 14 24
REMARK SMILES IDX 15 25 24 26 25 27 26 28 27 29 28 31 29 32 30 33 91 34 31 35
REMARK SMILES IDX 90 36 32 37 33 38 34 39 84 40 35 41 89 42 83 43 85 44 36 45
REMARK SMILES IDX 88 46 82 47 81 48 37 50 69 51 49 52 68 53 50 54 53 55 67 56
REMARK SMILES IDX 86 57 51 58 52 59 66 61 87 62 54 63 38 64 39 65 47 66 40 67
REMARK SMILES IDX 41 68 45 69 48 70 42 71 43 72 46 73 44 74 70 75 71 76 79 77
REMARK SMILES IDX 72 78 73 79 77 80 80 81 74 82 75 83 78 84 76 85 55 86 56 87
REMARK SMILES IDX 64 88 57 89 58 90 62 91 65 92 59 93 60 94 63 95 61 96
REMARK H PARENT 21 6 7 15 26 30 85 49 53 60
REMARK Flexibility Score: inf
ROOT
ATOM      1  C   UNL A   1      36.426  20.313  25.021  1.00  0.00     0.023 C 
ENDROOT
BRANCH   1   2
ATOM      2  C   UNL A   1      36.510  21.805  25.314  1.00  0.00     0.116 C 
BRANCH   2   3
ATOM      3  N   UNL A   1      35.859  22.197  26.549  1.00  0.00    -0.356 N 
ATOM      4  C   UNL A   1      34.520  22.428  26.746  1.00  0.00     0.224 C 
ATOM      5  O   UNL A   1      34.095  22.721  27.859  1.00  0.00    -0.275 OA
ATOM      6  H   UNL A   1      36.441  22.308  27.335  1.00  0.00     0.163 HD
BRANCH   4   7
ATOM      7  C   UNL A   1      33.645  22.440  25.557  1.00  0.00     0.098 C 
ATOM      8  C   UNL A   1      33.304  23.157  23.074  1.00  0.00     0.013 C 
ATOM      9  C   UNL A   1      33.525  23.566  24.522  1.00  0.00    -0.011 C 
ATOM     10  C   UNL A   1      34.362  24.803  24.608  1.00  0.00     0.013 C 
ATOM     11  C   UNL A   1      32.370  23.236  25.452  1.00  0.00     0.098 C 
BRANCH  11  12
ATOM     12  C   UNL A   1      31.637  24.014  26.506  1.00  0.00     0.228 C 
ATOM     13  O   UNL A   1      31.306  23.373  27.507  1.00  0.00    -0.274 OA
ATOM     14  N   UNL A   1      31.592  25.382  26.631  1.00  0.00    -0.324 N 
ATOM     15  H   UNL A   1      31.802  25.715  27.533  1.00  0.00     0.169 HD
BRANCH  14  16
ATOM     16  C   UNL A   1      31.299  26.377  25.703  1.00  0.00     0.059 A 
ATOM     17  C   UNL A   1      32.014  27.556  25.634  1.00  0.00     0.030 A 
ATOM     18  C   UNL A   1      30.304  26.179  24.757  1.00  0.00     0.137 A 
ATOM     19  C   UNL A   1      31.548  28.588  24.822  1.00  0.00     0.035 A 
ATOM     20  N   UNL A   1      29.822  27.153  23.954  1.00  0.00    -0.250 NA
ATOM     21  C   UNL A   1      30.391  28.389  24.069  1.00  0.00     0.144 A 
BRANCH  21  22
ATOM     22  C   UNL A   1      29.735  29.587  23.394  1.00  0.00     0.433 C 
ATOM     23  F   UNL A   1      30.312  29.902  22.199  1.00  0.00    -0.165 F 
ATOM     24  F   UNL A   1      28.407  29.412  23.137  1.00  0.00    -0.165 F 
ATOM     25  F   UNL A   1      29.812  30.727  24.146  1.00  0.00    -0.165 F 
ENDBRANCH  21  22
ENDBRANCH  14  16
ENDBRANCH  11  12
ENDBRANCH   4   7
ENDBRANCH   2   3
ENDBRANCH   1   2
BRANCH   1  26
ATOM     26  C   UNL A   1      37.765  19.588  24.887  1.00  0.00     0.023 C 
BRANCH  26  27
ATOM     27  C   UNL A   1      38.901  20.112  25.758  1.00  0.00     0.116 C 
BRANCH  27  28
ATOM     28  N   UNL A   1      40.032  19.205  25.851  1.00  0.00    -0.352 N 
ATOM     29  C   UNL A   1      41.351  19.476  26.124  1.00  0.00     0.251 C 
ATOM     30  H   UNL A   1      39.822  18.256  25.695  1.00  0.00     0.163 HD
ATOM     31  O   UNL A   1      42.185  18.578  26.048  1.00  0.00    -0.269 OA
BRANCH  29  32
ATOM     32  C   UNL A   1      41.782  20.846  26.484  1.00  0.00     0.039 A 
ATOM     33  C   UNL A   1      41.997  21.771  25.459  1.00  0.00     0.014 A 
ATOM     34  C   UNL A   1      41.991  21.220  27.814  1.00  0.00     0.014 A 
ATOM     35  C   UNL A   1      42.381  23.079  25.770  1.00  0.00     0.010 A 
ATOM     36  C   UNL A   1      42.283  22.547  28.127  1.00  0.00     0.010 A 
ATOM     37  C   UNL A   1      42.504  23.486  27.108  1.00  0.00    -0.014 A 
BRANCH  37  38
ATOM     38  C   UNL A   1      42.917  24.872  27.453  1.00  0.00     0.031 A 
ATOM     39  C   UNL A   1      44.328  25.326  27.186  1.00  0.00     0.074 A 
ATOM     40  C   UNL A   1      42.039  25.715  28.030  1.00  0.00     0.049 A 
ATOM     41  N   UNL A   1      44.890  26.484  27.430  1.00  0.00    -0.248 NA
ATOM     42  C   UNL A   1      45.239  24.336  26.588  1.00  0.00     0.031 C 
ATOM     43  C   UNL A   1      40.658  25.387  28.384  1.00  0.00     0.029 A 
ATOM     44  N   UNL A   1      42.180  27.024  28.423  1.00  0.00    -0.354 N 
ATOM     45  C   UNL A   1      46.214  26.355  27.030  1.00  0.00     0.074 A 
ATOM     46  C   UNL A   1      46.391  24.988  26.592  1.00  0.00     0.031 C 
ATOM     47  C   UNL A   1      40.069  26.472  28.912  1.00  0.00     0.029 A 
ATOM     48  C   UNL A   1      41.039  27.562  28.968  1.00  0.00     0.049 A 
ATOM     49  H   UNL A   1      43.019  27.528  28.324  1.00  0.00     0.167 HD
ATOM     50  C   UNL A   1      47.187  27.296  26.999  1.00  0.00     0.037 A 
ATOM     51  C   UNL A   1      40.805  28.794  29.459  1.00  0.00     0.037 A 
ATOM     52  C   UNL A   1      47.003  28.662  27.416  1.00  0.00     0.049 A 
ATOM     53  C   UNL A   1      41.905  29.822  29.421  1.00  0.00     0.074 A 
ATOM     54  C   UNL A   1      47.912  29.705  27.383  1.00  0.00     0.029 A 
ATOM     55  N   UNL A   1      45.828  29.172  27.948  1.00  0.00    -0.354 N 
ATOM     56  N   UNL A   1      43.133  29.708  28.975  1.00  0.00    -0.248 NA
ATOM     57  C   UNL A   1      41.580  31.158  29.939  1.00  0.00     0.031 C 
ATOM     58  C   UNL A   1      47.305  30.833  27.945  1.00  0.00     0.029 A 
ATOM     59  C   UNL A   1      45.993  30.512  28.262  1.00  0.00     0.049 A 
ATOM     60  H   UNL A   1      44.998  28.659  28.081  1.00  0.00     0.167 HD
ATOM     61  C   UNL A   1      43.711  30.963  29.118  1.00  0.00     0.074 A 
ATOM     62  C   UNL A   1      42.695  31.827  29.681  1.00  0.00     0.031 C 
ATOM     63  C   UNL A   1      44.968  31.366  28.805  1.00  0.00     0.037 A 
BRANCH  50  64
ATOM     64  C   UNL A   1      48.541  26.880  26.496  1.00  0.00     0.064 A 
ATOM     65  C   UNL A   1      48.909  27.037  25.150  1.00  0.00     0.173 A 
ATOM     66  C   UNL A   1      49.493  26.340  27.373  1.00  0.00     0.173 A 
ATOM     67  F   UNL A   1      48.033  27.537  24.263  1.00  0.00    -0.203 F 
ATOM     68  C   UNL A   1      50.163  26.637  24.696  1.00  0.00     0.198 A 
ATOM     69  C   UNL A   1      50.760  25.976  26.923  1.00  0.00     0.198 A 
ATOM     70  F   UNL A   1      49.200  26.173  28.671  1.00  0.00    -0.203 F 
ATOM     71  F   UNL A   1      50.467  26.742  23.395  1.00  0.00    -0.200 F 
ATOM     72  C   UNL A   1      51.090  26.115  25.583  1.00  0.00     0.200 A 
ATOM     73  F   UNL A   1      51.660  25.486  27.786  1.00  0.00    -0.200 F 
ATOM     74  F   UNL A   1      52.299  25.737  25.147  1.00  0.00    -0.200 F 
ENDBRANCH  50  64
BRANCH  51  75
ATOM     75  C   UNL A   1      39.462  29.141  29.998  1.00  0.00     0.064 A 
ATOM     76  C   UNL A   1      38.500  29.766  29.191  1.00  0.00     0.173 A 
ATOM     77  C   UNL A   1      39.119  28.875  31.332  1.00  0.00     0.173 A 
ATOM     78  F   UNL A   1      38.785  30.060  27.914  1.00  0.00    -0.203 F 
ATOM     79  C   UNL A   1      37.259  30.139  29.706  1.00  0.00     0.198 A 
ATOM     80  C   UNL A   1      37.866  29.218  31.836  1.00  0.00     0.198 A 
ATOM     81  F   UNL A   1      40.000  28.274  32.145  1.00  0.00    -0.203 F 
ATOM     82  F   UNL A   1      36.381  30.787  28.928  1.00  0.00    -0.200 F 
ATOM     83  C   UNL A   1      36.941  29.860  31.026  1.00  0.00     0.200 A 
ATOM     84  F   UNL A   1      37.557  28.933  33.108  1.00  0.00    -0.200 F 
ATOM     85  F   UNL A   1      35.749  30.219  31.521  1.00  0.00    -0.200 F 
ENDBRANCH  51  75
BRANCH  63  86
ATOM     86  C   UNL A   1      45.296  32.820  28.998  1.00  0.00     0.064 A 
ATOM     87  C   UNL A   1      45.038  33.781  28.009  1.00  0.00     0.173 A 
ATOM     88  C   UNL A   1      45.856  33.261  30.209  1.00  0.00     0.173 A 
ATOM     89  F   UNL A   1      44.515  33.413  26.830  1.00  0.00    -0.203 F 
ATOM     90  C   UNL A   1      45.365  35.120  28.209  1.00  0.00     0.198 A 
ATOM     91  C   UNL A   1      46.145  34.605  30.420  1.00  0.00     0.198 A 
ATOM     92  F   UNL A   1      46.113  32.386  31.193  1.00  0.00    -0.203 F 
ATOM     93  F   UNL A   1      45.170  36.010  27.226  1.00  0.00    -0.200 F 
ATOM     94  C   UNL A   1      45.912  35.532  29.416  1.00  0.00     0.200 A 
ATOM     95  F   UNL A   1      46.655  35.003  31.594  1.00  0.00    -0.200 F 
ATOM     96  F   UNL A   1      46.222  36.821  29.608  1.00  0.00    -0.200 F 
ENDBRANCH  63  86
ENDBRANCH  37  38
ENDBRANCH  29  32
ENDBRANCH  27  28
ENDBRANCH  26  27
ENDBRANCH   1  26
TORSDOF 14
ENDMDL
MODEL 3
REMARK VINA RESULT:     -12.3      0.395      1.699
REMARK SMILES CC1(C)[C@H](C(=O)Nc2ccc(C(F)(F)F)nc2)[C@@H]1C(=O)NCCCCNC(=O)c1ccc(-c2c3nc(c(-c4c(F)c(F)c(F)c(F)c4F)c4ccc([nH]4)c(-c4c(F)c(F)c(F)c(F)c4F)c4nc(c(-c5c(F)c(F)c(F)c(F)c5F)c5ccc2[nH]5)C=C4)C=C3)cc1
REMARK SMILES IDX 23 1 22 2 21 3 19 4 20 5 18 7 1 8 2 9 3 10 4 11 5 12 6 13
REMARK SMILES IDX 7 14 8 16 9 17 17 18 10 19 16 20 11 21 12 22 13 23 14 24
REMARK SMILES IDX 15 25 24 26 25 27 26 28 27 29 28 31 29 32 30 33 91 34 31 35
REMARK SMILES IDX 90 36 32 37 33 38 34 39 84 40 35 41 89 42 83 43 85 44 36 45
REMARK SMILES IDX 88 46 82 47 81 48 37 50 69 51 49 52 68 53 50 54 53 55 67 56
REMARK SMILES IDX 86 57 51 58 52 59 66 61 87 62 54 63 38 64 39 65 47 66 40 67
REMARK SMILES IDX 41 68 45 69 48 70 42 71 43 72 46 73 44 74 70 75 71 76 79 77
REMARK SMILES IDX 72 78 73 79 77 80 80 81 74 82 75 83 78 84 76 85 55 86 56 87
REMARK SMILES IDX 64 88 57 89 58 90 62 91 65 92 59 93 60 94 63 95 61 96
REMARK H PARENT 21 6 7 15 26 30 85 49 53 60
REMARK Flexibility Score: inf
ROOT
ATOM      1  C   UNL A   1      33.643  27.817  23.283  1.00  0.00     0.023 C 
ENDROOT
BRANCH   1   2
ATOM      2  C   UNL A   1      33.722  26.505  24.053  1.00  0.00     0.116 C 
BRANCH   2   3
ATOM      3  N   UNL A   1      33.984  25.350  23.216  1.00  0.00    -0.356 N 
ATOM      4  C   UNL A   1      34.702  24.229  23.547  1.00  0.00     0.224 C 
ATOM      5  O   UNL A   1      34.817  23.303  22.750  1.00  0.00    -0.275 OA
ATOM      6  H   UNL A   1      33.603  25.373  22.308  1.00  0.00     0.163 HD
BRANCH   4   7
ATOM      7  C   UNL A   1      35.431  24.237  24.831  1.00  0.00     0.098 C 
ATOM      8  C   UNL A   1      37.670  23.828  26.102  1.00  0.00     0.013 C 
ATOM      9  C   UNL A   1      36.535  23.263  25.262  1.00  0.00    -0.011 C 
ATOM     10  C   UNL A   1      37.028  22.183  24.351  1.00  0.00     0.013 C 
ATOM     11  C   UNL A   1      35.182  23.261  25.952  1.00  0.00     0.098 C 
BRANCH  11  12
ATOM     12  C   UNL A   1      34.099  22.233  26.104  1.00  0.00     0.228 C 
ATOM     13  O   UNL A   1      34.484  21.078  26.303  1.00  0.00    -0.274 OA
ATOM     14  N   UNL A   1      32.773  22.475  26.373  1.00  0.00    -0.324 N 
ATOM     15  H   UNL A   1      32.406  21.944  27.116  1.00  0.00     0.169 HD
BRANCH  14  16
ATOM     16  C   UNL A   1      31.860  23.339  25.777  1.00  0.00     0.059 A 
ATOM     17  C   UNL A   1      31.406  23.159  24.485  1.00  0.00     0.030 A 
ATOM     18  C   UNL A   1      31.317  24.390  26.502  1.00  0.00     0.137 A 
ATOM     19  C   UNL A   1      30.653  24.164  23.882  1.00  0.00     0.035 A 
ATOM     20  N   UNL A   1      30.585  25.385  25.955  1.00  0.00    -0.250 NA
ATOM     21  C   UNL A   1      30.342  25.311  24.613  1.00  0.00     0.144 A 
BRANCH  21  22
ATOM     22  C   UNL A   1      29.755  26.514  23.886  1.00  0.00     0.433 C 
ATOM     23  F   UNL A   1      30.301  26.703  22.651  1.00  0.00    -0.165 F 
ATOM     24  F   UNL A   1      28.407  26.434  23.694  1.00  0.00    -0.165 F 
ATOM     25  F   UNL A   1      29.957  27.689  24.556  1.00  0.00    -0.165 F 
ENDBRANCH  21  22
ENDBRANCH  14  16
ENDBRANCH  11  12
ENDBRANCH   4   7
ENDBRANCH   2   3
ENDBRANCH   1   2
BRANCH   1  26
ATOM     26  C   UNL A   1      32.888  28.949  23.979  1.00  0.00     0.023 C 
BRANCH  26  27
ATOM     27  C   UNL A   1      33.340  29.284  25.396  1.00  0.00     0.116 C 
BRANCH  27  28
ATOM     28  N   UNL A   1      32.840  30.558  25.883  1.00  0.00    -0.352 N 
ATOM     29  C   UNL A   1      33.293  31.338  26.920  1.00  0.00     0.251 C 
ATOM     30  H   UNL A   1      32.060  30.915  25.400  1.00  0.00     0.163 HD
ATOM     31  O   UNL A   1      32.661  32.337  27.251  1.00  0.00    -0.269 OA
BRANCH  29  32
ATOM     32  C   UNL A   1      34.521  30.970  27.659  1.00  0.00     0.039 A 
ATOM     33  C   UNL A   1      34.597  29.703  28.244  1.00  0.00     0.014 A 
ATOM     34  C   UNL A   1      35.586  31.865  27.797  1.00  0.00     0.014 A 
ATOM     35  C   UNL A   1      35.755  29.320  28.928  1.00  0.00     0.010 A 
ATOM     36  C   UNL A   1      36.772  31.448  28.398  1.00  0.00     0.010 A 
ATOM     37  C   UNL A   1      36.863  30.180  28.992  1.00  0.00    -0.014 A 
BRANCH  37  38
ATOM     38  C   UNL A   1      38.098  29.788  29.721  1.00  0.00     0.031 A 
ATOM     39  C   UNL A   1      38.359  30.326  31.103  1.00  0.00     0.074 A 
ATOM     40  C   UNL A   1      38.997  28.972  29.136  1.00  0.00     0.049 A 
ATOM     41  N   UNL A   1      39.382  30.121  31.895  1.00  0.00    -0.248 NA
ATOM     42  C   UNL A   1      37.349  31.241  31.659  1.00  0.00     0.031 C 
ATOM     43  C   UNL A   1      38.886  28.419  27.787  1.00  0.00     0.029 A 
ATOM     44  N   UNL A   1      40.186  28.469  29.606  1.00  0.00    -0.354 N 
ATOM     45  C   UNL A   1      39.142  30.887  33.029  1.00  0.00     0.074 A 
ATOM     46  C   UNL A   1      37.915  31.615  32.795  1.00  0.00     0.031 C 
ATOM     47  C   UNL A   1      39.945  27.628  27.547  1.00  0.00     0.029 A 
ATOM     48  C   UNL A   1      40.828  27.647  28.711  1.00  0.00     0.049 A 
ATOM     49  H   UNL A   1      40.544  28.677  30.498  1.00  0.00     0.167 HD
ATOM     50  C   UNL A   1      39.861  30.956  34.176  1.00  0.00     0.037 A 
ATOM     51  C   UNL A   1      41.996  26.985  28.818  1.00  0.00     0.037 A 
ATOM     52  C   UNL A   1      41.072  30.215  34.414  1.00  0.00     0.049 A 
ATOM     53  C   UNL A   1      42.781  27.083  30.099  1.00  0.00     0.074 A 
ATOM     54  C   UNL A   1      41.851  30.180  35.557  1.00  0.00     0.029 A 
ATOM     55  N   UNL A   1      41.681  29.380  33.489  1.00  0.00    -0.354 N 
ATOM     56  N   UNL A   1      42.509  27.756  31.191  1.00  0.00    -0.248 NA
ATOM     57  C   UNL A   1      44.031  26.313  30.169  1.00  0.00     0.031 C 
ATOM     58  C   UNL A   1      42.961  29.367  35.305  1.00  0.00     0.029 A 
ATOM     59  C   UNL A   1      42.837  28.838  34.030  1.00  0.00     0.049 A 
ATOM     60  H   UNL A   1      41.343  29.198  32.582  1.00  0.00     0.167 HD
ATOM     61  C   UNL A   1      43.525  27.457  32.090  1.00  0.00     0.074 A 
ATOM     62  C   UNL A   1      44.414  26.532  31.418  1.00  0.00     0.031 C 
ATOM     63  C   UNL A   1      43.704  27.904  33.358  1.00  0.00     0.037 A 
BRANCH  50  64
ATOM     64  C   UNL A   1      39.354  31.865  35.260  1.00  0.00     0.064 A 
ATOM     65  C   UNL A   1      39.682  33.230  35.292  1.00  0.00     0.173 A 
ATOM     66  C   UNL A   1      38.507  31.375  36.265  1.00  0.00     0.173 A 
ATOM     67  F   UNL A   1      40.499  33.751  34.363  1.00  0.00    -0.203 F 
ATOM     68  C   UNL A   1      39.213  34.058  36.308  1.00  0.00     0.198 A 
ATOM     69  C   UNL A   1      38.009  32.214  37.258  1.00  0.00     0.198 A 
ATOM     70  F   UNL A   1      38.154  30.080  36.280  1.00  0.00    -0.203 F 
ATOM     71  F   UNL A   1      39.591  35.344  36.351  1.00  0.00    -0.200 F 
ATOM     72  C   UNL A   1      38.371  33.552  37.286  1.00  0.00     0.200 A 
ATOM     73  F   UNL A   1      37.182  31.726  38.192  1.00  0.00    -0.200 F 
ATOM     74  F   UNL A   1      37.914  34.352  38.258  1.00  0.00    -0.200 F 
ENDBRANCH  50  64
BRANCH  51  75
ATOM     75  C   UNL A   1      42.482  26.140  27.693  1.00  0.00     0.064 A 
ATOM     76  C   UNL A   1      43.440  26.623  26.790  1.00  0.00     0.173 A 
ATOM     77  C   UNL A   1      41.986  24.845  27.485  1.00  0.00     0.173 A 
ATOM     78  F   UNL A   1      43.932  27.863  26.934  1.00  0.00    -0.203 F 
ATOM     79  C   UNL A   1      43.861  25.855  25.705  1.00  0.00     0.198 A 
ATOM     80  C   UNL A   1      42.433  24.065  26.419  1.00  0.00     0.198 A 
ATOM     81  F   UNL A   1      41.073  24.332  28.323  1.00  0.00    -0.203 F 
ATOM     82  F   UNL A   1      44.734  26.364  24.826  1.00  0.00    -0.200 F 
ATOM     83  C   UNL A   1      43.361  24.575  25.524  1.00  0.00     0.200 A 
ATOM     84  F   UNL A   1      41.959  22.822  26.257  1.00  0.00    -0.200 F 
ATOM     85  F   UNL A   1      43.765  23.837  24.481  1.00  0.00    -0.200 F 
ENDBRANCH  51  75
BRANCH  63  86
ATOM     86  C   UNL A   1      44.865  27.345  34.131  1.00  0.00     0.064 A 
ATOM     87  C   UNL A   1      46.117  27.977  34.158  1.00  0.00     0.173 A 
ATOM     88  C   UNL A   1      44.710  26.167  34.881  1.00  0.00     0.173 A 
ATOM     89  F   UNL A   1      46.324  29.099  33.452  1.00  0.00    -0.203 F 
ATOM     90  C   UNL A   1      47.180  27.429  34.872  1.00  0.00     0.198 A 
ATOM     91  C   UNL A   1      45.763  25.644  35.624  1.00  0.00     0.198 A 
ATOM     92  F   UNL A   1      43.531  25.528  34.899  1.00  0.00    -0.203 F 
ATOM     93  F   UNL A   1      48.385  28.015  34.831  1.00  0.00    -0.200 F 
ATOM     94  C   UNL A   1      47.001  26.268  35.609  1.00  0.00     0.200 A 
ATOM     95  F   UNL A   1      45.582  24.533  36.350  1.00  0.00    -0.200 F 
ATOM     96  F   UNL A   1      48.024  25.745  36.299  1.00  0.00    -0.200 F 
ENDBRANCH  63  86
ENDBRANCH  37  38
ENDBRANCH  29  32
ENDBRANCH  27  28
ENDBRANCH  26  27
ENDBRANCH   1  26
TORSDOF 14
ENDMDL
