MODEL 1
REMARK VINA RESULT:     -12.3      0.000      0.000
REMARK SMILES CC(C)(C)OC(=O)N1CCC[C@H]1C(=O)N[C@@H](Cc1ccccc1)C(=O)NCCCCNC(=O)c1ccc(-c2c3nc(c(-c4c(F)c(F)c(F)c(F)c4F)c4ccc([nH]4)c(-c4c(F)c(F)c(F)c(F)c4F)c4nc(c(-c5c(F)c(F)c(F)c(F)c5F)c5ccc2[nH]5)C=C4)C=C3)cc1
REMARK SMILES IDX 27 1 26 2 24 3 25 4 16 6 15 7 13 8 14 9 12 11 8 12 9 13
REMARK SMILES IDX 10 14 11 15 6 16 7 17 5 18 2 19 1 20 3 21 4 22 17 23 18 24
REMARK SMILES IDX 19 25 23 26 20 27 22 28 21 29 28 30 29 31 30 32 31 33 32 34
REMARK SMILES IDX 33 36 34 37 35 38 96 39 36 40 95 41 37 42 38 43 39 44 89 45
REMARK SMILES IDX 40 46 94 47 88 48 90 49 41 50 93 51 87 52 86 53 42 55 74 56
REMARK SMILES IDX 54 57 73 58 55 59 58 60 72 61 91 62 56 63 57 64 71 66 92 67
REMARK SMILES IDX 59 68 43 69 44 70 52 71 45 72 46 73 50 74 53 75 47 76 48 77
REMARK SMILES IDX 51 78 49 79 75 80 76 81 84 82 77 83 78 84 82 85 85 86 79 87
REMARK SMILES IDX 80 88 83 89 81 90 60 91 61 92 69 93 62 94 63 95 67 96 70 97
REMARK SMILES IDX 64 98 65 99 68 100 66 101
REMARK H PARENT 26 5 15 10 31 35 90 54 58 65
REMARK Flexibility Score: inf
ROOT
ATOM      1  C   UNL A   1      32.957  29.771  26.479  1.00  0.00     0.116 C 
ENDROOT
BRANCH   1   2
ATOM      2  N   UNL A   1      33.943  29.302  25.529  1.00  0.00    -0.354 N 
ATOM      3  C   UNL A   1      33.777  28.363  24.545  1.00  0.00     0.242 C 
ATOM      4  O   UNL A   1      34.300  28.610  23.451  1.00  0.00    -0.273 OA
ATOM      5  H   UNL A   1      34.838  29.704  25.599  1.00  0.00     0.163 HD
BRANCH   3   6
ATOM      6  C   UNL A   1      32.850  27.126  24.704  1.00  0.00     0.175 C 
BRANCH   6   7
ATOM      7  N   UNL A   1      32.265  26.607  23.457  1.00  0.00    -0.342 N 
ATOM      8  C   UNL A   1      31.146  27.017  22.787  1.00  0.00     0.243 C 
ATOM      9  O   UNL A   1      31.090  26.771  21.577  1.00  0.00    -0.273 OA
ATOM     10  H   UNL A   1      32.752  25.856  23.045  1.00  0.00     0.164 HD
BRANCH   8  11
ATOM     11  C   UNL A   1      29.983  27.704  23.535  1.00  0.00     0.178 C 
ATOM     12  N   UNL A   1      29.211  28.648  22.731  1.00  0.00    -0.296 N 
ATOM     13  C   UNL A   1      27.817  28.273  22.628  1.00  0.00     0.124 C 
ATOM     14  C   UNL A   1      27.602  27.347  23.810  1.00  0.00     0.024 C 
ATOM     15  C   UNL A   1      28.945  26.641  23.949  1.00  0.00     0.037 C 
BRANCH  12  16
ATOM     16  C   UNL A   1      29.758  29.841  22.332  1.00  0.00     0.410 C 
ATOM     17  O   UNL A   1      30.431  29.946  21.328  1.00  0.00    -0.224 OA
BRANCH  16  18
ATOM     18  O   UNL A   1      29.510  30.845  23.213  1.00  0.00    -0.444 OA
BRANCH  18  19
ATOM     19  C   UNL A   1      28.494  31.846  22.925  1.00  0.00     0.106 C 
ATOM     20  C   UNL A   1      29.160  33.190  23.255  1.00  0.00     0.056 C 
ATOM     21  C   UNL A   1      27.301  31.626  23.856  1.00  0.00     0.056 C 
ATOM     22  C   UNL A   1      28.060  31.891  21.450  1.00  0.00     0.056 C 
ENDBRANCH  18  19
ENDBRANCH  16  18
ENDBRANCH  12  16
ENDBRANCH   8  11
ENDBRANCH   6   7
BRANCH   6  23
ATOM     23  C   UNL A   1      33.486  26.032  25.590  1.00  0.00     0.070 C 
BRANCH  23  24
ATOM     24  C   UNL A   1      32.704  24.751  25.779  1.00  0.00    -0.045 A 
ATOM     25  C   UNL A   1      31.408  24.770  26.309  1.00  0.00     0.004 A 
ATOM     26  C   UNL A   1      33.270  23.518  25.419  1.00  0.00     0.004 A 
ATOM     27  C   UNL A   1      30.678  23.584  26.433  1.00  0.00     0.000 A 
ATOM     28  C   UNL A   1      32.531  22.337  25.525  1.00  0.00     0.000 A 
ATOM     29  C   UNL A   1      31.233  22.372  26.024  1.00  0.00     0.000 A 
ENDBRANCH  23  24
ENDBRANCH   6  23
ENDBRANCH   3   6
ENDBRANCH   1   2
BRANCH   1  30
ATOM     30  C   UNL A   1      31.788  30.516  25.856  1.00  0.00     0.023 C 
BRANCH  30  31
ATOM     31  C   UNL A   1      31.455  31.857  26.514  1.00  0.00     0.023 C 
BRANCH  31  32
ATOM     32  C   UNL A   1      32.604  32.570  27.226  1.00  0.00     0.116 C 
BRANCH  32  33
ATOM     33  N   UNL A   1      32.318  33.950  27.595  1.00  0.00    -0.352 N 
ATOM     34  C   UNL A   1      32.980  34.762  28.485  1.00  0.00     0.251 C 
ATOM     35  H   UNL A   1      31.544  34.357  27.144  1.00  0.00     0.163 HD
ATOM     36  O   UNL A   1      32.574  35.898  28.713  1.00  0.00    -0.269 OA
BRANCH  34  37
ATOM     37  C   UNL A   1      34.166  34.249  29.200  1.00  0.00     0.039 A 
ATOM     38  C   UNL A   1      33.977  33.483  30.353  1.00  0.00     0.014 A 
ATOM     39  C   UNL A   1      35.456  34.493  28.719  1.00  0.00     0.014 A 
ATOM     40  C   UNL A   1      35.079  32.899  30.983  1.00  0.00     0.010 A 
ATOM     41  C   UNL A   1      36.544  33.853  29.307  1.00  0.00     0.010 A 
ATOM     42  C   UNL A   1      36.367  33.047  30.442  1.00  0.00    -0.014 A 
BRANCH  42  43
ATOM     43  C   UNL A   1      37.528  32.346  31.045  1.00  0.00     0.031 A 
ATOM     44  C   UNL A   1      38.026  32.723  32.412  1.00  0.00     0.074 A 
ATOM     45  C   UNL A   1      38.176  31.404  30.333  1.00  0.00     0.049 A 
ATOM     46  N   UNL A   1      39.019  32.218  33.101  1.00  0.00    -0.248 NA
ATOM     47  C   UNL A   1      37.335  33.834  33.081  1.00  0.00     0.031 C 
ATOM     48  C   UNL A   1      37.846  31.004  28.966  1.00  0.00     0.029 A 
ATOM     49  N   UNL A   1      39.254  30.619  30.658  1.00  0.00    -0.354 N 
ATOM     50  C   UNL A   1      39.079  32.957  34.274  1.00  0.00     0.074 A 
ATOM     51  C   UNL A   1      38.062  33.982  34.178  1.00  0.00     0.031 C 
ATOM     52  C   UNL A   1      38.686  30.032  28.578  1.00  0.00     0.029 A 
ATOM     53  C   UNL A   1      39.627  29.755  29.659  1.00  0.00     0.049 A 
ATOM     54  H   UNL A   1      39.716  30.670  31.527  1.00  0.00     0.167 HD
ATOM     55  C   UNL A   1      39.891  32.783  35.345  1.00  0.00     0.037 A 
ATOM     56  C   UNL A   1      40.611  28.837  29.621  1.00  0.00     0.037 A 
ATOM     57  C   UNL A   1      40.892  31.752  35.445  1.00  0.00     0.049 A 
ATOM     58  C   UNL A   1      41.473  28.631  30.835  1.00  0.00     0.074 A 
ATOM     59  C   UNL A   1      41.713  31.443  36.514  1.00  0.00     0.029 A 
ATOM     60  N   UNL A   1      41.214  30.864  34.427  1.00  0.00    -0.354 N 
ATOM     61  N   UNL A   1      41.456  29.268  31.981  1.00  0.00    -0.248 NA
ATOM     62  C   UNL A   1      42.478  27.562  30.757  1.00  0.00     0.031 C 
ATOM     63  C   UNL A   1      42.565  30.402  36.128  1.00  0.00     0.029 A 
ATOM     64  C   UNL A   1      42.238  30.023  34.836  1.00  0.00     0.049 A 
ATOM     65  H   UNL A   1      40.780  30.837  33.544  1.00  0.00     0.167 HD
ATOM     66  C   UNL A   1      42.427  28.665  32.768  1.00  0.00     0.074 A 
ATOM     67  C   UNL A   1      43.001  27.598  31.975  1.00  0.00     0.031 C 
ATOM     68  C   UNL A   1      42.808  28.969  34.034  1.00  0.00     0.037 A 
BRANCH  55  69
ATOM     69  C   UNL A   1      39.727  33.738  36.494  1.00  0.00     0.064 A 
ATOM     70  C   UNL A   1      40.388  34.977  36.524  1.00  0.00     0.173 A 
ATOM     71  C   UNL A   1      38.899  33.412  37.579  1.00  0.00     0.173 A 
ATOM     72  F   UNL A   1      41.200  35.333  35.517  1.00  0.00    -0.203 F 
ATOM     73  C   UNL A   1      40.264  35.830  37.617  1.00  0.00     0.198 A 
ATOM     74  C   UNL A   1      38.749  34.284  38.655  1.00  0.00     0.198 A 
ATOM     75  F   UNL A   1      38.238  32.246  37.600  1.00  0.00    -0.203 F 
ATOM     76  F   UNL A   1      40.958  36.975  37.652  1.00  0.00    -0.200 F 
ATOM     77  C   UNL A   1      39.441  35.486  38.679  1.00  0.00     0.200 A 
ATOM     78  F   UNL A   1      37.945  33.957  39.674  1.00  0.00    -0.200 F 
ATOM     79  F   UNL A   1      39.325  36.307  39.732  1.00  0.00    -0.200 F 
ENDBRANCH  55  69
BRANCH  56  80
ATOM     80  C   UNL A   1      40.794  28.011  28.400  1.00  0.00     0.064 A 
ATOM     81  C   UNL A   1      40.143  26.778  28.262  1.00  0.00     0.173 A 
ATOM     82  C   UNL A   1      41.601  28.447  27.339  1.00  0.00     0.173 A 
ATOM     83  F   UNL A   1      39.375  26.310  29.257  1.00  0.00    -0.203 F 
ATOM     84  C   UNL A   1      40.301  26.004  27.113  1.00  0.00     0.198 A 
ATOM     85  C   UNL A   1      41.738  27.685  26.180  1.00  0.00     0.198 A 
ATOM     86  F   UNL A   1      42.239  29.623  27.421  1.00  0.00    -0.203 F 
ATOM     87  F   UNL A   1      39.695  24.813  27.021  1.00  0.00    -0.200 F 
ATOM     88  C   UNL A   1      41.092  26.462  26.070  1.00  0.00     0.200 A 
ATOM     89  F   UNL A   1      42.492  28.138  25.169  1.00  0.00    -0.200 F 
ATOM     90  F   UNL A   1      41.237  25.725  24.961  1.00  0.00    -0.200 F 
ENDBRANCH  56  80
BRANCH  68  91
ATOM     91  C   UNL A   1      43.882  28.116  34.648  1.00  0.00     0.064 A 
ATOM     92  C   UNL A   1      45.235  28.481  34.594  1.00  0.00     0.173 A 
ATOM     93  C   UNL A   1      43.550  26.923  35.309  1.00  0.00     0.173 A 
ATOM     94  F   UNL A   1      45.607  29.604  33.961  1.00  0.00    -0.203 F 
ATOM     95  C   UNL A   1      46.221  27.665  35.145  1.00  0.00     0.198 A 
ATOM     96  C   UNL A   1      44.534  26.127  35.888  1.00  0.00     0.198 A 
ATOM     97  F   UNL A   1      42.271  26.530  35.396  1.00  0.00    -0.203 F 
ATOM     98  F   UNL A   1      47.512  28.004  35.029  1.00  0.00    -0.200 F 
ATOM     99  C   UNL A   1      45.869  26.492  35.797  1.00  0.00     0.200 A 
ATOM    100  F   UNL A   1      44.192  25.001  36.528  1.00  0.00    -0.200 F 
ATOM    101  F   UNL A   1      46.818  25.708  36.326  1.00  0.00    -0.200 F 
ENDBRANCH  68  91
ENDBRANCH  42  43
ENDBRANCH  34  37
ENDBRANCH  32  33
ENDBRANCH  31  32
ENDBRANCH  30  31
ENDBRANCH   1  30
TORSDOF 18
ENDMDL
MODEL 2
REMARK VINA RESULT:     -12.3      1.377      7.866
REMARK SMILES CC(C)(C)OC(=O)N1CCC[C@H]1C(=O)N[C@@H](Cc1ccccc1)C(=O)NCCCCNC(=O)c1ccc(-c2c3nc(c(-c4c(F)c(F)c(F)c(F)c4F)c4ccc([nH]4)c(-c4c(F)c(F)c(F)c(F)c4F)c4nc(c(-c5c(F)c(F)c(F)c(F)c5F)c5ccc2[nH]5)C=C4)C=C3)cc1
REMARK SMILES IDX 27 1 26 2 24 3 25 4 16 6 15 7 13 8 14 9 12 11 8 12 9 13
REMARK SMILES IDX 10 14 11 15 6 16 7 17 5 18 2 19 1 20 3 21 4 22 17 23 18 24
REMARK SMILES IDX 19 25 23 26 20 27 22 28 21 29 28 30 29 31 30 32 31 33 32 34
REMARK SMILES IDX 33 36 34 37 35 38 96 39 36 40 95 41 37 42 38 43 39 44 89 45
REMARK SMILES IDX 40 46 94 47 88 48 90 49 41 50 93 51 87 52 86 53 42 55 74 56
REMARK SMILES IDX 54 57 73 58 55 59 58 60 72 61 91 62 56 63 57 64 71 66 92 67
REMARK SMILES IDX 59 68 43 69 44 70 52 71 45 72 46 73 50 74 53 75 47 76 48 77
REMARK SMILES IDX 51 78 49 79 75 80 76 81 84 82 77 83 78 84 82 85 85 86 79 87
REMARK SMILES IDX 80 88 83 89 81 90 60 91 61 92 69 93 62 94 63 95 67 96 70 97
REMARK SMILES IDX 64 98 65 99 68 100 66 101
REMARK H PARENT 26 5 15 10 31 35 90 54 58 65
REMARK Flexibility Score: inf
ROOT
ATOM      1  C   UNL A   1      32.825  29.856  26.028  1.00  0.00     0.116 C 
ENDROOT
BRANCH   1   2
ATOM      2  N   UNL A   1      33.534  29.449  24.834  1.00  0.00    -0.354 N 
ATOM      3  C   UNL A   1      33.035  28.765  23.757  1.00  0.00     0.242 C 
ATOM      4  O   UNL A   1      33.402  29.149  22.639  1.00  0.00    -0.273 OA
ATOM      5  H   UNL A   1      34.486  29.691  24.791  1.00  0.00     0.163 HD
BRANCH   3   6
ATOM      6  C   UNL A   1      31.936  27.672  23.884  1.00  0.00     0.175 C 
BRANCH   6   7
ATOM      7  N   UNL A   1      31.244  27.617  25.182  1.00  0.00    -0.342 N 
ATOM      8  C   UNL A   1      31.204  26.605  26.101  1.00  0.00     0.243 C 
ATOM      9  O   UNL A   1      30.965  26.916  27.273  1.00  0.00    -0.273 OA
ATOM     10  H   UNL A   1      30.737  28.426  25.424  1.00  0.00     0.164 HD
BRANCH   8  11
ATOM     11  C   UNL A   1      31.393  25.135  25.669  1.00  0.00     0.178 C 
ATOM     12  N   UNL A   1      32.588  24.488  26.206  1.00  0.00    -0.296 N 
ATOM     13  C   UNL A   1      32.271  23.333  27.019  1.00  0.00     0.124 C 
ATOM     14  C   UNL A   1      30.874  22.946  26.572  1.00  0.00     0.024 C 
ATOM     15  C   UNL A   1      30.234  24.286  26.230  1.00  0.00     0.037 C 
BRANCH  12  16
ATOM     16  C   UNL A   1      33.838  24.853  25.773  1.00  0.00     0.410 C 
ATOM     17  O   UNL A   1      34.212  26.007  25.764  1.00  0.00    -0.224 OA
BRANCH  16  18
ATOM     18  O   UNL A   1      34.556  23.797  25.311  1.00  0.00    -0.444 OA
BRANCH  18  19
ATOM     19  C   UNL A   1      34.545  23.460  23.896  1.00  0.00     0.106 C 
ATOM     20  C   UNL A   1      33.704  22.177  23.803  1.00  0.00     0.056 C 
ATOM     21  C   UNL A   1      35.975  23.164  23.443  1.00  0.00     0.056 C 
ATOM     22  C   UNL A   1      33.877  24.520  23.004  1.00  0.00     0.056 C 
ENDBRANCH  18  19
ENDBRANCH  16  18
ENDBRANCH  12  16
ENDBRANCH   8  11
ENDBRANCH   6   7
BRANCH   6  23
ATOM     23  C   UNL A   1      30.978  27.667  22.673  1.00  0.00     0.070 C 
BRANCH  23  24
ATOM     24  C   UNL A   1      29.763  28.564  22.746  1.00  0.00    -0.045 A 
ATOM     25  C   UNL A   1      29.854  29.927  22.436  1.00  0.00     0.004 A 
ATOM     26  C   UNL A   1      28.518  28.038  23.123  1.00  0.00     0.004 A 
ATOM     27  C   UNL A   1      28.713  30.735  22.459  1.00  0.00     0.000 A 
ATOM     28  C   UNL A   1      27.376  28.843  23.127  1.00  0.00     0.000 A 
ATOM     29  C   UNL A   1      27.473  30.189  22.787  1.00  0.00     0.000 A 
ENDBRANCH  23  24
ENDBRANCH   6  23
ENDBRANCH   3   6
ENDBRANCH   1   2
BRANCH   1  30
ATOM     30  C   UNL A   1      31.709  30.860  25.787  1.00  0.00     0.023 C 
BRANCH  30  31
ATOM     31  C   UNL A   1      31.502  31.875  26.913  1.00  0.00     0.023 C 
BRANCH  31  32
ATOM     32  C   UNL A   1      32.706  32.744  27.276  1.00  0.00     0.116 C 
BRANCH  32  33
ATOM     33  N   UNL A   1      32.371  34.118  27.624  1.00  0.00    -0.352 N 
ATOM     34  C   UNL A   1      32.964  34.945  28.550  1.00  0.00     0.251 C 
ATOM     35  H   UNL A   1      31.616  34.509  27.128  1.00  0.00     0.163 HD
ATOM     36  O   UNL A   1      32.522  36.072  28.751  1.00  0.00    -0.269 OA
BRANCH  34  37
ATOM     37  C   UNL A   1      34.117  34.457  29.333  1.00  0.00     0.039 A 
ATOM     38  C   UNL A   1      33.881  33.847  30.568  1.00  0.00     0.014 A 
ATOM     39  C   UNL A   1      35.420  34.569  28.840  1.00  0.00     0.014 A 
ATOM     40  C   UNL A   1      34.946  33.283  31.275  1.00  0.00     0.010 A 
ATOM     41  C   UNL A   1      36.469  33.946  29.511  1.00  0.00     0.010 A 
ATOM     42  C   UNL A   1      36.242  33.294  30.733  1.00  0.00    -0.014 A 
BRANCH  42  43
ATOM     43  C   UNL A   1      37.360  32.607  31.428  1.00  0.00     0.031 A 
ATOM     44  C   UNL A   1      38.052  31.434  30.793  1.00  0.00     0.074 A 
ATOM     45  C   UNL A   1      37.715  33.005  32.665  1.00  0.00     0.049 A 
ATOM     46  N   UNL A   1      39.049  30.715  31.247  1.00  0.00    -0.248 NA
ATOM     47  C   UNL A   1      37.536  30.991  29.491  1.00  0.00     0.031 C 
ATOM     48  C   UNL A   1      37.070  34.074  33.425  1.00  0.00     0.029 A 
ATOM     49  N   UNL A   1      38.701  32.548  33.505  1.00  0.00    -0.354 N 
ATOM     50  C   UNL A   1      39.269  29.731  30.293  1.00  0.00     0.074 A 
ATOM     51  C   UNL A   1      38.264  29.908  29.267  1.00  0.00     0.031 C 
ATOM     52  C   UNL A   1      37.691  34.210  34.607  1.00  0.00     0.029 A 
ATOM     53  C   UNL A   1      38.764  33.223  34.698  1.00  0.00     0.049 A 
ATOM     54  H   UNL A   1      39.307  31.807  33.272  1.00  0.00     0.167 HD
ATOM     55  C   UNL A   1      40.235  28.781  30.262  1.00  0.00     0.037 A 
ATOM     56  C   UNL A   1      39.596  33.069  35.745  1.00  0.00     0.037 A 
ATOM     57  C   UNL A   1      41.244  28.618  31.278  1.00  0.00     0.049 A 
ATOM     58  C   UNL A   1      40.688  32.038  35.672  1.00  0.00     0.074 A 
ATOM     59  C   UNL A   1      42.310  27.737  31.303  1.00  0.00     0.029 A 
ATOM     60  N   UNL A   1      41.303  29.349  32.456  1.00  0.00    -0.354 N 
ATOM     61  N   UNL A   1      40.951  31.177  34.719  1.00  0.00    -0.248 NA
ATOM     62  C   UNL A   1      41.610  31.973  36.813  1.00  0.00     0.031 C 
ATOM     63  C   UNL A   1      42.987  27.902  32.518  1.00  0.00     0.029 A 
ATOM     64  C   UNL A   1      42.375  28.924  33.226  1.00  0.00     0.049 A 
ATOM     65  H   UNL A   1      40.676  30.065  32.708  1.00  0.00     0.167 HD
ATOM     66  C   UNL A   1      42.081  30.484  35.133  1.00  0.00     0.074 A 
ATOM     67  C   UNL A   1      42.464  31.040  36.414  1.00  0.00     0.031 C 
ATOM     68  C   UNL A   1      42.741  29.479  34.506  1.00  0.00     0.037 A 
BRANCH  55  69
ATOM     69  C   UNL A   1      40.239  27.843  29.088  1.00  0.00     0.064 A 
ATOM     70  C   UNL A   1      40.967  28.125  27.920  1.00  0.00     0.173 A 
ATOM     71  C   UNL A   1      39.506  26.648  29.129  1.00  0.00     0.173 A 
ATOM     72  F   UNL A   1      41.676  29.260  27.824  1.00  0.00    -0.203 F 
ATOM     73  C   UNL A   1      40.922  27.270  26.823  1.00  0.00     0.198 A 
ATOM     74  C   UNL A   1      39.492  25.777  28.041  1.00  0.00     0.198 A 
ATOM     75  F   UNL A   1      38.799  26.325  30.221  1.00  0.00    -0.203 F 
ATOM     76  F   UNL A   1      41.570  27.594  25.696  1.00  0.00    -0.200 F 
ATOM     77  C   UNL A   1      40.189  26.095  26.885  1.00  0.00     0.200 A 
ATOM     78  F   UNL A   1      38.793  24.636  28.108  1.00  0.00    -0.200 F 
ATOM     79  F   UNL A   1      40.144  25.273  25.827  1.00  0.00    -0.200 F 
ENDBRANCH  55  69
BRANCH  56  80
ATOM     80  C   UNL A   1      39.454  33.955  36.929  1.00  0.00     0.064 A 
ATOM     81  C   UNL A   1      38.734  33.538  38.057  1.00  0.00     0.173 A 
ATOM     82  C   UNL A   1      40.052  35.222  36.967  1.00  0.00     0.173 A 
ATOM     83  F   UNL A   1      38.129  32.341  38.060  1.00  0.00    -0.203 F 
ATOM     84  C   UNL A   1      38.608  34.360  39.175  1.00  0.00     0.198 A 
ATOM     85  C   UNL A   1      39.946  36.034  38.095  1.00  0.00     0.198 A 
ATOM     86  F   UNL A   1      40.756  35.663  35.915  1.00  0.00    -0.203 F 
ATOM     87  F   UNL A   1      37.886  33.951  40.227  1.00  0.00    -0.200 F 
ATOM     88  C   UNL A   1      39.221  35.604  39.196  1.00  0.00     0.200 A 
ATOM     89  F   UNL A   1      40.552  37.228  38.117  1.00  0.00    -0.200 F 
ATOM     90  F   UNL A   1      39.109  36.390  40.275  1.00  0.00    -0.200 F 
ENDBRANCH  56  80
BRANCH  68  91
ATOM     91  C   UNL A   1      43.963  28.932  35.189  1.00  0.00     0.064 A 
ATOM     92  C   UNL A   1      45.240  29.463  34.954  1.00  0.00     0.173 A 
ATOM     93  C   UNL A   1      43.851  27.871  36.100  1.00  0.00     0.173 A 
ATOM     94  F   UNL A   1      45.403  30.468  34.081  1.00  0.00    -0.203 F 
ATOM     95  C   UNL A   1      46.365  28.926  35.576  1.00  0.00     0.198 A 
ATOM     96  C   UNL A   1      44.973  27.359  36.745  1.00  0.00     0.198 A 
ATOM     97  F   UNL A   1      42.653  27.330  36.368  1.00  0.00    -0.203 F 
ATOM     98  F   UNL A   1      47.582  29.410  35.289  1.00  0.00    -0.200 F 
ATOM     99  C   UNL A   1      46.230  27.878  36.475  1.00  0.00     0.200 A 
ATOM    100  F   UNL A   1      44.840  26.355  37.624  1.00  0.00    -0.200 F 
ATOM    101  F   UNL A   1      47.314  27.363  37.071  1.00  0.00    -0.200 F 
ENDBRANCH  68  91
ENDBRANCH  42  43
ENDBRANCH  34  37
ENDBRANCH  32  33
ENDBRANCH  31  32
ENDBRANCH  30  31
ENDBRANCH   1  30
TORSDOF 18
ENDMDL
MODEL 3
REMARK VINA RESULT:     -12.2      5.533      9.655
REMARK SMILES CC(C)(C)OC(=O)N1CCC[C@H]1C(=O)N[C@@H](Cc1ccccc1)C(=O)NCCCCNC(=O)c1ccc(-c2c3nc(c(-c4c(F)c(F)c(F)c(F)c4F)c4ccc([nH]4)c(-c4c(F)c(F)c(F)c(F)c4F)c4nc(c(-c5c(F)c(F)c(F)c(F)c5F)c5ccc2[nH]5)C=C4)C=C3)cc1
REMARK SMILES IDX 27 1 26 2 24 3 25 4 16 6 15 7 13 8 14 9 12 11 8 12 9 13
REMARK SMILES IDX 10 14 11 15 6 16 7 17 5 18 2 19 1 20 3 21 4 22 17 23 18 24
REMARK SMILES IDX 19 25 23 26 20 27 22 28 21 29 28 30 29 31 30 32 31 33 32 34
REMARK SMILES IDX 33 36 34 37 35 38 96 39 36 40 95 41 37 42 38 43 39 44 89 45
REMARK SMILES IDX 40 46 94 47 88 48 90 49 41 50 93 51 87 52 86 53 42 55 74 56
REMARK SMILES IDX 54 57 73 58 55 59 58 60 72 61 91 62 56 63 57 64 71 66 92 67
REMARK SMILES IDX 59 68 43 69 44 70 52 71 45 72 46 73 50 74 53 75 47 76 48 77
REMARK SMILES IDX 51 78 49 79 75 80 76 81 84 82 77 83 78 84 82 85 85 86 79 87
REMARK SMILES IDX 80 88 83 89 81 90 60 91 61 92 69 93 62 94 63 95 67 96 70 97
REMARK SMILES IDX 64 98 65 99 68 100 66 101
REMARK H PARENT 26 5 15 10 31 35 90 54 58 65
REMARK Flexibility Score: inf
ROOT
ATOM      1  C   UNL A   1      36.569  21.906  25.597  1.00  0.00     0.116 C 
ENDROOT
BRANCH   1   2
ATOM      2  N   UNL A   1      35.557  22.122  26.608  1.00  0.00    -0.354 N 
ATOM      3  C   UNL A   1      34.220  21.832  26.530  1.00  0.00     0.242 C 
ATOM      4  O   UNL A   1      33.701  21.337  27.539  1.00  0.00    -0.273 OA
ATOM      5  H   UNL A   1      35.865  22.525  27.451  1.00  0.00     0.163 HD
BRANCH   3   6
ATOM      6  C   UNL A   1      33.405  21.946  25.211  1.00  0.00     0.175 C 
BRANCH   6   7
ATOM      7  N   UNL A   1      34.204  22.116  23.986  1.00  0.00    -0.342 N 
ATOM      8  C   UNL A   1      34.351  23.219  23.192  1.00  0.00     0.243 C 
ATOM      9  O   UNL A   1      35.377  23.291  22.508  1.00  0.00    -0.273 OA
ATOM     10  H   UNL A   1      34.704  21.318  23.696  1.00  0.00     0.164 HD
BRANCH   8  11
ATOM     11  C   UNL A   1      33.246  24.295  23.120  1.00  0.00     0.178 C 
ATOM     12  N   UNL A   1      33.659  25.628  23.552  1.00  0.00    -0.296 N 
ATOM     13  C   UNL A   1      33.525  26.614  22.502  1.00  0.00     0.124 C 
ATOM     14  C   UNL A   1      32.530  25.990  21.542  1.00  0.00     0.024 C 
ATOM     15  C   UNL A   1      32.831  24.500  21.649  1.00  0.00     0.037 C 
BRANCH  12  16
ATOM     16  C   UNL A   1      33.926  25.885  24.874  1.00  0.00     0.410 C 
ATOM     17  O   UNL A   1      34.619  25.156  25.552  1.00  0.00    -0.224 OA
BRANCH  16  18
ATOM     18  O   UNL A   1      33.282  26.992  25.327  1.00  0.00    -0.444 OA
BRANCH  18  19
ATOM     19  C   UNL A   1      31.976  26.880  25.957  1.00  0.00     0.106 C 
ATOM     20  C   UNL A   1      31.872  25.410  26.393  1.00  0.00     0.056 C 
ATOM     21  C   UNL A   1      30.894  27.180  24.919  1.00  0.00     0.056 C 
ATOM     22  C   UNL A   1      31.811  27.750  27.215  1.00  0.00     0.056 C 
ENDBRANCH  18  19
ENDBRANCH  16  18
ENDBRANCH  12  16
ENDBRANCH   8  11
ENDBRANCH   6   7
BRANCH   6  23
ATOM     23  C   UNL A   1      32.325  20.847  25.097  1.00  0.00     0.070 C 
BRANCH  23  24
ATOM     24  C   UNL A   1      32.707  19.570  24.384  1.00  0.00    -0.045 A 
ATOM     25  C   UNL A   1      32.169  19.257  23.129  1.00  0.00     0.004 A 
ATOM     26  C   UNL A   1      33.616  18.677  24.971  1.00  0.00     0.004 A 
ATOM     27  C   UNL A   1      32.568  18.098  22.458  1.00  0.00     0.000 A 
ATOM     28  C   UNL A   1      34.028  17.528  24.290  1.00  0.00     0.000 A 
ATOM     29  C   UNL A   1      33.510  17.244  23.030  1.00  0.00     0.000 A 
ENDBRANCH  23  24
ENDBRANCH   6  23
ENDBRANCH   3   6
ENDBRANCH   1   2
BRANCH   1  30
ATOM     30  C   UNL A   1      36.734  20.457  25.170  1.00  0.00     0.023 C 
BRANCH  30  31
ATOM     31  C   UNL A   1      38.157  20.061  24.771  1.00  0.00     0.023 C 
BRANCH  31  32
ATOM     32  C   UNL A   1      39.238  20.242  25.836  1.00  0.00     0.116 C 
BRANCH  32  33
ATOM     33  N   UNL A   1      40.212  19.161  25.892  1.00  0.00    -0.352 N 
ATOM     34  C   UNL A   1      41.563  19.225  26.140  1.00  0.00     0.251 C 
ATOM     35  H   UNL A   1      39.853  18.259  25.730  1.00  0.00     0.163 HD
ATOM     36  O   UNL A   1      42.253  18.210  26.105  1.00  0.00    -0.269 OA
BRANCH  34  37
ATOM     37  C   UNL A   1      42.194  20.533  26.413  1.00  0.00     0.039 A 
ATOM     38  C   UNL A   1      42.620  21.312  25.334  1.00  0.00     0.014 A 
ATOM     39  C   UNL A   1      42.336  21.003  27.722  1.00  0.00     0.014 A 
ATOM     40  C   UNL A   1      43.121  22.596  25.565  1.00  0.00     0.010 A 
ATOM     41  C   UNL A   1      42.769  22.307  27.944  1.00  0.00     0.010 A 
ATOM     42  C   UNL A   1      43.162  23.118  26.868  1.00  0.00    -0.014 A 
BRANCH  42  43
ATOM     43  C   UNL A   1      43.596  24.518  27.111  1.00  0.00     0.031 A 
ATOM     44  C   UNL A   1      42.622  25.544  27.618  1.00  0.00     0.074 A 
ATOM     45  C   UNL A   1      44.859  24.881  26.815  1.00  0.00     0.049 A 
ATOM     46  N   UNL A   1      42.821  26.809  27.893  1.00  0.00    -0.248 NA
ATOM     47  C   UNL A   1      41.236  25.097  27.812  1.00  0.00     0.031 C 
ATOM     48  C   UNL A   1      45.877  24.002  26.241  1.00  0.00     0.029 A 
ATOM     49  N   UNL A   1      45.498  26.088  26.951  1.00  0.00    -0.354 N 
ATOM     50  C   UNL A   1      41.585  27.309  28.280  1.00  0.00     0.074 A 
ATOM     51  C   UNL A   1      40.633  26.228  28.145  1.00  0.00     0.031 C 
ATOM     52  C   UNL A   1      47.019  24.690  26.095  1.00  0.00     0.029 A 
ATOM     53  C   UNL A   1      46.809  26.064  26.546  1.00  0.00     0.049 A 
ATOM     54  H   UNL A   1      45.058  26.895  27.305  1.00  0.00     0.167 HD
ATOM     55  C   UNL A   1      41.276  28.550  28.729  1.00  0.00     0.037 A 
ATOM     56  C   UNL A   1      47.741  27.036  26.544  1.00  0.00     0.037 A 
ATOM     57  C   UNL A   1      42.229  29.620  28.877  1.00  0.00     0.049 A 
ATOM     58  C   UNL A   1      47.388  28.393  27.087  1.00  0.00     0.074 A 
ATOM     59  C   UNL A   1      42.033  30.888  29.393  1.00  0.00     0.029 A 
ATOM     60  N   UNL A   1      43.562  29.547  28.496  1.00  0.00    -0.354 N 
ATOM     61  N   UNL A   1      46.240  28.829  27.546  1.00  0.00    -0.248 NA
ATOM     62  C   UNL A   1      48.469  29.387  27.130  1.00  0.00     0.031 C 
ATOM     63  C   UNL A   1      43.234  31.599  29.281  1.00  0.00     0.029 A 
ATOM     64  C   UNL A   1      44.195  30.756  28.745  1.00  0.00     0.049 A 
ATOM     65  H   UNL A   1      43.995  28.753  28.106  1.00  0.00     0.167 HD
ATOM     66  C   UNL A   1      46.463  30.137  27.953  1.00  0.00     0.074 A 
ATOM     67  C   UNL A   1      47.863  30.416  27.705  1.00  0.00     0.031 C 
ATOM     68  C   UNL A   1      45.588  31.026  28.486  1.00  0.00     0.037 A 
BRANCH  55  69
ATOM     69  C   UNL A   1      39.840  28.812  29.089  1.00  0.00     0.064 A 
ATOM     70  C   UNL A   1      39.353  28.591  30.387  1.00  0.00     0.173 A 
ATOM     71  C   UNL A   1      38.940  29.289  28.125  1.00  0.00     0.173 A 
ATOM     72  F   UNL A   1      40.169  28.125  31.345  1.00  0.00    -0.203 F 
ATOM     73  C   UNL A   1      38.010  28.793  30.694  1.00  0.00     0.198 A 
ATOM     74  C   UNL A   1      37.604  29.524  28.444  1.00  0.00     0.198 A 
ATOM     75  F   UNL A   1      39.353  29.525  26.871  1.00  0.00    -0.203 F 
ATOM     76  F   UNL A   1      37.555  28.510  31.921  1.00  0.00    -0.200 F 
ATOM     77  C   UNL A   1      37.138  29.263  29.723  1.00  0.00     0.200 A 
ATOM     78  F   UNL A   1      36.766  29.990  27.509  1.00  0.00    -0.200 F 
ATOM     79  F   UNL A   1      35.844  29.454  30.018  1.00  0.00    -0.200 F 
ENDBRANCH  55  69
BRANCH  56  80
ATOM     80  C   UNL A   1      49.111  26.736  26.057  1.00  0.00     0.064 A 
ATOM     81  C   UNL A   1      50.059  26.135  26.897  1.00  0.00     0.173 A 
ATOM     82  C   UNL A   1      49.493  27.020  24.738  1.00  0.00     0.173 A 
ATOM     83  F   UNL A   1      49.745  25.862  28.172  1.00  0.00    -0.203 F 
ATOM     84  C   UNL A   1      51.342  25.840  26.440  1.00  0.00     0.198 A 
ATOM     85  C   UNL A   1      50.769  26.702  24.275  1.00  0.00     0.198 A 
ATOM     86  F   UNL A   1      48.620  27.588  23.894  1.00  0.00    -0.203 F 
ATOM     87  F   UNL A   1      52.239  25.297  27.274  1.00  0.00    -0.200 F 
ATOM     88  C   UNL A   1      51.693  26.117  25.128  1.00  0.00     0.200 A 
ATOM     89  F   UNL A   1      51.099  26.957  23.002  1.00  0.00    -0.200 F 
ATOM     90  F   UNL A   1      52.923  25.824  24.685  1.00  0.00    -0.200 F 
ENDBRANCH  56  80
BRANCH  68  91
ATOM     91  C   UNL A   1      46.127  32.378  28.859  1.00  0.00     0.064 A 
ATOM     92  C   UNL A   1      46.116  33.451  27.957  1.00  0.00     0.173 A 
ATOM     93  C   UNL A   1      46.650  32.604  30.141  1.00  0.00     0.173 A 
ATOM     94  F   UNL A   1      45.640  33.284  26.714  1.00  0.00    -0.203 F 
ATOM     95  C   UNL A   1      46.644  34.691  28.311  1.00  0.00     0.198 A 
ATOM     96  C   UNL A   1      47.147  33.852  30.503  1.00  0.00     0.198 A 
ATOM     97  F   UNL A   1      46.678  31.613  31.046  1.00  0.00    -0.203 F 
ATOM     98  F   UNL A   1      46.678  35.685  27.412  1.00  0.00    -0.200 F 
ATOM     99  C   UNL A   1      47.154  34.892  29.585  1.00  0.00     0.200 A 
ATOM    100  F   UNL A   1      47.627  34.049  31.739  1.00  0.00    -0.200 F 
ATOM    101  F   UNL A   1      47.663  36.085  29.923  1.00  0.00    -0.200 F 
ENDBRANCH  68  91
ENDBRANCH  42  43
ENDBRANCH  34  37
ENDBRANCH  32  33
ENDBRANCH  31  32
ENDBRANCH  30  31
ENDBRANCH   1  30
TORSDOF 18
ENDMDL
