MODEL 1
REMARK VINA RESULT:     -13.7      0.000      0.000
REMARK SMILES O=C(CCc1cc2n(n1)CC[N@@H+](Cc1ccc3[nH]ccc3c1)C2)NCCCCNC(=O)c1ccc(-c2c3nc(c(-c4c(F)c(F)c(F)c(F)c4F)c4ccc([nH]4)c(-c4c(F)c(F)c(F)c(F)c4F)c4nc(c(-c5c(F)c(F)c(F)c(F)c5F)c5ccc2[nH]5)C=C4)C=C3)cc1
REMARK SMILES IDX 25 1 24 2 1 3 2 4 3 6 4 7 5 8 6 9 9 10 7 11 8 12 23 13 10 14
REMARK SMILES IDX 12 15 11 16 13 18 14 19 15 20 22 21 16 22 21 23 17 24 20 25
REMARK SMILES IDX 18 26 19 27 26 29 27 30 28 31 29 32 30 33 31 35 32 36 33 37
REMARK SMILES IDX 94 38 34 39 93 40 35 41 36 42 37 43 87 44 38 45 92 46 86 47
REMARK SMILES IDX 88 48 39 49 91 50 85 51 84 52 40 54 72 55 52 56 71 57 53 58
REMARK SMILES IDX 56 59 70 60 89 61 54 62 55 63 69 65 90 66 57 67 41 68 42 69
REMARK SMILES IDX 50 70 43 71 44 72 48 73 51 74 45 75 46 76 49 77 47 78 73 79
REMARK SMILES IDX 74 80 82 81 75 82 76 83 80 84 83 85 77 86 78 87 81 88 79 89
REMARK SMILES IDX 58 90 59 91 67 92 60 93 61 94 65 95 68 96 62 97 63 98 66 99
REMARK SMILES IDX 64 100
REMARK H PARENT 24 5 12 17 18 28 29 34 88 53 56 64
REMARK Flexibility Score: inf
ROOT
ATOM      1  C   UNL A   1      39.632  22.501  26.763  1.00  0.00     0.116 C 
ENDROOT
BRANCH   1   2
ATOM      2  N   UNL A   1      38.829  22.098  25.603  1.00  0.00    -0.356 N 
ATOM      3  O   UNL A   1      37.129  23.586  26.044  1.00  0.00    -0.275 OA
ATOM      4  C   UNL A   1      37.612  22.712  25.329  1.00  0.00     0.220 C 
ATOM      5  H   UNL A   1      39.156  21.383  25.012  1.00  0.00     0.163 HD
BRANCH   4   6
ATOM      6  C   UNL A   1      36.857  22.208  24.102  1.00  0.00     0.106 C 
BRANCH   6   7
ATOM      7  C   UNL A   1      35.864  23.222  23.506  1.00  0.00     0.068 C 
BRANCH   7   8
ATOM      8  C   UNL A   1      34.428  22.812  23.616  1.00  0.00     0.063 A 
ATOM      9  C   UNL A   1      33.355  23.105  22.738  1.00  0.00     0.055 A 
ATOM     10  N   UNL A   1      34.001  22.173  24.714  1.00  0.00    -0.177 NA
ATOM     11  C   UNL A   1      32.232  22.877  23.498  1.00  0.00     0.093 A 
ATOM     12  N   UNL A   1      32.664  22.284  24.655  1.00  0.00    -0.258 N 
ATOM     13  C   UNL A   1      30.863  23.448  23.440  1.00  0.00     0.319 C 
ATOM     14  C   UNL A   1      31.869  22.222  25.871  1.00  0.00     0.206 C 
ATOM     15  N   UNL A   1      30.637  24.177  24.705  1.00  0.00    -0.325 N 
ATOM     16  C   UNL A   1      30.674  23.189  25.814  1.00  0.00     0.286 C 
ATOM     17  H   UNL A   1      29.719  24.619  24.770  1.00  0.00     0.348 HD
BRANCH  15  18
ATOM     18  C   UNL A   1      31.598  25.310  24.782  1.00  0.00     0.299 C 
BRANCH  18  19
ATOM     19  C   UNL A   1      31.307  26.533  23.954  1.00  0.00     0.007 A 
ATOM     20  C   UNL A   1      32.412  27.170  23.451  1.00  0.00     0.012 A 
ATOM     21  C   UNL A   1      30.038  27.043  23.611  1.00  0.00     0.020 A 
ATOM     22  C   UNL A   1      32.296  28.277  22.650  1.00  0.00     0.027 A 
ATOM     23  C   UNL A   1      29.906  28.267  22.905  1.00  0.00    -0.000 A 
ATOM     24  C   UNL A   1      31.066  28.874  22.459  1.00  0.00     0.045 A 
ATOM     25  C   UNL A   1      28.837  29.104  22.475  1.00  0.00     0.028 A 
ATOM     26  N   UNL A   1      30.738  30.046  21.830  1.00  0.00    -0.361 N 
ATOM     27  C   UNL A   1      29.381  30.207  21.846  1.00  0.00     0.083 A 
ATOM     28  H   UNL A   1      31.380  30.676  21.429  1.00  0.00     0.166 HD
ENDBRANCH  18  19
ENDBRANCH  15  18
ENDBRANCH   7   8
ENDBRANCH   6   7
ENDBRANCH   4   6
ENDBRANCH   1   2
BRANCH   1  29
ATOM     29  C   UNL A   1      40.691  21.489  27.231  1.00  0.00     0.023 C 
BRANCH  29  30
ATOM     30  C   UNL A   1      41.030  20.308  26.293  1.00  0.00     0.023 C 
BRANCH  30  31
ATOM     31  C   UNL A   1      42.404  19.622  26.478  1.00  0.00     0.116 C 
BRANCH  31  32
ATOM     32  N   UNL A   1      43.133  19.333  25.243  1.00  0.00    -0.352 N 
ATOM     33  C   UNL A   1      44.116  20.086  24.596  1.00  0.00     0.251 C 
ATOM     34  H   UNL A   1      42.897  18.486  24.803  1.00  0.00     0.163 HD
ATOM     35  O   UNL A   1      44.793  19.580  23.725  1.00  0.00    -0.269 OA
BRANCH  33  36
ATOM     36  C   UNL A   1      44.370  21.508  24.977  1.00  0.00     0.039 A 
ATOM     37  C   UNL A   1      45.410  21.846  25.850  1.00  0.00     0.014 A 
ATOM     38  C   UNL A   1      43.638  22.539  24.419  1.00  0.00     0.014 A 
ATOM     39  C   UNL A   1      45.521  23.157  26.372  1.00  0.00     0.010 A 
ATOM     40  C   UNL A   1      43.783  23.847  24.916  1.00  0.00     0.010 A 
ATOM     41  C   UNL A   1      44.597  24.154  26.031  1.00  0.00    -0.014 A 
BRANCH  41  42
ATOM     42  C   UNL A   1      44.373  25.405  26.870  1.00  0.00     0.031 A 
ATOM     43  C   UNL A   1      45.205  26.637  26.609  1.00  0.00     0.074 A 
ATOM     44  C   UNL A   1      43.288  25.670  27.671  1.00  0.00     0.049 A 
ATOM     45  N   UNL A   1      45.942  27.260  27.480  1.00  0.00    -0.248 NA
ATOM     46  C   UNL A   1      45.215  27.283  25.287  1.00  0.00     0.031 C 
ATOM     47  C   UNL A   1      42.133  24.820  28.007  1.00  0.00     0.029 A 
ATOM     48  N   UNL A   1      42.892  26.880  28.220  1.00  0.00    -0.354 N 
ATOM     49  C   UNL A   1      46.415  28.411  26.855  1.00  0.00     0.074 A 
ATOM     50  C   UNL A   1      46.066  28.292  25.466  1.00  0.00     0.031 C 
ATOM     51  C   UNL A   1      41.082  25.584  28.393  1.00  0.00     0.029 A 
ATOM     52  C   UNL A   1      41.540  26.944  28.578  1.00  0.00     0.049 A 
ATOM     53  H   UNL A   1      43.511  27.634  28.349  1.00  0.00     0.167 HD
ATOM     54  C   UNL A   1      46.897  29.488  27.533  1.00  0.00     0.037 A 
ATOM     55  C   UNL A   1      40.832  27.997  29.062  1.00  0.00     0.037 A 
ATOM     56  C   UNL A   1      47.142  29.207  28.919  1.00  0.00     0.049 A 
ATOM     57  C   UNL A   1      41.795  28.879  29.742  1.00  0.00     0.074 A 
ATOM     58  C   UNL A   1      47.885  28.270  29.610  1.00  0.00     0.029 A 
ATOM     59  N   UNL A   1      46.318  29.781  29.853  1.00  0.00    -0.354 N 
ATOM     60  N   UNL A   1      42.362  28.584  30.875  1.00  0.00    -0.248 NA
ATOM     61  C   UNL A   1      42.308  30.056  29.062  1.00  0.00     0.031 C 
ATOM     62  C   UNL A   1      47.138  27.995  30.792  1.00  0.00     0.029 A 
ATOM     63  C   UNL A   1      46.003  28.802  30.760  1.00  0.00     0.049 A 
ATOM     64  H   UNL A   1      46.013  30.716  29.870  1.00  0.00     0.167 HD
ATOM     65  C   UNL A   1      43.575  29.225  30.810  1.00  0.00     0.074 A 
ATOM     66  C   UNL A   1      43.398  30.266  29.804  1.00  0.00     0.031 C 
ATOM     67  C   UNL A   1      44.686  28.631  31.327  1.00  0.00     0.037 A 
BRANCH  54  68
ATOM     68  C   UNL A   1      46.893  30.894  26.992  1.00  0.00     0.064 A 
ATOM     69  C   UNL A   1      48.072  31.662  27.002  1.00  0.00     0.173 A 
ATOM     70  C   UNL A   1      45.708  31.593  26.673  1.00  0.00     0.173 A 
ATOM     71  F   UNL A   1      49.241  31.108  27.357  1.00  0.00    -0.203 F 
ATOM     72  C   UNL A   1      48.064  33.031  26.717  1.00  0.00     0.198 A 
ATOM     73  C   UNL A   1      45.712  32.944  26.330  1.00  0.00     0.198 A 
ATOM     74  F   UNL A   1      44.503  31.015  26.778  1.00  0.00    -0.203 F 
ATOM     75  F   UNL A   1      49.194  33.741  26.829  1.00  0.00    -0.200 F 
ATOM     76  C   UNL A   1      46.885  33.668  26.370  1.00  0.00     0.200 A 
ATOM     77  F   UNL A   1      44.555  33.549  26.023  1.00  0.00    -0.200 F 
ATOM     78  F   UNL A   1      46.871  34.985  26.124  1.00  0.00    -0.200 F 
ENDBRANCH  54  68
BRANCH  55  79
ATOM     79  C   UNL A   1      39.389  28.342  29.107  1.00  0.00     0.064 A 
ATOM     80  C   UNL A   1      38.663  28.305  30.315  1.00  0.00     0.173 A 
ATOM     81  C   UNL A   1      38.787  29.025  28.038  1.00  0.00     0.173 A 
ATOM     82  F   UNL A   1      39.176  27.704  31.397  1.00  0.00    -0.203 F 
ATOM     83  C   UNL A   1      37.431  28.948  30.457  1.00  0.00     0.198 A 
ATOM     84  C   UNL A   1      37.548  29.665  28.180  1.00  0.00     0.198 A 
ATOM     85  F   UNL A   1      39.448  29.174  26.881  1.00  0.00    -0.203 F 
ATOM     86  F   UNL A   1      36.811  28.950  31.646  1.00  0.00    -0.200 F 
ATOM     87  C   UNL A   1      36.880  29.641  29.394  1.00  0.00     0.200 A 
ATOM     88  F   UNL A   1      37.035  30.368  27.161  1.00  0.00    -0.200 F 
ATOM     89  F   UNL A   1      35.733  30.316  29.551  1.00  0.00    -0.200 F 
ENDBRANCH  55  79
BRANCH  67  90
ATOM     90  C   UNL A   1      44.501  27.496  32.301  1.00  0.00     0.064 A 
ATOM     91  C   UNL A   1      44.459  26.135  31.945  1.00  0.00     0.173 A 
ATOM     92  C   UNL A   1      44.518  27.793  33.670  1.00  0.00     0.173 A 
ATOM     93  F   UNL A   1      44.535  25.747  30.669  1.00  0.00    -0.203 F 
ATOM     94  C   UNL A   1      44.402  25.129  32.907  1.00  0.00     0.198 A 
ATOM     95  C   UNL A   1      44.506  26.784  34.632  1.00  0.00     0.198 A 
ATOM     96  F   UNL A   1      44.602  29.069  34.079  1.00  0.00    -0.203 F 
ATOM     97  F   UNL A   1      44.352  23.842  32.530  1.00  0.00    -0.200 F 
ATOM     98  C   UNL A   1      44.440  25.455  34.250  1.00  0.00     0.200 A 
ATOM     99  F   UNL A   1      44.593  27.102  35.931  1.00  0.00    -0.200 F 
ATOM    100  F   UNL A   1      44.443  24.485  35.176  1.00  0.00    -0.200 F 
ENDBRANCH  67  90
ENDBRANCH  41  42
ENDBRANCH  33  36
ENDBRANCH  31  32
ENDBRANCH  30  31
ENDBRANCH  29  30
ENDBRANCH   1  29
TORSDOF 15
ENDMDL
MODEL 2
REMARK VINA RESULT:     -13.2      4.042      9.836
REMARK SMILES O=C(CCc1cc2n(n1)CC[N@@H+](Cc1ccc3[nH]ccc3c1)C2)NCCCCNC(=O)c1ccc(-c2c3nc(c(-c4c(F)c(F)c(F)c(F)c4F)c4ccc([nH]4)c(-c4c(F)c(F)c(F)c(F)c4F)c4nc(c(-c5c(F)c(F)c(F)c(F)c5F)c5ccc2[nH]5)C=C4)C=C3)cc1
REMARK SMILES IDX 25 1 24 2 1 3 2 4 3 6 4 7 5 8 6 9 9 10 7 11 8 12 23 13 10 14
REMARK SMILES IDX 12 15 11 16 13 18 14 19 15 20 22 21 16 22 21 23 17 24 20 25
REMARK SMILES IDX 18 26 19 27 26 29 27 30 28 31 29 32 30 33 31 35 32 36 33 37
REMARK SMILES IDX 94 38 34 39 93 40 35 41 36 42 37 43 87 44 38 45 92 46 86 47
REMARK SMILES IDX 88 48 39 49 91 50 85 51 84 52 40 54 72 55 52 56 71 57 53 58
REMARK SMILES IDX 56 59 70 60 89 61 54 62 55 63 69 65 90 66 57 67 41 68 42 69
REMARK SMILES IDX 50 70 43 71 44 72 48 73 51 74 45 75 46 76 49 77 47 78 73 79
REMARK SMILES IDX 74 80 82 81 75 82 76 83 80 84 83 85 77 86 78 87 81 88 79 89
REMARK SMILES IDX 58 90 59 91 67 92 60 93 61 94 65 95 68 96 62 97 63 98 66 99
REMARK SMILES IDX 64 100
REMARK H PARENT 24 5 12 17 18 28 29 34 88 53 56 64
REMARK Flexibility Score: inf
ROOT
ATOM      1  C   UNL A   1      34.851  31.568  27.829  1.00  0.00     0.116 C 
ENDROOT
BRANCH   1   2
ATOM      2  N   UNL A   1      33.525  30.940  27.806  1.00  0.00    -0.356 N 
ATOM      3  O   UNL A   1      34.223  29.104  26.606  1.00  0.00    -0.275 OA
ATOM      4  C   UNL A   1      33.327  29.711  27.189  1.00  0.00     0.220 C 
ATOM      5  H   UNL A   1      32.765  31.397  28.233  1.00  0.00     0.163 HD
BRANCH   4   6
ATOM      6  C   UNL A   1      31.906  29.155  27.218  1.00  0.00     0.106 C 
BRANCH   6   7
ATOM      7  C   UNL A   1      31.818  27.626  27.067  1.00  0.00     0.068 C 
BRANCH   7   8
ATOM      8  C   UNL A   1      31.188  27.170  25.787  1.00  0.00     0.063 A 
ATOM      9  C   UNL A   1      30.430  25.998  25.542  1.00  0.00     0.055 A 
ATOM     10  N   UNL A   1      31.412  27.854  24.656  1.00  0.00    -0.177 NA
ATOM     11  C   UNL A   1      30.469  25.858  24.175  1.00  0.00     0.093 A 
ATOM     12  N   UNL A   1      31.030  27.008  23.685  1.00  0.00    -0.258 N 
ATOM     13  C   UNL A   1      30.374  24.664  23.298  1.00  0.00     0.319 C 
ATOM     14  C   UNL A   1      31.595  27.120  22.351  1.00  0.00     0.206 C 
ATOM     15  N   UNL A   1      31.658  24.543  22.579  1.00  0.00    -0.325 N 
ATOM     16  C   UNL A   1      31.809  25.737  21.710  1.00  0.00     0.286 C 
ATOM     17  H   UNL A   1      31.706  23.743  21.946  1.00  0.00     0.348 HD
BRANCH  15  18
ATOM     18  C   UNL A   1      32.740  24.292  23.571  1.00  0.00     0.299 C 
BRANCH  18  19
ATOM     19  C   UNL A   1      32.762  22.954  24.260  1.00  0.00     0.007 A 
ATOM     20  C   UNL A   1      33.045  22.996  25.600  1.00  0.00     0.012 A 
ATOM     21  C   UNL A   1      32.476  21.699  23.684  1.00  0.00     0.020 A 
ATOM     22  C   UNL A   1      33.064  21.856  26.362  1.00  0.00     0.027 A 
ATOM     23  C   UNL A   1      32.633  20.499  24.426  1.00  0.00    -0.000 A 
ATOM     24  C   UNL A   1      32.955  20.616  25.766  1.00  0.00     0.045 A 
ATOM     25  C   UNL A   1      32.527  19.102  24.169  1.00  0.00     0.028 A 
ATOM     26  N   UNL A   1      33.089  19.361  26.299  1.00  0.00    -0.361 N 
ATOM     27  C   UNL A   1      32.846  18.427  25.331  1.00  0.00     0.083 A 
ATOM     28  H   UNL A   1      33.325  19.162  27.234  1.00  0.00     0.166 HD
ENDBRANCH  18  19
ENDBRANCH  15  18
ENDBRANCH   7   8
ENDBRANCH   6   7
ENDBRANCH   4   6
ENDBRANCH   1   2
BRANCH   1  29
ATOM     29  C   UNL A   1      34.903  33.009  28.362  1.00  0.00     0.023 C 
BRANCH  29  30
ATOM     30  C   UNL A   1      33.571  33.783  28.492  1.00  0.00     0.023 C 
BRANCH  30  31
ATOM     31  C   UNL A   1      33.604  35.140  29.232  1.00  0.00     0.116 C 
BRANCH  31  32
ATOM     32  N   UNL A   1      32.743  35.233  30.412  1.00  0.00    -0.352 N 
ATOM     33  C   UNL A   1      33.055  35.023  31.757  1.00  0.00     0.251 C 
ATOM     34  H   UNL A   1      31.808  35.479  30.231  1.00  0.00     0.163 HD
ATOM     35  O   UNL A   1      32.289  35.391  32.622  1.00  0.00    -0.269 OA
BRANCH  33  36
ATOM     36  C   UNL A   1      34.339  34.372  32.155  1.00  0.00     0.039 A 
ATOM     37  C   UNL A   1      35.468  35.136  32.472  1.00  0.00     0.014 A 
ATOM     38  C   UNL A   1      34.429  33.000  32.300  1.00  0.00     0.014 A 
ATOM     39  C   UNL A   1      36.732  34.523  32.645  1.00  0.00     0.010 A 
ATOM     40  C   UNL A   1      35.685  32.402  32.512  1.00  0.00     0.010 A 
ATOM     41  C   UNL A   1      36.892  33.138  32.507  1.00  0.00    -0.014 A 
BRANCH  41  42
ATOM     42  C   UNL A   1      38.235  32.478  32.225  1.00  0.00     0.031 A 
ATOM     43  C   UNL A   1      39.117  32.058  33.375  1.00  0.00     0.074 A 
ATOM     44  C   UNL A   1      38.646  31.937  31.030  1.00  0.00     0.049 A 
ATOM     45  N   UNL A   1      40.346  32.435  33.574  1.00  0.00    -0.248 NA
ATOM     46  C   UNL A   1      38.639  31.110  34.394  1.00  0.00     0.031 C 
ATOM     47  C   UNL A   1      37.976  31.926  29.719  1.00  0.00     0.029 A 
ATOM     48  N   UNL A   1      39.712  31.084  30.787  1.00  0.00    -0.354 N 
ATOM     49  C   UNL A   1      40.818  31.704  34.661  1.00  0.00     0.074 A 
ATOM     50  C   UNL A   1      39.681  31.025  35.219  1.00  0.00     0.031 C 
ATOM     51  C   UNL A   1      38.442  30.904  28.959  1.00  0.00     0.029 A 
ATOM     52  C   UNL A   1      39.606  30.339  29.606  1.00  0.00     0.049 A 
ATOM     53  H   UNL A   1      40.483  31.009  31.395  1.00  0.00     0.167 HD
ATOM     54  C   UNL A   1      42.140  31.539  34.935  1.00  0.00     0.037 A 
ATOM     55  C   UNL A   1      40.433  29.374  29.126  1.00  0.00     0.037 A 
ATOM     56  C   UNL A   1      42.978  32.424  34.178  1.00  0.00     0.049 A 
ATOM     57  C   UNL A   1      41.767  29.641  29.687  1.00  0.00     0.074 A 
ATOM     58  C   UNL A   1      43.049  33.792  34.001  1.00  0.00     0.029 A 
ATOM     59  N   UNL A   1      43.763  31.887  33.189  1.00  0.00    -0.354 N 
ATOM     60  N   UNL A   1      42.516  30.637  29.314  1.00  0.00    -0.248 NA
ATOM     61  C   UNL A   1      42.231  28.896  30.845  1.00  0.00     0.031 C 
ATOM     62  C   UNL A   1      43.462  33.976  32.649  1.00  0.00     0.029 A 
ATOM     63  C   UNL A   1      43.644  32.710  32.098  1.00  0.00     0.049 A 
ATOM     64  H   UNL A   1      44.307  31.070  33.250  1.00  0.00     0.167 HD
ATOM     65  C   UNL A   1      43.252  30.931  30.437  1.00  0.00     0.074 A 
ATOM     66  C   UNL A   1      43.199  29.722  31.250  1.00  0.00     0.031 C 
ATOM     67  C   UNL A   1      43.537  32.228  30.741  1.00  0.00     0.037 A 
BRANCH  54  68
ATOM     68  C   UNL A   1      42.701  30.371  35.705  1.00  0.00     0.064 A 
ATOM     69  C   UNL A   1      43.551  30.589  36.805  1.00  0.00     0.173 A 
ATOM     70  C   UNL A   1      42.612  29.037  35.252  1.00  0.00     0.173 A 
ATOM     71  F   UNL A   1      43.756  31.830  37.270  1.00  0.00    -0.203 F 
ATOM     72  C   UNL A   1      44.263  29.546  37.405  1.00  0.00     0.198 A 
ATOM     73  C   UNL A   1      43.275  27.990  35.890  1.00  0.00     0.198 A 
ATOM     74  F   UNL A   1      41.961  28.721  34.124  1.00  0.00    -0.203 F 
ATOM     75  F   UNL A   1      45.131  29.811  38.390  1.00  0.00    -0.200 F 
ATOM     76  C   UNL A   1      44.115  28.245  36.954  1.00  0.00     0.200 A 
ATOM     77  F   UNL A   1      43.140  26.741  35.421  1.00  0.00    -0.200 F 
ATOM     78  F   UNL A   1      44.817  27.249  37.510  1.00  0.00    -0.200 F 
ENDBRANCH  54  68
BRANCH  55  79
ATOM     79  C   UNL A   1      40.273  28.260  28.159  1.00  0.00     0.064 A 
ATOM     80  C   UNL A   1      40.974  28.242  26.937  1.00  0.00     0.173 A 
ATOM     81  C   UNL A   1      39.688  27.048  28.560  1.00  0.00     0.173 A 
ATOM     82  F   UNL A   1      41.591  29.346  26.493  1.00  0.00    -0.203 F 
ATOM     83  C   UNL A   1      41.120  27.074  26.184  1.00  0.00     0.198 A 
ATOM     84  C   UNL A   1      39.830  25.877  27.802  1.00  0.00     0.198 A 
ATOM     85  F   UNL A   1      39.072  26.962  29.748  1.00  0.00    -0.203 F 
ATOM     86  F   UNL A   1      41.860  27.087  25.066  1.00  0.00    -0.200 F 
ATOM     87  C   UNL A   1      40.559  25.888  26.624  1.00  0.00     0.200 A 
ATOM     88  F   UNL A   1      39.320  24.722  28.250  1.00  0.00    -0.200 F 
ATOM     89  F   UNL A   1      40.759  24.754  25.938  1.00  0.00    -0.200 F 
ENDBRANCH  55  79
BRANCH  67  90
ATOM     90  C   UNL A   1      43.399  33.263  29.655  1.00  0.00     0.064 A 
ATOM     91  C   UNL A   1      42.259  34.063  29.451  1.00  0.00     0.173 A 
ATOM     92  C   UNL A   1      44.529  33.562  28.881  1.00  0.00     0.173 A 
ATOM     93  F   UNL A   1      41.165  33.919  30.205  1.00  0.00    -0.203 F 
ATOM     94  C   UNL A   1      42.241  35.082  28.502  1.00  0.00     0.198 A 
ATOM     95  C   UNL A   1      44.524  34.611  27.964  1.00  0.00     0.198 A 
ATOM     96  F   UNL A   1      45.664  32.867  29.056  1.00  0.00    -0.203 F 
ATOM     97  F   UNL A   1      41.131  35.817  28.328  1.00  0.00    -0.200 F 
ATOM     98  C   UNL A   1      43.378  35.364  27.769  1.00  0.00     0.200 A 
ATOM     99  F   UNL A   1      45.643  34.912  27.291  1.00  0.00    -0.200 F 
ATOM    100  F   UNL A   1      43.379  36.381  26.896  1.00  0.00    -0.200 F 
ENDBRANCH  67  90
ENDBRANCH  41  42
ENDBRANCH  33  36
ENDBRANCH  31  32
ENDBRANCH  30  31
ENDBRANCH  29  30
ENDBRANCH   1  29
TORSDOF 15
ENDMDL
MODEL 3
REMARK VINA RESULT:     -13.0      1.683      3.383
REMARK SMILES O=C(CCc1cc2n(n1)CC[N@@H+](Cc1ccc3[nH]ccc3c1)C2)NCCCCNC(=O)c1ccc(-c2c3nc(c(-c4c(F)c(F)c(F)c(F)c4F)c4ccc([nH]4)c(-c4c(F)c(F)c(F)c(F)c4F)c4nc(c(-c5c(F)c(F)c(F)c(F)c5F)c5ccc2[nH]5)C=C4)C=C3)cc1
REMARK SMILES IDX 25 1 24 2 1 3 2 4 3 6 4 7 5 8 6 9 9 10 7 11 8 12 23 13 10 14
REMARK SMILES IDX 12 15 11 16 13 18 14 19 15 20 22 21 16 22 21 23 17 24 20 25
REMARK SMILES IDX 18 26 19 27 26 29 27 30 28 31 29 32 30 33 31 35 32 36 33 37
REMARK SMILES IDX 94 38 34 39 93 40 35 41 36 42 37 43 87 44 38 45 92 46 86 47
REMARK SMILES IDX 88 48 39 49 91 50 85 51 84 52 40 54 72 55 52 56 71 57 53 58
REMARK SMILES IDX 56 59 70 60 89 61 54 62 55 63 69 65 90 66 57 67 41 68 42 69
REMARK SMILES IDX 50 70 43 71 44 72 48 73 51 74 45 75 46 76 49 77 47 78 73 79
REMARK SMILES IDX 74 80 82 81 75 82 76 83 80 84 83 85 77 86 78 87 81 88 79 89
REMARK SMILES IDX 58 90 59 91 67 92 60 93 61 94 65 95 68 96 62 97 63 98 66 99
REMARK SMILES IDX 64 100
REMARK H PARENT 24 5 12 17 18 28 29 34 88 53 56 64
REMARK Flexibility Score: inf
ROOT
ATOM      1  C   UNL A   1      40.104  21.841  27.231  1.00  0.00     0.116 C 
ENDROOT
BRANCH   1   2
ATOM      2  N   UNL A   1      39.287  22.825  26.511  1.00  0.00    -0.356 N 
ATOM      3  O   UNL A   1      38.026  21.237  25.420  1.00  0.00    -0.275 OA
ATOM      4  C   UNL A   1      38.273  22.419  25.652  1.00  0.00     0.220 C 
ATOM      5  H   UNL A   1      39.460  23.785  26.638  1.00  0.00     0.163 HD
BRANCH   4   6
ATOM      6  C   UNL A   1      37.491  23.526  24.949  1.00  0.00     0.106 C 
BRANCH   6   7
ATOM      7  C   UNL A   1      36.349  24.127  25.786  1.00  0.00     0.068 C 
BRANCH   7   8
ATOM      8  C   UNL A   1      35.084  24.361  25.020  1.00  0.00     0.063 A 
ATOM      9  C   UNL A   1      33.880  24.965  25.461  1.00  0.00     0.055 A 
ATOM     10  N   UNL A   1      34.958  23.869  23.779  1.00  0.00    -0.177 NA
ATOM     11  C   UNL A   1      32.943  24.548  24.545  1.00  0.00     0.093 A 
ATOM     12  N   UNL A   1      33.638  23.930  23.538  1.00  0.00    -0.258 N 
ATOM     13  C   UNL A   1      31.477  24.342  24.651  1.00  0.00     0.319 C 
ATOM     14  C   UNL A   1      33.025  23.028  22.577  1.00  0.00     0.206 C 
ATOM     15  N   UNL A   1      31.217  22.906  24.425  1.00  0.00    -0.325 N 
ATOM     16  C   UNL A   1      31.626  22.581  23.035  1.00  0.00     0.286 C 
ATOM     17  H   UNL A   1      30.231  22.649  24.482  1.00  0.00     0.348 HD
BRANCH  15  18
ATOM     18  C   UNL A   1      31.865  22.126  25.515  1.00  0.00     0.299 C 
BRANCH  18  19
ATOM     19  C   UNL A   1      32.623  20.883  25.133  1.00  0.00     0.007 A 
ATOM     20  C   UNL A   1      33.960  20.905  25.431  1.00  0.00     0.012 A 
ATOM     21  C   UNL A   1      32.092  19.708  24.561  1.00  0.00     0.020 A 
ATOM     22  C   UNL A   1      34.768  19.826  25.171  1.00  0.00     0.027 A 
ATOM     23  C   UNL A   1      32.938  18.644  24.156  1.00  0.00    -0.000 A 
ATOM     24  C   UNL A   1      34.284  18.750  24.456  1.00  0.00     0.045 A 
ATOM     25  C   UNL A   1      32.783  17.392  23.493  1.00  0.00     0.028 A 
ATOM     26  N   UNL A   1      34.935  17.648  23.964  1.00  0.00    -0.361 N 
ATOM     27  C   UNL A   1      34.032  16.818  23.360  1.00  0.00     0.083 A 
ATOM     28  H   UNL A   1      35.902  17.480  24.035  1.00  0.00     0.166 HD
ENDBRANCH  18  19
ENDBRANCH  15  18
ENDBRANCH   7   8
ENDBRANCH   6   7
ENDBRANCH   4   6
ENDBRANCH   1   2
BRANCH   1  29
ATOM     29  C   UNL A   1      41.341  21.318  26.482  1.00  0.00     0.023 C 
BRANCH  29  30
ATOM     30  C   UNL A   1      41.599  19.794  26.483  1.00  0.00     0.023 C 
BRANCH  30  31
ATOM     31  C   UNL A   1      43.062  19.318  26.333  1.00  0.00     0.116 C 
BRANCH  31  32
ATOM     32  N   UNL A   1      43.539  19.178  24.957  1.00  0.00    -0.352 N 
ATOM     33  C   UNL A   1      44.349  20.034  24.206  1.00  0.00     0.251 C 
ATOM     34  H   UNL A   1      43.246  18.362  24.491  1.00  0.00     0.163 HD
ATOM     35  O   UNL A   1      44.853  19.643  23.175  1.00  0.00    -0.269 OA
BRANCH  33  36
ATOM     36  C   UNL A   1      44.628  21.427  24.667  1.00  0.00     0.039 A 
ATOM     37  C   UNL A   1      45.629  21.687  25.611  1.00  0.00     0.014 A 
ATOM     38  C   UNL A   1      43.964  22.508  24.119  1.00  0.00     0.014 A 
ATOM     39  C   UNL A   1      45.754  22.969  26.199  1.00  0.00     0.010 A 
ATOM     40  C   UNL A   1      44.126  23.786  24.684  1.00  0.00     0.010 A 
ATOM     41  C   UNL A   1      44.886  24.013  25.855  1.00  0.00    -0.014 A 
BRANCH  41  42
ATOM     42  C   UNL A   1      44.657  25.232  26.739  1.00  0.00     0.031 A 
ATOM     43  C   UNL A   1      45.493  26.471  26.531  1.00  0.00     0.074 A 
ATOM     44  C   UNL A   1      43.566  25.469  27.541  1.00  0.00     0.049 A 
ATOM     45  N   UNL A   1      46.224  27.060  27.431  1.00  0.00    -0.248 NA
ATOM     46  C   UNL A   1      45.515  27.166  25.234  1.00  0.00     0.031 C 
ATOM     47  C   UNL A   1      42.407  24.610  27.836  1.00  0.00     0.029 A 
ATOM     48  N   UNL A   1      43.168  26.658  28.131  1.00  0.00    -0.354 N 
ATOM     49  C   UNL A   1      46.705  28.232  26.852  1.00  0.00     0.074 A 
ATOM     50  C   UNL A   1      46.366  28.166  25.457  1.00  0.00     0.031 C 
ATOM     51  C   UNL A   1      41.354  25.361  28.242  1.00  0.00     0.029 A 
ATOM     52  C   UNL A   1      41.813  26.712  28.481  1.00  0.00     0.049 A 
ATOM     53  H   UNL A   1      43.788  27.406  28.294  1.00  0.00     0.167 HD
ATOM     54  C   UNL A   1      47.183  29.282  27.574  1.00  0.00     0.037 A 
ATOM     55  C   UNL A   1      41.104  27.748  28.999  1.00  0.00     0.037 A 
ATOM     56  C   UNL A   1      47.417  28.948  28.950  1.00  0.00     0.049 A 
ATOM     57  C   UNL A   1      42.062  28.601  29.718  1.00  0.00     0.074 A 
ATOM     58  C   UNL A   1      48.153  27.985  29.612  1.00  0.00     0.029 A 
ATOM     59  N   UNL A   1      46.587  29.489  29.899  1.00  0.00    -0.354 N 
ATOM     60  N   UNL A   1      42.620  28.262  30.844  1.00  0.00    -0.248 NA
ATOM     61  C   UNL A   1      42.583  29.802  29.088  1.00  0.00     0.031 C 
ATOM     62  C   UNL A   1      47.395  27.668  30.777  1.00  0.00     0.029 A 
ATOM     63  C   UNL A   1      46.262  28.477  30.766  1.00  0.00     0.049 A 
ATOM     64  H   UNL A   1      46.283  30.424  29.949  1.00  0.00     0.167 HD
ATOM     65  C   UNL A   1      43.835  28.904  30.813  1.00  0.00     0.074 A 
ATOM     66  C   UNL A   1      43.667  29.981  29.845  1.00  0.00     0.031 C 
ATOM     67  C   UNL A   1      44.941  28.288  31.316  1.00  0.00     0.037 A 
BRANCH  54  68
ATOM     68  C   UNL A   1      47.185  30.707  27.086  1.00  0.00     0.064 A 
ATOM     69  C   UNL A   1      48.366  31.472  27.133  1.00  0.00     0.173 A 
ATOM     70  C   UNL A   1      46.005  31.421  26.785  1.00  0.00     0.173 A 
ATOM     71  F   UNL A   1      49.531  30.902  27.475  1.00  0.00    -0.203 F 
ATOM     72  C   UNL A   1      48.363  32.850  26.900  1.00  0.00     0.198 A 
ATOM     73  C   UNL A   1      46.013  32.784  26.493  1.00  0.00     0.198 A 
ATOM     74  F   UNL A   1      44.798  30.842  26.860  1.00  0.00    -0.203 F 
ATOM     75  F   UNL A   1      49.494  33.553  27.046  1.00  0.00    -0.200 F 
ATOM     76  C   UNL A   1      47.188  33.503  26.569  1.00  0.00     0.200 A 
ATOM     77  F   UNL A   1      44.861  33.402  26.201  1.00  0.00    -0.200 F 
ATOM     78  F   UNL A   1      47.179  34.827  26.372  1.00  0.00    -0.200 F 
ENDBRANCH  54  68
BRANCH  55  79
ATOM     79  C   UNL A   1      39.661  28.094  29.046  1.00  0.00     0.064 A 
ATOM     80  C   UNL A   1      38.942  28.080  30.258  1.00  0.00     0.173 A 
ATOM     81  C   UNL A   1      39.053  28.756  27.967  1.00  0.00     0.173 A 
ATOM     82  F   UNL A   1      39.461  27.500  31.348  1.00  0.00    -0.203 F 
ATOM     83  C   UNL A   1      37.711  28.726  30.395  1.00  0.00     0.198 A 
ATOM     84  C   UNL A   1      37.814  29.398  28.104  1.00  0.00     0.198 A 
ATOM     85  F   UNL A   1      39.707  28.882  26.804  1.00  0.00    -0.203 F 
ATOM     86  F   UNL A   1      37.098  28.751  31.588  1.00  0.00    -0.200 F 
ATOM     87  C   UNL A   1      37.153  29.398  29.321  1.00  0.00     0.200 A 
ATOM     88  F   UNL A   1      37.296  30.082  27.074  1.00  0.00    -0.200 F 
ATOM     89  F   UNL A   1      36.007  30.076  29.472  1.00  0.00    -0.200 F 
ENDBRANCH  55  79
BRANCH  67  90
ATOM     90  C   UNL A   1      44.746  27.118  32.245  1.00  0.00     0.064 A 
ATOM     91  C   UNL A   1      44.679  25.773  31.836  1.00  0.00     0.173 A 
ATOM     92  C   UNL A   1      44.780  27.359  33.625  1.00  0.00     0.173 A 
ATOM     93  F   UNL A   1      44.736  25.436  30.544  1.00  0.00    -0.203 F 
ATOM     94  C   UNL A   1      44.614  24.730  32.757  1.00  0.00     0.198 A 
ATOM     95  C   UNL A   1      44.761  26.313  34.546  1.00  0.00     0.198 A 
ATOM     96  F   UNL A   1      44.889  28.616  34.084  1.00  0.00    -0.203 F 
ATOM     97  F   UNL A   1      44.539  23.460  32.329  1.00  0.00    -0.200 F 
ATOM     98  C   UNL A   1      44.669  25.001  34.111  1.00  0.00     0.200 A 
ATOM     99  F   UNL A   1      44.864  26.577  35.855  1.00  0.00    -0.200 F 
ATOM    100  F   UNL A   1      44.665  23.994  34.997  1.00  0.00    -0.200 F 
ENDBRANCH  67  90
ENDBRANCH  41  42
ENDBRANCH  33  36
ENDBRANCH  31  32
ENDBRANCH  30  31
ENDBRANCH  29  30
ENDBRANCH   1  29
TORSDOF 15
ENDMDL
