MODEL 1
REMARK VINA RESULT:     -12.8      0.000      0.000
REMARK SMILES Nc1ccc(-c2cc(O)ccc2Cl)c(C(=O)NCCCCNC(=O)c2ccc(-c3c4nc(c(-c5c(F)c(F)c(F)c(F)c5F)c5ccc([nH]5)c(-c5c(F)c(F)c(F)c(F)c5F)c5nc(c(-c6c(F)c(F)c(F)c(F)c6F)c6ccc3[nH]6)C=C5)C=C4)cc2)n1
REMARK SMILES IDX 19 1 18 2 17 3 15 4 16 5 14 7 2 8 3 9 88 10 4 11 5 12 1 13
REMARK SMILES IDX 6 16 7 17 12 18 8 19 11 20 13 21 10 22 9 23 20 25 21 26
REMARK SMILES IDX 22 27 23 28 24 30 25 31 26 32 87 33 27 34 86 35 28 36 29 37
REMARK SMILES IDX 30 38 80 39 31 40 85 41 79 42 81 43 32 44 84 45 78 46 77 47
REMARK SMILES IDX 33 49 65 50 45 51 64 52 46 53 49 54 63 55 82 56 47 57 48 58
REMARK SMILES IDX 62 60 83 61 50 62 34 63 35 64 43 65 36 66 37 67 41 68 44 69
REMARK SMILES IDX 38 70 39 71 42 72 40 73 66 74 67 75 75 76 68 77 69 78 73 79
REMARK SMILES IDX 76 80 70 81 71 82 74 83 72 84 51 85 52 86 60 87 53 88 54 89
REMARK SMILES IDX 58 90 61 91 55 92 56 93 59 94 57 95
REMARK H PARENT 17 6 1 14 1 15 9 24 22 29 81 48 49 59
REMARK Flexibility Score: inf
ROOT
ATOM      1  C   UNL A   1      31.845  30.601  25.752  1.00  0.00     0.023 C 
ENDROOT
BRANCH   1   2
ATOM      2  C   UNL A   1      32.402  29.200  25.954  1.00  0.00     0.116 C 
BRANCH   2   3
ATOM      3  N   UNL A   1      31.470  28.195  26.393  1.00  0.00    -0.351 N 
ATOM      4  C   UNL A   1      31.128  26.997  25.790  1.00  0.00     0.270 C 
ATOM      5  O   UNL A   1      30.384  26.248  26.427  1.00  0.00    -0.267 OA
ATOM      6  H   UNL A   1      31.010  28.387  27.242  1.00  0.00     0.163 HD
BRANCH   4   7
ATOM      7  C   UNL A   1      31.547  26.612  24.391  1.00  0.00     0.138 A 
ATOM      8  C   UNL A   1      33.128  25.326  23.254  1.00  0.00     0.124 A 
ATOM      9  C   UNL A   1      32.646  25.748  22.031  1.00  0.00     0.047 A 
ATOM     10  N   UNL A   1      32.581  25.713  24.412  1.00  0.00    -0.225 NA
ATOM     11  C   UNL A   1      31.594  26.659  22.004  1.00  0.00     0.015 A 
ATOM     12  C   UNL A   1      31.023  27.139  23.197  1.00  0.00     0.015 A 
BRANCH   8  13
ATOM     13  N   UNL A   1      34.178  24.431  23.325  1.00  0.00    -0.384 N 
ATOM     14  H   UNL A   1      34.315  23.775  22.604  1.00  0.00     0.158 HD
ATOM     15  H   UNL A   1      34.788  24.450  24.097  1.00  0.00     0.158 HD
ENDBRANCH   8  13
BRANCH  12  16
ATOM     16  C   UNL A   1      29.938  28.127  23.084  1.00  0.00     0.006 A 
ATOM     17  C   UNL A   1      30.269  29.442  22.681  1.00  0.00     0.056 A 
ATOM     18  C   UNL A   1      28.584  27.835  23.336  1.00  0.00     0.049 A 
ATOM     19  C   UNL A   1      29.272  30.381  22.435  1.00  0.00     0.116 A 
ATOM     20  C   UNL A   1      27.594  28.800  23.117  1.00  0.00     0.025 A 
ATOM     21  Cl  UNL A   1      28.079  26.296  23.935  1.00  0.00    -0.084 Cl
ATOM     22  C   UNL A   1      27.938  30.068  22.647  1.00  0.00     0.048 A 
BRANCH  19  23
ATOM     23  O   UNL A   1      29.565  31.607  21.924  1.00  0.00    -0.508 OA
ATOM     24  H   UNL A   1      28.902  32.102  21.483  1.00  0.00     0.293 HD
ENDBRANCH  19  23
ENDBRANCH  12  16
ENDBRANCH   4   7
ENDBRANCH   2   3
ENDBRANCH   1   2
BRANCH   1  25
ATOM     25  C   UNL A   1      31.748  31.486  26.994  1.00  0.00     0.023 C 
BRANCH  25  26
ATOM     26  C   UNL A   1      32.869  32.492  27.252  1.00  0.00     0.116 C 
BRANCH  26  27
ATOM     27  N   UNL A   1      32.438  33.831  27.632  1.00  0.00    -0.352 N 
ATOM     28  C   UNL A   1      33.016  34.746  28.486  1.00  0.00     0.251 C 
ATOM     29  H   UNL A   1      31.600  34.131  27.211  1.00  0.00     0.163 HD
ATOM     30  O   UNL A   1      32.510  35.855  28.635  1.00  0.00    -0.269 OA
BRANCH  28  31
ATOM     31  C   UNL A   1      34.204  34.384  29.294  1.00  0.00     0.039 A 
ATOM     32  C   UNL A   1      33.997  33.849  30.570  1.00  0.00     0.014 A 
ATOM     33  C   UNL A   1      35.502  34.515  28.798  1.00  0.00     0.014 A 
ATOM     34  C   UNL A   1      35.073  33.315  31.283  1.00  0.00     0.010 A 
ATOM     35  C   UNL A   1      36.561  33.908  29.470  1.00  0.00     0.010 A 
ATOM     36  C   UNL A   1      36.350  33.270  30.702  1.00  0.00    -0.014 A 
BRANCH  36  37
ATOM     37  C   UNL A   1      37.452  32.491  31.328  1.00  0.00     0.031 A 
ATOM     38  C   UNL A   1      37.966  32.844  32.693  1.00  0.00     0.074 A 
ATOM     39  C   UNL A   1      38.054  31.518  30.614  1.00  0.00     0.049 A 
ATOM     40  N   UNL A   1      38.975  32.334  33.354  1.00  0.00    -0.248 NA
ATOM     41  C   UNL A   1      37.275  33.933  33.398  1.00  0.00     0.031 C 
ATOM     42  C   UNL A   1      37.694  31.120  29.252  1.00  0.00     0.029 A 
ATOM     43  N   UNL A   1      39.108  30.694  30.930  1.00  0.00    -0.354 N 
ATOM     44  C   UNL A   1      39.052  33.052  34.539  1.00  0.00     0.074 A 
ATOM     45  C   UNL A   1      38.014  34.060  34.490  1.00  0.00     0.031 C 
ATOM     46  C   UNL A   1      38.494  30.115  28.858  1.00  0.00     0.029 A 
ATOM     47  C   UNL A   1      39.447  29.822  29.923  1.00  0.00     0.049 A 
ATOM     48  H   UNL A   1      39.575  30.725  31.796  1.00  0.00     0.167 HD
ATOM     49  C   UNL A   1      39.897  32.872  35.582  1.00  0.00     0.037 A 
ATOM     50  C   UNL A   1      40.421  28.894  29.861  1.00  0.00     0.037 A 
ATOM     51  C   UNL A   1      40.910  31.850  35.645  1.00  0.00     0.049 A 
ATOM     52  C   UNL A   1      41.331  28.701  31.042  1.00  0.00     0.074 A 
ATOM     53  C   UNL A   1      41.769  31.549  36.686  1.00  0.00     0.029 A 
ATOM     54  N   UNL A   1      41.196  30.960  34.620  1.00  0.00    -0.354 N 
ATOM     55  N   UNL A   1      41.345  29.339  32.186  1.00  0.00    -0.248 NA
ATOM     56  C   UNL A   1      42.355  27.654  30.925  1.00  0.00     0.031 C 
ATOM     57  C   UNL A   1      42.598  30.498  36.282  1.00  0.00     0.029 A 
ATOM     58  C   UNL A   1      42.230  30.119  35.001  1.00  0.00     0.049 A 
ATOM     59  H   UNL A   1      40.734  30.931  33.752  1.00  0.00     0.167 HD
ATOM     60  C   UNL A   1      42.359  28.757  32.933  1.00  0.00     0.074 A 
ATOM     61  C   UNL A   1      42.930  27.706  32.118  1.00  0.00     0.031 C 
ATOM     62  C   UNL A   1      42.779  29.069  34.183  1.00  0.00     0.037 A 
BRANCH  49  63
ATOM     63  C   UNL A   1      39.758  33.802  36.751  1.00  0.00     0.064 A 
ATOM     64  C   UNL A   1      40.423  35.037  36.786  1.00  0.00     0.173 A 
ATOM     65  C   UNL A   1      38.928  33.471  37.832  1.00  0.00     0.173 A 
ATOM     66  F   UNL A   1      41.236  35.395  35.782  1.00  0.00    -0.203 F 
ATOM     67  C   UNL A   1      40.283  35.894  37.875  1.00  0.00     0.198 A 
ATOM     68  C   UNL A   1      38.770  34.342  38.907  1.00  0.00     0.198 A 
ATOM     69  F   UNL A   1      38.265  32.305  37.843  1.00  0.00    -0.203 F 
ATOM     70  F   UNL A   1      40.964  37.048  37.908  1.00  0.00    -0.200 F 
ATOM     71  C   UNL A   1      39.454  35.548  38.930  1.00  0.00     0.200 A 
ATOM     72  F   UNL A   1      37.958  34.013  39.921  1.00  0.00    -0.200 F 
ATOM     73  F   UNL A   1      39.317  36.377  39.976  1.00  0.00    -0.200 F 
ENDBRANCH  49  63
BRANCH  50  74
ATOM     74  C   UNL A   1      40.564  28.051  28.647  1.00  0.00     0.064 A 
ATOM     75  C   UNL A   1      41.347  28.480  27.567  1.00  0.00     0.173 A 
ATOM     76  C   UNL A   1      39.926  26.808  28.538  1.00  0.00     0.173 A 
ATOM     77  F   UNL A   1      41.960  29.672  27.616  1.00  0.00    -0.203 F 
ATOM     78  C   UNL A   1      41.473  27.705  26.416  1.00  0.00     0.198 A 
ATOM     79  C   UNL A   1      40.071  26.022  27.397  1.00  0.00     0.198 A 
ATOM     80  F   UNL A   1      39.169  26.351  29.547  1.00  0.00    -0.203 F 
ATOM     81  F   UNL A   1      42.194  28.157  25.382  1.00  0.00    -0.200 F 
ATOM     82  C   UNL A   1      40.839  26.474  26.334  1.00  0.00     0.200 A 
ATOM     83  F   UNL A   1      39.468  24.828  27.326  1.00  0.00    -0.200 F 
ATOM     84  F   UNL A   1      40.962  25.728  25.228  1.00  0.00    -0.200 F 
ENDBRANCH  50  74
BRANCH  62  85
ATOM     85  C   UNL A   1      43.887  28.241  34.761  1.00  0.00     0.064 A 
ATOM     86  C   UNL A   1      45.231  28.624  34.638  1.00  0.00     0.173 A 
ATOM     87  C   UNL A   1      43.598  27.072  35.480  1.00  0.00     0.173 A 
ATOM     88  F   UNL A   1      45.557  29.725  33.944  1.00  0.00    -0.203 F 
ATOM     89  C   UNL A   1      46.246  27.856  35.200  1.00  0.00     0.198 A 
ATOM     90  C   UNL A   1      44.615  26.320  36.061  1.00  0.00     0.198 A 
ATOM     91  F   UNL A   1      42.329  26.666  35.627  1.00  0.00    -0.203 F 
ATOM     92  F   UNL A   1      47.527  28.219  35.037  1.00  0.00    -0.200 F 
ATOM     93  C   UNL A   1      45.938  26.708  35.916  1.00  0.00     0.200 A 
ATOM     94  F   UNL A   1      44.315  25.217  36.761  1.00  0.00    -0.200 F 
ATOM     95  F   UNL A   1      46.917  25.975  36.461  1.00  0.00    -0.200 F 
ENDBRANCH  62  85
ENDBRANCH  36  37
ENDBRANCH  28  31
ENDBRANCH  26  27
ENDBRANCH  25  26
ENDBRANCH   1  25
TORSDOF 14
ENDMDL
MODEL 2
REMARK VINA RESULT:     -12.8      2.345      8.295
REMARK SMILES Nc1ccc(-c2cc(O)ccc2Cl)c(C(=O)NCCCCNC(=O)c2ccc(-c3c4nc(c(-c5c(F)c(F)c(F)c(F)c5F)c5ccc([nH]5)c(-c5c(F)c(F)c(F)c(F)c5F)c5nc(c(-c6c(F)c(F)c(F)c(F)c6F)c6ccc3[nH]6)C=C5)C=C4)cc2)n1
REMARK SMILES IDX 19 1 18 2 17 3 15 4 16 5 14 7 2 8 3 9 88 10 4 11 5 12 1 13
REMARK SMILES IDX 6 16 7 17 12 18 8 19 11 20 13 21 10 22 9 23 20 25 21 26
REMARK SMILES IDX 22 27 23 28 24 30 25 31 26 32 87 33 27 34 86 35 28 36 29 37
REMARK SMILES IDX 30 38 80 39 31 40 85 41 79 42 81 43 32 44 84 45 78 46 77 47
REMARK SMILES IDX 33 49 65 50 45 51 64 52 46 53 49 54 63 55 82 56 47 57 48 58
REMARK SMILES IDX 62 60 83 61 50 62 34 63 35 64 43 65 36 66 37 67 41 68 44 69
REMARK SMILES IDX 38 70 39 71 42 72 40 73 66 74 67 75 75 76 68 77 69 78 73 79
REMARK SMILES IDX 76 80 70 81 71 82 74 83 72 84 51 85 52 86 60 87 53 88 54 89
REMARK SMILES IDX 58 90 61 91 55 92 56 93 59 94 57 95
REMARK H PARENT 17 6 1 14 1 15 9 24 22 29 81 48 49 59
REMARK Flexibility Score: inf
ROOT
ATOM      1  C   UNL A   1      32.410  27.835  27.045  1.00  0.00     0.023 C 
ENDROOT
BRANCH   1   2
ATOM      2  C   UNL A   1      33.596  27.530  26.143  1.00  0.00     0.116 C 
BRANCH   2   3
ATOM      3  N   UNL A   1      33.293  27.199  24.775  1.00  0.00    -0.351 N 
ATOM      4  C   UNL A   1      32.606  26.108  24.272  1.00  0.00     0.270 C 
ATOM      5  O   UNL A   1      32.372  26.108  23.062  1.00  0.00    -0.267 OA
ATOM      6  H   UNL A   1      33.620  27.838  24.103  1.00  0.00     0.163 HD
BRANCH   4   7
ATOM      7  C   UNL A   1      32.211  24.908  25.103  1.00  0.00     0.138 A 
ATOM      8  C   UNL A   1      30.447  24.089  26.393  1.00  0.00     0.124 A 
ATOM      9  C   UNL A   1      31.170  22.963  26.732  1.00  0.00     0.047 A 
ATOM     10  N   UNL A   1      30.929  25.029  25.572  1.00  0.00    -0.225 NA
ATOM     11  C   UNL A   1      32.472  22.834  26.256  1.00  0.00     0.015 A 
ATOM     12  C   UNL A   1      33.043  23.825  25.437  1.00  0.00     0.015 A 
BRANCH   8  13
ATOM     13  N   UNL A   1      29.157  24.261  26.853  1.00  0.00    -0.384 N 
ATOM     14  H   UNL A   1      28.954  24.134  27.808  1.00  0.00     0.158 HD
ATOM     15  H   UNL A   1      28.440  24.512  26.227  1.00  0.00     0.158 HD
ENDBRANCH   8  13
BRANCH  12  16
ATOM     16  C   UNL A   1      34.436  23.631  25.003  1.00  0.00     0.006 A 
ATOM     17  C   UNL A   1      35.469  23.866  25.942  1.00  0.00     0.056 A 
ATOM     18  C   UNL A   1      34.802  23.207  23.711  1.00  0.00     0.049 A 
ATOM     19  C   UNL A   1      36.792  23.577  25.627  1.00  0.00     0.116 A 
ATOM     20  C   UNL A   1      36.143  22.953  23.398  1.00  0.00     0.025 A 
ATOM     21  Cl  UNL A   1      33.635  22.994  22.456  1.00  0.00    -0.084 Cl
ATOM     22  C   UNL A   1      37.136  23.120  24.364  1.00  0.00     0.048 A 
BRANCH  19  23
ATOM     23  O   UNL A   1      37.779  23.675  26.558  1.00  0.00    -0.508 OA
ATOM     24  H   UNL A   1      37.761  23.130  27.320  1.00  0.00     0.293 HD
ENDBRANCH  19  23
ENDBRANCH  12  16
ENDBRANCH   4   7
ENDBRANCH   2   3
ENDBRANCH   1   2
BRANCH   1  25
ATOM     25  C   UNL A   1      31.760  29.209  26.883  1.00  0.00     0.023 C 
BRANCH  25  26
ATOM     26  C   UNL A   1      32.574  30.317  26.216  1.00  0.00     0.116 C 
BRANCH  26  27
ATOM     27  N   UNL A   1      32.460  31.636  26.826  1.00  0.00    -0.352 N 
ATOM     28  C   UNL A   1      33.381  32.370  27.543  1.00  0.00     0.251 C 
ATOM     29  H   UNL A   1      31.586  32.072  26.707  1.00  0.00     0.163 HD
ATOM     30  O   UNL A   1      33.096  33.498  27.936  1.00  0.00    -0.269 OA
BRANCH  28  31
ATOM     31  C   UNL A   1      34.690  31.787  27.918  1.00  0.00     0.039 A 
ATOM     32  C   UNL A   1      35.799  32.637  27.977  1.00  0.00     0.014 A 
ATOM     33  C   UNL A   1      34.828  30.441  28.258  1.00  0.00     0.014 A 
ATOM     34  C   UNL A   1      37.003  32.175  28.512  1.00  0.00     0.010 A 
ATOM     35  C   UNL A   1      36.002  30.002  28.868  1.00  0.00     0.010 A 
ATOM     36  C   UNL A   1      37.088  30.875  29.035  1.00  0.00    -0.014 A 
BRANCH  36  37
ATOM     37  C   UNL A   1      38.269  30.440  29.828  1.00  0.00     0.031 A 
ATOM     38  C   UNL A   1      39.244  29.442  29.276  1.00  0.00     0.074 A 
ATOM     39  C   UNL A   1      38.405  30.882  31.095  1.00  0.00     0.049 A 
ATOM     40  N   UNL A   1      40.276  28.884  29.858  1.00  0.00    -0.248 NA
ATOM     41  C   UNL A   1      39.013  28.988  27.896  1.00  0.00     0.031 C 
ATOM     42  C   UNL A   1      37.492  31.803  31.775  1.00  0.00     0.029 A 
ATOM     43  N   UNL A   1      39.359  30.604  32.046  1.00  0.00    -0.354 N 
ATOM     44  C   UNL A   1      40.803  28.001  28.927  1.00  0.00     0.074 A 
ATOM     45  C   UNL A   1      39.955  28.066  27.755  1.00  0.00     0.031 C 
ATOM     46  C   UNL A   1      37.940  32.032  33.020  1.00  0.00     0.029 A 
ATOM     47  C   UNL A   1      39.150  31.248  33.242  1.00  0.00     0.049 A 
ATOM     48  H   UNL A   1      40.119  30.000  31.884  1.00  0.00     0.167 HD
ATOM     49  C   UNL A   1      41.906  27.222  29.031  1.00  0.00     0.037 A 
ATOM     50  C   UNL A   1      39.851  31.207  34.390  1.00  0.00     0.037 A 
ATOM     51  C   UNL A   1      42.768  27.179  30.183  1.00  0.00     0.049 A 
ATOM     52  C   UNL A   1      41.084  30.352  34.471  1.00  0.00     0.074 A 
ATOM     53  C   UNL A   1      43.944  26.472  30.357  1.00  0.00     0.029 A 
ATOM     54  N   UNL A   1      42.545  27.878  31.361  1.00  0.00    -0.354 N 
ATOM     55  N   UNL A   1      41.612  29.577  33.557  1.00  0.00    -0.248 NA
ATOM     56  C   UNL A   1      41.821  30.371  35.742  1.00  0.00     0.031 C 
ATOM     57  C   UNL A   1      44.417  26.715  31.650  1.00  0.00     0.029 A 
ATOM     58  C   UNL A   1      43.555  27.605  32.271  1.00  0.00     0.049 A 
ATOM     59  H   UNL A   1      41.782  28.477  31.527  1.00  0.00     0.167 HD
ATOM     60  C   UNL A   1      42.755  29.036  34.130  1.00  0.00     0.074 A 
ATOM     61  C   UNL A   1      42.850  29.581  35.468  1.00  0.00     0.031 C 
ATOM     62  C   UNL A   1      43.643  28.165  33.594  1.00  0.00     0.037 A 
BRANCH  49  63
ATOM     63  C   UNL A   1      42.251  26.354  27.858  1.00  0.00     0.064 A 
ATOM     64  C   UNL A   1      41.635  25.108  27.664  1.00  0.00     0.173 A 
ATOM     65  C   UNL A   1      43.182  26.782  26.900  1.00  0.00     0.173 A 
ATOM     66  F   UNL A   1      40.745  24.649  28.556  1.00  0.00    -0.203 F 
ATOM     67  C   UNL A   1      41.960  24.311  26.569  1.00  0.00     0.198 A 
ATOM     68  C   UNL A   1      43.486  25.995  25.793  1.00  0.00     0.198 A 
ATOM     69  F   UNL A   1      43.795  27.968  27.036  1.00  0.00    -0.203 F 
ATOM     70  F   UNL A   1      41.393  23.105  26.429  1.00  0.00    -0.200 F 
ATOM     71  C   UNL A   1      42.880  24.757  25.633  1.00  0.00     0.200 A 
ATOM     72  F   UNL A   1      44.366  26.431  24.883  1.00  0.00    -0.200 F 
ATOM     73  F   UNL A   1      43.189  23.991  24.577  1.00  0.00    -0.200 F 
ENDBRANCH  49  63
BRANCH  50  74
ATOM     74  C   UNL A   1      39.421  32.030  35.550  1.00  0.00     0.064 A 
ATOM     75  C   UNL A   1      38.521  31.519  36.495  1.00  0.00     0.173 A 
ATOM     76  C   UNL A   1      39.894  33.336  35.737  1.00  0.00     0.173 A 
ATOM     77  F   UNL A   1      38.025  30.282  36.346  1.00  0.00    -0.203 F 
ATOM     78  C   UNL A   1      38.098  32.289  37.576  1.00  0.00     0.198 A 
ATOM     79  C   UNL A   1      39.488  34.098  36.831  1.00  0.00     0.198 A 
ATOM     80  F   UNL A   1      40.760  33.869  34.863  1.00  0.00    -0.203 F 
ATOM     81  F   UNL A   1      37.205  31.790  38.442  1.00  0.00    -0.200 F 
ATOM     82  C   UNL A   1      38.585  33.576  37.746  1.00  0.00     0.200 A 
ATOM     83  F   UNL A   1      39.971  35.336  37.000  1.00  0.00    -0.200 F 
ATOM     84  F   UNL A   1      38.179  34.316  38.786  1.00  0.00    -0.200 F 
ENDBRANCH  50  74
BRANCH  62  85
ATOM     85  C   UNL A   1      44.816  27.773  34.441  1.00  0.00     0.064 A 
ATOM     86  C   UNL A   1      45.981  28.553  34.488  1.00  0.00     0.173 A 
ATOM     87  C   UNL A   1      44.758  26.626  35.246  1.00  0.00     0.173 A 
ATOM     88  F   UNL A   1      46.090  29.649  33.722  1.00  0.00    -0.203 F 
ATOM     89  C   UNL A   1      47.053  28.187  35.297  1.00  0.00     0.198 A 
ATOM     90  C   UNL A   1      45.823  26.277  36.072  1.00  0.00     0.198 A 
ATOM     91  F   UNL A   1      43.665  25.850  35.238  1.00  0.00    -0.203 F 
ATOM     92  F   UNL A   1      48.172  28.925  35.297  1.00  0.00    -0.200 F 
ATOM     93  C   UNL A   1      46.971  27.053  36.093  1.00  0.00     0.200 A 
ATOM     94  F   UNL A   1      45.738  25.187  36.847  1.00  0.00    -0.200 F 
ATOM     95  F   UNL A   1      48.002  26.707  36.875  1.00  0.00    -0.200 F 
ENDBRANCH  62  85
ENDBRANCH  36  37
ENDBRANCH  28  31
ENDBRANCH  26  27
ENDBRANCH  25  26
ENDBRANCH   1  25
TORSDOF 14
ENDMDL
MODEL 3
REMARK VINA RESULT:     -12.8      2.429      4.082
REMARK SMILES Nc1ccc(-c2cc(O)ccc2Cl)c(C(=O)NCCCCNC(=O)c2ccc(-c3c4nc(c(-c5c(F)c(F)c(F)c(F)c5F)c5ccc([nH]5)c(-c5c(F)c(F)c(F)c(F)c5F)c5nc(c(-c6c(F)c(F)c(F)c(F)c6F)c6ccc3[nH]6)C=C5)C=C4)cc2)n1
REMARK SMILES IDX 19 1 18 2 17 3 15 4 16 5 14 7 2 8 3 9 88 10 4 11 5 12 1 13
REMARK SMILES IDX 6 16 7 17 12 18 8 19 11 20 13 21 10 22 9 23 20 25 21 26
REMARK SMILES IDX 22 27 23 28 24 30 25 31 26 32 87 33 27 34 86 35 28 36 29 37
REMARK SMILES IDX 30 38 80 39 31 40 85 41 79 42 81 43 32 44 84 45 78 46 77 47
REMARK SMILES IDX 33 49 65 50 45 51 64 52 46 53 49 54 63 55 82 56 47 57 48 58
REMARK SMILES IDX 62 60 83 61 50 62 34 63 35 64 43 65 36 66 37 67 41 68 44 69
REMARK SMILES IDX 38 70 39 71 42 72 40 73 66 74 67 75 75 76 68 77 69 78 73 79
REMARK SMILES IDX 76 80 70 81 71 82 74 83 72 84 51 85 52 86 60 87 53 88 54 89
REMARK SMILES IDX 58 90 61 91 55 92 56 93 59 94 57 95
REMARK H PARENT 17 6 1 14 1 15 9 24 22 29 81 48 49 59
REMARK Flexibility Score: inf
ROOT
ATOM      1  C   UNL A   1      32.430  27.920  27.140  1.00  0.00     0.023 C 
ENDROOT
BRANCH   1   2
ATOM      2  C   UNL A   1      33.584  27.487  26.249  1.00  0.00     0.116 C 
BRANCH   2   3
ATOM      3  N   UNL A   1      33.263  27.210  24.873  1.00  0.00    -0.351 N 
ATOM      4  C   UNL A   1      32.551  26.151  24.338  1.00  0.00     0.270 C 
ATOM      5  O   UNL A   1      32.308  26.198  23.130  1.00  0.00    -0.267 OA
ATOM      6  H   UNL A   1      33.598  27.865  24.220  1.00  0.00     0.163 HD
BRANCH   4   7
ATOM      7  C   UNL A   1      32.139  24.931  25.130  1.00  0.00     0.138 A 
ATOM      8  C   UNL A   1      30.368  24.099  26.402  1.00  0.00     0.124 A 
ATOM      9  C   UNL A   1      31.073  22.950  26.699  1.00  0.00     0.047 A 
ATOM     10  N   UNL A   1      30.863  25.058  25.611  1.00  0.00    -0.225 NA
ATOM     11  C   UNL A   1      32.369  22.814  26.211  1.00  0.00     0.015 A 
ATOM     12  C   UNL A   1      32.954  23.822  25.422  1.00  0.00     0.015 A 
BRANCH   8  13
ATOM     13  N   UNL A   1      29.084  24.279  26.876  1.00  0.00    -0.384 N 
ATOM     14  H   UNL A   1      28.884  24.122  27.827  1.00  0.00     0.158 HD
ATOM     15  H   UNL A   1      28.368  24.563  26.263  1.00  0.00     0.158 HD
ENDBRANCH   8  13
BRANCH  12  16
ATOM     16  C   UNL A   1      34.341  23.619  24.973  1.00  0.00     0.006 A 
ATOM     17  C   UNL A   1      35.384  23.822  25.907  1.00  0.00     0.056 A 
ATOM     18  C   UNL A   1      34.691  23.213  23.671  1.00  0.00     0.049 A 
ATOM     19  C   UNL A   1      36.701  23.522  25.577  1.00  0.00     0.116 A 
ATOM     20  C   UNL A   1      36.026  22.948  23.342  1.00  0.00     0.025 A 
ATOM     21  Cl  UNL A   1      33.512  23.040  22.422  1.00  0.00    -0.084 Cl
ATOM     22  C   UNL A   1      37.028  23.085  24.302  1.00  0.00     0.048 A 
BRANCH  19  23
ATOM     23  O   UNL A   1      37.696  23.590  26.501  1.00  0.00    -0.508 OA
ATOM     24  H   UNL A   1      38.365  22.934  26.519  1.00  0.00     0.293 HD
ENDBRANCH  19  23
ENDBRANCH  12  16
ENDBRANCH   4   7
ENDBRANCH   2   3
ENDBRANCH   1   2
BRANCH   1  25
ATOM     25  C   UNL A   1      31.778  29.264  26.814  1.00  0.00     0.023 C 
BRANCH  25  26
ATOM     26  C   UNL A   1      32.651  30.359  26.202  1.00  0.00     0.116 C 
BRANCH  26  27
ATOM     27  N   UNL A   1      32.593  31.654  26.866  1.00  0.00    -0.352 N 
ATOM     28  C   UNL A   1      33.538  32.311  27.626  1.00  0.00     0.251 C 
ATOM     29  H   UNL A   1      31.744  32.139  26.754  1.00  0.00     0.163 HD
ATOM     30  O   UNL A   1      33.305  33.434  28.062  1.00  0.00    -0.269 OA
BRANCH  28  31
ATOM     31  C   UNL A   1      34.811  31.647  27.993  1.00  0.00     0.039 A 
ATOM     32  C   UNL A   1      35.952  32.442  28.140  1.00  0.00     0.014 A 
ATOM     33  C   UNL A   1      34.884  30.276  28.241  1.00  0.00     0.014 A 
ATOM     34  C   UNL A   1      37.120  31.892  28.673  1.00  0.00     0.010 A 
ATOM     35  C   UNL A   1      36.020  29.746  28.850  1.00  0.00     0.010 A 
ATOM     36  C   UNL A   1      37.136  30.557  29.105  1.00  0.00    -0.014 A 
BRANCH  36  37
ATOM     37  C   UNL A   1      38.274  30.019  29.897  1.00  0.00     0.031 A 
ATOM     38  C   UNL A   1      38.519  30.479  31.305  1.00  0.00     0.074 A 
ATOM     39  C   UNL A   1      39.147  29.179  29.305  1.00  0.00     0.049 A 
ATOM     40  N   UNL A   1      39.509  30.187  32.111  1.00  0.00    -0.248 NA
ATOM     41  C   UNL A   1      37.538  31.416  31.873  1.00  0.00     0.031 C 
ATOM     42  C   UNL A   1      39.060  28.704  27.922  1.00  0.00     0.029 A 
ATOM     43  N   UNL A   1      40.289  28.584  29.785  1.00  0.00    -0.354 N 
ATOM     44  C   UNL A   1      39.282  30.916  33.269  1.00  0.00     0.074 A 
ATOM     45  C   UNL A   1      38.083  31.697  33.048  1.00  0.00     0.031 C 
ATOM     46  C   UNL A   1      40.087  27.876  27.673  1.00  0.00     0.029 A 
ATOM     47  C   UNL A   1      40.926  27.788  28.864  1.00  0.00     0.049 A 
ATOM     48  H   UNL A   1      40.619  28.716  30.703  1.00  0.00     0.167 HD
ATOM     49  C   UNL A   1      39.997  30.919  34.419  1.00  0.00     0.037 A 
ATOM     50  C   UNL A   1      42.062  27.072  28.963  1.00  0.00     0.037 A 
ATOM     51  C   UNL A   1      41.172  30.119  34.651  1.00  0.00     0.049 A 
ATOM     52  C   UNL A   1      42.823  27.075  30.259  1.00  0.00     0.074 A 
ATOM     53  C   UNL A   1      41.924  30.005  35.807  1.00  0.00     0.029 A 
ATOM     54  N   UNL A   1      41.763  29.295  33.706  1.00  0.00    -0.354 N 
ATOM     55  N   UNL A   1      42.556  27.713  31.372  1.00  0.00    -0.248 NA
ATOM     56  C   UNL A   1      44.039  26.252  30.315  1.00  0.00     0.031 C 
ATOM     57  C   UNL A   1      42.990  29.136  35.552  1.00  0.00     0.029 A 
ATOM     58  C   UNL A   1      42.881  28.680  34.248  1.00  0.00     0.049 A 
ATOM     59  H   UNL A   1      41.438  29.166  32.786  1.00  0.00     0.167 HD
ATOM     60  C   UNL A   1      43.554  27.352  32.266  1.00  0.00     0.074 A 
ATOM     61  C   UNL A   1      44.426  26.429  31.571  1.00  0.00     0.031 C 
ATOM     62  C   UNL A   1      43.731  27.753  33.548  1.00  0.00     0.037 A 
BRANCH  49  63
ATOM     63  C   UNL A   1      39.520  31.813  35.525  1.00  0.00     0.064 A 
ATOM     64  C   UNL A   1      39.968  33.137  35.640  1.00  0.00     0.173 A 
ATOM     65  C   UNL A   1      38.583  31.353  36.463  1.00  0.00     0.173 A 
ATOM     66  F   UNL A   1      40.872  33.621  34.775  1.00  0.00    -0.203 F 
ATOM     67  C   UNL A   1      39.516  33.959  36.669  1.00  0.00     0.198 A 
ATOM     68  C   UNL A   1      38.114  32.185  37.474  1.00  0.00     0.198 A 
ATOM     69  F   UNL A   1      38.118  30.096  36.393  1.00  0.00    -0.203 F 
ATOM     70  F   UNL A   1      39.993  35.207  36.785  1.00  0.00    -0.200 F 
ATOM     71  C   UNL A   1      38.587  33.485  37.581  1.00  0.00     0.200 A 
ATOM     72  F   UNL A   1      37.206  31.730  38.349  1.00  0.00    -0.200 F 
ATOM     73  F   UNL A   1      38.149  34.279  38.569  1.00  0.00    -0.200 F 
ENDBRANCH  49  63
BRANCH  50  74
ATOM     74  C   UNL A   1      42.531  26.263  27.809  1.00  0.00     0.064 A 
ATOM     75  C   UNL A   1      43.500  26.766  26.930  1.00  0.00     0.173 A 
ATOM     76  C   UNL A   1      42.026  24.980  27.560  1.00  0.00     0.173 A 
ATOM     77  F   UNL A   1      43.997  27.999  27.116  1.00  0.00    -0.203 F 
ATOM     78  C   UNL A   1      43.933  26.023  25.835  1.00  0.00     0.198 A 
ATOM     79  C   UNL A   1      42.477  24.227  26.478  1.00  0.00     0.198 A 
ATOM     80  F   UNL A   1      41.101  24.452  28.375  1.00  0.00    -0.203 F 
ATOM     81  F   UNL A   1      44.830  26.545  24.986  1.00  0.00    -0.200 F 
ATOM     82  C   UNL A   1      43.425  24.752  25.612  1.00  0.00     0.200 A 
ATOM     83  F   UNL A   1      41.994  22.995  26.273  1.00  0.00    -0.200 F 
ATOM     84  F   UNL A   1      43.844  24.037  24.560  1.00  0.00    -0.200 F 
ENDBRANCH  50  74
BRANCH  62  85
ATOM     85  C   UNL A   1      44.891  27.167  34.296  1.00  0.00     0.064 A 
ATOM     86  C   UNL A   1      44.779  25.957  34.994  1.00  0.00     0.173 A 
ATOM     87  C   UNL A   1      46.140  27.806  34.280  1.00  0.00     0.173 A 
ATOM     88  F   UNL A   1      43.600  25.319  35.053  1.00  0.00    -0.203 F 
ATOM     89  C   UNL A   1      45.871  25.415  35.665  1.00  0.00     0.198 A 
ATOM     90  C   UNL A   1      47.236  27.249  34.932  1.00  0.00     0.198 A 
ATOM     91  F   UNL A   1      46.298  28.964  33.624  1.00  0.00    -0.203 F 
ATOM     92  F   UNL A   1      45.732  24.276  36.359  1.00  0.00    -0.200 F 
ATOM     93  C   UNL A   1      47.100  26.057  35.628  1.00  0.00     0.200 A 
ATOM     94  F   UNL A   1      48.425  27.865  34.887  1.00  0.00    -0.200 F 
ATOM     95  F   UNL A   1      48.152  25.530  36.269  1.00  0.00    -0.200 F 
ENDBRANCH  62  85
ENDBRANCH  36  37
ENDBRANCH  28  31
ENDBRANCH  26  27
ENDBRANCH  25  26
ENDBRANCH   1  25
TORSDOF 14
ENDMDL
