MODEL 1
REMARK VINA RESULT:     -12.1      0.000      0.000
REMARK SMILES O=C(NCCCCNC(=O)[C@@H]1CC[C@]2(CC[NH2+]C2)C1)c1ccc(-c2c3nc(c(-c4c(F)c(F)c(F)c(F)c4F)c4ccc([nH]4)c(-c4c(F)c(F)c(F)c(F)c4F)c4nc(c(-c5c(F)c(F)c(F)c(F)c5F)c5ccc2[nH]5)C=C4)C=C3)cc1
REMARK SMILES IDX 4 1 3 2 1 3 2 4 20 6 21 7 82 8 22 9 81 10 23 11 24 12 25 13
REMARK SMILES IDX 75 14 26 15 80 16 74 17 76 18 27 19 79 20 73 21 72 22 28 24
REMARK SMILES IDX 60 25 40 26 59 27 41 28 44 29 58 30 77 31 42 32 43 33 57 35
REMARK SMILES IDX 78 36 45 37 29 38 30 39 38 40 31 41 32 42 36 43 39 44 33 45
REMARK SMILES IDX 34 46 37 47 35 48 61 49 62 50 70 51 63 52 64 53 68 54 71 55
REMARK SMILES IDX 65 56 66 57 69 58 67 59 46 60 47 61 55 62 48 63 49 64 53 65
REMARK SMILES IDX 56 66 50 67 51 68 54 69 52 70 5 71 6 72 7 73 8 74 9 75 10 77
REMARK SMILES IDX 11 78 12 79 19 80 13 81 14 82 15 83 18 84 16 85 17 86
REMARK H PARENT 3 5 76 23 44 34 8 76 17 87 17 88
REMARK Flexibility Score: inf
ROOT
ATOM      1  C   UNL A   1      32.714  33.062  27.255  1.00  0.00     0.116 C 
ENDROOT
BRANCH   1   2
ATOM      2  N   UNL A   1      32.402  34.405  27.722  1.00  0.00    -0.352 N 
ATOM      3  O   UNL A   1      32.628  36.199  29.090  1.00  0.00    -0.269 OA
ATOM      4  C   UNL A   1      33.026  35.098  28.732  1.00  0.00     0.251 C 
ATOM      5  H   UNL A   1      31.663  34.866  27.265  1.00  0.00     0.163 HD
BRANCH   4   6
ATOM      6  C   UNL A   1      34.171  34.457  29.402  1.00  0.00     0.039 A 
ATOM      7  C   UNL A   1      35.457  34.621  28.883  1.00  0.00     0.014 A 
ATOM      8  C   UNL A   1      33.941  33.629  30.502  1.00  0.00     0.014 A 
ATOM      9  C   UNL A   1      36.498  33.854  29.382  1.00  0.00     0.010 A 
ATOM     10  C   UNL A   1      35.007  32.923  31.061  1.00  0.00     0.010 A 
ATOM     11  C   UNL A   1      36.287  33.021  30.493  1.00  0.00    -0.014 A 
BRANCH  11  12
ATOM     12  C   UNL A   1      37.454  32.366  31.123  1.00  0.00     0.031 A 
ATOM     13  C   UNL A   1      38.205  31.267  30.436  1.00  0.00     0.074 A 
ATOM     14  C   UNL A   1      37.821  32.799  32.345  1.00  0.00     0.049 A 
ATOM     15  N   UNL A   1      39.225  30.575  30.875  1.00  0.00    -0.248 NA
ATOM     16  C   UNL A   1      37.755  30.885  29.088  1.00  0.00     0.031 C 
ATOM     17  C   UNL A   1      37.137  33.853  33.102  1.00  0.00     0.029 A 
ATOM     18  N   UNL A   1      38.852  32.422  33.161  1.00  0.00    -0.354 N 
ATOM     19  C   UNL A   1      39.523  29.660  29.874  1.00  0.00     0.074 A 
ATOM     20  C   UNL A   1      38.574  29.879  28.804  1.00  0.00     0.031 C 
ATOM     21  C   UNL A   1      37.785  34.060  34.254  1.00  0.00     0.029 A 
ATOM     22  C   UNL A   1      38.884  33.108  34.350  1.00  0.00     0.049 A 
ATOM     23  H   UNL A   1      39.508  31.727  32.921  1.00  0.00     0.167 HD
ATOM     24  C   UNL A   1      40.501  28.725  29.865  1.00  0.00     0.037 A 
ATOM     25  C   UNL A   1      39.686  32.961  35.419  1.00  0.00     0.037 A 
ATOM     26  C   UNL A   1      41.457  28.545  30.929  1.00  0.00     0.049 A 
ATOM     27  C   UNL A   1      40.750  31.908  35.378  1.00  0.00     0.074 A 
ATOM     28  C   UNL A   1      42.540  27.685  30.978  1.00  0.00     0.029 A 
ATOM     29  N   UNL A   1      41.439  29.235  32.132  1.00  0.00    -0.354 N 
ATOM     30  N   UNL A   1      41.049  31.078  34.407  1.00  0.00    -0.248 NA
ATOM     31  C   UNL A   1      41.576  31.756  36.581  1.00  0.00     0.031 C 
ATOM     32  C   UNL A   1      43.150  27.821  32.230  1.00  0.00     0.029 A 
ATOM     33  C   UNL A   1      42.470  28.793  32.946  1.00  0.00     0.049 A 
ATOM     34  H   UNL A   1      40.790  29.935  32.372  1.00  0.00     0.167 HD
ATOM     35  C   UNL A   1      42.093  30.301  34.883  1.00  0.00     0.074 A 
ATOM     36  C   UNL A   1      42.397  30.782  36.217  1.00  0.00     0.031 C 
ATOM     37  C   UNL A   1      42.734  29.272  34.277  1.00  0.00     0.037 A 
BRANCH  24  38
ATOM     38  C   UNL A   1      40.594  27.804  28.686  1.00  0.00     0.064 A 
ATOM     39  C   UNL A   1      39.857  26.613  28.619  1.00  0.00     0.173 A 
ATOM     40  C   UNL A   1      41.356  28.170  27.565  1.00  0.00     0.173 A 
ATOM     41  F   UNL A   1      39.120  26.217  29.666  1.00  0.00    -0.203 F 
ATOM     42  C   UNL A   1      39.880  25.822  27.472  1.00  0.00     0.198 A 
ATOM     43  C   UNL A   1      41.364  27.386  26.415  1.00  0.00     0.198 A 
ATOM     44  F   UNL A   1      42.076  29.302  27.578  1.00  0.00    -0.203 F 
ATOM     45  F   UNL A   1      39.179  24.681  27.433  1.00  0.00    -0.200 F 
ATOM     46  C   UNL A   1      40.625  26.213  26.368  1.00  0.00     0.200 A 
ATOM     47  F   UNL A   1      42.075  27.771  25.347  1.00  0.00    -0.200 F 
ATOM     48  F   UNL A   1      40.631  25.460  25.261  1.00  0.00    -0.200 F 
ENDBRANCH  24  38
BRANCH  25  49
ATOM     49  C   UNL A   1      39.470  33.805  36.619  1.00  0.00     0.064 A 
ATOM     50  C   UNL A   1      38.697  33.350  37.695  1.00  0.00     0.173 A 
ATOM     51  C   UNL A   1      40.059  35.074  36.726  1.00  0.00     0.173 A 
ATOM     52  F   UNL A   1      38.103  32.149  37.632  1.00  0.00    -0.203 F 
ATOM     53  C   UNL A   1      38.512  34.138  38.828  1.00  0.00     0.198 A 
ATOM     54  C   UNL A   1      39.898  35.848  37.872  1.00  0.00     0.198 A 
ATOM     55  F   UNL A   1      40.814  35.551  35.725  1.00  0.00    -0.203 F 
ATOM     56  F   UNL A   1      37.740  33.695  39.830  1.00  0.00    -0.200 F 
ATOM     57  C   UNL A   1      39.119  35.383  38.919  1.00  0.00     0.200 A 
ATOM     58  F   UNL A   1      40.501  37.041  37.962  1.00  0.00    -0.200 F 
ATOM     59  F   UNL A   1      38.950  36.134  40.015  1.00  0.00    -0.200 F 
ENDBRANCH  25  49
BRANCH  37  60
ATOM     60  C   UNL A   1      43.811  28.597  35.067  1.00  0.00     0.064 A 
ATOM     61  C   UNL A   1      45.135  29.057  35.025  1.00  0.00     0.173 A 
ATOM     62  C   UNL A   1      43.518  27.495  35.882  1.00  0.00     0.173 A 
ATOM     63  F   UNL A   1      45.464  30.095  34.242  1.00  0.00    -0.203 F 
ATOM     64  C   UNL A   1      46.134  28.421  35.755  1.00  0.00     0.198 A 
ATOM     65  C   UNL A   1      44.514  26.878  36.630  1.00  0.00     0.198 A 
ATOM     66  F   UNL A   1      42.264  27.022  35.954  1.00  0.00    -0.203 F 
ATOM     67  F   UNL A   1      47.401  28.848  35.665  1.00  0.00    -0.200 F 
ATOM     68  C   UNL A   1      45.822  27.337  36.562  1.00  0.00     0.200 A 
ATOM     69  F   UNL A   1      44.211  25.834  37.414  1.00  0.00    -0.200 F 
ATOM     70  F   UNL A   1      46.785  26.726  37.264  1.00  0.00    -0.200 F 
ENDBRANCH  37  60
ENDBRANCH  11  12
ENDBRANCH   4   6
ENDBRANCH   1   2
BRANCH   1  71
ATOM     71  C   UNL A   1      31.496  32.245  26.867  1.00  0.00     0.023 C 
BRANCH  71  72
ATOM     72  C   UNL A   1      31.784  30.775  26.583  1.00  0.00     0.023 C 
BRANCH  72  73
ATOM     73  C   UNL A   1      33.257  30.379  26.621  1.00  0.00     0.116 C 
BRANCH  73  74
ATOM     74  N   UNL A   1      33.650  29.718  25.396  1.00  0.00    -0.356 N 
ATOM     75  C   UNL A   1      33.878  28.434  25.046  1.00  0.00     0.223 C 
ATOM     76  H   UNL A   1      33.779  30.346  24.649  1.00  0.00     0.163 HD
ATOM     77  O   UNL A   1      34.331  28.283  23.901  1.00  0.00    -0.275 OA
BRANCH  75  78
ATOM     78  C   UNL A   1      33.616  27.184  25.892  1.00  0.00     0.079 C 
ATOM     79  C   UNL A   1      34.023  25.776  25.509  1.00  0.00     0.014 C 
ATOM     80  C   UNL A   1      32.113  27.015  26.173  1.00  0.00     0.026 C 
ATOM     81  C   UNL A   1      32.876  25.239  24.662  1.00  0.00     0.014 C 
ATOM     82  C   UNL A   1      31.607  25.957  25.159  1.00  0.00     0.026 C 
ATOM     83  C   UNL A   1      30.779  26.605  24.027  1.00  0.00     0.074 C 
ATOM     84  C   UNL A   1      30.604  24.982  25.794  1.00  0.00     0.267 C 
ATOM     85  C   UNL A   1      29.363  26.070  24.191  1.00  0.00     0.261 C 
ATOM     86  N   UNL A   1      29.294  25.602  25.573  1.00  0.00    -0.346 N 
ATOM     87  H   UNL A   1      28.545  24.919  25.690  1.00  0.00     0.346 HD
ATOM     88  H   UNL A   1      29.094  26.351  26.236  1.00  0.00     0.346 HD
ENDBRANCH  75  78
ENDBRANCH  73  74
ENDBRANCH  72  73
ENDBRANCH  71  72
ENDBRANCH   1  71
TORSDOF 11
ENDMDL
MODEL 2
REMARK VINA RESULT:     -12.1      0.563      1.824
REMARK SMILES O=C(NCCCCNC(=O)[C@@H]1CC[C@]2(CC[NH2+]C2)C1)c1ccc(-c2c3nc(c(-c4c(F)c(F)c(F)c(F)c4F)c4ccc([nH]4)c(-c4c(F)c(F)c(F)c(F)c4F)c4nc(c(-c5c(F)c(F)c(F)c(F)c5F)c5ccc2[nH]5)C=C4)C=C3)cc1
REMARK SMILES IDX 4 1 3 2 1 3 2 4 20 6 21 7 82 8 22 9 81 10 23 11 24 12 25 13
REMARK SMILES IDX 75 14 26 15 80 16 74 17 76 18 27 19 79 20 73 21 72 22 28 24
REMARK SMILES IDX 60 25 40 26 59 27 41 28 44 29 58 30 77 31 42 32 43 33 57 35
REMARK SMILES IDX 78 36 45 37 29 38 30 39 38 40 31 41 32 42 36 43 39 44 33 45
REMARK SMILES IDX 34 46 37 47 35 48 61 49 62 50 70 51 63 52 64 53 68 54 71 55
REMARK SMILES IDX 65 56 66 57 69 58 67 59 46 60 47 61 55 62 48 63 49 64 53 65
REMARK SMILES IDX 56 66 50 67 51 68 54 69 52 70 5 71 6 72 7 73 8 74 9 75 10 77
REMARK SMILES IDX 11 78 12 79 19 80 13 81 14 82 15 83 18 84 16 85 17 86
REMARK H PARENT 3 5 76 23 44 34 8 76 17 87 17 88
REMARK Flexibility Score: inf
ROOT
ATOM      1  C   UNL A   1      32.692  32.991  26.996  1.00  0.00     0.116 C 
ENDROOT
BRANCH   1   2
ATOM      2  N   UNL A   1      32.417  34.275  27.625  1.00  0.00    -0.352 N 
ATOM      3  O   UNL A   1      32.715  35.895  29.184  1.00  0.00    -0.269 OA
ATOM      4  C   UNL A   1      33.083  34.838  28.688  1.00  0.00     0.251 C 
ATOM      5  H   UNL A   1      31.672  34.797  27.248  1.00  0.00     0.163 HD
BRANCH   4   6
ATOM      6  C   UNL A   1      34.236  34.107  29.243  1.00  0.00     0.039 A 
ATOM      7  C   UNL A   1      34.027  33.090  30.177  1.00  0.00     0.014 A 
ATOM      8  C   UNL A   1      35.527  34.498  28.884  1.00  0.00     0.014 A 
ATOM      9  C   UNL A   1      35.110  32.550  30.852  1.00  0.00     0.010 A 
ATOM     10  C   UNL A   1      36.622  33.891  29.501  1.00  0.00     0.010 A 
ATOM     11  C   UNL A   1      36.417  32.926  30.499  1.00  0.00    -0.014 A 
BRANCH  11  12
ATOM     12  C   UNL A   1      37.554  32.193  31.098  1.00  0.00     0.031 A 
ATOM     13  C   UNL A   1      38.309  31.151  30.330  1.00  0.00     0.074 A 
ATOM     14  C   UNL A   1      37.890  32.500  32.366  1.00  0.00     0.049 A 
ATOM     15  N   UNL A   1      39.304  30.402  30.730  1.00  0.00    -0.248 NA
ATOM     16  C   UNL A   1      37.895  30.908  28.940  1.00  0.00     0.031 C 
ATOM     17  C   UNL A   1      37.199  33.489  33.200  1.00  0.00     0.029 A 
ATOM     18  N   UNL A   1      38.890  32.028  33.172  1.00  0.00    -0.354 N 
ATOM     19  C   UNL A   1      39.619  29.581  29.656  1.00  0.00     0.074 A 
ATOM     20  C   UNL A   1      38.707  29.919  28.584  1.00  0.00     0.031 C 
ATOM     21  C   UNL A   1      37.814  33.574  34.385  1.00  0.00     0.029 A 
ATOM     22  C   UNL A   1      38.895  32.598  34.421  1.00  0.00     0.049 A 
ATOM     23  H   UNL A   1      39.541  31.348  32.885  1.00  0.00     0.167 HD
ATOM     24  C   UNL A   1      40.583  28.634  29.586  1.00  0.00     0.037 A 
ATOM     25  C   UNL A   1      39.661  32.335  35.494  1.00  0.00     0.037 A 
ATOM     26  C   UNL A   1      41.503  28.336  30.655  1.00  0.00     0.049 A 
ATOM     27  C   UNL A   1      40.710  31.271  35.383  1.00  0.00     0.074 A 
ATOM     28  C   UNL A   1      42.571  27.456  30.653  1.00  0.00     0.029 A 
ATOM     29  N   UNL A   1      41.458  28.908  31.917  1.00  0.00    -0.354 N 
ATOM     30  N   UNL A   1      41.026  30.533  34.347  1.00  0.00    -0.248 NA
ATOM     31  C   UNL A   1      41.496  30.991  36.590  1.00  0.00     0.031 C 
ATOM     32  C   UNL A   1      43.144  27.461  31.929  1.00  0.00     0.029 A 
ATOM     33  C   UNL A   1      42.456  28.372  32.716  1.00  0.00     0.049 A 
ATOM     34  H   UNL A   1      40.813  29.594  32.204  1.00  0.00     0.167 HD
ATOM     35  C   UNL A   1      42.042  29.695  34.776  1.00  0.00     0.074 A 
ATOM     36  C   UNL A   1      42.313  30.041  36.159  1.00  0.00     0.031 C 
ATOM     37  C   UNL A   1      42.686  28.717  34.093  1.00  0.00     0.037 A 
BRANCH  24  38
ATOM     38  C   UNL A   1      40.698  27.828  28.327  1.00  0.00     0.064 A 
ATOM     39  C   UNL A   1      41.491  28.249  27.251  1.00  0.00     0.173 A 
ATOM     40  C   UNL A   1      40.086  26.568  28.240  1.00  0.00     0.173 A 
ATOM     41  F   UNL A   1      42.091  29.448  27.284  1.00  0.00    -0.203 F 
ATOM     42  C   UNL A   1      41.665  27.439  26.130  1.00  0.00     0.198 A 
ATOM     43  C   UNL A   1      40.275  25.752  27.127  1.00  0.00     0.198 A 
ATOM     44  F   UNL A   1      39.321  26.117  29.245  1.00  0.00    -0.203 F 
ATOM     45  F   UNL A   1      42.416  27.866  25.106  1.00  0.00    -0.200 F 
ATOM     46  C   UNL A   1      41.066  26.188  26.073  1.00  0.00     0.200 A 
ATOM     47  F   UNL A   1      39.705  24.541  27.078  1.00  0.00    -0.200 F 
ATOM     48  F   UNL A   1      41.250  25.403  25.004  1.00  0.00    -0.200 F 
ENDBRANCH  24  38
BRANCH  25  49
ATOM     49  C   UNL A   1      39.421  33.064  36.763  1.00  0.00     0.064 A 
ATOM     50  C   UNL A   1      40.112  34.245  37.061  1.00  0.00     0.173 A 
ATOM     51  C   UNL A   1      38.472  32.608  37.691  1.00  0.00     0.173 A 
ATOM     52  F   UNL A   1      41.040  34.710  36.211  1.00  0.00    -0.203 F 
ATOM     53  C   UNL A   1      39.871  34.937  38.245  1.00  0.00     0.198 A 
ATOM     54  C   UNL A   1      38.210  33.317  38.860  1.00  0.00     0.198 A 
ATOM     55  F   UNL A   1      37.779  31.486  37.447  1.00  0.00    -0.203 F 
ATOM     56  F   UNL A   1      40.570  36.046  38.524  1.00  0.00    -0.200 F 
ATOM     57  C   UNL A   1      38.915  34.477  39.140  1.00  0.00     0.200 A 
ATOM     58  F   UNL A   1      37.273  32.879  39.711  1.00  0.00    -0.200 F 
ATOM     59  F   UNL A   1      38.675  35.151  40.273  1.00  0.00    -0.200 F 
ENDBRANCH  25  49
BRANCH  37  60
ATOM     60  C   UNL A   1      43.728  27.951  34.846  1.00  0.00     0.064 A 
ATOM     61  C   UNL A   1      45.054  28.403  34.910  1.00  0.00     0.173 A 
ATOM     62  C   UNL A   1      43.399  26.767  35.520  1.00  0.00     0.173 A 
ATOM     63  F   UNL A   1      45.418  29.520  34.262  1.00  0.00    -0.203 F 
ATOM     64  C   UNL A   1      46.020  27.683  35.604  1.00  0.00     0.198 A 
ATOM     65  C   UNL A   1      44.362  26.063  36.234  1.00  0.00     0.198 A 
ATOM     66  F   UNL A   1      42.142  26.297  35.487  1.00  0.00    -0.203 F 
ATOM     67  F   UNL A   1      47.291  28.108  35.615  1.00  0.00    -0.200 F 
ATOM     68  C   UNL A   1      45.672  26.517  36.271  1.00  0.00     0.200 A 
ATOM     69  F   UNL A   1      44.025  24.940  36.884  1.00  0.00    -0.200 F 
ATOM     70  F   UNL A   1      46.605  25.824  36.940  1.00  0.00    -0.200 F 
ENDBRANCH  37  60
ENDBRANCH  11  12
ENDBRANCH   4   6
ENDBRANCH   1   2
BRANCH   1  71
ATOM     71  C   UNL A   1      31.475  32.093  26.871  1.00  0.00     0.023 C 
BRANCH  71  72
ATOM     72  C   UNL A   1      31.788  30.601  26.866  1.00  0.00     0.023 C 
BRANCH  72  73
ATOM     73  C   UNL A   1      33.271  30.246  26.804  1.00  0.00     0.116 C 
BRANCH  73  74
ATOM     74  N   UNL A   1      33.613  29.665  25.524  1.00  0.00    -0.356 N 
ATOM     75  C   UNL A   1      33.798  28.406  25.076  1.00  0.00     0.223 C 
ATOM     76  H   UNL A   1      33.738  30.343  24.820  1.00  0.00     0.163 HD
ATOM     77  O   UNL A   1      34.216  28.327  23.911  1.00  0.00    -0.275 OA
BRANCH  75  78
ATOM     78  C   UNL A   1      33.528  27.104  25.837  1.00  0.00     0.079 C 
ATOM     79  C   UNL A   1      33.924  25.721  25.361  1.00  0.00     0.014 C 
ATOM     80  C   UNL A   1      32.023  26.928  26.107  1.00  0.00     0.026 C 
ATOM     81  C   UNL A   1      32.772  25.251  24.482  1.00  0.00     0.014 C 
ATOM     82  C   UNL A   1      31.509  25.943  25.026  1.00  0.00     0.026 C 
ATOM     83  C   UNL A   1      30.686  26.672  23.941  1.00  0.00     0.074 C 
ATOM     84  C   UNL A   1      30.499  24.936  25.596  1.00  0.00     0.267 C 
ATOM     85  C   UNL A   1      29.266  26.137  24.069  1.00  0.00     0.261 C 
ATOM     86  N   UNL A   1      29.194  25.579  25.418  1.00  0.00    -0.346 N 
ATOM     87  H   UNL A   1      28.439  24.896  25.490  1.00  0.00     0.346 HD
ATOM     88  H   UNL A   1      28.999  26.283  26.129  1.00  0.00     0.346 HD
ENDBRANCH  75  78
ENDBRANCH  73  74
ENDBRANCH  72  73
ENDBRANCH  71  72
ENDBRANCH   1  71
TORSDOF 11
ENDMDL
MODEL 3
REMARK VINA RESULT:     -12.1      0.088      1.176
REMARK SMILES O=C(NCCCCNC(=O)[C@@H]1CC[C@]2(CC[NH2+]C2)C1)c1ccc(-c2c3nc(c(-c4c(F)c(F)c(F)c(F)c4F)c4ccc([nH]4)c(-c4c(F)c(F)c(F)c(F)c4F)c4nc(c(-c5c(F)c(F)c(F)c(F)c5F)c5ccc2[nH]5)C=C4)C=C3)cc1
REMARK SMILES IDX 4 1 3 2 1 3 2 4 20 6 21 7 82 8 22 9 81 10 23 11 24 12 25 13
REMARK SMILES IDX 75 14 26 15 80 16 74 17 76 18 27 19 79 20 73 21 72 22 28 24
REMARK SMILES IDX 60 25 40 26 59 27 41 28 44 29 58 30 77 31 42 32 43 33 57 35
REMARK SMILES IDX 78 36 45 37 29 38 30 39 38 40 31 41 32 42 36 43 39 44 33 45
REMARK SMILES IDX 34 46 37 47 35 48 61 49 62 50 70 51 63 52 64 53 68 54 71 55
REMARK SMILES IDX 65 56 66 57 69 58 67 59 46 60 47 61 55 62 48 63 49 64 53 65
REMARK SMILES IDX 56 66 50 67 51 68 54 69 52 70 5 71 6 72 7 73 8 74 9 75 10 77
REMARK SMILES IDX 11 78 12 79 19 80 13 81 14 82 15 83 18 84 16 85 17 86
REMARK H PARENT 3 5 76 23 44 34 8 76 17 87 17 88
REMARK Flexibility Score: inf
ROOT
ATOM      1  C   UNL A   1      32.743  33.093  27.327  1.00  0.00     0.116 C 
ENDROOT
BRANCH   1   2
ATOM      2  N   UNL A   1      32.477  34.457  27.761  1.00  0.00    -0.352 N 
ATOM      3  O   UNL A   1      32.778  36.281  29.075  1.00  0.00    -0.269 OA
ATOM      4  C   UNL A   1      33.138  35.159  28.741  1.00  0.00     0.251 C 
ATOM      5  H   UNL A   1      31.743  34.927  27.304  1.00  0.00     0.163 HD
BRANCH   4   6
ATOM      6  C   UNL A   1      34.276  34.504  29.410  1.00  0.00     0.039 A 
ATOM      7  C   UNL A   1      35.565  34.662  28.896  1.00  0.00     0.014 A 
ATOM      8  C   UNL A   1      34.036  33.668  30.502  1.00  0.00     0.014 A 
ATOM      9  C   UNL A   1      36.598  33.882  29.392  1.00  0.00     0.010 A 
ATOM     10  C   UNL A   1      35.095  32.950  31.059  1.00  0.00     0.010 A 
ATOM     11  C   UNL A   1      36.377  33.042  30.496  1.00  0.00    -0.014 A 
BRANCH  11  12
ATOM     12  C   UNL A   1      37.536  32.373  31.124  1.00  0.00     0.031 A 
ATOM     13  C   UNL A   1      38.274  31.266  30.435  1.00  0.00     0.074 A 
ATOM     14  C   UNL A   1      37.910  32.799  32.347  1.00  0.00     0.049 A 
ATOM     15  N   UNL A   1      39.286  30.561  30.872  1.00  0.00    -0.248 NA
ATOM     16  C   UNL A   1      37.819  30.891  29.087  1.00  0.00     0.031 C 
ATOM     17  C   UNL A   1      37.238  33.860  33.105  1.00  0.00     0.029 A 
ATOM     18  N   UNL A   1      38.937  32.409  33.161  1.00  0.00    -0.354 N 
ATOM     19  C   UNL A   1      39.573  29.645  29.870  1.00  0.00     0.074 A 
ATOM     20  C   UNL A   1      38.626  29.876  28.800  1.00  0.00     0.031 C 
ATOM     21  C   UNL A   1      37.890  34.058  34.257  1.00  0.00     0.029 A 
ATOM     22  C   UNL A   1      38.977  33.093  34.351  1.00  0.00     0.049 A 
ATOM     23  H   UNL A   1      39.584  31.707  32.919  1.00  0.00     0.167 HD
ATOM     24  C   UNL A   1      40.541  28.698  29.859  1.00  0.00     0.037 A 
ATOM     25  C   UNL A   1      39.778  32.935  35.420  1.00  0.00     0.037 A 
ATOM     26  C   UNL A   1      41.495  28.506  30.922  1.00  0.00     0.049 A 
ATOM     27  C   UNL A   1      40.830  31.870  35.376  1.00  0.00     0.074 A 
ATOM     28  C   UNL A   1      42.568  27.634  30.969  1.00  0.00     0.029 A 
ATOM     29  N   UNL A   1      41.485  29.194  32.126  1.00  0.00    -0.354 N 
ATOM     30  N   UNL A   1      41.119  31.039  34.404  1.00  0.00    -0.248 NA
ATOM     31  C   UNL A   1      41.655  31.707  36.579  1.00  0.00     0.031 C 
ATOM     32  C   UNL A   1      43.180  27.760  32.221  1.00  0.00     0.029 A 
ATOM     33  C   UNL A   1      42.512  28.739  32.939  1.00  0.00     0.049 A 
ATOM     34  H   UNL A   1      40.845  29.901  32.367  1.00  0.00     0.167 HD
ATOM     35  C   UNL A   1      42.153  30.248  34.878  1.00  0.00     0.074 A 
ATOM     36  C   UNL A   1      42.464  30.724  36.213  1.00  0.00     0.031 C 
ATOM     37  C   UNL A   1      42.782  29.213  34.270  1.00  0.00     0.037 A 
BRANCH  24  38
ATOM     38  C   UNL A   1      40.622  27.778  28.679  1.00  0.00     0.064 A 
ATOM     39  C   UNL A   1      39.872  26.596  28.610  1.00  0.00     0.173 A 
ATOM     40  C   UNL A   1      41.388  28.137  27.558  1.00  0.00     0.173 A 
ATOM     41  F   UNL A   1      39.130  26.206  29.657  1.00  0.00    -0.203 F 
ATOM     42  C   UNL A   1      39.885  25.806  27.462  1.00  0.00     0.198 A 
ATOM     43  C   UNL A   1      41.386  27.354  26.406  1.00  0.00     0.198 A 
ATOM     44  F   UNL A   1      42.121  29.260  27.572  1.00  0.00    -0.203 F 
ATOM     45  F   UNL A   1      39.171  24.673  27.422  1.00  0.00    -0.200 F 
ATOM     46  C   UNL A   1      40.633  26.190  26.358  1.00  0.00     0.200 A 
ATOM     47  F   UNL A   1      42.101  27.733  25.338  1.00  0.00    -0.200 F 
ATOM     48  F   UNL A   1      40.630  25.439  25.250  1.00  0.00    -0.200 F 
ENDBRANCH  24  38
BRANCH  25  49
ATOM     49  C   UNL A   1      39.573  33.780  36.621  1.00  0.00     0.064 A 
ATOM     50  C   UNL A   1      40.144  35.055  36.716  1.00  0.00     0.173 A 
ATOM     51  C   UNL A   1      38.774  33.338  37.688  1.00  0.00     0.173 A 
ATOM     52  F   UNL A   1      40.926  35.513  35.727  1.00  0.00    -0.203 F 
ATOM     53  C   UNL A   1      39.934  35.853  37.838  1.00  0.00     0.198 A 
ATOM     54  C   UNL A   1      38.541  34.149  38.795  1.00  0.00     0.198 A 
ATOM     55  F   UNL A   1      38.199  32.127  37.640  1.00  0.00    -0.203 F 
ATOM     56  F   UNL A   1      40.519  37.055  37.921  1.00  0.00    -0.200 F 
ATOM     57  C   UNL A   1      39.126  35.402  38.873  1.00  0.00     0.200 A 
ATOM     58  F   UNL A   1      37.745  33.716  39.783  1.00  0.00    -0.200 F 
ATOM     59  F   UNL A   1      38.915  36.176  39.946  1.00  0.00    -0.200 F 
ENDBRANCH  25  49
BRANCH  37  60
ATOM     60  C   UNL A   1      43.852  28.525  35.059  1.00  0.00     0.064 A 
ATOM     61  C   UNL A   1      45.182  28.968  35.014  1.00  0.00     0.173 A 
ATOM     62  C   UNL A   1      43.546  27.427  35.874  1.00  0.00     0.173 A 
ATOM     63  F   UNL A   1      45.523  30.001  34.230  1.00  0.00    -0.203 F 
ATOM     64  C   UNL A   1      46.174  28.319  35.743  1.00  0.00     0.198 A 
ATOM     65  C   UNL A   1      44.536  26.797  36.621  1.00  0.00     0.198 A 
ATOM     66  F   UNL A   1      42.286  26.970  35.949  1.00  0.00    -0.203 F 
ATOM     67  F   UNL A   1      47.446  28.730  35.651  1.00  0.00    -0.200 F 
ATOM     68  C   UNL A   1      45.849  27.239  36.550  1.00  0.00     0.200 A 
ATOM     69  F   UNL A   1      44.221  25.757  37.406  1.00  0.00    -0.200 F 
ATOM     70  F   UNL A   1      46.806  26.616  37.251  1.00  0.00    -0.200 F 
ENDBRANCH  37  60
ENDBRANCH  11  12
ENDBRANCH   4   6
ENDBRANCH   1   2
BRANCH   1  71
ATOM     71  C   UNL A   1      31.504  32.331  26.895  1.00  0.00     0.023 C 
BRANCH  71  72
ATOM     72  C   UNL A   1      31.755  30.877  26.514  1.00  0.00     0.023 C 
BRANCH  72  73
ATOM     73  C   UNL A   1      33.205  30.415  26.627  1.00  0.00     0.116 C 
BRANCH  73  74
ATOM     74  N   UNL A   1      33.629  29.731  25.424  1.00  0.00    -0.356 N 
ATOM     75  C   UNL A   1      33.844  28.440  25.096  1.00  0.00     0.223 C 
ATOM     76  H   UNL A   1      33.796  30.349  24.675  1.00  0.00     0.163 HD
ATOM     77  O   UNL A   1      34.334  28.267  23.970  1.00  0.00    -0.275 OA
BRANCH  75  78
ATOM     78  C   UNL A   1      33.529  27.205  25.945  1.00  0.00     0.079 C 
ATOM     79  C   UNL A   1      33.951  25.789  25.609  1.00  0.00     0.014 C 
ATOM     80  C   UNL A   1      32.011  27.046  26.142  1.00  0.00     0.026 C 
ATOM     81  C   UNL A   1      32.852  25.243  24.707  1.00  0.00     0.014 C 
ATOM     82  C   UNL A   1      31.559  25.973  25.118  1.00  0.00     0.026 C 
ATOM     83  C   UNL A   1      30.802  26.605  23.930  1.00  0.00     0.074 C 
ATOM     84  C   UNL A   1      30.517  25.012  25.709  1.00  0.00     0.267 C 
ATOM     85  C   UNL A   1      29.376  26.077  24.020  1.00  0.00     0.261 C 
ATOM     86  N   UNL A   1      29.225  25.632  25.403  1.00  0.00    -0.346 N 
ATOM     87  H   UNL A   1      28.467  24.954  25.488  1.00  0.00     0.346 HD
ATOM     88  H   UNL A   1      28.990  26.393  26.042  1.00  0.00     0.346 HD
ENDBRANCH  75  78
ENDBRANCH  73  74
ENDBRANCH  72  73
ENDBRANCH  71  72
ENDBRANCH   1  71
TORSDOF 11
ENDMDL
