MODEL 1
REMARK VINA RESULT:     -11.9      0.000      0.000
REMARK SMILES CN(CC(C)(C)O)C(=O)N[C@H]1CC[C@H](C(=O)NCCCCNC(=O)c2ccc(-c3c4nc(c(-c5c(F)c(F)c(F)c(F)c5F)c5ccc([nH]5)c(-c5c(F)c(F)c(F)c(F)c5F)c5nc(c(-c6c(F)c(F)c(F)c(F)c6F)c6ccc3[nH]6)C=C5)C=C4)cc2)C1
REMARK SMILES IDX 18 1 17 2 15 3 16 4 14 6 11 7 12 8 88 9 13 10 10 11 8 12
REMARK SMILES IDX 9 13 2 15 1 16 3 17 4 18 5 19 6 20 7 21 19 23 20 24 21 25
REMARK SMILES IDX 22 26 23 27 24 29 25 30 26 31 87 32 27 33 86 34 28 35 29 36
REMARK SMILES IDX 30 37 80 38 31 39 85 40 79 41 81 42 32 43 84 44 78 45 77 46
REMARK SMILES IDX 33 48 65 49 45 50 64 51 46 52 49 53 63 54 82 55 47 56 48 57
REMARK SMILES IDX 62 59 83 60 50 61 34 62 35 63 43 64 36 65 37 66 41 67 44 68
REMARK SMILES IDX 38 69 39 70 42 71 40 72 66 73 67 74 75 75 68 76 69 77 73 78
REMARK SMILES IDX 76 79 70 80 71 81 74 82 72 83 51 84 52 85 60 86 53 87 54 88
REMARK SMILES IDX 58 89 61 90 55 91 56 92 59 93 57 94
REMARK H PARENT 17 5 10 14 7 22 22 28 81 47 49 58
REMARK Flexibility Score: inf
ROOT
ATOM      1  C   UNL A   1      33.233  29.877  26.211  1.00  0.00     0.116 C 
ENDROOT
BRANCH   1   2
ATOM      2  N   UNL A   1      33.530  29.127  25.003  1.00  0.00    -0.356 N 
ATOM      3  C   UNL A   1      33.691  27.793  24.781  1.00  0.00     0.223 C 
ATOM      4  O   UNL A   1      34.030  27.445  23.648  1.00  0.00    -0.275 OA
ATOM      5  H   UNL A   1      33.635  29.684  24.198  1.00  0.00     0.163 HD
BRANCH   3   6
ATOM      6  C   UNL A   1      33.360  26.754  25.841  1.00  0.00     0.080 C 
ATOM      7  C   UNL A   1      33.038  24.313  25.699  1.00  0.00     0.084 C 
ATOM      8  C   UNL A   1      31.695  24.962  26.063  1.00  0.00     0.026 C 
ATOM      9  C   UNL A   1      34.027  25.445  25.478  1.00  0.00     0.038 C 
ATOM     10  C   UNL A   1      31.886  26.476  26.078  1.00  0.00     0.015 C 
BRANCH   7  11
ATOM     11  N   UNL A   1      33.461  23.359  26.708  1.00  0.00    -0.335 N 
ATOM     12  C   UNL A   1      34.187  22.227  26.720  1.00  0.00     0.317 C 
ATOM     13  O   UNL A   1      34.470  21.809  27.848  1.00  0.00    -0.249 OA
ATOM     14  H   UNL A   1      33.137  23.601  27.605  1.00  0.00     0.165 HD
BRANCH  12  15
ATOM     15  N   UNL A   1      34.639  21.607  25.589  1.00  0.00    -0.325 N 
ATOM     16  C   UNL A   1      35.805  22.227  24.969  1.00  0.00     0.148 C 
BRANCH  15  17
ATOM     17  C   UNL A   1      34.154  20.388  24.925  1.00  0.00     0.155 C 
BRANCH  17  18
ATOM     18  C   UNL A   1      32.728  20.347  24.311  1.00  0.00     0.077 C 
ATOM     19  C   UNL A   1      32.355  21.490  23.368  1.00  0.00     0.043 C 
ATOM     20  C   UNL A   1      32.606  19.012  23.549  1.00  0.00     0.043 C 
BRANCH  18  21
ATOM     21  O   UNL A   1      31.777  20.318  25.381  1.00  0.00    -0.389 OA
ATOM     22  H   UNL A   1      31.668  19.405  25.692  1.00  0.00     0.211 HD
ENDBRANCH  18  21
ENDBRANCH  17  18
ENDBRANCH  15  17
ENDBRANCH  12  15
ENDBRANCH   7  11
ENDBRANCH   3   6
ENDBRANCH   1   2
BRANCH   1  23
ATOM     23  C   UNL A   1      31.920  30.642  26.071  1.00  0.00     0.023 C 
BRANCH  23  24
ATOM     24  C   UNL A   1      31.707  31.716  27.140  1.00  0.00     0.023 C 
BRANCH  24  25
ATOM     25  C   UNL A   1      32.911  32.619  27.387  1.00  0.00     0.116 C 
BRANCH  25  26
ATOM     26  N   UNL A   1      32.530  34.003  27.632  1.00  0.00    -0.352 N 
ATOM     27  C   UNL A   1      33.035  34.896  28.546  1.00  0.00     0.251 C 
ATOM     28  H   UNL A   1      31.807  34.348  27.061  1.00  0.00     0.163 HD
ATOM     29  O   UNL A   1      32.481  35.975  28.733  1.00  0.00    -0.269 OA
BRANCH  27  30
ATOM     30  C   UNL A   1      34.231  34.533  29.333  1.00  0.00     0.039 A 
ATOM     31  C   UNL A   1      34.064  34.047  30.632  1.00  0.00     0.014 A 
ATOM     32  C   UNL A   1      35.506  34.622  28.768  1.00  0.00     0.014 A 
ATOM     33  C   UNL A   1      35.168  33.551  31.327  1.00  0.00     0.010 A 
ATOM     34  C   UNL A   1      36.592  34.065  29.433  1.00  0.00     0.010 A 
ATOM     35  C   UNL A   1      36.429  33.502  30.709  1.00  0.00    -0.014 A 
BRANCH  35  36
ATOM     36  C   UNL A   1      37.574  32.805  31.347  1.00  0.00     0.031 A 
ATOM     37  C   UNL A   1      38.230  31.638  30.668  1.00  0.00     0.074 A 
ATOM     38  C   UNL A   1      37.955  33.166  32.587  1.00  0.00     0.049 A 
ATOM     39  N   UNL A   1      39.164  30.838  31.117  1.00  0.00    -0.248 NA
ATOM     40  C   UNL A   1      37.758  31.312  29.314  1.00  0.00     0.031 C 
ATOM     41  C   UNL A   1      37.362  34.253  33.370  1.00  0.00     0.029 A 
ATOM     42  N   UNL A   1      38.916  32.647  33.419  1.00  0.00    -0.354 N 
ATOM     43  C   UNL A   1      39.382  29.910  30.109  1.00  0.00     0.074 A 
ATOM     44  C   UNL A   1      38.453  30.217  29.043  1.00  0.00     0.031 C 
ATOM     45  C   UNL A   1      37.980  34.327  34.560  1.00  0.00     0.029 A 
ATOM     46  C   UNL A   1      38.979  33.267  34.643  1.00  0.00     0.049 A 
ATOM     47  H   UNL A   1      39.505  31.901  33.161  1.00  0.00     0.167 HD
ATOM     48  C   UNL A   1      40.289  28.905  30.071  1.00  0.00     0.037 A 
ATOM     49  C   UNL A   1      39.741  32.998  35.721  1.00  0.00     0.037 A 
ATOM     50  C   UNL A   1      41.224  28.615  31.128  1.00  0.00     0.049 A 
ATOM     51  C   UNL A   1      40.717  31.856  35.663  1.00  0.00     0.074 A 
ATOM     52  C   UNL A   1      42.233  27.668  31.150  1.00  0.00     0.029 A 
ATOM     53  N   UNL A   1      41.257  29.263  32.354  1.00  0.00    -0.354 N 
ATOM     54  N   UNL A   1      40.968  31.033  34.675  1.00  0.00    -0.248 NA
ATOM     55  C   UNL A   1      41.512  31.603  36.872  1.00  0.00     0.031 C 
ATOM     56  C   UNL A   1      42.842  27.708  32.410  1.00  0.00     0.029 A 
ATOM     57  C   UNL A   1      42.245  28.712  33.155  1.00  0.00     0.049 A 
ATOM     58  H   UNL A   1      40.665  30.005  32.617  1.00  0.00     0.167 HD
ATOM     59  C   UNL A   1      41.957  30.175  35.135  1.00  0.00     0.074 A 
ATOM     60  C   UNL A   1      42.278  30.593  36.485  1.00  0.00     0.031 C 
ATOM     61  C   UNL A   1      42.544  29.132  34.499  1.00  0.00     0.037 A 
BRANCH  48  62
ATOM     62  C   UNL A   1      40.320  28.042  28.844  1.00  0.00     0.064 A 
ATOM     63  C   UNL A   1      41.067  28.400  27.712  1.00  0.00     0.173 A 
ATOM     64  C   UNL A   1      39.631  26.819  28.816  1.00  0.00     0.173 A 
ATOM     65  F   UNL A   1      41.735  29.563  27.684  1.00  0.00    -0.203 F 
ATOM     66  C   UNL A   1      41.104  27.579  26.588  1.00  0.00     0.198 A 
ATOM     67  C   UNL A   1      39.693  25.988  27.701  1.00  0.00     0.198 A 
ATOM     68  F   UNL A   1      38.906  26.428  29.874  1.00  0.00    -0.203 F 
ATOM     69  F   UNL A   1      41.789  27.963  25.502  1.00  0.00    -0.200 F 
ATOM     70  C   UNL A   1      40.424  26.371  26.586  1.00  0.00     0.200 A 
ATOM     71  F   UNL A   1      39.045  24.814  27.706  1.00  0.00    -0.200 F 
ATOM     72  F   UNL A   1      40.467  25.577  25.507  1.00  0.00    -0.200 F 
ENDBRANCH  48  62
BRANCH  49  73
ATOM     73  C   UNL A   1      39.610  33.827  36.947  1.00  0.00     0.064 A 
ATOM     74  C   UNL A   1      38.771  33.428  37.997  1.00  0.00     0.173 A 
ATOM     75  C   UNL A   1      40.313  35.031  37.095  1.00  0.00     0.173 A 
ATOM     76  F   UNL A   1      38.061  32.295  37.893  1.00  0.00    -0.203 F 
ATOM     77  C   UNL A   1      38.629  34.210  39.141  1.00  0.00     0.198 A 
ATOM     78  C   UNL A   1      40.192  35.798  38.251  1.00  0.00     0.198 A 
ATOM     79  F   UNL A   1      41.132  35.455  36.121  1.00  0.00    -0.203 F 
ATOM     80  F   UNL A   1      37.788  33.827  40.111  1.00  0.00    -0.200 F 
ATOM     81  C   UNL A   1      39.344  35.391  39.270  1.00  0.00     0.200 A 
ATOM     82  F   UNL A   1      40.895  36.931  38.378  1.00  0.00    -0.200 F 
ATOM     83  F   UNL A   1      39.211  36.141  40.373  1.00  0.00    -0.200 F 
ENDBRANCH  49  73
BRANCH  61  84
ATOM     84  C   UNL A   1      43.597  28.374  35.253  1.00  0.00     0.064 A 
ATOM     85  C   UNL A   1      44.950  28.736  35.183  1.00  0.00     0.173 A 
ATOM     86  C   UNL A   1      43.245  27.299  36.084  1.00  0.00     0.173 A 
ATOM     87  F   UNL A   1      45.338  29.745  34.388  1.00  0.00    -0.203 F 
ATOM     88  C   UNL A   1      45.916  28.036  35.901  1.00  0.00     0.198 A 
ATOM     89  C   UNL A   1      44.210  26.620  36.823  1.00  0.00     0.198 A 
ATOM     90  F   UNL A   1      41.964  26.916  36.189  1.00  0.00    -0.203 F 
ATOM     91  F   UNL A   1      47.209  28.371  35.784  1.00  0.00    -0.200 F 
ATOM     92  C   UNL A   1      45.545  26.985  36.726  1.00  0.00     0.200 A 
ATOM     93  F   UNL A   1      43.849  25.613  37.630  1.00  0.00    -0.200 F 
ATOM     94  F   UNL A   1      46.475  26.318  37.423  1.00  0.00    -0.200 F 
ENDBRANCH  61  84
ENDBRANCH  35  36
ENDBRANCH  27  30
ENDBRANCH  25  26
ENDBRANCH  24  25
ENDBRANCH  23  24
ENDBRANCH   1  23
TORSDOF 16
ENDMDL
MODEL 2
REMARK VINA RESULT:     -11.9      0.187      1.612
REMARK SMILES CN(CC(C)(C)O)C(=O)N[C@H]1CC[C@H](C(=O)NCCCCNC(=O)c2ccc(-c3c4nc(c(-c5c(F)c(F)c(F)c(F)c5F)c5ccc([nH]5)c(-c5c(F)c(F)c(F)c(F)c5F)c5nc(c(-c6c(F)c(F)c(F)c(F)c6F)c6ccc3[nH]6)C=C5)C=C4)cc2)C1
REMARK SMILES IDX 18 1 17 2 15 3 16 4 14 6 11 7 12 8 88 9 13 10 10 11 8 12
REMARK SMILES IDX 9 13 2 15 1 16 3 17 4 18 5 19 6 20 7 21 19 23 20 24 21 25
REMARK SMILES IDX 22 26 23 27 24 29 25 30 26 31 87 32 27 33 86 34 28 35 29 36
REMARK SMILES IDX 30 37 80 38 31 39 85 40 79 41 81 42 32 43 84 44 78 45 77 46
REMARK SMILES IDX 33 48 65 49 45 50 64 51 46 52 49 53 63 54 82 55 47 56 48 57
REMARK SMILES IDX 62 59 83 60 50 61 34 62 35 63 43 64 36 65 37 66 41 67 44 68
REMARK SMILES IDX 38 69 39 70 42 71 40 72 66 73 67 74 75 75 68 76 69 77 73 78
REMARK SMILES IDX 76 79 70 80 71 81 74 82 72 83 51 84 52 85 60 86 53 87 54 88
REMARK SMILES IDX 58 89 61 90 55 91 56 92 59 93 57 94
REMARK H PARENT 17 5 10 14 7 22 22 28 81 47 49 58
REMARK Flexibility Score: inf
ROOT
ATOM      1  C   UNL A   1      33.391  29.956  26.279  1.00  0.00     0.116 C 
ENDROOT
BRANCH   1   2
ATOM      2  N   UNL A   1      33.685  29.235  25.054  1.00  0.00    -0.356 N 
ATOM      3  C   UNL A   1      33.780  27.903  24.786  1.00  0.00     0.223 C 
ATOM      4  O   UNL A   1      34.136  27.578  23.651  1.00  0.00    -0.275 OA
ATOM      5  H   UNL A   1      33.846  29.814  24.274  1.00  0.00     0.163 HD
BRANCH   3   6
ATOM      6  C   UNL A   1      33.359  26.847  25.796  1.00  0.00     0.080 C 
ATOM      7  C   UNL A   1      33.137  24.397  25.609  1.00  0.00     0.084 C 
ATOM      8  C   UNL A   1      31.740  25.000  25.810  1.00  0.00     0.026 C 
ATOM      9  C   UNL A   1      34.108  25.563  25.511  1.00  0.00     0.038 C 
ATOM     10  C   UNL A   1      31.877  26.519  25.853  1.00  0.00     0.015 C 
BRANCH   7  11
ATOM     11  N   UNL A   1      33.468  23.451  26.659  1.00  0.00    -0.335 N 
ATOM     12  C   UNL A   1      34.128  22.282  26.729  1.00  0.00     0.317 C 
ATOM     13  O   UNL A   1      34.345  21.882  27.878  1.00  0.00    -0.249 OA
ATOM     14  H   UNL A   1      33.124  23.735  27.536  1.00  0.00     0.165 HD
BRANCH  12  15
ATOM     15  N   UNL A   1      34.588  21.607  25.634  1.00  0.00    -0.325 N 
ATOM     16  C   UNL A   1      35.793  22.162  25.026  1.00  0.00     0.148 C 
BRANCH  15  17
ATOM     17  C   UNL A   1      34.077  20.383  24.999  1.00  0.00     0.155 C 
BRANCH  17  18
ATOM     18  C   UNL A   1      32.665  20.368  24.354  1.00  0.00     0.077 C 
ATOM     19  C   UNL A   1      32.344  21.502  23.381  1.00  0.00     0.043 C 
ATOM     20  C   UNL A   1      32.523  19.022  23.615  1.00  0.00     0.043 C 
BRANCH  18  21
ATOM     21  O   UNL A   1      31.690  20.386  25.402  1.00  0.00    -0.389 OA
ATOM     22  H   UNL A   1      32.100  20.088  26.230  1.00  0.00     0.211 HD
ENDBRANCH  18  21
ENDBRANCH  17  18
ENDBRANCH  15  17
ENDBRANCH  12  15
ENDBRANCH   7  11
ENDBRANCH   3   6
ENDBRANCH   1   2
BRANCH   1  23
ATOM     23  C   UNL A   1      31.946  30.447  26.292  1.00  0.00     0.023 C 
BRANCH  23  24
ATOM     24  C   UNL A   1      31.707  31.658  27.196  1.00  0.00     0.023 C 
BRANCH  24  25
ATOM     25  C   UNL A   1      32.909  32.583  27.356  1.00  0.00     0.116 C 
BRANCH  25  26
ATOM     26  N   UNL A   1      32.521  33.969  27.581  1.00  0.00    -0.352 N 
ATOM     27  C   UNL A   1      33.012  34.873  28.491  1.00  0.00     0.251 C 
ATOM     28  H   UNL A   1      31.804  34.305  26.997  1.00  0.00     0.163 HD
ATOM     29  O   UNL A   1      32.453  35.953  28.659  1.00  0.00    -0.269 OA
BRANCH  27  30
ATOM     30  C   UNL A   1      34.198  34.522  29.297  1.00  0.00     0.039 A 
ATOM     31  C   UNL A   1      34.015  33.957  30.562  1.00  0.00     0.014 A 
ATOM     32  C   UNL A   1      35.485  34.701  28.781  1.00  0.00     0.014 A 
ATOM     33  C   UNL A   1      35.119  33.475  31.265  1.00  0.00     0.010 A 
ATOM     34  C   UNL A   1      36.575  34.159  29.452  1.00  0.00     0.010 A 
ATOM     35  C   UNL A   1      36.399  33.518  30.689  1.00  0.00    -0.014 A 
BRANCH  35  36
ATOM     36  C   UNL A   1      37.556  32.841  31.326  1.00  0.00     0.031 A 
ATOM     37  C   UNL A   1      38.197  31.651  30.673  1.00  0.00     0.074 A 
ATOM     38  C   UNL A   1      37.962  33.241  32.547  1.00  0.00     0.049 A 
ATOM     39  N   UNL A   1      39.139  30.864  31.129  1.00  0.00    -0.248 NA
ATOM     40  C   UNL A   1      37.698  31.282  29.340  1.00  0.00     0.031 C 
ATOM     41  C   UNL A   1      37.386  34.354  33.305  1.00  0.00     0.029 A 
ATOM     42  N   UNL A   1      38.939  32.748  33.375  1.00  0.00    -0.354 N 
ATOM     43  C   UNL A   1      39.335  29.903  30.147  1.00  0.00     0.074 A 
ATOM     44  C   UNL A   1      38.386  30.177  29.091  1.00  0.00     0.031 C 
ATOM     45  C   UNL A   1      38.028  34.466  34.479  1.00  0.00     0.029 A 
ATOM     46  C   UNL A   1      39.026  33.407  34.577  1.00  0.00     0.049 A 
ATOM     47  H   UNL A   1      39.522  31.993  33.131  1.00  0.00     0.167 HD
ATOM     48  C   UNL A   1      40.241  28.896  30.124  1.00  0.00     0.037 A 
ATOM     49  C   UNL A   1      39.809  33.172  35.648  1.00  0.00     0.037 A 
ATOM     50  C   UNL A   1      41.196  28.639  31.172  1.00  0.00     0.049 A 
ATOM     51  C   UNL A   1      40.783  32.027  35.608  1.00  0.00     0.074 A 
ATOM     52  C   UNL A   1      42.204  27.692  31.205  1.00  0.00     0.029 A 
ATOM     53  N   UNL A   1      41.254  29.327  32.375  1.00  0.00    -0.354 N 
ATOM     54  N   UNL A   1      41.013  31.171  34.643  1.00  0.00    -0.248 NA
ATOM     55  C   UNL A   1      41.602  31.812  36.809  1.00  0.00     0.031 C 
ATOM     56  C   UNL A   1      42.838  27.772  32.450  1.00  0.00     0.029 A 
ATOM     57  C   UNL A   1      42.257  28.800  33.174  1.00  0.00     0.049 A 
ATOM     58  H   UNL A   1      40.669  30.078  32.626  1.00  0.00     0.167 HD
ATOM     59  C   UNL A   1      42.010  30.327  35.111  1.00  0.00     0.074 A 
ATOM     60  C   UNL A   1      42.359  30.788  36.439  1.00  0.00     0.031 C 
ATOM     61  C   UNL A   1      42.583  29.263  34.497  1.00  0.00     0.037 A 
BRANCH  48  62
ATOM     62  C   UNL A   1      40.246  27.994  28.926  1.00  0.00     0.064 A 
ATOM     63  C   UNL A   1      40.972  28.313  27.768  1.00  0.00     0.173 A 
ATOM     64  C   UNL A   1      39.556  26.772  28.951  1.00  0.00     0.173 A 
ATOM     65  F   UNL A   1      41.640  29.473  27.690  1.00  0.00    -0.203 F 
ATOM     66  C   UNL A   1      40.985  27.456  26.671  1.00  0.00     0.198 A 
ATOM     67  C   UNL A   1      39.594  25.904  27.863  1.00  0.00     0.198 A 
ATOM     68  F   UNL A   1      38.851  26.416  30.036  1.00  0.00    -0.203 F 
ATOM     69  F   UNL A   1      41.648  27.804  25.560  1.00  0.00    -0.200 F 
ATOM     70  C   UNL A   1      40.303  26.250  26.722  1.00  0.00     0.200 A 
ATOM     71  F   UNL A   1      38.945  24.733  27.919  1.00  0.00    -0.200 F 
ATOM     72  F   UNL A   1      40.324  25.421  25.669  1.00  0.00    -0.200 F 
ENDBRANCH  48  62
BRANCH  49  73
ATOM     73  C   UNL A   1      39.703  34.040  36.849  1.00  0.00     0.064 A 
ATOM     74  C   UNL A   1      40.423  35.240  36.934  1.00  0.00     0.173 A 
ATOM     75  C   UNL A   1      38.888  33.690  37.935  1.00  0.00     0.173 A 
ATOM     76  F   UNL A   1      41.233  35.607  35.929  1.00  0.00    -0.203 F 
ATOM     77  C   UNL A   1      40.343  36.049  38.065  1.00  0.00     0.198 A 
ATOM     78  C   UNL A   1      38.787  34.514  39.054  1.00  0.00     0.198 A 
ATOM     79  F   UNL A   1      38.176  32.554  37.902  1.00  0.00    -0.203 F 
ATOM     80  F   UNL A   1      41.074  37.169  38.138  1.00  0.00    -0.200 F 
ATOM     81  C   UNL A   1      39.520  35.688  39.121  1.00  0.00     0.200 A 
ATOM     82  F   UNL A   1      37.981  34.169  40.067  1.00  0.00    -0.200 F 
ATOM     83  F   UNL A   1      39.440  36.469  40.207  1.00  0.00    -0.200 F 
ENDBRANCH  49  73
BRANCH  61  84
ATOM     84  C   UNL A   1      43.650  28.528  35.255  1.00  0.00     0.064 A 
ATOM     85  C   UNL A   1      43.340  27.436  36.078  1.00  0.00     0.173 A 
ATOM     86  C   UNL A   1      44.999  28.895  35.128  1.00  0.00     0.173 A 
ATOM     87  F   UNL A   1      42.063  27.058  36.247  1.00  0.00    -0.203 F 
ATOM     88  C   UNL A   1      44.340  26.749  36.763  1.00  0.00     0.198 A 
ATOM     89  C   UNL A   1      45.998  28.188  35.791  1.00  0.00     0.198 A 
ATOM     90  F   UNL A   1      45.347  29.930  34.350  1.00  0.00    -0.203 F 
ATOM     91  F   UNL A   1      44.016  25.736  37.579  1.00  0.00    -0.200 F 
ATOM     92  C   UNL A   1      45.667  27.121  36.613  1.00  0.00     0.200 A 
ATOM     93  F   UNL A   1      47.281  28.540  35.635  1.00  0.00    -0.200 F 
ATOM     94  F   UNL A   1      46.629  26.454  37.266  1.00  0.00    -0.200 F 
ENDBRANCH  61  84
ENDBRANCH  35  36
ENDBRANCH  27  30
ENDBRANCH  25  26
ENDBRANCH  24  25
ENDBRANCH  23  24
ENDBRANCH   1  23
TORSDOF 16
ENDMDL
MODEL 3
REMARK VINA RESULT:     -11.8      0.932      1.746
REMARK SMILES CN(CC(C)(C)O)C(=O)N[C@H]1CC[C@H](C(=O)NCCCCNC(=O)c2ccc(-c3c4nc(c(-c5c(F)c(F)c(F)c(F)c5F)c5ccc([nH]5)c(-c5c(F)c(F)c(F)c(F)c5F)c5nc(c(-c6c(F)c(F)c(F)c(F)c6F)c6ccc3[nH]6)C=C5)C=C4)cc2)C1
REMARK SMILES IDX 18 1 17 2 15 3 16 4 14 6 11 7 12 8 88 9 13 10 10 11 8 12
REMARK SMILES IDX 9 13 2 15 1 16 3 17 4 18 5 19 6 20 7 21 19 23 20 24 21 25
REMARK SMILES IDX 22 26 23 27 24 29 25 30 26 31 87 32 27 33 86 34 28 35 29 36
REMARK SMILES IDX 30 37 80 38 31 39 85 40 79 41 81 42 32 43 84 44 78 45 77 46
REMARK SMILES IDX 33 48 65 49 45 50 64 51 46 52 49 53 63 54 82 55 47 56 48 57
REMARK SMILES IDX 62 59 83 60 50 61 34 62 35 63 43 64 36 65 37 66 41 67 44 68
REMARK SMILES IDX 38 69 39 70 42 71 40 72 66 73 67 74 75 75 68 76 69 77 73 78
REMARK SMILES IDX 76 79 70 80 71 81 74 82 72 83 51 84 52 85 60 86 53 87 54 88
REMARK SMILES IDX 58 89 61 90 55 91 56 92 59 93 57 94
REMARK H PARENT 17 5 10 14 7 22 22 28 81 47 49 58
REMARK Flexibility Score: inf
ROOT
ATOM      1  C   UNL A   1      32.929  29.730  25.515  1.00  0.00     0.116 C 
ENDROOT
BRANCH   1   2
ATOM      2  N   UNL A   1      32.151  29.647  24.292  1.00  0.00    -0.356 N 
ATOM      3  C   UNL A   1      31.689  28.580  23.583  1.00  0.00     0.223 C 
ATOM      4  O   UNL A   1      31.119  28.815  22.514  1.00  0.00    -0.275 OA
ATOM      5  H   UNL A   1      31.914  30.520  23.905  1.00  0.00     0.163 HD
BRANCH   3   6
ATOM      6  C   UNL A   1      31.761  27.161  24.123  1.00  0.00     0.080 C 
ATOM      7  C   UNL A   1      31.776  26.282  26.428  1.00  0.00     0.084 C 
ATOM      8  C   UNL A   1      33.142  26.000  25.790  1.00  0.00     0.026 C 
ATOM      9  C   UNL A   1      30.973  27.080  25.413  1.00  0.00     0.038 C 
ATOM     10  C   UNL A   1      33.151  26.608  24.390  1.00  0.00     0.015 C 
BRANCH   7  11
ATOM     11  N   UNL A   1      31.121  25.059  26.855  1.00  0.00    -0.335 N 
ATOM     12  C   UNL A   1      31.004  23.810  26.373  1.00  0.00     0.317 C 
ATOM     13  O   UNL A   1      30.498  23.001  27.158  1.00  0.00    -0.249 OA
ATOM     14  H   UNL A   1      30.645  25.173  27.709  1.00  0.00     0.165 HD
BRANCH  12  15
ATOM     15  N   UNL A   1      31.461  23.429  25.142  1.00  0.00    -0.325 N 
ATOM     16  C   UNL A   1      30.627  23.843  24.019  1.00  0.00     0.148 C 
BRANCH  15  17
ATOM     17  C   UNL A   1      32.684  22.701  24.776  1.00  0.00     0.155 C 
BRANCH  17  18
ATOM     18  C   UNL A   1      32.670  21.152  24.671  1.00  0.00     0.077 C 
ATOM     19  C   UNL A   1      32.381  20.560  23.292  1.00  0.00     0.043 C 
ATOM     20  C   UNL A   1      34.052  20.657  25.146  1.00  0.00     0.043 C 
BRANCH  18  21
ATOM     21  O   UNL A   1      31.696  20.647  25.591  1.00  0.00    -0.389 OA
ATOM     22  H   UNL A   1      30.821  20.653  25.172  1.00  0.00     0.211 HD
ENDBRANCH  18  21
ENDBRANCH  17  18
ENDBRANCH  15  17
ENDBRANCH  12  15
ENDBRANCH   7  11
ENDBRANCH   3   6
ENDBRANCH   1   2
BRANCH   1  23
ATOM     23  C   UNL A   1      32.055  30.157  26.692  1.00  0.00     0.023 C 
BRANCH  23  24
ATOM     24  C   UNL A   1      31.781  31.661  26.752  1.00  0.00     0.023 C 
BRANCH  24  25
ATOM     25  C   UNL A   1      32.881  32.485  27.415  1.00  0.00     0.116 C 
BRANCH  25  26
ATOM     26  N   UNL A   1      32.489  33.871  27.627  1.00  0.00    -0.352 N 
ATOM     27  C   UNL A   1      32.987  34.789  28.520  1.00  0.00     0.251 C 
ATOM     28  H   UNL A   1      31.763  34.196  27.049  1.00  0.00     0.163 HD
ATOM     29  O   UNL A   1      32.425  35.868  28.681  1.00  0.00    -0.269 OA
BRANCH  27  30
ATOM     30  C   UNL A   1      34.186  34.454  29.314  1.00  0.00     0.039 A 
ATOM     31  C   UNL A   1      34.023  33.921  30.595  1.00  0.00     0.014 A 
ATOM     32  C   UNL A   1      35.464  34.618  28.773  1.00  0.00     0.014 A 
ATOM     33  C   UNL A   1      35.137  33.452  31.291  1.00  0.00     0.010 A 
ATOM     34  C   UNL A   1      36.564  34.088  29.438  1.00  0.00     0.010 A 
ATOM     35  C   UNL A   1      36.407  33.479  30.693  1.00  0.00    -0.014 A 
BRANCH  35  36
ATOM     36  C   UNL A   1      37.574  32.813  31.327  1.00  0.00     0.031 A 
ATOM     37  C   UNL A   1      38.226  31.631  30.671  1.00  0.00     0.074 A 
ATOM     38  C   UNL A   1      37.977  33.217  32.547  1.00  0.00     0.049 A 
ATOM     39  N   UNL A   1      39.178  30.855  31.124  1.00  0.00    -0.248 NA
ATOM     40  C   UNL A   1      37.729  31.258  29.338  1.00  0.00     0.031 C 
ATOM     41  C   UNL A   1      37.391  34.322  33.308  1.00  0.00     0.029 A 
ATOM     42  N   UNL A   1      38.961  32.734  33.373  1.00  0.00    -0.354 N 
ATOM     43  C   UNL A   1      39.383  29.898  30.141  1.00  0.00     0.074 A 
ATOM     44  C   UNL A   1      38.429  30.162  29.086  1.00  0.00     0.031 C 
ATOM     45  C   UNL A   1      38.033  34.440  34.481  1.00  0.00     0.029 A 
ATOM     46  C   UNL A   1      39.044  33.393  34.575  1.00  0.00     0.049 A 
ATOM     47  H   UNL A   1      39.552  31.986  33.126  1.00  0.00     0.167 HD
ATOM     48  C   UNL A   1      40.300  28.901  30.115  1.00  0.00     0.037 A 
ATOM     49  C   UNL A   1      39.832  33.165  35.644  1.00  0.00     0.037 A 
ATOM     50  C   UNL A   1      41.260  28.653  31.160  1.00  0.00     0.049 A 
ATOM     51  C   UNL A   1      40.818  32.031  35.601  1.00  0.00     0.074 A 
ATOM     52  C   UNL A   1      42.279  27.718  31.190  1.00  0.00     0.029 A 
ATOM     53  N   UNL A   1      41.313  29.340  32.364  1.00  0.00    -0.354 N 
ATOM     54  N   UNL A   1      41.056  31.179  34.634  1.00  0.00    -0.248 NA
ATOM     55  C   UNL A   1      41.642  31.824  36.800  1.00  0.00     0.031 C 
ATOM     56  C   UNL A   1      42.915  27.803  32.434  1.00  0.00     0.029 A 
ATOM     57  C   UNL A   1      42.323  28.824  33.160  1.00  0.00     0.049 A 
ATOM     58  H   UNL A   1      40.720  30.085  32.616  1.00  0.00     0.167 HD
ATOM     59  C   UNL A   1      42.064  30.346  35.099  1.00  0.00     0.074 A 
ATOM     60  C   UNL A   1      42.409  30.810  36.428  1.00  0.00     0.031 C 
ATOM     61  C   UNL A   1      42.647  29.289  34.483  1.00  0.00     0.037 A 
BRANCH  48  62
ATOM     62  C   UNL A   1      40.313  28.000  28.915  1.00  0.00     0.064 A 
ATOM     63  C   UNL A   1      41.056  28.315  27.767  1.00  0.00     0.173 A 
ATOM     64  C   UNL A   1      39.613  26.784  28.930  1.00  0.00     0.173 A 
ATOM     65  F   UNL A   1      41.734  29.470  27.698  1.00  0.00    -0.203 F 
ATOM     66  C   UNL A   1      41.076  27.459  26.669  1.00  0.00     0.198 A 
ATOM     67  C   UNL A   1      39.658  25.917  27.842  1.00  0.00     0.198 A 
ATOM     68  F   UNL A   1      38.891  26.432  30.006  1.00  0.00    -0.203 F 
ATOM     69  F   UNL A   1      41.756  27.803  25.567  1.00  0.00    -0.200 F 
ATOM     70  C   UNL A   1      40.384  26.259  26.710  1.00  0.00     0.200 A 
ATOM     71  F   UNL A   1      38.998  24.751  27.888  1.00  0.00    -0.200 F 
ATOM     72  F   UNL A   1      40.411  25.431  25.656  1.00  0.00    -0.200 F 
ENDBRANCH  48  62
BRANCH  49  73
ATOM     73  C   UNL A   1      39.719  34.031  36.846  1.00  0.00     0.064 A 
ATOM     74  C   UNL A   1      38.902  33.660  37.924  1.00  0.00     0.173 A 
ATOM     75  C   UNL A   1      40.417  35.243  36.943  1.00  0.00     0.173 A 
ATOM     76  F   UNL A   1      38.198  32.520  37.869  1.00  0.00    -0.203 F 
ATOM     77  C   UNL A   1      38.777  34.477  39.046  1.00  0.00     0.198 A 
ATOM     78  C   UNL A   1      40.313  36.046  38.077  1.00  0.00     0.198 A 
ATOM     79  F   UNL A   1      41.214  35.641  35.941  1.00  0.00    -0.203 F 
ATOM     80  F   UNL A   1      37.957  34.120  40.043  1.00  0.00    -0.200 F 
ATOM     81  C   UNL A   1      39.487  35.665  39.124  1.00  0.00     0.200 A 
ATOM     82  F   UNL A   1      41.011  37.186  38.155  1.00  0.00    -0.200 F 
ATOM     83  F   UNL A   1      39.370  36.448  40.206  1.00  0.00    -0.200 F 
ENDBRANCH  49  73
BRANCH  61  84
ATOM     84  C   UNL A   1      43.724  28.565  35.238  1.00  0.00     0.064 A 
ATOM     85  C   UNL A   1      43.430  27.456  36.045  1.00  0.00     0.173 A 
ATOM     86  C   UNL A   1      45.066  28.960  35.124  1.00  0.00     0.173 A 
ATOM     87  F   UNL A   1      42.161  27.051  36.200  1.00  0.00    -0.203 F 
ATOM     88  C   UNL A   1      44.440  26.781  36.727  1.00  0.00     0.198 A 
ATOM     89  C   UNL A   1      46.075  28.265  35.784  1.00  0.00     0.198 A 
ATOM     90  F   UNL A   1      45.398  30.013  34.362  1.00  0.00    -0.203 F 
ATOM     91  F   UNL A   1      44.131  25.750  37.527  1.00  0.00    -0.200 F 
ATOM     92  C   UNL A   1      45.760  27.181  36.590  1.00  0.00     0.200 A 
ATOM     93  F   UNL A   1      47.352  28.644  35.641  1.00  0.00    -0.200 F 
ATOM     94  F   UNL A   1      46.731  26.524  37.240  1.00  0.00    -0.200 F 
ENDBRANCH  61  84
ENDBRANCH  35  36
ENDBRANCH  27  30
ENDBRANCH  25  26
ENDBRANCH  24  25
ENDBRANCH  23  24
ENDBRANCH   1  23
TORSDOF 16
ENDMDL
