MODEL 1
REMARK VINA RESULT:     -13.7      0.000      0.000
REMARK SMILES C[C@@H]1Cc2ccccc2N1c1ccc(F)cc1C(=O)NCCCCNC(=O)c1ccc(-c2c3nc(c(-c4c(F)c(F)c(F)c(F)c4F)c4ccc([nH]4)c(-c4c(F)c(F)c(F)c(F)c4F)c4nc(c(-c5c(F)c(F)c(F)c(F)c5F)c5ccc2[nH]5)C=C4)C=C3)cc1
REMARK SMILES IDX 23 1 22 2 21 3 20 4 18 5 19 6 17 8 11 9 12 10 13 11 16 12
REMARK SMILES IDX 14 13 15 14 10 15 1 16 2 17 3 18 4 19 9 20 5 21 8 22 6 23
REMARK SMILES IDX 7 24 24 25 25 26 26 27 27 29 28 30 29 31 90 32 30 33 89 34
REMARK SMILES IDX 31 35 32 36 33 37 83 38 34 39 88 40 82 41 84 42 35 43 87 44
REMARK SMILES IDX 81 45 80 46 36 48 68 49 48 50 67 51 49 52 52 53 66 54 85 55
REMARK SMILES IDX 50 56 51 57 65 59 86 60 53 61 37 62 38 63 46 64 39 65 40 66
REMARK SMILES IDX 44 67 47 68 41 69 42 70 45 71 43 72 69 73 70 74 78 75 71 76
REMARK SMILES IDX 72 77 76 78 79 79 73 80 74 81 77 82 75 83 54 84 55 85 63 86
REMARK SMILES IDX 56 87 57 88 61 89 64 90 58 91 59 92 62 93 60 94
REMARK H PARENT 20 7 25 28 84 47 52 58
REMARK Flexibility Score: inf
ROOT
ATOM      1  C   UNL A   1      32.369  29.623  25.015  1.00  0.00     0.023 C 
ENDROOT
BRANCH   1   2
ATOM      2  C   UNL A   1      33.622  29.010  24.389  1.00  0.00     0.023 C 
BRANCH   2   3
ATOM      3  C   UNL A   1      33.686  29.025  22.868  1.00  0.00     0.116 C 
BRANCH   3   4
ATOM      4  N   UNL A   1      33.894  27.754  22.225  1.00  0.00    -0.352 N 
ATOM      5  C   UNL A   1      33.029  26.689  22.131  1.00  0.00     0.253 C 
ATOM      6  O   UNL A   1      33.368  25.745  21.414  1.00  0.00    -0.269 OA
ATOM      7  H   UNL A   1      34.772  27.630  21.796  1.00  0.00     0.163 HD
BRANCH   5   8
ATOM      8  C   UNL A   1      31.760  26.556  22.909  1.00  0.00     0.066 A 
ATOM      9  C   UNL A   1      31.522  25.732  24.036  1.00  0.00     0.054 A 
ATOM     10  C   UNL A   1      30.267  25.830  24.680  1.00  0.00     0.030 A 
ATOM     11  C   UNL A   1      29.275  26.701  24.233  1.00  0.00     0.041 A 
ATOM     12  C   UNL A   1      30.751  27.440  22.477  1.00  0.00     0.055 A 
ATOM     13  C   UNL A   1      29.527  27.496  23.130  1.00  0.00     0.124 A 
ATOM     14  F   UNL A   1      28.579  28.335  22.692  1.00  0.00    -0.207 F 
BRANCH   9  15
ATOM     15  N   UNL A   1      32.428  24.799  24.529  1.00  0.00    -0.337 N 
ATOM     16  C   UNL A   1      33.913  26.219  25.970  1.00  0.00     0.032 C 
ATOM     17  C   UNL A   1      33.101  24.938  25.845  1.00  0.00     0.089 C 
ATOM     18  C   UNL A   1      34.019  23.689  25.998  1.00  0.00     0.063 C 
ATOM     19  C   UNL A   1      33.416  22.740  25.016  1.00  0.00    -0.022 A 
ATOM     20  C   UNL A   1      32.467  23.408  24.242  1.00  0.00     0.045 A 
ATOM     21  C   UNL A   1      33.764  21.425  24.754  1.00  0.00     0.006 A 
ATOM     22  C   UNL A   1      31.797  22.746  23.223  1.00  0.00     0.026 A 
ATOM     23  C   UNL A   1      33.111  20.764  23.709  1.00  0.00     0.000 A 
ATOM     24  C   UNL A   1      32.124  21.415  22.957  1.00  0.00     0.002 A 
ENDBRANCH   9  15
ENDBRANCH   5   8
ENDBRANCH   3   4
ENDBRANCH   2   3
ENDBRANCH   1   2
BRANCH   1  25
ATOM     25  C   UNL A   1      32.351  29.785  26.534  1.00  0.00     0.116 C 
BRANCH  25  26
ATOM     26  N   UNL A   1      32.255  31.161  27.006  1.00  0.00    -0.352 N 
ATOM     27  C   UNL A   1      33.221  32.019  27.496  1.00  0.00     0.251 C 
ATOM     28  H   UNL A   1      31.348  31.543  26.969  1.00  0.00     0.163 HD
ATOM     29  O   UNL A   1      32.925  33.161  27.817  1.00  0.00    -0.269 OA
BRANCH  27  30
ATOM     30  C   UNL A   1      34.604  31.530  27.716  1.00  0.00     0.039 A 
ATOM     31  C   UNL A   1      34.892  30.170  27.813  1.00  0.00     0.014 A 
ATOM     32  C   UNL A   1      35.618  32.471  27.917  1.00  0.00     0.014 A 
ATOM     33  C   UNL A   1      36.104  29.764  28.366  1.00  0.00     0.010 A 
ATOM     34  C   UNL A   1      36.871  32.056  28.381  1.00  0.00     0.010 A 
ATOM     35  C   UNL A   1      37.089  30.708  28.704  1.00  0.00    -0.014 A 
BRANCH  35  36
ATOM     36  C   UNL A   1      38.282  30.282  29.488  1.00  0.00     0.031 A 
ATOM     37  C   UNL A   1      38.439  30.717  30.926  1.00  0.00     0.074 A 
ATOM     38  C   UNL A   1      39.182  29.438  28.948  1.00  0.00     0.049 A 
ATOM     39  N   UNL A   1      39.401  30.444  31.775  1.00  0.00    -0.248 NA
ATOM     40  C   UNL A   1      37.380  31.572  31.489  1.00  0.00     0.031 C 
ATOM     41  C   UNL A   1      39.138  28.921  27.580  1.00  0.00     0.029 A 
ATOM     42  N   UNL A   1      40.295  28.846  29.492  1.00  0.00    -0.354 N 
ATOM     43  C   UNL A   1      39.077  31.112  32.950  1.00  0.00     0.074 A 
ATOM     44  C   UNL A   1      37.842  31.823  32.705  1.00  0.00     0.031 C 
ATOM     45  C   UNL A   1      40.146  28.052  27.407  1.00  0.00     0.029 A 
ATOM     46  C   UNL A   1      40.939  27.992  28.632  1.00  0.00     0.049 A 
ATOM     47  H   UNL A   1      40.601  29.017  30.412  1.00  0.00     0.167 HD
ATOM     48  C   UNL A   1      39.739  31.121  34.131  1.00  0.00     0.037 A 
ATOM     49  C   UNL A   1      42.050  27.249  28.804  1.00  0.00     0.037 A 
ATOM     50  C   UNL A   1      40.937  30.373  34.400  1.00  0.00     0.049 A 
ATOM     51  C   UNL A   1      42.774  27.291  30.120  1.00  0.00     0.074 A 
ATOM     52  C   UNL A   1      41.661  30.301  35.579  1.00  0.00     0.029 A 
ATOM     53  N   UNL A   1      41.581  29.558  33.484  1.00  0.00    -0.354 N 
ATOM     54  N   UNL A   1      42.462  27.940  31.215  1.00  0.00    -0.248 NA
ATOM     55  C   UNL A   1      44.013  26.506  30.222  1.00  0.00     0.031 C 
ATOM     56  C   UNL A   1      42.760  29.463  35.367  1.00  0.00     0.029 A 
ATOM     57  C   UNL A   1      42.702  28.988  34.068  1.00  0.00     0.049 A 
ATOM     58  H   UNL A   1      41.287  29.405  32.557  1.00  0.00     0.167 HD
ATOM     59  C   UNL A   1      43.457  27.639  32.133  1.00  0.00     0.074 A 
ATOM     60  C   UNL A   1      44.374  26.731  31.477  1.00  0.00     0.031 C 
ATOM     61  C   UNL A   1      43.603  28.086  33.404  1.00  0.00     0.037 A 
BRANCH  48  62
ATOM     62  C   UNL A   1      39.188  31.962  35.244  1.00  0.00     0.064 A 
ATOM     63  C   UNL A   1      38.437  31.399  36.284  1.00  0.00     0.173 A 
ATOM     64  C   UNL A   1      39.500  33.328  35.320  1.00  0.00     0.173 A 
ATOM     65  F   UNL A   1      38.104  30.100  36.250  1.00  0.00    -0.203 F 
ATOM     66  C   UNL A   1      38.015  32.174  37.362  1.00  0.00     0.198 A 
ATOM     67  C   UNL A   1      39.094  34.095  36.409  1.00  0.00     0.198 A 
ATOM     68  F   UNL A   1      40.223  33.911  34.352  1.00  0.00    -0.203 F 
ATOM     69  F   UNL A   1      37.284  31.621  38.339  1.00  0.00    -0.200 F 
ATOM     70  C   UNL A   1      38.352  33.518  37.429  1.00  0.00     0.200 A 
ATOM     71  F   UNL A   1      39.432  35.391  36.477  1.00  0.00    -0.200 F 
ATOM     72  F   UNL A   1      37.964  34.257  38.477  1.00  0.00    -0.200 F 
ENDBRANCH  48  62
BRANCH  49  73
ATOM     73  C   UNL A   1      42.547  26.403  27.690  1.00  0.00     0.064 A 
ATOM     74  C   UNL A   1      42.053  25.107  27.492  1.00  0.00     0.173 A 
ATOM     75  C   UNL A   1      43.518  26.877  26.795  1.00  0.00     0.173 A 
ATOM     76  F   UNL A   1      41.142  24.602  28.338  1.00  0.00    -0.203 F 
ATOM     77  C   UNL A   1      42.516  24.314  26.445  1.00  0.00     0.198 A 
ATOM     78  C   UNL A   1      43.960  26.094  25.733  1.00  0.00     0.198 A 
ATOM     79  F   UNL A   1      44.021  28.111  26.943  1.00  0.00    -0.203 F 
ATOM     80  F   UNL A   1      42.052  23.065  26.298  1.00  0.00    -0.200 F 
ATOM     81  C   UNL A   1      43.464  24.810  25.562  1.00  0.00     0.200 A 
ATOM     82  F   UNL A   1      44.865  26.582  24.874  1.00  0.00    -0.200 F 
ATOM     83  F   UNL A   1      43.901  24.051  24.548  1.00  0.00    -0.200 F 
ENDBRANCH  49  73
BRANCH  61  84
ATOM     84  C   UNL A   1      44.792  27.600  34.175  1.00  0.00     0.064 A 
ATOM     85  C   UNL A   1      44.750  26.399  34.894  1.00  0.00     0.173 A 
ATOM     86  C   UNL A   1      46.003  28.307  34.139  1.00  0.00     0.173 A 
ATOM     87  F   UNL A   1      43.609  25.695  34.964  1.00  0.00    -0.203 F 
ATOM     88  C   UNL A   1      45.875  25.926  35.563  1.00  0.00     0.198 A 
ATOM     89  C   UNL A   1      47.133  27.821  34.791  1.00  0.00     0.198 A 
ATOM     90  F   UNL A   1      46.095  29.459  33.458  1.00  0.00    -0.203 F 
ATOM     91  F   UNL A   1      45.805  24.789  36.268  1.00  0.00    -0.200 F 
ATOM     92  C   UNL A   1      47.067  26.634  35.505  1.00  0.00     0.200 A 
ATOM     93  F   UNL A   1      48.286  28.499  34.726  1.00  0.00    -0.200 F 
ATOM     94  F   UNL A   1      48.152  26.172  36.140  1.00  0.00    -0.200 F 
ENDBRANCH  61  84
ENDBRANCH  35  36
ENDBRANCH  27  30
ENDBRANCH  25  26
ENDBRANCH   1  25
TORSDOF 12
ENDMDL
MODEL 2
REMARK VINA RESULT:     -13.6      0.272      7.347
REMARK SMILES C[C@@H]1Cc2ccccc2N1c1ccc(F)cc1C(=O)NCCCCNC(=O)c1ccc(-c2c3nc(c(-c4c(F)c(F)c(F)c(F)c4F)c4ccc([nH]4)c(-c4c(F)c(F)c(F)c(F)c4F)c4nc(c(-c5c(F)c(F)c(F)c(F)c5F)c5ccc2[nH]5)C=C4)C=C3)cc1
REMARK SMILES IDX 23 1 22 2 21 3 20 4 18 5 19 6 17 8 11 9 12 10 13 11 16 12
REMARK SMILES IDX 14 13 15 14 10 15 1 16 2 17 3 18 4 19 9 20 5 21 8 22 6 23
REMARK SMILES IDX 7 24 24 25 25 26 26 27 27 29 28 30 29 31 90 32 30 33 89 34
REMARK SMILES IDX 31 35 32 36 33 37 83 38 34 39 88 40 82 41 84 42 35 43 87 44
REMARK SMILES IDX 81 45 80 46 36 48 68 49 48 50 67 51 49 52 52 53 66 54 85 55
REMARK SMILES IDX 50 56 51 57 65 59 86 60 53 61 37 62 38 63 46 64 39 65 40 66
REMARK SMILES IDX 44 67 47 68 41 69 42 70 45 71 43 72 69 73 70 74 78 75 71 76
REMARK SMILES IDX 72 77 76 78 79 79 73 80 74 81 77 82 75 83 54 84 55 85 63 86
REMARK SMILES IDX 56 87 57 88 61 89 64 90 58 91 59 92 62 93 60 94
REMARK H PARENT 20 7 25 28 84 47 52 58
REMARK Flexibility Score: inf
ROOT
ATOM      1  C   UNL A   1      32.291  29.683  24.978  1.00  0.00     0.023 C 
ENDROOT
BRANCH   1   2
ATOM      2  C   UNL A   1      33.536  28.999  24.411  1.00  0.00     0.023 C 
BRANCH   2   3
ATOM      3  C   UNL A   1      33.682  29.028  22.896  1.00  0.00     0.116 C 
BRANCH   3   4
ATOM      4  N   UNL A   1      33.889  27.758  22.250  1.00  0.00    -0.352 N 
ATOM      5  C   UNL A   1      33.014  26.703  22.133  1.00  0.00     0.253 C 
ATOM      6  O   UNL A   1      33.356  25.759  21.418  1.00  0.00    -0.269 OA
ATOM      7  H   UNL A   1      34.773  27.626  21.838  1.00  0.00     0.163 HD
BRANCH   5   8
ATOM      8  C   UNL A   1      31.728  26.580  22.886  1.00  0.00     0.066 A 
ATOM      9  C   UNL A   1      31.458  25.750  24.001  1.00  0.00     0.054 A 
ATOM     10  C   UNL A   1      30.192  25.859  24.622  1.00  0.00     0.030 A 
ATOM     11  C   UNL A   1      29.221  26.748  24.164  1.00  0.00     0.041 A 
ATOM     12  C   UNL A   1      30.740  27.482  22.444  1.00  0.00     0.055 A 
ATOM     13  C   UNL A   1      29.505  27.550  23.074  1.00  0.00     0.124 A 
ATOM     14  F   UNL A   1      28.577  28.406  22.626  1.00  0.00    -0.207 F 
BRANCH   9  15
ATOM     15  N   UNL A   1      32.341  24.799  24.502  1.00  0.00    -0.337 N 
ATOM     16  C   UNL A   1      33.825  26.187  25.976  1.00  0.00     0.032 C 
ATOM     17  C   UNL A   1      32.995  24.919  25.829  1.00  0.00     0.089 C 
ATOM     18  C   UNL A   1      33.890  23.655  25.989  1.00  0.00     0.063 C 
ATOM     19  C   UNL A   1      33.289  22.722  24.990  1.00  0.00    -0.022 A 
ATOM     20  C   UNL A   1      32.363  23.410  24.206  1.00  0.00     0.045 A 
ATOM     21  C   UNL A   1      33.621  21.403  24.725  1.00  0.00     0.006 A 
ATOM     22  C   UNL A   1      31.699  22.765  23.172  1.00  0.00     0.026 A 
ATOM     23  C   UNL A   1      32.975  20.759  23.666  1.00  0.00     0.000 A 
ATOM     24  C   UNL A   1      32.010  21.431  22.903  1.00  0.00     0.002 A 
ENDBRANCH   9  15
ENDBRANCH   5   8
ENDBRANCH   3   4
ENDBRANCH   2   3
ENDBRANCH   1   2
BRANCH   1  25
ATOM     25  C   UNL A   1      32.237  29.900  26.489  1.00  0.00     0.116 C 
BRANCH  25  26
ATOM     26  N   UNL A   1      32.194  31.294  26.912  1.00  0.00    -0.352 N 
ATOM     27  C   UNL A   1      33.180  32.115  27.422  1.00  0.00     0.251 C 
ATOM     28  H   UNL A   1      31.313  31.723  26.816  1.00  0.00     0.163 HD
ATOM     29  O   UNL A   1      32.933  33.282  27.691  1.00  0.00    -0.269 OA
BRANCH  27  30
ATOM     30  C   UNL A   1      34.522  31.561  27.729  1.00  0.00     0.039 A 
ATOM     31  C   UNL A   1      34.729  30.191  27.881  1.00  0.00     0.014 A 
ATOM     32  C   UNL A   1      35.575  32.452  27.953  1.00  0.00     0.014 A 
ATOM     33  C   UNL A   1      35.889  29.739  28.508  1.00  0.00     0.010 A 
ATOM     34  C   UNL A   1      36.778  31.986  28.493  1.00  0.00     0.010 A 
ATOM     35  C   UNL A   1      36.906  30.640  28.867  1.00  0.00    -0.014 A 
BRANCH  35  36
ATOM     36  C   UNL A   1      38.033  30.177  29.724  1.00  0.00     0.031 A 
ATOM     37  C   UNL A   1      39.097  29.269  29.153  1.00  0.00     0.074 A 
ATOM     38  C   UNL A   1      38.158  30.634  30.985  1.00  0.00     0.049 A 
ATOM     39  N   UNL A   1      40.158  28.765  29.737  1.00  0.00    -0.248 NA
ATOM     40  C   UNL A   1      38.953  28.868  27.744  1.00  0.00     0.031 C 
ATOM     41  C   UNL A   1      37.217  31.534  31.652  1.00  0.00     0.029 A 
ATOM     42  N   UNL A   1      39.139  30.425  31.922  1.00  0.00    -0.354 N 
ATOM     43  C   UNL A   1      40.784  27.976  28.780  1.00  0.00     0.074 A 
ATOM     44  C   UNL A   1      39.977  28.043  27.582  1.00  0.00     0.031 C 
ATOM     45  C   UNL A   1      37.691  31.840  32.870  1.00  0.00     0.029 A 
ATOM     46  C   UNL A   1      38.939  31.115  33.091  1.00  0.00     0.049 A 
ATOM     47  H   UNL A   1      39.914  29.836  31.769  1.00  0.00     0.167 HD
ATOM     48  C   UNL A   1      41.934  27.269  28.883  1.00  0.00     0.037 A 
ATOM     49  C   UNL A   1      39.672  31.155  34.221  1.00  0.00     0.037 A 
ATOM     50  C   UNL A   1      42.772  27.240  30.052  1.00  0.00     0.049 A 
ATOM     51  C   UNL A   1      40.936  30.347  34.314  1.00  0.00     0.074 A 
ATOM     52  C   UNL A   1      43.971  26.573  30.236  1.00  0.00     0.029 A 
ATOM     53  N   UNL A   1      42.505  27.917  31.231  1.00  0.00    -0.354 N 
ATOM     54  N   UNL A   1      41.504  29.595  33.405  1.00  0.00    -0.248 NA
ATOM     55  C   UNL A   1      41.655  30.386  35.596  1.00  0.00     0.031 C 
ATOM     56  C   UNL A   1      44.417  26.823  31.537  1.00  0.00     0.029 A 
ATOM     57  C   UNL A   1      43.512  27.673  32.151  1.00  0.00     0.049 A 
ATOM     58  H   UNL A   1      41.718  28.487  31.391  1.00  0.00     0.167 HD
ATOM     59  C   UNL A   1      42.646  29.076  33.999  1.00  0.00     0.074 A 
ATOM     60  C   UNL A   1      42.704  29.617  35.340  1.00  0.00     0.031 C 
ATOM     61  C   UNL A   1      43.558  28.219  33.481  1.00  0.00     0.037 A 
BRANCH  48  62
ATOM     62  C   UNL A   1      42.378  26.463  27.699  1.00  0.00     0.064 A 
ATOM     63  C   UNL A   1      43.330  26.952  26.794  1.00  0.00     0.173 A 
ATOM     64  C   UNL A   1      41.917  25.148  27.526  1.00  0.00     0.173 A 
ATOM     65  F   UNL A   1      43.791  28.206  26.912  1.00  0.00    -0.203 F 
ATOM     66  C   UNL A   1      43.805  26.154  25.755  1.00  0.00     0.198 A 
ATOM     67  C   UNL A   1      42.410  24.347  26.499  1.00  0.00     0.198 A 
ATOM     68  F   UNL A   1      41.012  24.633  28.370  1.00  0.00    -0.203 F 
ATOM     69  F   UNL A   1      44.703  26.647  24.892  1.00  0.00    -0.200 F 
ATOM     70  C   UNL A   1      43.353  24.851  25.615  1.00  0.00     0.200 A 
ATOM     71  F   UNL A   1      41.981  23.084  26.372  1.00  0.00    -0.200 F 
ATOM     72  F   UNL A   1      43.827  24.078  24.628  1.00  0.00    -0.200 F 
ENDBRANCH  48  62
BRANCH  49  73
ATOM     73  C   UNL A   1      39.218  31.991  35.361  1.00  0.00     0.064 A 
ATOM     74  C   UNL A   1      38.443  31.445  36.393  1.00  0.00     0.173 A 
ATOM     75  C   UNL A   1      39.561  33.348  35.448  1.00  0.00     0.173 A 
ATOM     76  F   UNL A   1      38.071  30.157  36.341  1.00  0.00    -0.203 F 
ATOM     77  C   UNL A   1      38.020  32.227  37.464  1.00  0.00     0.198 A 
ATOM     78  C   UNL A   1      39.161  34.122  36.533  1.00  0.00     0.198 A 
ATOM     79  F   UNL A   1      40.301  33.915  34.485  1.00  0.00    -0.203 F 
ATOM     80  F   UNL A   1      37.251  31.690  38.421  1.00  0.00    -0.200 F 
ATOM     81  C   UNL A   1      38.386  33.564  37.538  1.00  0.00     0.200 A 
ATOM     82  F   UNL A   1      39.527  35.409  36.606  1.00  0.00    -0.200 F 
ATOM     83  F   UNL A   1      37.988  34.313  38.575  1.00  0.00    -0.200 F 
ENDBRANCH  49  73
BRANCH  61  84
ATOM     84  C   UNL A   1      44.701  27.812  34.359  1.00  0.00     0.064 A 
ATOM     85  C   UNL A   1      45.874  28.575  34.425  1.00  0.00     0.173 A 
ATOM     86  C   UNL A   1      44.596  26.687  35.192  1.00  0.00     0.173 A 
ATOM     87  F   UNL A   1      46.022  29.652  33.638  1.00  0.00    -0.203 F 
ATOM     88  C   UNL A   1      46.910  28.221  35.284  1.00  0.00     0.198 A 
ATOM     89  C   UNL A   1      45.625  26.348  36.066  1.00  0.00     0.198 A 
ATOM     90  F   UNL A   1      43.489  25.930  35.170  1.00  0.00    -0.203 F 
ATOM     91  F   UNL A   1      48.034  28.948  35.311  1.00  0.00    -0.200 F 
ATOM     92  C   UNL A   1      46.781  27.113  36.109  1.00  0.00     0.200 A 
ATOM     93  F   UNL A   1      45.496  25.284  36.870  1.00  0.00    -0.200 F 
ATOM     94  F   UNL A   1      47.775  26.780  36.944  1.00  0.00    -0.200 F 
ENDBRANCH  61  84
ENDBRANCH  35  36
ENDBRANCH  27  30
ENDBRANCH  25  26
ENDBRANCH   1  25
TORSDOF 12
ENDMDL
MODEL 3
REMARK VINA RESULT:     -13.5      4.159      9.531
REMARK SMILES C[C@@H]1Cc2ccccc2N1c1ccc(F)cc1C(=O)NCCCCNC(=O)c1ccc(-c2c3nc(c(-c4c(F)c(F)c(F)c(F)c4F)c4ccc([nH]4)c(-c4c(F)c(F)c(F)c(F)c4F)c4nc(c(-c5c(F)c(F)c(F)c(F)c5F)c5ccc2[nH]5)C=C4)C=C3)cc1
REMARK SMILES IDX 23 1 22 2 21 3 20 4 18 5 19 6 17 8 11 9 12 10 13 11 16 12
REMARK SMILES IDX 14 13 15 14 10 15 1 16 2 17 3 18 4 19 9 20 5 21 8 22 6 23
REMARK SMILES IDX 7 24 24 25 25 26 26 27 27 29 28 30 29 31 90 32 30 33 89 34
REMARK SMILES IDX 31 35 32 36 33 37 83 38 34 39 88 40 82 41 84 42 35 43 87 44
REMARK SMILES IDX 81 45 80 46 36 48 68 49 48 50 67 51 49 52 52 53 66 54 85 55
REMARK SMILES IDX 50 56 51 57 65 59 86 60 53 61 37 62 38 63 46 64 39 65 40 66
REMARK SMILES IDX 44 67 47 68 41 69 42 70 45 71 43 72 69 73 70 74 78 75 71 76
REMARK SMILES IDX 72 77 76 78 79 79 73 80 74 81 77 82 75 83 54 84 55 85 63 86
REMARK SMILES IDX 56 87 57 88 61 89 64 90 58 91 59 92 62 93 60 94
REMARK H PARENT 20 7 25 28 84 47 52 58
REMARK Flexibility Score: inf
ROOT
ATOM      1  C   UNL A   1      35.686  21.330  25.647  1.00  0.00     0.023 C 
ENDROOT
BRANCH   1   2
ATOM      2  C   UNL A   1      35.258  22.195  26.834  1.00  0.00     0.023 C 
BRANCH   2   3
ATOM      3  C   UNL A   1      34.054  21.698  27.623  1.00  0.00     0.116 C 
BRANCH   3   4
ATOM      4  N   UNL A   1      32.941  22.605  27.727  1.00  0.00    -0.352 N 
ATOM      5  C   UNL A   1      32.007  22.929  26.770  1.00  0.00     0.253 C 
ATOM      6  O   UNL A   1      31.056  23.631  27.121  1.00  0.00    -0.269 OA
ATOM      7  H   UNL A   1      32.833  23.053  28.597  1.00  0.00     0.163 HD
BRANCH   5   8
ATOM      8  C   UNL A   1      32.117  22.573  25.323  1.00  0.00     0.066 A 
ATOM      9  C   UNL A   1      32.367  23.446  24.236  1.00  0.00     0.054 A 
ATOM     10  C   UNL A   1      32.524  22.881  22.949  1.00  0.00     0.030 A 
ATOM     11  C   UNL A   1      32.435  21.507  22.732  1.00  0.00     0.041 A 
ATOM     12  C   UNL A   1      32.042  21.185  25.087  1.00  0.00     0.055 A 
ATOM     13  C   UNL A   1      32.190  20.671  23.806  1.00  0.00     0.124 A 
ATOM     14  F   UNL A   1      32.100  19.350  23.606  1.00  0.00    -0.207 F 
BRANCH   9  15
ATOM     15  N   UNL A   1      32.427  24.832  24.343  1.00  0.00    -0.337 N 
ATOM     16  C   UNL A   1      34.729  25.188  25.276  1.00  0.00     0.032 C 
ATOM     17  C   UNL A   1      33.692  25.600  24.240  1.00  0.00     0.089 C 
ATOM     18  C   UNL A   1      33.307  27.099  24.414  1.00  0.00     0.063 C 
ATOM     19  C   UNL A   1      31.847  27.081  24.103  1.00  0.00    -0.022 A 
ATOM     20  C   UNL A   1      31.405  25.761  24.010  1.00  0.00     0.045 A 
ATOM     21  C   UNL A   1      30.963  28.145  24.025  1.00  0.00     0.006 A 
ATOM     22  C   UNL A   1      30.067  25.482  23.771  1.00  0.00     0.026 A 
ATOM     23  C   UNL A   1      29.610  27.866  23.812  1.00  0.00     0.000 A 
ATOM     24  C   UNL A   1      29.166  26.544  23.672  1.00  0.00     0.002 A 
ENDBRANCH   9  15
ENDBRANCH   5   8
ENDBRANCH   3   4
ENDBRANCH   2   3
ENDBRANCH   1   2
BRANCH   1  25
ATOM     25  C   UNL A   1      36.953  21.742  24.900  1.00  0.00     0.116 C 
BRANCH  25  26
ATOM     26  N   UNL A   1      38.091  20.849  25.076  1.00  0.00    -0.352 N 
ATOM     27  C   UNL A   1      39.228  20.973  25.851  1.00  0.00     0.251 C 
ATOM     28  H   UNL A   1      38.040  20.015  24.554  1.00  0.00     0.163 HD
ATOM     29  O   UNL A   1      40.059  20.078  25.873  1.00  0.00    -0.269 OA
BRANCH  27  30
ATOM     30  C   UNL A   1      39.486  22.232  26.593  1.00  0.00     0.039 A 
ATOM     31  C   UNL A   1      38.876  23.431  26.229  1.00  0.00     0.014 A 
ATOM     32  C   UNL A   1      40.431  22.216  27.622  1.00  0.00     0.014 A 
ATOM     33  C   UNL A   1      39.398  24.635  26.699  1.00  0.00     0.010 A 
ATOM     34  C   UNL A   1      40.888  23.422  28.165  1.00  0.00     0.010 A 
ATOM     35  C   UNL A   1      40.445  24.644  27.636  1.00  0.00    -0.014 A 
BRANCH  35  36
ATOM     36  C   UNL A   1      41.134  25.924  27.962  1.00  0.00     0.031 A 
ATOM     37  C   UNL A   1      42.525  26.192  27.438  1.00  0.00     0.074 A 
ATOM     38  C   UNL A   1      40.488  26.884  28.652  1.00  0.00     0.049 A 
ATOM     39  N   UNL A   1      43.286  27.247  27.606  1.00  0.00    -0.248 NA
ATOM     40  C   UNL A   1      43.149  25.140  26.619  1.00  0.00     0.031 C 
ATOM     41  C   UNL A   1      39.135  26.766  29.194  1.00  0.00     0.029 A 
ATOM     42  N   UNL A   1      40.874  28.157  28.992  1.00  0.00    -0.354 N 
ATOM     43  C   UNL A   1      44.475  26.973  26.942  1.00  0.00     0.074 A 
ATOM     44  C   UNL A   1      44.352  25.644  26.385  1.00  0.00     0.031 C 
ATOM     45  C   UNL A   1      38.784  27.934  29.755  1.00  0.00     0.029 A 
ATOM     46  C   UNL A   1      39.906  28.864  29.661  1.00  0.00     0.049 A 
ATOM     47  H   UNL A   1      41.760  28.528  28.776  1.00  0.00     0.167 HD
ATOM     48  C   UNL A   1      45.567  27.760  26.797  1.00  0.00     0.037 A 
ATOM     49  C   UNL A   1      39.920  30.119  30.153  1.00  0.00     0.037 A 
ATOM     50  C   UNL A   1      45.678  29.103  27.300  1.00  0.00     0.049 A 
ATOM     51  C   UNL A   1      41.152  30.964  29.991  1.00  0.00     0.074 A 
ATOM     52  C   UNL A   1      46.738  29.985  27.174  1.00  0.00     0.029 A 
ATOM     53  N   UNL A   1      44.689  29.762  28.013  1.00  0.00    -0.354 N 
ATOM     54  N   UNL A   1      42.273  30.683  29.374  1.00  0.00    -0.248 NA
ATOM     55  C   UNL A   1      41.125  32.300  30.605  1.00  0.00     0.031 C 
ATOM     56  C   UNL A   1      46.402  31.170  27.836  1.00  0.00     0.029 A 
ATOM     57  C   UNL A   1      45.121  31.037  28.345  1.00  0.00     0.049 A 
ATOM     58  H   UNL A   1      43.812  29.383  28.248  1.00  0.00     0.167 HD
ATOM     59  C   UNL A   1      43.080  31.802  29.520  1.00  0.00     0.074 A 
ATOM     60  C   UNL A   1      42.313  32.779  30.264  1.00  0.00     0.031 C 
ATOM     61  C   UNL A   1      44.347  31.997  29.084  1.00  0.00     0.037 A 
BRANCH  48  62
ATOM     62  C   UNL A   1      46.746  27.205  26.055  1.00  0.00     0.064 A 
ATOM     63  C   UNL A   1      46.957  27.486  24.698  1.00  0.00     0.173 A 
ATOM     64  C   UNL A   1      47.726  26.465  26.735  1.00  0.00     0.173 A 
ATOM     65  F   UNL A   1      46.043  28.179  24.003  1.00  0.00    -0.203 F 
ATOM     66  C   UNL A   1      48.107  27.044  24.047  1.00  0.00     0.198 A 
ATOM     67  C   UNL A   1      48.884  26.044  26.086  1.00  0.00     0.198 A 
ATOM     68  F   UNL A   1      47.573  26.176  28.036  1.00  0.00    -0.203 F 
ATOM     69  F   UNL A   1      48.281  27.310  22.745  1.00  0.00    -0.200 F 
ATOM     70  C   UNL A   1      49.073  26.333  24.743  1.00  0.00     0.200 A 
ATOM     71  F   UNL A   1      49.821  25.367  26.764  1.00  0.00    -0.200 F 
ATOM     72  F   UNL A   1      50.188  25.929  24.120  1.00  0.00    -0.200 F 
ENDBRANCH  48  62
BRANCH  49  73
ATOM     73  C   UNL A   1      38.722  30.646  30.853  1.00  0.00     0.064 A 
ATOM     74  C   UNL A   1      38.597  30.546  32.245  1.00  0.00     0.173 A 
ATOM     75  C   UNL A   1      37.685  31.272  30.146  1.00  0.00     0.173 A 
ATOM     76  F   UNL A   1      39.553  29.934  32.960  1.00  0.00    -0.203 F 
ATOM     77  C   UNL A   1      37.475  31.044  32.902  1.00  0.00     0.198 A 
ATOM     78  C   UNL A   1      36.577  31.794  30.807  1.00  0.00     0.198 A 
ATOM     79  F   UNL A   1      37.760  31.392  28.812  1.00  0.00    -0.203 F 
ATOM     80  F   UNL A   1      37.363  30.905  34.231  1.00  0.00    -0.200 F 
ATOM     81  C   UNL A   1      36.469  31.674  32.184  1.00  0.00     0.200 A 
ATOM     82  F   UNL A   1      35.614  32.413  30.111  1.00  0.00    -0.200 F 
ATOM     83  F   UNL A   1      35.395  32.163  32.819  1.00  0.00    -0.200 F 
ENDBRANCH  49  73
BRANCH  61  84
ATOM     84  C   UNL A   1      44.989  33.315  29.394  1.00  0.00     0.064 A 
ATOM     85  C   UNL A   1      44.830  34.418  28.544  1.00  0.00     0.173 A 
ATOM     86  C   UNL A   1      45.712  33.495  30.582  1.00  0.00     0.173 A 
ATOM     87  F   UNL A   1      44.155  34.289  27.391  1.00  0.00    -0.203 F 
ATOM     88  C   UNL A   1      45.384  35.653  28.866  1.00  0.00     0.198 A 
ATOM     89  C   UNL A   1      46.246  34.737  30.911  1.00  0.00     0.198 A 
ATOM     90  F   UNL A   1      45.885  32.471  31.430  1.00  0.00    -0.203 F 
ATOM     91  F   UNL A   1      45.244  36.688  28.026  1.00  0.00    -0.200 F 
ATOM     92  C   UNL A   1      46.085  35.814  30.052  1.00  0.00     0.200 A 
ATOM     93  F   UNL A   1      46.914  34.894  32.062  1.00  0.00    -0.200 F 
ATOM     94  F   UNL A   1      46.607  37.007  30.366  1.00  0.00    -0.200 F 
ENDBRANCH  61  84
ENDBRANCH  35  36
ENDBRANCH  27  30
ENDBRANCH  25  26
ENDBRANCH   1  25
TORSDOF 12
ENDMDL
