MODEL 1
REMARK VINA RESULT:     -13.3      0.000      0.000
REMARK SMILES O=C(NCCCCNC(=O)c1ccc(-c2c3nc(c(-c4c(F)c(F)c(F)c(F)c4F)c4ccc([nH]4)c(-c4c(F)c(F)c(F)c(F)c4F)c4nc(c(-c5c(F)c(F)c(F)c(F)c5F)c5ccc2[nH]5)C=C4)C=C3)cc1)c1ccc(CNC(=O)c2cccc(NC(=O)C3CC3)c2)cc1
REMARK SMILES IDX 4 1 3 2 1 3 2 4 74 6 75 7 95 8 76 9 94 10 77 11 78 12 79 13
REMARK SMILES IDX 80 14 81 16 82 17 83 18 93 19 84 20 86 21 85 22 87 23 88 24
REMARK SMILES IDX 89 26 90 27 91 28 92 29 5 30 6 31 7 32 8 33 9 34 10 36 11 37
REMARK SMILES IDX 12 38 73 39 13 40 72 41 14 42 15 43 16 44 66 45 17 46 71 47
REMARK SMILES IDX 65 48 67 49 18 50 70 51 64 52 63 53 19 55 51 56 31 57 50 58
REMARK SMILES IDX 32 59 35 60 49 61 68 62 33 63 34 64 48 66 69 67 36 68 20 69
REMARK SMILES IDX 21 70 29 71 22 72 23 73 27 74 30 75 24 76 25 77 28 78 26 79
REMARK SMILES IDX 52 80 53 81 61 82 54 83 55 84 59 85 62 86 56 87 57 88 60 89
REMARK SMILES IDX 58 90 37 91 38 92 46 93 39 94 40 95 44 96 47 97 41 98 42 99
REMARK SMILES IDX 45 100 43 101
REMARK H PARENT 3 5 79 15 87 25 8 35 67 54 35 65
REMARK Flexibility Score: inf
ROOT
ATOM      1  C   UNL A   1      37.406  21.614  24.335  1.00  0.00     0.116 C 
ENDROOT
BRANCH   1   2
ATOM      2  N   UNL A   1      37.735  22.652  25.299  1.00  0.00    -0.352 N 
ATOM      3  O   UNL A   1      37.404  24.543  26.492  1.00  0.00    -0.269 OA
ATOM      4  C   UNL A   1      36.935  23.655  25.789  1.00  0.00     0.251 C 
ATOM      5  H   UNL A   1      38.655  22.634  25.648  1.00  0.00     0.163 HD
BRANCH   4   6
ATOM      6  C   UNL A   1      35.503  23.671  25.431  1.00  0.00     0.039 A 
ATOM      7  C   UNL A   1      34.577  22.923  26.162  1.00  0.00     0.014 A 
ATOM      8  C   UNL A   1      35.097  24.423  24.328  1.00  0.00     0.014 A 
ATOM      9  C   UNL A   1      33.256  22.847  25.729  1.00  0.00     0.006 A 
ATOM     10  C   UNL A   1      33.768  24.362  23.907  1.00  0.00     0.006 A 
ATOM     11  C   UNL A   1      32.844  23.557  24.590  1.00  0.00    -0.029 A 
BRANCH  11  12
ATOM     12  C   UNL A   1      31.410  23.483  24.141  1.00  0.00     0.152 C 
BRANCH  12  13
ATOM     13  N   UNL A   1      30.494  23.784  25.223  1.00  0.00    -0.348 N 
ATOM     14  C   UNL A   1      30.182  24.961  25.849  1.00  0.00     0.251 C 
ATOM     15  H   UNL A   1      30.009  23.002  25.571  1.00  0.00     0.164 HD
ATOM     16  O   UNL A   1      29.472  24.931  26.853  1.00  0.00    -0.269 OA
BRANCH  14  17
ATOM     17  C   UNL A   1      30.710  26.265  25.385  1.00  0.00     0.041 A 
ATOM     18  C   UNL A   1      31.729  26.850  26.140  1.00  0.00     0.014 A 
ATOM     19  C   UNL A   1      30.192  26.949  24.277  1.00  0.00     0.040 A 
ATOM     20  C   UNL A   1      32.245  28.085  25.768  1.00  0.00     0.003 A 
ATOM     21  C   UNL A   1      30.746  28.168  23.856  1.00  0.00     0.041 A 
ATOM     22  C   UNL A   1      31.760  28.733  24.629  1.00  0.00     0.026 A 
BRANCH  21  23
ATOM     23  N   UNL A   1      30.242  28.702  22.654  1.00  0.00    -0.326 N 
ATOM     24  C   UNL A   1      29.358  29.708  22.357  1.00  0.00     0.227 C 
ATOM     25  H   UNL A   1      30.603  28.257  21.854  1.00  0.00     0.169 HD
ATOM     26  O   UNL A   1      29.173  30.011  21.178  1.00  0.00    -0.274 OA
BRANCH  24  27
ATOM     27  C   UNL A   1      28.607  30.410  23.423  1.00  0.00     0.079 C 
ATOM     28  C   UNL A   1      28.965  31.836  23.786  1.00  0.00     0.014 C 
ATOM     29  C   UNL A   1      27.670  31.553  23.095  1.00  0.00     0.014 C 
ENDBRANCH  24  27
ENDBRANCH  21  23
ENDBRANCH  14  17
ENDBRANCH  12  13
ENDBRANCH  11  12
ENDBRANCH   4   6
ENDBRANCH   1   2
BRANCH   1  30
ATOM     30  C   UNL A   1      37.087  20.278  24.997  1.00  0.00     0.023 C 
BRANCH  30  31
ATOM     31  C   UNL A   1      38.251  19.293  25.054  1.00  0.00     0.023 C 
BRANCH  31  32
ATOM     32  C   UNL A   1      39.493  19.800  25.777  1.00  0.00     0.116 C 
BRANCH  32  33
ATOM     33  N   UNL A   1      40.550  18.805  25.867  1.00  0.00    -0.352 N 
ATOM     34  C   UNL A   1      41.896  18.981  26.081  1.00  0.00     0.251 C 
ATOM     35  H   UNL A   1      40.259  17.870  25.758  1.00  0.00     0.163 HD
ATOM     36  O   UNL A   1      42.666  18.030  25.996  1.00  0.00    -0.269 OA
BRANCH  34  37
ATOM     37  C   UNL A   1      42.420  20.330  26.381  1.00  0.00     0.039 A 
ATOM     38  C   UNL A   1      42.972  21.084  25.343  1.00  0.00     0.014 A 
ATOM     39  C   UNL A   1      42.340  20.861  27.670  1.00  0.00     0.014 A 
ATOM     40  C   UNL A   1      43.373  22.400  25.583  1.00  0.00     0.010 A 
ATOM     41  C   UNL A   1      42.656  22.199  27.887  1.00  0.00     0.010 A 
ATOM     42  C   UNL A   1      43.175  22.983  26.845  1.00  0.00    -0.014 A 
BRANCH  42  43
ATOM     43  C   UNL A   1      43.497  24.412  27.094  1.00  0.00     0.031 A 
ATOM     44  C   UNL A   1      44.887  24.929  26.847  1.00  0.00     0.074 A 
ATOM     45  C   UNL A   1      42.554  25.230  27.602  1.00  0.00     0.049 A 
ATOM     46  N   UNL A   1      45.378  26.123  27.067  1.00  0.00    -0.248 NA
ATOM     47  C   UNL A   1      45.862  23.970  26.308  1.00  0.00     0.031 C 
ATOM     48  C   UNL A   1      41.181  24.840  27.929  1.00  0.00     0.029 A 
ATOM     49  N   UNL A   1      42.609  26.560  27.944  1.00  0.00    -0.354 N 
ATOM     50  C   UNL A   1      46.716  26.054  26.701  1.00  0.00     0.074 A 
ATOM     51  C   UNL A   1      46.976  24.687  26.307  1.00  0.00     0.031 C 
ATOM     52  C   UNL A   1      40.519  25.909  28.395  1.00  0.00     0.029 A 
ATOM     53  C   UNL A   1      41.428  27.050  28.445  1.00  0.00     0.049 A 
ATOM     54  H   UNL A   1      43.420  27.109  27.838  1.00  0.00     0.167 HD
ATOM     55  C   UNL A   1      47.638  27.046  26.672  1.00  0.00     0.037 A 
ATOM     56  C   UNL A   1      41.116  28.277  28.905  1.00  0.00     0.037 A 
ATOM     57  C   UNL A   1      47.371  28.409  27.053  1.00  0.00     0.049 A 
ATOM     58  C   UNL A   1      42.167  29.355  28.889  1.00  0.00     0.074 A 
ATOM     59  C   UNL A   1      48.224  29.499  27.011  1.00  0.00     0.029 A 
ATOM     60  N   UNL A   1      46.161  28.868  27.553  1.00  0.00    -0.354 N 
ATOM     61  N   UNL A   1      43.410  29.294  28.476  1.00  0.00    -0.248 NA
ATOM     62  C   UNL A   1      41.769  30.675  29.398  1.00  0.00     0.031 C 
ATOM     63  C   UNL A   1      47.548  30.603  27.541  1.00  0.00     0.029 A 
ATOM     64  C   UNL A   1      46.253  30.219  27.850  1.00  0.00     0.049 A 
ATOM     65  H   UNL A   1      45.356  28.315  27.678  1.00  0.00     0.167 HD
ATOM     66  C   UNL A   1      43.932  30.571  28.644  1.00  0.00     0.074 A 
ATOM     67  C   UNL A   1      42.864  31.389  29.182  1.00  0.00     0.031 C 
ATOM     68  C   UNL A   1      45.181  31.024  28.377  1.00  0.00     0.037 A 
BRANCH  55  69
ATOM     69  C   UNL A   1      49.024  26.694  26.213  1.00  0.00     0.064 A 
ATOM     70  C   UNL A   1      49.441  26.913  24.891  1.00  0.00     0.173 A 
ATOM     71  C   UNL A   1      49.960  26.163  27.113  1.00  0.00     0.173 A 
ATOM     72  F   UNL A   1      48.584  27.409  23.985  1.00  0.00    -0.203 F 
ATOM     73  C   UNL A   1      50.730  26.584  24.480  1.00  0.00     0.198 A 
ATOM     74  C   UNL A   1      51.259  25.868  26.708  1.00  0.00     0.198 A 
ATOM     75  F   UNL A   1      49.619  25.938  28.391  1.00  0.00    -0.203 F 
ATOM     76  F   UNL A   1      51.086  26.751  23.199  1.00  0.00    -0.200 F 
ATOM     77  C   UNL A   1      51.641  26.070  25.390  1.00  0.00     0.200 A 
ATOM     78  F   UNL A   1      52.143  25.386  27.593  1.00  0.00    -0.200 F 
ATOM     79  F   UNL A   1      52.884  25.761  24.995  1.00  0.00    -0.200 F 
ENDBRANCH  55  69
BRANCH  56  80
ATOM     80  C   UNL A   1      39.744  28.560  29.400  1.00  0.00     0.064 A 
ATOM     81  C   UNL A   1      38.762  29.083  28.546  1.00  0.00     0.173 A 
ATOM     82  C   UNL A   1      39.384  28.326  30.737  1.00  0.00     0.173 A 
ATOM     83  F   UNL A   1      39.061  29.343  27.264  1.00  0.00    -0.203 F 
ATOM     84  C   UNL A   1      37.484  29.383  29.013  1.00  0.00     0.198 A 
ATOM     85  C   UNL A   1      38.097  28.597  31.195  1.00  0.00     0.198 A 
ATOM     86  F   UNL A   1      40.284  27.824  31.596  1.00  0.00    -0.203 F 
ATOM     87  F   UNL A   1      36.583  29.930  28.186  1.00  0.00    -0.200 F 
ATOM     88  C   UNL A   1      37.151  29.134  30.335  1.00  0.00     0.200 A 
ATOM     89  F   UNL A   1      37.774  28.339  32.469  1.00  0.00    -0.200 F 
ATOM     90  F   UNL A   1      35.921  29.419  30.784  1.00  0.00    -0.200 F 
ENDBRANCH  56  80
BRANCH  68  91
ATOM     91  C   UNL A   1      45.454  32.483  28.619  1.00  0.00     0.064 A 
ATOM     92  C   UNL A   1      45.964  32.948  29.840  1.00  0.00     0.173 A 
ATOM     93  C   UNL A   1      45.240  33.421  27.597  1.00  0.00     0.173 A 
ATOM     94  F   UNL A   1      46.173  32.095  30.854  1.00  0.00    -0.203 F 
ATOM     95  C   UNL A   1      46.220  34.303  30.039  1.00  0.00     0.198 A 
ATOM     96  C   UNL A   1      45.532  34.769  27.788  1.00  0.00     0.198 A 
ATOM     97  F   UNL A   1      44.761  33.028  26.407  1.00  0.00    -0.203 F 
ATOM     98  F   UNL A   1      46.655  34.732  31.232  1.00  0.00    -0.200 F 
ATOM     99  C   UNL A   1      46.013  35.210  29.010  1.00  0.00     0.200 A 
ATOM    100  F   UNL A   1      45.347  35.640  26.786  1.00  0.00    -0.200 F 
ATOM    101  F   UNL A   1      46.270  36.511  29.200  1.00  0.00    -0.200 F 
ENDBRANCH  68  91
ENDBRANCH  42  43
ENDBRANCH  34  37
ENDBRANCH  32  33
ENDBRANCH  31  32
ENDBRANCH  30  31
ENDBRANCH   1  30
TORSDOF 16
ENDMDL
MODEL 2
REMARK VINA RESULT:     -13.2      5.419     10.450
REMARK SMILES O=C(NCCCCNC(=O)c1ccc(-c2c3nc(c(-c4c(F)c(F)c(F)c(F)c4F)c4ccc([nH]4)c(-c4c(F)c(F)c(F)c(F)c4F)c4nc(c(-c5c(F)c(F)c(F)c(F)c5F)c5ccc2[nH]5)C=C4)C=C3)cc1)c1ccc(CNC(=O)c2cccc(NC(=O)C3CC3)c2)cc1
REMARK SMILES IDX 4 1 3 2 1 3 2 4 74 6 75 7 95 8 76 9 94 10 77 11 78 12 79 13
REMARK SMILES IDX 80 14 81 16 82 17 83 18 93 19 84 20 86 21 85 22 87 23 88 24
REMARK SMILES IDX 89 26 90 27 91 28 92 29 5 30 6 31 7 32 8 33 9 34 10 36 11 37
REMARK SMILES IDX 12 38 73 39 13 40 72 41 14 42 15 43 16 44 66 45 17 46 71 47
REMARK SMILES IDX 65 48 67 49 18 50 70 51 64 52 63 53 19 55 51 56 31 57 50 58
REMARK SMILES IDX 32 59 35 60 49 61 68 62 33 63 34 64 48 66 69 67 36 68 20 69
REMARK SMILES IDX 21 70 29 71 22 72 23 73 27 74 30 75 24 76 25 77 28 78 26 79
REMARK SMILES IDX 52 80 53 81 61 82 54 83 55 84 59 85 62 86 56 87 57 88 60 89
REMARK SMILES IDX 58 90 37 91 38 92 46 93 39 94 40 95 44 96 47 97 41 98 42 99
REMARK SMILES IDX 45 100 43 101
REMARK H PARENT 3 5 79 15 87 25 8 35 67 54 35 65
REMARK Flexibility Score: inf
ROOT
ATOM      1  C   UNL A   1      31.938  29.693  25.620  1.00  0.00     0.116 C 
ENDROOT
BRANCH   1   2
ATOM      2  N   UNL A   1      30.934  30.196  24.696  1.00  0.00    -0.352 N 
ATOM      3  O   UNL A   1      29.604  30.157  22.868  1.00  0.00    -0.269 OA
ATOM      4  C   UNL A   1      30.329  29.548  23.646  1.00  0.00     0.251 C 
ATOM      5  H   UNL A   1      30.649  31.127  24.841  1.00  0.00     0.163 HD
BRANCH   4   6
ATOM      6  C   UNL A   1      30.590  28.109  23.444  1.00  0.00     0.039 A 
ATOM      7  C   UNL A   1      29.831  27.147  24.115  1.00  0.00     0.014 A 
ATOM      8  C   UNL A   1      31.631  27.730  22.597  1.00  0.00     0.014 A 
ATOM      9  C   UNL A   1      30.177  25.802  24.013  1.00  0.00     0.006 A 
ATOM     10  C   UNL A   1      31.964  26.380  22.480  1.00  0.00     0.006 A 
ATOM     11  C   UNL A   1      31.255  25.409  23.204  1.00  0.00    -0.029 A 
BRANCH  11  12
ATOM     12  C   UNL A   1      31.610  23.952  23.087  1.00  0.00     0.152 C 
BRANCH  12  13
ATOM     13  N   UNL A   1      32.953  23.768  22.576  1.00  0.00    -0.348 N 
ATOM     14  C   UNL A   1      34.078  23.236  23.146  1.00  0.00     0.251 C 
ATOM     15  H   UNL A   1      33.081  24.082  21.651  1.00  0.00     0.164 HD
ATOM     16  O   UNL A   1      35.149  23.328  22.549  1.00  0.00    -0.269 OA
BRANCH  14  17
ATOM     17  C   UNL A   1      34.057  22.594  24.481  1.00  0.00     0.041 A 
ATOM     18  C   UNL A   1      34.662  23.284  25.534  1.00  0.00     0.014 A 
ATOM     19  C   UNL A   1      33.520  21.319  24.709  1.00  0.00     0.040 A 
ATOM     20  C   UNL A   1      34.695  22.719  26.803  1.00  0.00     0.003 A 
ATOM     21  C   UNL A   1      33.495  20.765  25.997  1.00  0.00     0.041 A 
ATOM     22  C   UNL A   1      34.109  21.472  27.031  1.00  0.00     0.026 A 
BRANCH  21  23
ATOM     23  N   UNL A   1      32.812  19.541  26.138  1.00  0.00    -0.326 N 
ATOM     24  C   UNL A   1      32.859  18.343  25.471  1.00  0.00     0.227 C 
ATOM     25  H   UNL A   1      32.160  19.546  26.876  1.00  0.00     0.169 HD
ATOM     26  O   UNL A   1      32.184  17.401  25.888  1.00  0.00    -0.274 OA
BRANCH  24  27
ATOM     27  C   UNL A   1      33.681  18.177  24.250  1.00  0.00     0.079 C 
ATOM     28  C   UNL A   1      35.075  17.593  24.352  1.00  0.00     0.014 C 
ATOM     29  C   UNL A   1      33.989  16.800  23.699  1.00  0.00     0.014 C 
ENDBRANCH  24  27
ENDBRANCH  21  23
ENDBRANCH  14  17
ENDBRANCH  12  13
ENDBRANCH  11  12
ENDBRANCH   4   6
ENDBRANCH   1   2
BRANCH   1  30
ATOM     30  C   UNL A   1      31.949  30.450  26.943  1.00  0.00     0.023 C 
BRANCH  30  31
ATOM     31  C   UNL A   1      31.692  31.950  26.830  1.00  0.00     0.023 C 
BRANCH  31  32
ATOM     32  C   UNL A   1      32.881  32.838  27.175  1.00  0.00     0.116 C 
BRANCH  32  33
ATOM     33  N   UNL A   1      32.495  34.176  27.595  1.00  0.00    -0.352 N 
ATOM     34  C   UNL A   1      33.002  34.950  28.610  1.00  0.00     0.251 C 
ATOM     35  H   UNL A   1      31.763  34.585  27.078  1.00  0.00     0.163 HD
ATOM     36  O   UNL A   1      32.464  36.011  28.909  1.00  0.00    -0.269 OA
BRANCH  34  37
ATOM     37  C   UNL A   1      34.183  34.484  29.368  1.00  0.00     0.039 A 
ATOM     38  C   UNL A   1      33.990  33.881  30.613  1.00  0.00     0.014 A 
ATOM     39  C   UNL A   1      35.470  34.612  28.841  1.00  0.00     0.014 A 
ATOM     40  C   UNL A   1      35.081  33.338  31.293  1.00  0.00     0.010 A 
ATOM     41  C   UNL A   1      36.541  33.991  29.476  1.00  0.00     0.010 A 
ATOM     42  C   UNL A   1      36.358  33.347  30.709  1.00  0.00    -0.014 A 
BRANCH  42  43
ATOM     43  C   UNL A   1      37.512  32.682  31.368  1.00  0.00     0.031 A 
ATOM     44  C   UNL A   1      38.191  31.514  30.709  1.00  0.00     0.074 A 
ATOM     45  C   UNL A   1      37.909  33.091  32.589  1.00  0.00     0.049 A 
ATOM     46  N   UNL A   1      39.167  30.763  31.155  1.00  0.00    -0.248 NA
ATOM     47  C   UNL A   1      37.688  31.119  29.385  1.00  0.00     0.031 C 
ATOM     48  C   UNL A   1      37.304  34.183  33.355  1.00  0.00     0.029 A 
ATOM     49  N   UNL A   1      38.911  32.629  33.409  1.00  0.00    -0.354 N 
ATOM     50  C   UNL A   1      39.385  29.806  30.173  1.00  0.00     0.074 A 
ATOM     51  C   UNL A   1      38.401  30.031  29.137  1.00  0.00     0.031 C 
ATOM     52  C   UNL A   1      37.963  34.324  34.516  1.00  0.00     0.029 A 
ATOM     53  C   UNL A   1      39.006  33.307  34.600  1.00  0.00     0.049 A 
ATOM     54  H   UNL A   1      39.505  31.883  33.164  1.00  0.00     0.167 HD
ATOM     55  C   UNL A   1      40.339  28.844  30.126  1.00  0.00     0.037 A 
ATOM     56  C   UNL A   1      39.833  33.121  35.646  1.00  0.00     0.037 A 
ATOM     57  C   UNL A   1      41.325  28.633  31.153  1.00  0.00     0.049 A 
ATOM     58  C   UNL A   1      40.864  32.026  35.582  1.00  0.00     0.074 A 
ATOM     59  C   UNL A   1      42.363  27.717  31.176  1.00  0.00     0.029 A 
ATOM     60  N   UNL A   1      41.392  29.341  32.344  1.00  0.00    -0.354 N 
ATOM     61  N   UNL A   1      41.106  31.172  34.617  1.00  0.00    -0.248 NA
ATOM     62  C   UNL A   1      41.741  31.874  36.751  1.00  0.00     0.031 C 
ATOM     63  C   UNL A   1      43.021  27.833  32.405  1.00  0.00     0.029 A 
ATOM     64  C   UNL A   1      42.436  28.865  33.120  1.00  0.00     0.049 A 
ATOM     65  H   UNL A   1      40.786  30.075  32.599  1.00  0.00     0.167 HD
ATOM     66  C   UNL A   1      42.182  30.404  35.047  1.00  0.00     0.074 A 
ATOM     67  C   UNL A   1      42.554  30.905  36.354  1.00  0.00     0.031 C 
ATOM     68  C   UNL A   1      42.803  29.378  34.416  1.00  0.00     0.037 A 
BRANCH  55  69
ATOM     69  C   UNL A   1      40.359  27.945  28.922  1.00  0.00     0.064 A 
ATOM     70  C   UNL A   1      41.101  28.265  27.775  1.00  0.00     0.173 A 
ATOM     71  C   UNL A   1      39.658  26.730  28.928  1.00  0.00     0.173 A 
ATOM     72  F   UNL A   1      41.782  29.420  27.711  1.00  0.00    -0.203 F 
ATOM     73  C   UNL A   1      41.113  27.420  26.668  1.00  0.00     0.198 A 
ATOM     74  C   UNL A   1      39.701  25.870  27.833  1.00  0.00     0.198 A 
ATOM     75  F   UNL A   1      38.936  26.369  30.001  1.00  0.00    -0.203 F 
ATOM     76  F   UNL A   1      41.784  27.776  25.564  1.00  0.00    -0.200 F 
ATOM     77  C   UNL A   1      40.420  26.220  26.701  1.00  0.00     0.200 A 
ATOM     78  F   UNL A   1      39.043  24.703  27.874  1.00  0.00    -0.200 F 
ATOM     79  F   UNL A   1      40.440  25.404  25.638  1.00  0.00    -0.200 F 
ENDBRANCH  55  69
BRANCH  56  80
ATOM     80  C   UNL A   1      39.735  34.004  36.838  1.00  0.00     0.064 A 
ATOM     81  C   UNL A   1      40.468  35.198  36.913  1.00  0.00     0.173 A 
ATOM     82  C   UNL A   1      38.919  33.673  37.931  1.00  0.00     0.173 A 
ATOM     83  F   UNL A   1      41.278  35.549  35.903  1.00  0.00    -0.203 F 
ATOM     84  C   UNL A   1      40.407  36.012  38.042  1.00  0.00     0.198 A 
ATOM     85  C   UNL A   1      38.834  34.504  39.046  1.00  0.00     0.198 A 
ATOM     86  F   UNL A   1      38.194  32.545  37.909  1.00  0.00    -0.203 F 
ATOM     87  F   UNL A   1      41.159  37.120  38.107  1.00  0.00    -0.200 F 
ATOM     88  C   UNL A   1      39.586  35.668  39.105  1.00  0.00     0.200 A 
ATOM     89  F   UNL A   1      38.027  34.176  40.063  1.00  0.00    -0.200 F 
ATOM     90  F   UNL A   1      39.525  36.453  40.189  1.00  0.00    -0.200 F 
ENDBRANCH  56  80
BRANCH  68  91
ATOM     91  C   UNL A   1      43.982  28.753  35.109  1.00  0.00     0.064 A 
ATOM     92  C   UNL A   1      45.290  29.220  34.911  1.00  0.00     0.173 A 
ATOM     93  C   UNL A   1      43.791  27.699  36.016  1.00  0.00     0.173 A 
ATOM     94  F   UNL A   1      45.529  30.216  34.045  1.00  0.00    -0.203 F 
ATOM     95  C   UNL A   1      46.366  28.633  35.573  1.00  0.00     0.198 A 
ATOM     96  C   UNL A   1      44.865  27.139  36.702  1.00  0.00     0.198 A 
ATOM     97  F   UNL A   1      42.560  27.219  36.247  1.00  0.00    -0.203 F 
ATOM     98  F   UNL A   1      47.613  29.059  35.327  1.00  0.00    -0.200 F 
ATOM     99  C   UNL A   1      46.152  27.601  36.474  1.00  0.00     0.200 A 
ATOM    100  F   UNL A   1      44.654  26.154  37.585  1.00  0.00    -0.200 F 
ATOM    101  F   UNL A   1      47.188  27.045  37.117  1.00  0.00    -0.200 F 
ENDBRANCH  68  91
ENDBRANCH  42  43
ENDBRANCH  34  37
ENDBRANCH  32  33
ENDBRANCH  31  32
ENDBRANCH  30  31
ENDBRANCH   1  30
TORSDOF 16
ENDMDL
MODEL 3
REMARK VINA RESULT:     -12.9      3.522      9.114
REMARK SMILES O=C(NCCCCNC(=O)c1ccc(-c2c3nc(c(-c4c(F)c(F)c(F)c(F)c4F)c4ccc([nH]4)c(-c4c(F)c(F)c(F)c(F)c4F)c4nc(c(-c5c(F)c(F)c(F)c(F)c5F)c5ccc2[nH]5)C=C4)C=C3)cc1)c1ccc(CNC(=O)c2cccc(NC(=O)C3CC3)c2)cc1
REMARK SMILES IDX 4 1 3 2 1 3 2 4 74 6 75 7 95 8 76 9 94 10 77 11 78 12 79 13
REMARK SMILES IDX 80 14 81 16 82 17 83 18 93 19 84 20 86 21 85 22 87 23 88 24
REMARK SMILES IDX 89 26 90 27 91 28 92 29 5 30 6 31 7 32 8 33 9 34 10 36 11 37
REMARK SMILES IDX 12 38 73 39 13 40 72 41 14 42 15 43 16 44 66 45 17 46 71 47
REMARK SMILES IDX 65 48 67 49 18 50 70 51 64 52 63 53 19 55 51 56 31 57 50 58
REMARK SMILES IDX 32 59 35 60 49 61 68 62 33 63 34 64 48 66 69 67 36 68 20 69
REMARK SMILES IDX 21 70 29 71 22 72 23 73 27 74 30 75 24 76 25 77 28 78 26 79
REMARK SMILES IDX 52 80 53 81 61 82 54 83 55 84 59 85 62 86 56 87 57 88 60 89
REMARK SMILES IDX 58 90 37 91 38 92 46 93 39 94 40 95 44 96 47 97 41 98 42 99
REMARK SMILES IDX 45 100 43 101
REMARK H PARENT 3 5 79 15 87 25 8 35 67 54 35 65
REMARK Flexibility Score: inf
ROOT
ATOM      1  C   UNL A   1      33.254  28.952  23.290  1.00  0.00     0.116 C 
ENDROOT
BRANCH   1   2
ATOM      2  N   UNL A   1      32.024  29.376  22.640  1.00  0.00    -0.352 N 
ATOM      3  O   UNL A   1      29.978  29.110  21.716  1.00  0.00    -0.269 OA
ATOM      4  C   UNL A   1      30.881  28.651  22.407  1.00  0.00     0.251 C 
ATOM      5  H   UNL A   1      32.007  30.308  22.325  1.00  0.00     0.163 HD
BRANCH   4   6
ATOM      6  C   UNL A   1      30.764  27.292  22.972  1.00  0.00     0.039 A 
ATOM      7  C   UNL A   1      30.089  27.077  24.176  1.00  0.00     0.014 A 
ATOM      8  C   UNL A   1      31.370  26.232  22.298  1.00  0.00     0.014 A 
ATOM      9  C   UNL A   1      30.103  25.812  24.758  1.00  0.00     0.006 A 
ATOM     10  C   UNL A   1      31.366  24.961  22.872  1.00  0.00     0.006 A 
ATOM     11  C   UNL A   1      30.753  24.746  24.116  1.00  0.00    -0.029 A 
BRANCH  11  12
ATOM     12  C   UNL A   1      30.748  23.379  24.744  1.00  0.00     0.152 C 
BRANCH  12  13
ATOM     13  N   UNL A   1      31.129  23.430  26.141  1.00  0.00    -0.348 N 
ATOM     14  C   UNL A   1      32.294  23.099  26.778  1.00  0.00     0.251 C 
ATOM     15  H   UNL A   1      30.423  23.765  26.741  1.00  0.00     0.164 HD
ATOM     16  O   UNL A   1      32.321  23.094  28.007  1.00  0.00    -0.269 OA
BRANCH  14  17
ATOM     17  C   UNL A   1      33.513  22.700  26.036  1.00  0.00     0.041 A 
ATOM     18  C   UNL A   1      34.311  23.722  25.517  1.00  0.00     0.014 A 
ATOM     19  C   UNL A   1      33.853  21.364  25.786  1.00  0.00     0.040 A 
ATOM     20  C   UNL A   1      35.452  23.407  24.789  1.00  0.00     0.003 A 
ATOM     21  C   UNL A   1      35.035  21.033  25.104  1.00  0.00     0.041 A 
ATOM     22  C   UNL A   1      35.812  22.072  24.593  1.00  0.00     0.026 A 
BRANCH  21  23
ATOM     23  N   UNL A   1      35.350  19.663  25.027  1.00  0.00    -0.326 N 
ATOM     24  C   UNL A   1      34.678  18.557  24.570  1.00  0.00     0.227 C 
ATOM     25  H   UNL A   1      36.246  19.453  25.376  1.00  0.00     0.169 HD
ATOM     26  O   UNL A   1      35.259  17.471  24.553  1.00  0.00    -0.274 OA
BRANCH  24  27
ATOM     27  C   UNL A   1      33.267  18.644  24.129  1.00  0.00     0.079 C 
ATOM     28  C   UNL A   1      32.802  17.851  22.924  1.00  0.00     0.014 C 
ATOM     29  C   UNL A   1      32.326  17.469  24.289  1.00  0.00     0.014 C 
ENDBRANCH  24  27
ENDBRANCH  21  23
ENDBRANCH  14  17
ENDBRANCH  12  13
ENDBRANCH  11  12
ENDBRANCH   4   6
ENDBRANCH   1   2
BRANCH   1  30
ATOM     30  C   UNL A   1      33.269  29.267  24.781  1.00  0.00     0.023 C 
BRANCH  30  31
ATOM     31  C   UNL A   1      33.495  28.064  25.692  1.00  0.00     0.023 C 
BRANCH  31  32
ATOM     32  C   UNL A   1      33.545  28.380  27.181  1.00  0.00     0.116 C 
BRANCH  32  33
ATOM     33  N   UNL A   1      33.506  29.806  27.466  1.00  0.00    -0.352 N 
ATOM     34  C   UNL A   1      34.475  30.611  28.015  1.00  0.00     0.251 C 
ATOM     35  H   UNL A   1      32.664  30.260  27.233  1.00  0.00     0.163 HD
ATOM     36  O   UNL A   1      34.221  31.775  28.307  1.00  0.00    -0.269 OA
BRANCH  34  37
ATOM     37  C   UNL A   1      35.819  30.059  28.288  1.00  0.00     0.039 A 
ATOM     38  C   UNL A   1      36.799  30.150  27.297  1.00  0.00     0.014 A 
ATOM     39  C   UNL A   1      36.121  29.483  29.524  1.00  0.00     0.014 A 
ATOM     40  C   UNL A   1      38.102  29.734  27.574  1.00  0.00     0.010 A 
ATOM     41  C   UNL A   1      37.438  29.152  29.829  1.00  0.00     0.010 A 
ATOM     42  C   UNL A   1      38.443  29.275  28.857  1.00  0.00    -0.014 A 
BRANCH  42  43
ATOM     43  C   UNL A   1      39.845  28.925  29.204  1.00  0.00     0.031 A 
ATOM     44  C   UNL A   1      40.686  29.876  30.008  1.00  0.00     0.074 A 
ATOM     45  C   UNL A   1      40.381  27.779  28.741  1.00  0.00     0.049 A 
ATOM     46  N   UNL A   1      41.946  29.781  30.353  1.00  0.00    -0.248 NA
ATOM     47  C   UNL A   1      40.033  31.113  30.463  1.00  0.00     0.031 C 
ATOM     48  C   UNL A   1      39.684  26.793  27.912  1.00  0.00     0.029 A 
ATOM     49  N   UNL A   1      41.640  27.251  28.892  1.00  0.00    -0.354 N 
ATOM     50  C   UNL A   1      42.234  30.944  31.054  1.00  0.00     0.074 A 
ATOM     51  C   UNL A   1      41.040  31.759  31.031  1.00  0.00     0.031 C 
ATOM     52  C   UNL A   1      40.514  25.771  27.652  1.00  0.00     0.029 A 
ATOM     53  C   UNL A   1      41.814  26.047  28.254  1.00  0.00     0.049 A 
ATOM     54  H   UNL A   1      42.351  27.696  29.409  1.00  0.00     0.167 HD
ATOM     55  C   UNL A   1      43.384  31.291  31.683  1.00  0.00     0.037 A 
ATOM     56  C   UNL A   1      42.902  25.259  28.158  1.00  0.00     0.037 A 
ATOM     57  C   UNL A   1      44.567  30.470  31.714  1.00  0.00     0.049 A 
ATOM     58  C   UNL A   1      44.177  25.681  28.841  1.00  0.00     0.074 A 
ATOM     59  C   UNL A   1      45.764  30.709  32.366  1.00  0.00     0.029 A 
ATOM     60  N   UNL A   1      44.704  29.254  31.060  1.00  0.00    -0.354 N 
ATOM     61  N   UNL A   1      44.417  26.751  29.559  1.00  0.00    -0.248 NA
ATOM     62  C   UNL A   1      45.329  24.780  28.704  1.00  0.00     0.031 C 
ATOM     63  C   UNL A   1      46.645  29.667  32.057  1.00  0.00     0.029 A 
ATOM     64  C   UNL A   1      45.975  28.745  31.269  1.00  0.00     0.049 A 
ATOM     65  H   UNL A   1      44.001  28.818  30.526  1.00  0.00     0.167 HD
ATOM     66  C   UNL A   1      45.734  26.637  29.986  1.00  0.00     0.074 A 
ATOM     67  C   UNL A   1      46.235  25.385  29.459  1.00  0.00     0.031 C 
ATOM     68  C   UNL A   1      46.461  27.493  30.746  1.00  0.00     0.037 A 
BRANCH  55  69
ATOM     69  C   UNL A   1      43.418  32.616  32.388  1.00  0.00     0.064 A 
ATOM     70  C   UNL A   1      43.805  33.792  31.729  1.00  0.00     0.173 A 
ATOM     71  C   UNL A   1      43.023  32.719  33.731  1.00  0.00     0.173 A 
ATOM     72  F   UNL A   1      44.203  33.750  30.448  1.00  0.00    -0.203 F 
ATOM     73  C   UNL A   1      43.829  35.015  32.396  1.00  0.00     0.198 A 
ATOM     74  C   UNL A   1      43.013  33.949  34.384  1.00  0.00     0.198 A 
ATOM     75  F   UNL A   1      42.636  31.628  34.410  1.00  0.00    -0.203 F 
ATOM     76  F   UNL A   1      44.257  36.115  31.760  1.00  0.00    -0.200 F 
ATOM     77  C   UNL A   1      43.424  35.094  33.720  1.00  0.00     0.200 A 
ATOM     78  F   UNL A   1      42.607  34.026  35.660  1.00  0.00    -0.200 F 
ATOM     79  F   UNL A   1      43.440  36.273  34.357  1.00  0.00    -0.200 F 
ENDBRANCH  55  69
BRANCH  56  80
ATOM     80  C   UNL A   1      42.832  23.982  27.401  1.00  0.00     0.064 A 
ATOM     81  C   UNL A   1      42.405  22.799  28.021  1.00  0.00     0.173 A 
ATOM     82  C   UNL A   1      43.199  23.910  26.048  1.00  0.00     0.173 A 
ATOM     83  F   UNL A   1      42.062  22.810  29.318  1.00  0.00    -0.203 F 
ATOM     84  C   UNL A   1      42.370  21.592  27.326  1.00  0.00     0.198 A 
ATOM     85  C   UNL A   1      43.134  22.710  25.345  1.00  0.00     0.198 A 
ATOM     86  F   UNL A   1      43.612  25.013  25.405  1.00  0.00    -0.203 F 
ATOM     87  F   UNL A   1      42.007  20.468  27.959  1.00  0.00    -0.200 F 
ATOM     88  C   UNL A   1      42.729  21.549  25.988  1.00  0.00     0.200 A 
ATOM     89  F   UNL A   1      43.465  22.676  24.048  1.00  0.00    -0.200 F 
ATOM     90  F   UNL A   1      42.692  20.389  25.318  1.00  0.00    -0.200 F 
ENDBRANCH  56  80
BRANCH  68  91
ATOM     91  C   UNL A   1      47.865  27.085  31.094  1.00  0.00     0.064 A 
ATOM     92  C   UNL A   1      48.147  26.262  32.193  1.00  0.00     0.173 A 
ATOM     93  C   UNL A   1      48.939  27.493  30.287  1.00  0.00     0.173 A 
ATOM     94  F   UNL A   1      47.159  25.855  33.004  1.00  0.00    -0.203 F 
ATOM     95  C   UNL A   1      49.456  25.886  32.490  1.00  0.00     0.198 A 
ATOM     96  C   UNL A   1      50.241  27.087  30.566  1.00  0.00     0.198 A 
ATOM     97  F   UNL A   1      48.725  28.276  29.219  1.00  0.00    -0.203 F 
ATOM     98  F   UNL A   1      49.707  25.144  33.577  1.00  0.00    -0.200 F 
ATOM     99  C   UNL A   1      50.499  26.292  31.671  1.00  0.00     0.200 A 
ATOM    100  F   UNL A   1      51.246  27.465  29.764  1.00  0.00    -0.200 F 
ATOM    101  F   UNL A   1      51.756  25.921  31.953  1.00  0.00    -0.200 F 
ENDBRANCH  68  91
ENDBRANCH  42  43
ENDBRANCH  34  37
ENDBRANCH  32  33
ENDBRANCH  31  32
ENDBRANCH  30  31
ENDBRANCH   1  30
TORSDOF 16
ENDMDL
