MODEL 1
REMARK VINA RESULT:     -13.7      0.000      0.000
REMARK SMILES COc1ccc2c(c1)C(=O)N(c1ccccc1C(=O)NCCCCNC(=O)c1ccc(-c3c4nc(c(-c5c(F)c(F)c(F)c(F)c5F)c5ccc([nH]5)c(-c5c(F)c(F)c(F)c(F)c5F)c5nc(c(-c6c(F)c(F)c(F)c(F)c6F)c6ccc3[nH]6)C=C5)C=C4)cc1)C2=O
REMARK SMILES IDX 22 1 21 2 20 3 18 4 19 5 17 7 12 8 13 9 14 10 16 11 15 12
REMARK SMILES IDX 11 13 3 14 4 15 8 16 5 17 7 18 6 19 9 20 91 21 10 22 92 23
REMARK SMILES IDX 2 24 1 25 23 26 24 27 25 28 26 29 27 31 28 32 29 33 90 34
REMARK SMILES IDX 30 35 89 36 31 37 32 38 33 39 83 40 34 41 88 42 82 43 84 44
REMARK SMILES IDX 35 45 87 46 81 47 80 48 36 50 68 51 48 52 67 53 49 54 52 55
REMARK SMILES IDX 66 56 85 57 50 58 51 59 65 61 86 62 53 63 37 64 38 65 46 66
REMARK SMILES IDX 39 67 40 68 44 69 47 70 41 71 42 72 45 73 43 74 69 75 70 76
REMARK SMILES IDX 78 77 71 78 72 79 76 80 79 81 73 82 74 83 77 84 75 85 54 86
REMARK SMILES IDX 55 87 63 88 56 89 57 90 61 91 64 92 58 93 59 94 62 95 60 96
REMARK H PARENT 20 6 25 30 84 49 52 60
REMARK Flexibility Score: inf
ROOT
ATOM      1  C   UNL A   1      33.502  28.899  24.318  1.00  0.00     0.023 C 
ENDROOT
BRANCH   1   2
ATOM      2  C   UNL A   1      33.501  29.098  22.808  1.00  0.00     0.116 C 
BRANCH   2   3
ATOM      3  N   UNL A   1      33.662  27.914  22.003  1.00  0.00    -0.352 N 
ATOM      4  C   UNL A   1      32.946  26.737  21.968  1.00  0.00     0.253 C 
ATOM      5  O   UNL A   1      33.283  25.912  21.115  1.00  0.00    -0.269 OA
ATOM      6  H   UNL A   1      34.413  27.953  21.367  1.00  0.00     0.163 HD
BRANCH   4   7
ATOM      7  C   UNL A   1      31.902  26.336  22.966  1.00  0.00     0.064 A 
ATOM      8  C   UNL A   1      31.987  25.397  24.012  1.00  0.00     0.065 A 
ATOM      9  C   UNL A   1      30.827  25.104  24.768  1.00  0.00     0.028 A 
ATOM     10  C   UNL A   1      29.616  25.754  24.541  1.00  0.00     0.002 A 
ATOM     11  C   UNL A   1      30.659  26.986  22.758  1.00  0.00     0.016 A 
ATOM     12  C   UNL A   1      29.533  26.704  23.537  1.00  0.00     0.001 A 
BRANCH   8  13
ATOM     13  N   UNL A   1      33.155  24.702  24.390  1.00  0.00    -0.241 N 
ATOM     14  C   UNL A   1      37.298  23.151  25.586  1.00  0.00     0.119 A 
ATOM     15  C   UNL A   1      37.004  22.251  24.534  1.00  0.00     0.047 A 
ATOM     16  C   UNL A   1      36.356  24.103  25.986  1.00  0.00     0.061 A 
ATOM     17  C   UNL A   1      35.772  22.268  23.881  1.00  0.00     0.018 A 
ATOM     18  C   UNL A   1      35.148  24.117  25.311  1.00  0.00     0.057 A 
ATOM     19  C   UNL A   1      34.860  23.207  24.311  1.00  0.00     0.053 A 
ATOM     20  C   UNL A   1      34.047  25.088  25.359  1.00  0.00     0.266 C 
ATOM     21  C   UNL A   1      33.556  23.545  23.758  1.00  0.00     0.266 C 
ATOM     22  O   UNL A   1      34.025  26.029  26.130  1.00  0.00    -0.268 OA
ATOM     23  O   UNL A   1      33.051  22.926  22.840  1.00  0.00    -0.268 OA
BRANCH  14  24
ATOM     24  O   UNL A   1      38.558  23.007  26.094  1.00  0.00    -0.497 OA
ATOM     25  C   UNL A   1      39.112  21.702  26.124  1.00  0.00     0.278 C 
ENDBRANCH  14  24
ENDBRANCH   8  13
ENDBRANCH   4   7
ENDBRANCH   2   3
ENDBRANCH   1   2
BRANCH   1  26
ATOM     26  C   UNL A   1      32.293  29.430  25.091  1.00  0.00     0.023 C 
BRANCH  26  27
ATOM     27  C   UNL A   1      32.448  29.668  26.594  1.00  0.00     0.116 C 
BRANCH  27  28
ATOM     28  N   UNL A   1      32.483  31.065  26.997  1.00  0.00    -0.352 N 
ATOM     29  C   UNL A   1      33.513  31.838  27.492  1.00  0.00     0.251 C 
ATOM     30  H   UNL A   1      31.626  31.539  26.901  1.00  0.00     0.163 HD
ATOM     31  O   UNL A   1      33.256  32.984  27.858  1.00  0.00    -0.269 OA
BRANCH  29  32
ATOM     32  C   UNL A   1      34.888  31.304  27.692  1.00  0.00     0.039 A 
ATOM     33  C   UNL A   1      35.899  32.223  28.005  1.00  0.00     0.014 A 
ATOM     34  C   UNL A   1      35.200  29.944  27.658  1.00  0.00     0.014 A 
ATOM     35  C   UNL A   1      37.144  31.776  28.451  1.00  0.00     0.010 A 
ATOM     36  C   UNL A   1      36.407  29.491  28.196  1.00  0.00     0.010 A 
ATOM     37  C   UNL A   1      37.366  30.404  28.652  1.00  0.00    -0.014 A 
BRANCH  37  38
ATOM     38  C   UNL A   1      38.510  29.952  29.484  1.00  0.00     0.031 A 
ATOM     39  C   UNL A   1      38.708  30.437  30.888  1.00  0.00     0.074 A 
ATOM     40  C   UNL A   1      39.425  29.138  28.915  1.00  0.00     0.049 A 
ATOM     41  N   UNL A   1      39.632  30.099  31.753  1.00  0.00    -0.248 NA
ATOM     42  C   UNL A   1      37.771  31.457  31.378  1.00  0.00     0.031 C 
ATOM     43  C   UNL A   1      39.398  28.688  27.520  1.00  0.00     0.029 A 
ATOM     44  N   UNL A   1      40.547  28.539  29.429  1.00  0.00    -0.354 N 
ATOM     45  C   UNL A   1      39.388  30.863  32.886  1.00  0.00     0.074 A 
ATOM     46  C   UNL A   1      38.267  31.724  32.579  1.00  0.00     0.031 C 
ATOM     47  C   UNL A   1      40.421  27.850  27.303  1.00  0.00     0.029 A 
ATOM     48  C   UNL A   1      41.195  27.723  28.532  1.00  0.00     0.049 A 
ATOM     49  H   UNL A   1      40.859  28.681  30.352  1.00  0.00     0.167 HD
ATOM     50  C   UNL A   1      40.033  30.831  34.078  1.00  0.00     0.037 A 
ATOM     51  C   UNL A   1      42.283  26.945  28.685  1.00  0.00     0.037 A 
ATOM     52  C   UNL A   1      41.147  29.966  34.372  1.00  0.00     0.049 A 
ATOM     53  C   UNL A   1      42.942  26.884  30.034  1.00  0.00     0.074 A 
ATOM     54  C   UNL A   1      41.829  29.807  35.565  1.00  0.00     0.029 A 
ATOM     55  N   UNL A   1      41.747  29.114  33.454  1.00  0.00    -0.354 N 
ATOM     56  N   UNL A   1      42.632  27.527  31.133  1.00  0.00    -0.248 NA
ATOM     57  C   UNL A   1      44.089  25.978  30.170  1.00  0.00     0.031 C 
ATOM     58  C   UNL A   1      42.868  28.893  35.359  1.00  0.00     0.029 A 
ATOM     59  C   UNL A   1      42.804  28.442  34.049  1.00  0.00     0.049 A 
ATOM     60  H   UNL A   1      41.464  29.004  32.518  1.00  0.00     0.167 HD
ATOM     61  C   UNL A   1      43.529  27.090  32.097  1.00  0.00     0.074 A 
ATOM     62  C   UNL A   1      44.381  26.108  31.457  1.00  0.00     0.031 C 
ATOM     63  C   UNL A   1      43.639  27.468  33.394  1.00  0.00     0.037 A 
BRANCH  50  64
ATOM     64  C   UNL A   1      39.540  31.756  35.154  1.00  0.00     0.064 A 
ATOM     65  C   UNL A   1      38.629  31.327  36.131  1.00  0.00     0.173 A 
ATOM     66  C   UNL A   1      39.998  33.080  35.225  1.00  0.00     0.173 A 
ATOM     67  F   UNL A   1      38.151  30.073  36.105  1.00  0.00    -0.203 F 
ATOM     68  C   UNL A   1      38.167  32.197  37.116  1.00  0.00     0.198 A 
ATOM     69  C   UNL A   1      39.557  33.940  36.229  1.00  0.00     0.198 A 
ATOM     70  F   UNL A   1      40.874  33.543  34.321  1.00  0.00    -0.203 F 
ATOM     71  F   UNL A   1      37.254  31.778  38.004  1.00  0.00    -0.200 F 
ATOM     72  C   UNL A   1      38.635  33.501  37.167  1.00  0.00     0.200 A 
ATOM     73  F   UNL A   1      40.019  35.197  36.284  1.00  0.00    -0.200 F 
ATOM     74  F   UNL A   1      38.190  34.337  38.115  1.00  0.00    -0.200 F 
ENDBRANCH  50  64
BRANCH  51  75
ATOM     75  C   UNL A   1      42.774  26.123  27.548  1.00  0.00     0.064 A 
ATOM     76  C   UNL A   1      43.809  26.583  26.721  1.00  0.00     0.173 A 
ATOM     77  C   UNL A   1      42.237  24.857  27.277  1.00  0.00     0.173 A 
ATOM     78  F   UNL A   1      44.345  27.794  26.932  1.00  0.00    -0.203 F 
ATOM     79  C   UNL A   1      44.272  25.818  25.653  1.00  0.00     0.198 A 
ATOM     80  C   UNL A   1      42.721  24.080  26.226  1.00  0.00     0.198 A 
ATOM     81  F   UNL A   1      41.255  24.365  28.046  1.00  0.00    -0.203 F 
ATOM     82  F   UNL A   1      45.234  26.300  24.854  1.00  0.00    -0.200 F 
ATOM     83  C   UNL A   1      43.732  24.564  25.410  1.00  0.00     0.200 A 
ATOM     84  F   UNL A   1      42.209  22.861  26.005  1.00  0.00    -0.200 F 
ATOM     85  F   UNL A   1      44.184  23.825  24.388  1.00  0.00    -0.200 F 
ENDBRANCH  51  75
BRANCH  63  86
ATOM     86  C   UNL A   1      44.706  26.798  34.208  1.00  0.00     0.064 A 
ATOM     87  C   UNL A   1      45.993  27.344  34.325  1.00  0.00     0.173 A 
ATOM     88  C   UNL A   1      44.430  25.607  34.895  1.00  0.00     0.173 A 
ATOM     89  F   UNL A   1      46.310  28.472  33.672  1.00  0.00    -0.203 F 
ATOM     90  C   UNL A   1      46.973  26.705  35.078  1.00  0.00     0.198 A 
ATOM     91  C   UNL A   1      45.405  24.987  35.671  1.00  0.00     0.198 A 
ATOM     92  F   UNL A   1      43.213  25.048  34.818  1.00  0.00    -0.203 F 
ATOM     93  F   UNL A   1      48.212  27.215  35.133  1.00  0.00    -0.200 F 
ATOM     94  C   UNL A   1      46.678  25.531  35.755  1.00  0.00     0.200 A 
ATOM     95  F   UNL A   1      45.114  23.859  36.334  1.00  0.00    -0.200 F 
ATOM     96  F   UNL A   1      47.622  24.918  36.481  1.00  0.00    -0.200 F 
ENDBRANCH  63  86
ENDBRANCH  37  38
ENDBRANCH  29  32
ENDBRANCH  27  28
ENDBRANCH  26  27
ENDBRANCH   1  26
TORSDOF 13
ENDMDL
MODEL 2
REMARK VINA RESULT:     -13.5      2.428      8.493
REMARK SMILES COc1ccc2c(c1)C(=O)N(c1ccccc1C(=O)NCCCCNC(=O)c1ccc(-c3c4nc(c(-c5c(F)c(F)c(F)c(F)c5F)c5ccc([nH]5)c(-c5c(F)c(F)c(F)c(F)c5F)c5nc(c(-c6c(F)c(F)c(F)c(F)c6F)c6ccc3[nH]6)C=C5)C=C4)cc1)C2=O
REMARK SMILES IDX 22 1 21 2 20 3 18 4 19 5 17 7 12 8 13 9 14 10 16 11 15 12
REMARK SMILES IDX 11 13 3 14 4 15 8 16 5 17 7 18 6 19 9 20 91 21 10 22 92 23
REMARK SMILES IDX 2 24 1 25 23 26 24 27 25 28 26 29 27 31 28 32 29 33 90 34
REMARK SMILES IDX 30 35 89 36 31 37 32 38 33 39 83 40 34 41 88 42 82 43 84 44
REMARK SMILES IDX 35 45 87 46 81 47 80 48 36 50 68 51 48 52 67 53 49 54 52 55
REMARK SMILES IDX 66 56 85 57 50 58 51 59 65 61 86 62 53 63 37 64 38 65 46 66
REMARK SMILES IDX 39 67 40 68 44 69 47 70 41 71 42 72 45 73 43 74 69 75 70 76
REMARK SMILES IDX 78 77 71 78 72 79 76 80 79 81 73 82 74 83 77 84 75 85 54 86
REMARK SMILES IDX 55 87 63 88 56 89 57 90 61 91 64 92 58 93 59 94 62 95 60 96
REMARK H PARENT 20 6 25 30 84 49 52 60
REMARK Flexibility Score: inf
ROOT
ATOM      1  C   UNL A   1      32.514  30.110  25.872  1.00  0.00     0.023 C 
ENDROOT
BRANCH   1   2
ATOM      2  C   UNL A   1      33.160  28.854  26.441  1.00  0.00     0.116 C 
BRANCH   2   3
ATOM      3  N   UNL A   1      32.267  27.800  26.852  1.00  0.00    -0.352 N 
ATOM      4  C   UNL A   1      32.117  26.509  26.394  1.00  0.00     0.253 C 
ATOM      5  O   UNL A   1      31.300  25.804  26.991  1.00  0.00    -0.269 OA
ATOM      6  H   UNL A   1      31.660  28.045  27.588  1.00  0.00     0.163 HD
BRANCH   4   7
ATOM      7  C   UNL A   1      32.756  25.956  25.156  1.00  0.00     0.064 A 
ATOM      8  C   UNL A   1      32.405  26.162  23.807  1.00  0.00     0.065 A 
ATOM      9  C   UNL A   1      33.095  25.444  22.802  1.00  0.00     0.028 A 
ATOM     10  C   UNL A   1      34.145  24.579  23.103  1.00  0.00     0.002 A 
ATOM     11  C   UNL A   1      33.829  25.073  25.435  1.00  0.00     0.016 A 
ATOM     12  C   UNL A   1      34.518  24.397  24.423  1.00  0.00     0.001 A 
BRANCH   8  13
ATOM     13  N   UNL A   1      31.403  27.044  23.352  1.00  0.00    -0.241 N 
ATOM     14  C   UNL A   1      28.552  30.461  22.262  1.00  0.00     0.119 A 
ATOM     15  C   UNL A   1      27.616  29.521  22.753  1.00  0.00     0.047 A 
ATOM     16  C   UNL A   1      29.908  30.132  22.177  1.00  0.00     0.061 A 
ATOM     17  C   UNL A   1      28.004  28.241  23.146  1.00  0.00     0.018 A 
ATOM     18  C   UNL A   1      30.274  28.864  22.592  1.00  0.00     0.057 A 
ATOM     19  C   UNL A   1      29.344  27.942  23.034  1.00  0.00     0.053 A 
ATOM     20  C   UNL A   1      31.608  28.285  22.802  1.00  0.00     0.266 C 
ATOM     21  C   UNL A   1      30.062  26.752  23.468  1.00  0.00     0.266 C 
ATOM     22  O   UNL A   1      32.637  28.873  22.527  1.00  0.00    -0.268 OA
ATOM     23  O   UNL A   1      29.499  25.777  23.931  1.00  0.00    -0.268 OA
BRANCH  14  24
ATOM     24  O   UNL A   1      28.000  31.671  21.946  1.00  0.00    -0.497 OA
ATOM     25  C   UNL A   1      28.009  32.064  20.583  1.00  0.00     0.278 C 
ENDBRANCH  14  24
ENDBRANCH   8  13
ENDBRANCH   4   7
ENDBRANCH   2   3
ENDBRANCH   1   2
BRANCH   1  26
ATOM     26  C   UNL A   1      32.054  31.172  26.874  1.00  0.00     0.023 C 
BRANCH  26  27
ATOM     27  C   UNL A   1      33.090  32.170  27.391  1.00  0.00     0.116 C 
BRANCH  27  28
ATOM     28  N   UNL A   1      32.596  33.522  27.596  1.00  0.00    -0.352 N 
ATOM     29  C   UNL A   1      33.055  34.540  28.406  1.00  0.00     0.251 C 
ATOM     30  H   UNL A   1      31.798  33.750  27.067  1.00  0.00     0.163 HD
ATOM     31  O   UNL A   1      32.390  35.573  28.477  1.00  0.00    -0.269 OA
BRANCH  29  32
ATOM     32  C   UNL A   1      34.260  34.393  29.268  1.00  0.00     0.039 A 
ATOM     33  C   UNL A   1      34.059  33.986  30.595  1.00  0.00     0.014 A 
ATOM     34  C   UNL A   1      35.565  34.564  28.807  1.00  0.00     0.014 A 
ATOM     35  C   UNL A   1      35.141  33.585  31.380  1.00  0.00     0.010 A 
ATOM     36  C   UNL A   1      36.640  34.073  29.551  1.00  0.00     0.010 A 
ATOM     37  C   UNL A   1      36.428  33.524  30.823  1.00  0.00    -0.014 A 
BRANCH  37  38
ATOM     38  C   UNL A   1      37.494  32.740  31.499  1.00  0.00     0.031 A 
ATOM     39  C   UNL A   1      38.147  31.562  30.842  1.00  0.00     0.074 A 
ATOM     40  C   UNL A   1      37.815  33.071  32.767  1.00  0.00     0.049 A 
ATOM     41  N   UNL A   1      39.121  30.807  31.286  1.00  0.00    -0.248 NA
ATOM     42  C   UNL A   1      37.621  31.154  29.532  1.00  0.00     0.031 C 
ATOM     43  C   UNL A   1      37.169  34.128  33.551  1.00  0.00     0.029 A 
ATOM     44  N   UNL A   1      38.761  32.565  33.622  1.00  0.00    -0.354 N 
ATOM     45  C   UNL A   1      39.322  29.837  30.314  1.00  0.00     0.074 A 
ATOM     46  C   UNL A   1      38.333  30.063  29.283  1.00  0.00     0.031 C 
ATOM     47  C   UNL A   1      37.767  34.224  34.747  1.00  0.00     0.029 A 
ATOM     48  C   UNL A   1      38.819  33.219  34.830  1.00  0.00     0.049 A 
ATOM     49  H   UNL A   1      39.344  31.805  33.392  1.00  0.00     0.167 HD
ATOM     50  C   UNL A   1      40.264  28.862  30.280  1.00  0.00     0.037 A 
ATOM     51  C   UNL A   1      39.639  33.042  35.883  1.00  0.00     0.037 A 
ATOM     52  C   UNL A   1      41.246  28.650  31.312  1.00  0.00     0.049 A 
ATOM     53  C   UNL A   1      40.710  31.992  35.794  1.00  0.00     0.074 A 
ATOM     54  C   UNL A   1      42.283  27.734  31.347  1.00  0.00     0.029 A 
ATOM     55  N   UNL A   1      41.307  29.365  32.502  1.00  0.00    -0.354 N 
ATOM     56  N   UNL A   1      40.965  31.154  34.818  1.00  0.00    -0.248 NA
ATOM     57  C   UNL A   1      41.618  31.874  36.942  1.00  0.00     0.031 C 
ATOM     58  C   UNL A   1      42.944  27.866  32.573  1.00  0.00     0.029 A 
ATOM     59  C   UNL A   1      42.351  28.898  33.284  1.00  0.00     0.049 A 
ATOM     60  H   UNL A   1      40.698  30.096  32.752  1.00  0.00     0.167 HD
ATOM     61  C   UNL A   1      42.074  30.425  35.222  1.00  0.00     0.074 A 
ATOM     62  C   UNL A   1      42.456  30.935  36.523  1.00  0.00     0.031 C 
ATOM     63  C   UNL A   1      42.715  29.421  34.576  1.00  0.00     0.037 A 
BRANCH  50  64
ATOM     64  C   UNL A   1      40.275  27.956  29.082  1.00  0.00     0.064 A 
ATOM     65  C   UNL A   1      41.016  28.268  27.932  1.00  0.00     0.173 A 
ATOM     66  C   UNL A   1      39.556  26.751  29.088  1.00  0.00     0.173 A 
ATOM     67  F   UNL A   1      41.715  29.413  27.869  1.00  0.00    -0.203 F 
ATOM     68  C   UNL A   1      41.009  27.429  26.821  1.00  0.00     0.198 A 
ATOM     69  C   UNL A   1      39.575  25.899  27.986  1.00  0.00     0.198 A 
ATOM     70  F   UNL A   1      38.835  26.398  30.163  1.00  0.00    -0.203 F 
ATOM     71  F   UNL A   1      41.681  27.777  25.715  1.00  0.00    -0.200 F 
ATOM     72  C   UNL A   1      40.292  26.242  26.851  1.00  0.00     0.200 A 
ATOM     73  F   UNL A   1      38.890  24.746  28.021  1.00  0.00    -0.200 F 
ATOM     74  F   UNL A   1      40.286  25.435  25.781  1.00  0.00    -0.200 F 
ENDBRANCH  50  64
BRANCH  51  75
ATOM     75  C   UNL A   1      39.512  33.915  37.078  1.00  0.00     0.064 A 
ATOM     76  C   UNL A   1      40.092  35.191  37.103  1.00  0.00     0.173 A 
ATOM     77  C   UNL A   1      38.793  33.505  38.210  1.00  0.00     0.173 A 
ATOM     78  F   UNL A   1      40.802  35.623  36.049  1.00  0.00    -0.203 F 
ATOM     79  C   UNL A   1      39.978  36.014  38.221  1.00  0.00     0.198 A 
ATOM     80  C   UNL A   1      38.655  34.340  39.317  1.00  0.00     0.198 A 
ATOM     81  F   UNL A   1      38.208  32.299  38.233  1.00  0.00    -0.203 F 
ATOM     82  F   UNL A   1      40.578  37.213  38.232  1.00  0.00    -0.200 F 
ATOM     83  C   UNL A   1      39.254  35.591  39.325  1.00  0.00     0.200 A 
ATOM     84  F   UNL A   1      37.939  33.935  40.374  1.00  0.00    -0.200 F 
ATOM     85  F   UNL A   1      39.137  36.386  40.397  1.00  0.00    -0.200 F 
ENDBRANCH  51  75
BRANCH  63  86
ATOM     86  C   UNL A   1      43.911  28.828  35.261  1.00  0.00     0.064 A 
ATOM     87  C   UNL A   1      45.207  29.314  35.031  1.00  0.00     0.173 A 
ATOM     88  C   UNL A   1      43.755  27.774  36.173  1.00  0.00     0.173 A 
ATOM     89  F   UNL A   1      45.409  30.308  34.154  1.00  0.00    -0.203 F 
ATOM     90  C   UNL A   1      46.306  28.746  35.669  1.00  0.00     0.198 A 
ATOM     91  C   UNL A   1      44.854  27.229  36.831  1.00  0.00     0.198 A 
ATOM     92  F   UNL A   1      42.536  27.276  36.430  1.00  0.00    -0.203 F 
ATOM     93  F   UNL A   1      47.540  29.191  35.394  1.00  0.00    -0.200 F 
ATOM     94  C   UNL A   1      46.129  27.709  36.572  1.00  0.00     0.200 A 
ATOM     95  F   UNL A   1      44.679  26.234  37.713  1.00  0.00    -0.200 F 
ATOM     96  F   UNL A   1      47.188  27.165  37.187  1.00  0.00    -0.200 F 
ENDBRANCH  63  86
ENDBRANCH  37  38
ENDBRANCH  29  32
ENDBRANCH  27  28
ENDBRANCH  26  27
ENDBRANCH   1  26
TORSDOF 13
ENDMDL
MODEL 3
REMARK VINA RESULT:     -13.4      4.425      9.765
REMARK SMILES COc1ccc2c(c1)C(=O)N(c1ccccc1C(=O)NCCCCNC(=O)c1ccc(-c3c4nc(c(-c5c(F)c(F)c(F)c(F)c5F)c5ccc([nH]5)c(-c5c(F)c(F)c(F)c(F)c5F)c5nc(c(-c6c(F)c(F)c(F)c(F)c6F)c6ccc3[nH]6)C=C5)C=C4)cc1)C2=O
REMARK SMILES IDX 22 1 21 2 20 3 18 4 19 5 17 7 12 8 13 9 14 10 16 11 15 12
REMARK SMILES IDX 11 13 3 14 4 15 8 16 5 17 7 18 6 19 9 20 91 21 10 22 92 23
REMARK SMILES IDX 2 24 1 25 23 26 24 27 25 28 26 29 27 31 28 32 29 33 90 34
REMARK SMILES IDX 30 35 89 36 31 37 32 38 33 39 83 40 34 41 88 42 82 43 84 44
REMARK SMILES IDX 35 45 87 46 81 47 80 48 36 50 68 51 48 52 67 53 49 54 52 55
REMARK SMILES IDX 66 56 85 57 50 58 51 59 65 61 86 62 53 63 37 64 38 65 46 66
REMARK SMILES IDX 39 67 40 68 44 69 47 70 41 71 42 72 45 73 43 74 69 75 70 76
REMARK SMILES IDX 78 77 71 78 72 79 76 80 79 81 73 82 74 83 77 84 75 85 54 86
REMARK SMILES IDX 55 87 63 88 56 89 57 90 61 91 64 92 58 93 59 94 62 95 60 96
REMARK H PARENT 20 6 25 30 84 49 52 60
REMARK Flexibility Score: inf
ROOT
ATOM      1  C   UNL A   1      37.010  22.514  24.679  1.00  0.00     0.023 C 
ENDROOT
BRANCH   1   2
ATOM      2  C   UNL A   1      36.556  23.518  25.730  1.00  0.00     0.116 C 
BRANCH   2   3
ATOM      3  N   UNL A   1      35.719  23.010  26.787  1.00  0.00    -0.352 N 
ATOM      4  C   UNL A   1      34.513  22.343  26.747  1.00  0.00     0.253 C 
ATOM      5  O   UNL A   1      34.054  21.969  27.829  1.00  0.00    -0.269 OA
ATOM      6  H   UNL A   1      36.069  23.165  27.694  1.00  0.00     0.163 HD
BRANCH   4   7
ATOM      7  C   UNL A   1      33.666  22.171  25.523  1.00  0.00     0.064 A 
ATOM      8  C   UNL A   1      32.867  23.120  24.855  1.00  0.00     0.065 A 
ATOM      9  C   UNL A   1      32.063  22.698  23.769  1.00  0.00     0.028 A 
ATOM     10  C   UNL A   1      32.077  21.383  23.310  1.00  0.00     0.002 A 
ATOM     11  C   UNL A   1      33.664  20.841  25.034  1.00  0.00     0.016 A 
ATOM     12  C   UNL A   1      32.886  20.452  23.939  1.00  0.00     0.001 A 
BRANCH   8  13
ATOM     13  N   UNL A   1      32.792  24.492  25.174  1.00  0.00    -0.241 N 
ATOM     14  C   UNL A   1      33.338  28.919  26.223  1.00  0.00     0.119 A 
ATOM     15  C   UNL A   1      32.413  28.550  27.229  1.00  0.00     0.047 A 
ATOM     16  C   UNL A   1      33.740  27.991  25.258  1.00  0.00     0.061 A 
ATOM     17  C   UNL A   1      31.859  27.272  27.279  1.00  0.00     0.018 A 
ATOM     18  C   UNL A   1      33.195  26.722  25.339  1.00  0.00     0.057 A 
ATOM     19  C   UNL A   1      32.263  26.387  26.303  1.00  0.00     0.053 A 
ATOM     20  C   UNL A   1      33.542  25.494  24.611  1.00  0.00     0.266 C 
ATOM     21  C   UNL A   1      31.960  24.970  26.162  1.00  0.00     0.266 C 
ATOM     22  O   UNL A   1      34.359  25.466  23.710  1.00  0.00    -0.268 OA
ATOM     23  O   UNL A   1      31.184  24.388  26.897  1.00  0.00    -0.268 OA
BRANCH  14  24
ATOM     24  O   UNL A   1      33.794  30.202  26.341  1.00  0.00    -0.497 OA
ATOM     25  C   UNL A   1      33.388  30.943  27.480  1.00  0.00     0.278 C 
ENDBRANCH  14  24
ENDBRANCH   8  13
ENDBRANCH   4   7
ENDBRANCH   2   3
ENDBRANCH   1   2
BRANCH   1  26
ATOM     26  C   UNL A   1      37.617  21.203  25.184  1.00  0.00     0.023 C 
BRANCH  26  27
ATOM     27  C   UNL A   1      38.999  21.255  25.837  1.00  0.00     0.116 C 
BRANCH  27  28
ATOM     28  N   UNL A   1      39.764  20.021  25.760  1.00  0.00    -0.352 N 
ATOM     29  C   UNL A   1      41.090  19.760  26.040  1.00  0.00     0.251 C 
ATOM     30  H   UNL A   1      39.249  19.239  25.456  1.00  0.00     0.163 HD
ATOM     31  O   UNL A   1      41.526  18.637  25.793  1.00  0.00    -0.269 OA
BRANCH  29  32
ATOM     32  C   UNL A   1      42.025  20.811  26.528  1.00  0.00     0.039 A 
ATOM     33  C   UNL A   1      42.652  21.614  25.566  1.00  0.00     0.014 A 
ATOM     34  C   UNL A   1      42.246  21.080  27.879  1.00  0.00     0.014 A 
ATOM     35  C   UNL A   1      43.335  22.769  25.950  1.00  0.00     0.010 A 
ATOM     36  C   UNL A   1      42.842  22.283  28.263  1.00  0.00     0.010 A 
ATOM     37  C   UNL A   1      43.340  23.167  27.297  1.00  0.00    -0.014 A 
BRANCH  37  38
ATOM     38  C   UNL A   1      43.704  24.561  27.658  1.00  0.00     0.031 A 
ATOM     39  C   UNL A   1      45.128  25.027  27.676  1.00  0.00     0.074 A 
ATOM     40  C   UNL A   1      42.716  25.393  28.048  1.00  0.00     0.049 A 
ATOM     41  N   UNL A   1      45.600  26.223  27.926  1.00  0.00    -0.248 NA
ATOM     42  C   UNL A   1      46.162  24.017  27.411  1.00  0.00     0.031 C 
ATOM     43  C   UNL A   1      41.304  25.020  28.179  1.00  0.00     0.029 A 
ATOM     44  N   UNL A   1      42.736  26.719  28.402  1.00  0.00    -0.354 N 
ATOM     45  C   UNL A   1      46.981  26.109  27.851  1.00  0.00     0.074 A 
ATOM     46  C   UNL A   1      47.275  24.717  27.589  1.00  0.00     0.031 C 
ATOM     47  C   UNL A   1      40.590  26.097  28.534  1.00  0.00     0.029 A 
ATOM     48  C   UNL A   1      41.492  27.232  28.685  1.00  0.00     0.049 A 
ATOM     49  H   UNL A   1      43.563  27.252  28.449  1.00  0.00     0.167 HD
ATOM     50  C   UNL A   1      47.914  27.086  27.970  1.00  0.00     0.037 A 
ATOM     51  C   UNL A   1      41.117  28.482  29.015  1.00  0.00     0.037 A 
ATOM     52  C   UNL A   1      47.608  28.470  28.227  1.00  0.00     0.049 A 
ATOM     53  C   UNL A   1      42.164  29.556  29.083  1.00  0.00     0.074 A 
ATOM     54  C   UNL A   1      48.471  29.549  28.302  1.00  0.00     0.029 A 
ATOM     55  N   UNL A   1      46.331  28.965  28.460  1.00  0.00    -0.354 N 
ATOM     56  N   UNL A   1      43.459  29.459  28.896  1.00  0.00    -0.248 NA
ATOM     57  C   UNL A   1      41.701  30.916  29.388  1.00  0.00     0.031 C 
ATOM     58  C   UNL A   1      47.723  30.688  28.621  1.00  0.00     0.029 A 
ATOM     59  C   UNL A   1      46.386  30.329  28.697  1.00  0.00     0.049 A 
ATOM     60  H   UNL A   1      45.508  28.425  28.457  1.00  0.00     0.167 HD
ATOM     61  C   UNL A   1      43.962  30.744  29.039  1.00  0.00     0.074 A 
ATOM     62  C   UNL A   1      42.829  31.607  29.306  1.00  0.00     0.031 C 
ATOM     63  C   UNL A   1      45.246  31.170  28.960  1.00  0.00     0.037 A 
BRANCH  50  64
ATOM     64  C   UNL A   1      49.354  26.687  27.815  1.00  0.00     0.064 A 
ATOM     65  C   UNL A   1      49.940  26.527  26.550  1.00  0.00     0.173 A 
ATOM     66  C   UNL A   1      50.166  26.482  28.941  1.00  0.00     0.173 A 
ATOM     67  F   UNL A   1      49.206  26.701  25.439  1.00  0.00    -0.203 F 
ATOM     68  C   UNL A   1      51.272  26.143  26.417  1.00  0.00     0.198 A 
ATOM     69  C   UNL A   1      51.506  26.127  28.805  1.00  0.00     0.198 A 
ATOM     70  F   UNL A   1      49.661  26.628  30.175  1.00  0.00    -0.203 F 
ATOM     71  F   UNL A   1      51.792  25.942  25.198  1.00  0.00    -0.200 F 
ATOM     72  C   UNL A   1      52.055  25.948  27.545  1.00  0.00     0.200 A 
ATOM     73  F   UNL A   1      52.266  25.951  29.895  1.00  0.00    -0.200 F 
ATOM     74  F   UNL A   1      53.337  25.578  27.415  1.00  0.00    -0.200 F 
ENDBRANCH  50  64
BRANCH  51  75
ATOM     75  C   UNL A   1      39.681  28.789  29.247  1.00  0.00     0.064 A 
ATOM     76  C   UNL A   1      39.111  28.650  30.520  1.00  0.00     0.173 A 
ATOM     77  C   UNL A   1      38.855  29.245  28.210  1.00  0.00     0.173 A 
ATOM     78  F   UNL A   1      39.857  28.203  31.541  1.00  0.00    -0.203 F 
ATOM     79  C   UNL A   1      37.765  28.934  30.743  1.00  0.00     0.198 A 
ATOM     80  C   UNL A   1      37.516  29.557  28.439  1.00  0.00     0.198 A 
ATOM     81  F   UNL A   1      39.354  29.407  26.976  1.00  0.00    -0.203 F 
ATOM     82  F   UNL A   1      37.238  28.753  31.961  1.00  0.00    -0.200 F 
ATOM     83  C   UNL A   1      36.970  29.393  29.704  1.00  0.00     0.200 A 
ATOM     84  F   UNL A   1      36.756  30.017  27.437  1.00  0.00    -0.200 F 
ATOM     85  F   UNL A   1      35.679  29.675  29.920  1.00  0.00    -0.200 F 
ENDBRANCH  51  75
BRANCH  63  86
ATOM     86  C   UNL A   1      45.486  32.640  29.141  1.00  0.00     0.064 A 
ATOM     87  C   UNL A   1      45.778  33.187  30.399  1.00  0.00     0.173 A 
ATOM     88  C   UNL A   1      45.441  33.507  28.039  1.00  0.00     0.173 A 
ATOM     89  F   UNL A   1      45.815  32.402  31.485  1.00  0.00    -0.203 F 
ATOM     90  C   UNL A   1      45.990  34.554  30.551  1.00  0.00     0.198 A 
ATOM     91  C   UNL A   1      45.682  34.869  28.191  1.00  0.00     0.198 A 
ATOM     92  F   UNL A   1      45.169  33.031  26.815  1.00  0.00    -0.203 F 
ATOM     93  F   UNL A   1      46.215  35.064  31.770  1.00  0.00    -0.200 F 
ATOM     94  C   UNL A   1      45.948  35.393  29.448  1.00  0.00     0.200 A 
ATOM     95  F   UNL A   1      45.653  35.676  27.121  1.00  0.00    -0.200 F 
ATOM     96  F   UNL A   1      46.154  36.709  29.595  1.00  0.00    -0.200 F 
ENDBRANCH  63  86
ENDBRANCH  37  38
ENDBRANCH  29  32
ENDBRANCH  27  28
ENDBRANCH  26  27
ENDBRANCH   1  26
TORSDOF 13
ENDMDL
