MODEL 1
REMARK VINA RESULT:     -13.0      0.000      0.000
REMARK SMILES Cc1nccc(CNC(=O)N2CC[C@@H](C(=O)NCCCCNC(=O)c3ccc(-c4c5nc(c(-c6c(F)c(F)c(F)c(F)c6F)c6ccc([nH]6)c(-c6c(F)c(F)c(F)c(F)c6F)c6nc(c(-c7c(F)c(F)c(F)c(F)c7F)c7ccc4[nH]7)C=C6)C=C5)cc3)[C@H]2C)n1
REMARK SMILES IDX 19 1 18 2 17 3 15 4 16 5 14 7 11 8 12 9 88 10 13 11 89 12
REMARK SMILES IDX 9 13 8 14 10 16 7 17 6 18 1 19 2 20 3 21 90 22 4 23 5 24
REMARK SMILES IDX 20 25 21 26 22 27 23 28 24 30 25 31 26 32 87 33 27 34 86 35
REMARK SMILES IDX 28 36 29 37 30 38 80 39 31 40 85 41 79 42 81 43 32 44 84 45
REMARK SMILES IDX 78 46 77 47 33 49 65 50 45 51 64 52 46 53 49 54 63 55 82 56
REMARK SMILES IDX 47 57 48 58 62 60 83 61 50 62 34 63 35 64 43 65 36 66 37 67
REMARK SMILES IDX 41 68 44 69 38 70 39 71 42 72 40 73 66 74 67 75 75 76 68 77
REMARK SMILES IDX 69 78 73 79 76 80 70 81 71 82 74 83 72 84 51 85 52 86 60 87
REMARK SMILES IDX 53 88 54 89 58 90 61 91 55 92 56 93 59 94 57 95
REMARK H PARENT 17 6 8 15 22 29 81 48 49 59
REMARK Flexibility Score: inf
ROOT
ATOM      1  C   UNL A   1      31.909  30.395  26.644  1.00  0.00     0.023 C 
ENDROOT
BRANCH   1   2
ATOM      2  C   UNL A   1      33.384  30.053  26.430  1.00  0.00     0.116 C 
BRANCH   2   3
ATOM      3  N   UNL A   1      33.615  29.353  25.181  1.00  0.00    -0.356 N 
ATOM      4  C   UNL A   1      33.676  28.029  24.883  1.00  0.00     0.225 C 
ATOM      5  O   UNL A   1      33.901  27.739  23.703  1.00  0.00    -0.275 OA
ATOM      6  H   UNL A   1      33.753  29.946  24.407  1.00  0.00     0.163 HD
BRANCH   4   7
ATOM      7  C   UNL A   1      33.481  26.917  25.905  1.00  0.00     0.102 C 
ATOM      8  N   UNL A   1      32.291  24.845  25.740  1.00  0.00    -0.321 N 
ATOM      9  C   UNL A   1      33.662  24.529  26.104  1.00  0.00     0.122 C 
ATOM     10  C   UNL A   1      32.081  26.274  26.029  1.00  0.00     0.096 C 
ATOM     11  C   UNL A   1      34.473  25.759  25.760  1.00  0.00     0.037 C 
ATOM     12  C   UNL A   1      30.956  27.000  25.308  1.00  0.00     0.032 C 
BRANCH   8  13
ATOM     13  C   UNL A   1      31.360  23.889  26.081  1.00  0.00     0.317 C 
ATOM     14  N   UNL A   1      31.129  22.874  25.218  1.00  0.00    -0.332 N 
ATOM     15  H   UNL A   1      30.370  22.290  25.447  1.00  0.00     0.165 HD
ATOM     16  O   UNL A   1      30.802  23.862  27.177  1.00  0.00    -0.249 OA
BRANCH  14  17
ATOM     17  C   UNL A   1      31.834  22.521  24.006  1.00  0.00     0.174 C 
BRANCH  17  18
ATOM     18  C   UNL A   1      32.776  21.351  24.140  1.00  0.00     0.063 A 
ATOM     19  C   UNL A   1      36.261  20.914  25.213  1.00  0.00     0.089 C 
ATOM     20  C   UNL A   1      34.864  20.605  24.772  1.00  0.00     0.125 A 
ATOM     21  N   UNL A   1      34.497  19.314  24.724  1.00  0.00    -0.242 NA
ATOM     22  N   UNL A   1      34.049  21.641  24.497  1.00  0.00    -0.236 NA
ATOM     23  C   UNL A   1      33.225  19.067  24.362  1.00  0.00     0.115 A 
ATOM     24  C   UNL A   1      32.316  20.051  24.056  1.00  0.00     0.046 A 
ENDBRANCH  17  18
ENDBRANCH  14  17
ENDBRANCH   8  13
ENDBRANCH   4   7
ENDBRANCH   2   3
ENDBRANCH   1   2
BRANCH   1  25
ATOM     25  C   UNL A   1      31.604  31.871  26.879  1.00  0.00     0.023 C 
BRANCH  25  26
ATOM     26  C   UNL A   1      32.770  32.692  27.406  1.00  0.00     0.116 C 
BRANCH  26  27
ATOM     27  N   UNL A   1      32.425  34.085  27.652  1.00  0.00    -0.352 N 
ATOM     28  C   UNL A   1      32.968  34.979  28.547  1.00  0.00     0.251 C 
ATOM     29  H   UNL A   1      31.694  34.441  27.095  1.00  0.00     0.163 HD
ATOM     30  O   UNL A   1      32.471  36.085  28.702  1.00  0.00    -0.269 OA
BRANCH  28  31
ATOM     31  C   UNL A   1      34.140  34.573  29.349  1.00  0.00     0.039 A 
ATOM     32  C   UNL A   1      33.943  34.100  30.648  1.00  0.00     0.014 A 
ATOM     33  C   UNL A   1      35.420  34.609  28.794  1.00  0.00     0.014 A 
ATOM     34  C   UNL A   1      35.023  33.571  31.357  1.00  0.00     0.010 A 
ATOM     35  C   UNL A   1      36.472  33.997  29.462  1.00  0.00     0.010 A 
ATOM     36  C   UNL A   1      36.284  33.469  30.748  1.00  0.00    -0.014 A 
BRANCH  36  37
ATOM     37  C   UNL A   1      37.433  32.824  31.432  1.00  0.00     0.031 A 
ATOM     38  C   UNL A   1      38.129  31.664  30.778  1.00  0.00     0.074 A 
ATOM     39  C   UNL A   1      37.787  33.221  32.670  1.00  0.00     0.049 A 
ATOM     40  N   UNL A   1      39.055  30.874  31.259  1.00  0.00    -0.248 NA
ATOM     41  C   UNL A   1      37.698  31.322  29.413  1.00  0.00     0.031 C 
ATOM     42  C   UNL A   1      37.159  34.303  33.428  1.00  0.00     0.029 A 
ATOM     43  N   UNL A   1      38.756  32.744  33.518  1.00  0.00    -0.354 N 
ATOM     44  C   UNL A   1      39.297  29.933  30.265  1.00  0.00     0.074 A 
ATOM     45  C   UNL A   1      38.381  30.211  29.182  1.00  0.00     0.031 C 
ATOM     46  C   UNL A   1      37.774  34.426  34.616  1.00  0.00     0.029 A 
ATOM     47  C   UNL A   1      38.809  33.404  34.722  1.00  0.00     0.049 A 
ATOM     48  H   UNL A   1      39.357  32.000  33.285  1.00  0.00     0.167 HD
ATOM     49  C   UNL A   1      40.223  28.946  30.247  1.00  0.00     0.037 A 
ATOM     50  C   UNL A   1      39.598  33.196  35.794  1.00  0.00     0.037 A 
ATOM     51  C   UNL A   1      41.158  28.698  31.310  1.00  0.00     0.049 A 
ATOM     52  C   UNL A   1      40.613  32.084  35.750  1.00  0.00     0.074 A 
ATOM     53  C   UNL A   1      42.172  27.760  31.367  1.00  0.00     0.029 A 
ATOM     54  N   UNL A   1      41.195  29.403  32.505  1.00  0.00    -0.354 N 
ATOM     55  N   UNL A   1      40.871  31.237  34.784  1.00  0.00    -0.248 NA
ATOM     56  C   UNL A   1      41.445  31.900  36.947  1.00  0.00     0.031 C 
ATOM     57  C   UNL A   1      42.803  27.873  32.611  1.00  0.00     0.029 A 
ATOM     58  C   UNL A   1      42.207  28.911  33.311  1.00  0.00     0.049 A 
ATOM     59  H   UNL A   1      40.593  30.144  32.743  1.00  0.00     0.167 HD
ATOM     60  C   UNL A   1      41.912  30.442  35.242  1.00  0.00     0.074 A 
ATOM     61  C   UNL A   1      42.247  30.914  36.569  1.00  0.00     0.031 C 
ATOM     62  C   UNL A   1      42.534  29.409  34.622  1.00  0.00     0.037 A 
BRANCH  49  63
ATOM     63  C   UNL A   1      40.279  28.073  29.028  1.00  0.00     0.064 A 
ATOM     64  C   UNL A   1      39.580  26.857  28.966  1.00  0.00     0.173 A 
ATOM     65  C   UNL A   1      41.014  28.466  27.900  1.00  0.00     0.173 A 
ATOM     66  F   UNL A   1      38.875  26.430  30.023  1.00  0.00    -0.203 F 
ATOM     67  C   UNL A   1      39.641  26.053  27.831  1.00  0.00     0.198 A 
ATOM     68  C   UNL A   1      41.048  27.673  26.755  1.00  0.00     0.198 A 
ATOM     69  F   UNL A   1      41.697  29.620  27.905  1.00  0.00    -0.203 F 
ATOM     70  F   UNL A   1      39.009  24.871  27.816  1.00  0.00    -0.200 F 
ATOM     71  C   UNL A   1      40.368  26.464  26.725  1.00  0.00     0.200 A 
ATOM     72  F   UNL A   1      41.742  28.077  25.682  1.00  0.00    -0.200 F 
ATOM     73  F   UNL A   1      40.423  25.691  25.631  1.00  0.00    -0.200 F 
ENDBRANCH  49  63
BRANCH  50  74
ATOM     74  C   UNL A   1      39.483  34.071  36.990  1.00  0.00     0.064 A 
ATOM     75  C   UNL A   1      40.150  35.304  37.042  1.00  0.00     0.173 A 
ATOM     76  C   UNL A   1      38.726  33.692  38.107  1.00  0.00     0.173 A 
ATOM     77  F   UNL A   1      40.903  35.700  36.005  1.00  0.00    -0.203 F 
ATOM     78  C   UNL A   1      40.082  36.113  38.174  1.00  0.00     0.198 A 
ATOM     79  C   UNL A   1      38.636  34.515  39.228  1.00  0.00     0.198 A 
ATOM     80  F   UNL A   1      38.066  32.525  38.108  1.00  0.00    -0.203 F 
ATOM     81  F   UNL A   1      40.769  37.263  38.213  1.00  0.00    -0.200 F 
ATOM     82  C   UNL A   1      39.322  35.721  39.265  1.00  0.00     0.200 A 
ATOM     83  F   UNL A   1      37.891  34.138  40.277  1.00  0.00    -0.200 F 
ATOM     84  F   UNL A   1      39.259  36.499  40.354  1.00  0.00    -0.200 F 
ENDBRANCH  50  74
BRANCH  62  85
ATOM     85  C   UNL A   1      43.664  28.747  35.353  1.00  0.00     0.064 A 
ATOM     86  C   UNL A   1      44.992  29.154  35.172  1.00  0.00     0.173 A 
ATOM     87  C   UNL A   1      43.404  27.732  36.287  1.00  0.00     0.173 A 
ATOM     88  F   UNL A   1      45.290  30.110  34.279  1.00  0.00    -0.203 F 
ATOM     89  C   UNL A   1      46.025  28.555  35.888  1.00  0.00     0.198 A 
ATOM     90  C   UNL A   1      44.436  27.154  37.019  1.00  0.00     0.198 A 
ATOM     91  F   UNL A   1      42.148  27.313  36.499  1.00  0.00    -0.203 F 
ATOM     92  F   UNL A   1      47.293  28.933  35.671  1.00  0.00    -0.200 F 
ATOM     93  C   UNL A   1      45.746  27.563  36.816  1.00  0.00     0.200 A 
ATOM     94  F   UNL A   1      44.164  26.206  37.925  1.00  0.00    -0.200 F 
ATOM     95  F   UNL A   1      46.741  26.996  37.512  1.00  0.00    -0.200 F 
ENDBRANCH  62  85
ENDBRANCH  36  37
ENDBRANCH  28  31
ENDBRANCH  26  27
ENDBRANCH  25  26
ENDBRANCH   1  25
TORSDOF 14
ENDMDL
MODEL 2
REMARK VINA RESULT:     -12.9      0.731      7.339
REMARK SMILES Cc1nccc(CNC(=O)N2CC[C@@H](C(=O)NCCCCNC(=O)c3ccc(-c4c5nc(c(-c6c(F)c(F)c(F)c(F)c6F)c6ccc([nH]6)c(-c6c(F)c(F)c(F)c(F)c6F)c6nc(c(-c7c(F)c(F)c(F)c(F)c7F)c7ccc4[nH]7)C=C6)C=C5)cc3)[C@H]2C)n1
REMARK SMILES IDX 19 1 18 2 17 3 15 4 16 5 14 7 11 8 12 9 88 10 13 11 89 12
REMARK SMILES IDX 9 13 8 14 10 16 7 17 6 18 1 19 2 20 3 21 90 22 4 23 5 24
REMARK SMILES IDX 20 25 21 26 22 27 23 28 24 30 25 31 26 32 87 33 27 34 86 35
REMARK SMILES IDX 28 36 29 37 30 38 80 39 31 40 85 41 79 42 81 43 32 44 84 45
REMARK SMILES IDX 78 46 77 47 33 49 65 50 45 51 64 52 46 53 49 54 63 55 82 56
REMARK SMILES IDX 47 57 48 58 62 60 83 61 50 62 34 63 35 64 43 65 36 66 37 67
REMARK SMILES IDX 41 68 44 69 38 70 39 71 42 72 40 73 66 74 67 75 75 76 68 77
REMARK SMILES IDX 69 78 73 79 76 80 70 81 71 82 74 83 72 84 51 85 52 86 60 87
REMARK SMILES IDX 53 88 54 89 58 90 61 91 55 92 56 93 59 94 57 95
REMARK H PARENT 17 6 8 15 22 29 81 48 49 59
REMARK Flexibility Score: inf
ROOT
ATOM      1  C   UNL A   1      31.634  30.683  26.180  1.00  0.00     0.023 C 
ENDROOT
BRANCH   1   2
ATOM      2  C   UNL A   1      33.074  30.176  26.260  1.00  0.00     0.116 C 
BRANCH   2   3
ATOM      3  N   UNL A   1      33.468  29.436  25.077  1.00  0.00    -0.356 N 
ATOM      4  C   UNL A   1      33.616  28.105  24.850  1.00  0.00     0.225 C 
ATOM      5  O   UNL A   1      33.980  27.775  23.716  1.00  0.00    -0.275 OA
ATOM      6  H   UNL A   1      33.665  30.001  24.296  1.00  0.00     0.163 HD
BRANCH   4   7
ATOM      7  C   UNL A   1      33.358  27.028  25.896  1.00  0.00     0.102 C 
ATOM      8  N   UNL A   1      32.114  24.987  25.753  1.00  0.00    -0.321 N 
ATOM      9  C   UNL A   1      33.464  24.643  26.170  1.00  0.00     0.122 C 
ATOM     10  C   UNL A   1      31.937  26.429  25.995  1.00  0.00     0.096 C 
ATOM     11  C   UNL A   1      34.320  25.840  25.816  1.00  0.00     0.037 C 
ATOM     12  C   UNL A   1      30.856  27.164  25.218  1.00  0.00     0.032 C 
BRANCH   8  13
ATOM     13  C   UNL A   1      31.146  24.067  26.092  1.00  0.00     0.317 C 
ATOM     14  N   UNL A   1      30.988  22.977  25.308  1.00  0.00    -0.332 N 
ATOM     15  H   UNL A   1      30.205  22.418  25.517  1.00  0.00     0.165 HD
ATOM     16  O   UNL A   1      30.488  24.143  27.128  1.00  0.00    -0.249 OA
BRANCH  14  17
ATOM     17  C   UNL A   1      31.800  22.513  24.205  1.00  0.00     0.174 C 
BRANCH  17  18
ATOM     18  C   UNL A   1      32.725  21.369  24.539  1.00  0.00     0.063 A 
ATOM     19  C   UNL A   1      32.386  17.722  24.786  1.00  0.00     0.089 C 
ATOM     20  C   UNL A   1      32.992  19.090  24.753  1.00  0.00     0.125 A 
ATOM     21  N   UNL A   1      34.331  19.180  24.821  1.00  0.00    -0.242 NA
ATOM     22  N   UNL A   1      32.163  20.141  24.610  1.00  0.00    -0.236 NA
ATOM     23  C   UNL A   1      34.851  20.418  24.750  1.00  0.00     0.115 A 
ATOM     24  C   UNL A   1      34.092  21.556  24.609  1.00  0.00     0.046 A 
ENDBRANCH  17  18
ENDBRANCH  14  17
ENDBRANCH   8  13
ENDBRANCH   4   7
ENDBRANCH   2   3
ENDBRANCH   1   2
BRANCH   1  25
ATOM     25  C   UNL A   1      31.395  32.078  26.749  1.00  0.00     0.023 C 
BRANCH  25  26
ATOM     26  C   UNL A   1      32.640  32.784  27.264  1.00  0.00     0.116 C 
BRANCH  26  27
ATOM     27  N   UNL A   1      32.406  34.178  27.613  1.00  0.00    -0.352 N 
ATOM     28  C   UNL A   1      33.013  34.957  28.572  1.00  0.00     0.251 C 
ATOM     29  H   UNL A   1      31.709  34.631  27.084  1.00  0.00     0.163 HD
ATOM     30  O   UNL A   1      32.605  36.085  28.808  1.00  0.00    -0.269 OA
BRANCH  28  31
ATOM     31  C   UNL A   1      34.145  34.401  29.341  1.00  0.00     0.039 A 
ATOM     32  C   UNL A   1      33.882  33.651  30.489  1.00  0.00     0.014 A 
ATOM     33  C   UNL A   1      35.455  34.574  28.893  1.00  0.00     0.014 A 
ATOM     34  C   UNL A   1      34.931  32.994  31.136  1.00  0.00     0.010 A 
ATOM     35  C   UNL A   1      36.480  33.845  29.479  1.00  0.00     0.010 A 
ATOM     36  C   UNL A   1      36.229  33.045  30.604  1.00  0.00    -0.014 A 
BRANCH  36  37
ATOM     37  C   UNL A   1      37.351  32.281  31.204  1.00  0.00     0.031 A 
ATOM     38  C   UNL A   1      37.862  32.661  32.565  1.00  0.00     0.074 A 
ATOM     39  C   UNL A   1      37.964  31.315  30.491  1.00  0.00     0.049 A 
ATOM     40  N   UNL A   1      38.914  32.221  33.208  1.00  0.00    -0.248 NA
ATOM     41  C   UNL A   1      37.112  33.704  33.282  1.00  0.00     0.031 C 
ATOM     42  C   UNL A   1      37.590  30.888  29.142  1.00  0.00     0.029 A 
ATOM     43  N   UNL A   1      39.046  30.528  30.799  1.00  0.00    -0.354 N 
ATOM     44  C   UNL A   1      38.960  32.948  34.391  1.00  0.00     0.074 A 
ATOM     45  C   UNL A   1      37.871  33.899  34.350  1.00  0.00     0.031 C 
ATOM     46  C   UNL A   1      38.410  29.899  28.749  1.00  0.00     0.029 A 
ATOM     47  C   UNL A   1      39.394  29.653  29.798  1.00  0.00     0.049 A 
ATOM     48  H   UNL A   1      39.526  30.584  31.656  1.00  0.00     0.167 HD
ATOM     49  C   UNL A   1      39.815  32.813  35.431  1.00  0.00     0.037 A 
ATOM     50  C   UNL A   1      40.403  28.763  29.733  1.00  0.00     0.037 A 
ATOM     51  C   UNL A   1      40.873  31.841  35.484  1.00  0.00     0.049 A 
ATOM     52  C   UNL A   1      41.346  28.641  30.901  1.00  0.00     0.074 A 
ATOM     53  C   UNL A   1      41.759  31.584  36.514  1.00  0.00     0.029 A 
ATOM     54  N   UNL A   1      41.180  30.957  34.459  1.00  0.00    -0.354 N 
ATOM     55  N   UNL A   1      41.346  29.294  32.037  1.00  0.00    -0.248 NA
ATOM     56  C   UNL A   1      42.430  27.656  30.775  1.00  0.00     0.031 C 
ATOM     57  C   UNL A   1      42.626  30.567  36.100  1.00  0.00     0.029 A 
ATOM     58  C   UNL A   1      42.252  30.163  34.828  1.00  0.00     0.049 A 
ATOM     59  H   UNL A   1      40.705  30.902  33.599  1.00  0.00     0.167 HD
ATOM     60  C   UNL A   1      42.406  28.782  32.771  1.00  0.00     0.074 A 
ATOM     61  C   UNL A   1      43.021  27.754  31.958  1.00  0.00     0.031 C 
ATOM     62  C   UNL A   1      42.836  29.132  34.008  1.00  0.00     0.037 A 
BRANCH  49  63
ATOM     63  C   UNL A   1      39.628  33.731  36.604  1.00  0.00     0.064 A 
ATOM     64  C   UNL A   1      38.839  33.360  37.705  1.00  0.00     0.173 A 
ATOM     65  C   UNL A   1      40.262  34.981  36.642  1.00  0.00     0.173 A 
ATOM     66  F   UNL A   1      38.200  32.181  37.710  1.00  0.00    -0.203 F 
ATOM     67  C   UNL A   1      38.669  34.220  38.786  1.00  0.00     0.198 A 
ATOM     68  C   UNL A   1      40.114  35.827  37.739  1.00  0.00     0.198 A 
ATOM     69  F   UNL A   1      41.029  35.383  35.618  1.00  0.00    -0.203 F 
ATOM     70  F   UNL A   1      37.869  33.865  39.801  1.00  0.00    -0.200 F 
ATOM     71  C   UNL A   1      39.311  35.448  38.806  1.00  0.00     0.200 A 
ATOM     72  F   UNL A   1      40.743  37.009  37.763  1.00  0.00    -0.200 F 
ATOM     73  F   UNL A   1      39.150  36.274  39.849  1.00  0.00    -0.200 F 
ENDBRANCH  49  63
BRANCH  50  74
ATOM     74  C   UNL A   1      40.563  27.898  28.535  1.00  0.00     0.064 A 
ATOM     75  C   UNL A   1      41.320  28.330  27.436  1.00  0.00     0.173 A 
ATOM     76  C   UNL A   1      39.957  26.636  28.453  1.00  0.00     0.173 A 
ATOM     77  F   UNL A   1      41.903  29.539  27.460  1.00  0.00    -0.203 F 
ATOM     78  C   UNL A   1      41.444  27.546  26.292  1.00  0.00     0.198 A 
ATOM     79  C   UNL A   1      40.104  25.840  27.318  1.00  0.00     0.198 A 
ATOM     80  F   UNL A   1      39.226  26.174  29.477  1.00  0.00    -0.203 F 
ATOM     81  F   UNL A   1      42.131  28.006  25.239  1.00  0.00    -0.200 F 
ATOM     82  C   UNL A   1      40.839  26.299  26.235  1.00  0.00     0.200 A 
ATOM     83  F   UNL A   1      39.528  24.631  27.272  1.00  0.00    -0.200 F 
ATOM     84  F   UNL A   1      40.957  25.545  25.133  1.00  0.00    -0.200 F 
ENDBRANCH  50  74
BRANCH  62  85
ATOM     85  C   UNL A   1      44.000  28.374  34.574  1.00  0.00     0.064 A 
ATOM     86  C   UNL A   1      43.821  27.175  35.277  1.00  0.00     0.173 A 
ATOM     87  C   UNL A   1      45.311  28.826  34.359  1.00  0.00     0.173 A 
ATOM     88  F   UNL A   1      42.585  26.712  35.520  1.00  0.00    -0.203 F 
ATOM     89  C   UNL A   1      44.914  26.463  35.761  1.00  0.00     0.198 A 
ATOM     90  C   UNL A   1      46.402  28.097  34.821  1.00  0.00     0.198 A 
ATOM     91  F   UNL A   1      45.532  29.964  33.686  1.00  0.00    -0.203 F 
ATOM     92  F   UNL A   1      44.719  25.338  36.465  1.00  0.00    -0.200 F 
ATOM     93  C   UNL A   1      46.203  26.919  35.526  1.00  0.00     0.200 A 
ATOM     94  F   UNL A   1      47.646  28.532  34.582  1.00  0.00    -0.200 F 
ATOM     95  F   UNL A   1      47.254  26.226  35.984  1.00  0.00    -0.200 F 
ENDBRANCH  62  85
ENDBRANCH  36  37
ENDBRANCH  28  31
ENDBRANCH  26  27
ENDBRANCH  25  26
ENDBRANCH   1  25
TORSDOF 14
ENDMDL
MODEL 3
REMARK VINA RESULT:     -12.9      1.048      2.491
REMARK SMILES Cc1nccc(CNC(=O)N2CC[C@@H](C(=O)NCCCCNC(=O)c3ccc(-c4c5nc(c(-c6c(F)c(F)c(F)c(F)c6F)c6ccc([nH]6)c(-c6c(F)c(F)c(F)c(F)c6F)c6nc(c(-c7c(F)c(F)c(F)c(F)c7F)c7ccc4[nH]7)C=C6)C=C5)cc3)[C@H]2C)n1
REMARK SMILES IDX 19 1 18 2 17 3 15 4 16 5 14 7 11 8 12 9 88 10 13 11 89 12
REMARK SMILES IDX 9 13 8 14 10 16 7 17 6 18 1 19 2 20 3 21 90 22 4 23 5 24
REMARK SMILES IDX 20 25 21 26 22 27 23 28 24 30 25 31 26 32 87 33 27 34 86 35
REMARK SMILES IDX 28 36 29 37 30 38 80 39 31 40 85 41 79 42 81 43 32 44 84 45
REMARK SMILES IDX 78 46 77 47 33 49 65 50 45 51 64 52 46 53 49 54 63 55 82 56
REMARK SMILES IDX 47 57 48 58 62 60 83 61 50 62 34 63 35 64 43 65 36 66 37 67
REMARK SMILES IDX 41 68 44 69 38 70 39 71 42 72 40 73 66 74 67 75 75 76 68 77
REMARK SMILES IDX 69 78 73 79 76 80 70 81 71 82 74 83 72 84 51 85 52 86 60 87
REMARK SMILES IDX 53 88 54 89 58 90 61 91 55 92 56 93 59 94 57 95
REMARK H PARENT 17 6 8 15 22 29 81 48 49 59
REMARK Flexibility Score: inf
ROOT
ATOM      1  C   UNL A   1      32.059  30.473  26.174  1.00  0.00     0.023 C 
ENDROOT
BRANCH   1   2
ATOM      2  C   UNL A   1      32.719  29.404  27.045  1.00  0.00     0.116 C 
BRANCH   2   3
ATOM      3  N   UNL A   1      31.928  28.192  27.130  1.00  0.00    -0.356 N 
ATOM      4  C   UNL A   1      31.444  27.357  26.173  1.00  0.00     0.225 C 
ATOM      5  O   UNL A   1      30.783  26.391  26.567  1.00  0.00    -0.275 OA
ATOM      6  H   UNL A   1      31.698  27.925  28.049  1.00  0.00     0.163 HD
BRANCH   4   7
ATOM      7  C   UNL A   1      31.677  27.549  24.680  1.00  0.00     0.102 C 
ATOM      8  N   UNL A   1      32.135  25.947  22.960  1.00  0.00    -0.321 N 
ATOM      9  C   UNL A   1      30.944  26.680  22.562  1.00  0.00     0.122 C 
ATOM     10  C   UNL A   1      32.806  26.738  24.005  1.00  0.00     0.096 C 
ATOM     11  C   UNL A   1      30.425  27.335  23.824  1.00  0.00     0.037 C 
ATOM     12  C   UNL A   1      33.761  26.026  24.950  1.00  0.00     0.032 C 
BRANCH   8  13
ATOM     13  C   UNL A   1      32.834  25.364  21.926  1.00  0.00     0.317 C 
ATOM     14  N   UNL A   1      32.996  24.021  21.931  1.00  0.00    -0.332 N 
ATOM     15  H   UNL A   1      33.606  23.668  21.245  1.00  0.00     0.165 HD
ATOM     16  O   UNL A   1      33.231  25.996  20.949  1.00  0.00    -0.249 OA
BRANCH  14  17
ATOM     17  C   UNL A   1      32.404  23.028  22.800  1.00  0.00     0.174 C 
BRANCH  17  18
ATOM     18  C   UNL A   1      33.394  22.157  23.531  1.00  0.00     0.063 A 
ATOM     19  C   UNL A   1      36.896  22.498  24.582  1.00  0.00     0.089 C 
ATOM     20  C   UNL A   1      35.512  21.951  24.418  1.00  0.00     0.125 A 
ATOM     21  N   UNL A   1      35.198  20.835  25.096  1.00  0.00    -0.242 NA
ATOM     22  N   UNL A   1      34.654  22.637  23.639  1.00  0.00    -0.236 NA
ATOM     23  C   UNL A   1      33.937  20.387  24.960  1.00  0.00     0.115 A 
ATOM     24  C   UNL A   1      32.987  21.011  24.187  1.00  0.00     0.046 A 
ENDBRANCH  17  18
ENDBRANCH  14  17
ENDBRANCH   8  13
ENDBRANCH   4   7
ENDBRANCH   2   3
ENDBRANCH   1   2
BRANCH   1  25
ATOM     25  C   UNL A   1      31.672  31.761  26.894  1.00  0.00     0.023 C 
BRANCH  25  26
ATOM     26  C   UNL A   1      32.843  32.621  27.346  1.00  0.00     0.116 C 
BRANCH  26  27
ATOM     27  N   UNL A   1      32.468  34.001  27.623  1.00  0.00    -0.352 N 
ATOM     28  C   UNL A   1      32.987  34.884  28.542  1.00  0.00     0.251 C 
ATOM     29  H   UNL A   1      31.733  34.354  27.070  1.00  0.00     0.163 HD
ATOM     30  O   UNL A   1      32.467  35.976  28.719  1.00  0.00    -0.269 OA
BRANCH  28  31
ATOM     31  C   UNL A   1      34.163  34.483  29.341  1.00  0.00     0.039 A 
ATOM     32  C   UNL A   1      33.965  33.891  30.589  1.00  0.00     0.014 A 
ATOM     33  C   UNL A   1      35.451  34.643  28.829  1.00  0.00     0.014 A 
ATOM     34  C   UNL A   1      35.059  33.370  31.284  1.00  0.00     0.010 A 
ATOM     35  C   UNL A   1      36.523  34.042  29.474  1.00  0.00     0.010 A 
ATOM     36  C   UNL A   1      36.338  33.396  30.706  1.00  0.00    -0.014 A 
BRANCH  36  37
ATOM     37  C   UNL A   1      37.509  32.767  31.366  1.00  0.00     0.031 A 
ATOM     38  C   UNL A   1      38.218  31.628  30.690  1.00  0.00     0.074 A 
ATOM     39  C   UNL A   1      37.871  33.156  32.604  1.00  0.00     0.049 A 
ATOM     40  N   UNL A   1      39.166  30.851  31.149  1.00  0.00    -0.248 NA
ATOM     41  C   UNL A   1      37.776  31.294  29.327  1.00  0.00     0.031 C 
ATOM     42  C   UNL A   1      37.231  34.217  33.383  1.00  0.00     0.029 A 
ATOM     43  N   UNL A   1      38.860  32.689  33.434  1.00  0.00    -0.354 N 
ATOM     44  C   UNL A   1      39.414  29.927  30.141  1.00  0.00     0.074 A 
ATOM     45  C   UNL A   1      38.479  30.199  29.074  1.00  0.00     0.031 C 
ATOM     46  C   UNL A   1      37.859  34.337  34.565  1.00  0.00     0.029 A 
ATOM     47  C   UNL A   1      38.916  33.335  34.645  1.00  0.00     0.049 A 
ATOM     48  H   UNL A   1      39.473  31.960  33.185  1.00  0.00     0.167 HD
ATOM     49  C   UNL A   1      40.359  28.959  30.099  1.00  0.00     0.037 A 
ATOM     50  C   UNL A   1      39.724  33.131  35.704  1.00  0.00     0.037 A 
ATOM     51  C   UNL A   1      41.313  28.717  31.147  1.00  0.00     0.049 A 
ATOM     52  C   UNL A   1      40.759  32.040  35.634  1.00  0.00     0.074 A 
ATOM     53  C   UNL A   1      42.346  27.799  31.180  1.00  0.00     0.029 A 
ATOM     54  N   UNL A   1      41.352  29.409  32.350  1.00  0.00    -0.354 N 
ATOM     55  N   UNL A   1      41.022  31.210  34.654  1.00  0.00    -0.248 NA
ATOM     56  C   UNL A   1      41.611  31.859  36.818  1.00  0.00     0.031 C 
ATOM     57  C   UNL A   1      42.991  27.911  32.417  1.00  0.00     0.029 A 
ATOM     58  C   UNL A   1      42.384  28.928  33.137  1.00  0.00     0.049 A 
ATOM     59  H   UNL A   1      40.738  30.135  32.604  1.00  0.00     0.167 HD
ATOM     60  C   UNL A   1      42.083  30.430  35.090  1.00  0.00     0.074 A 
ATOM     61  C   UNL A   1      42.427  30.893  36.418  1.00  0.00     0.031 C 
ATOM     62  C   UNL A   1      42.718  29.417  34.450  1.00  0.00     0.037 A 
BRANCH  49  63
ATOM     63  C   UNL A   1      40.416  28.102  28.869  1.00  0.00     0.064 A 
ATOM     64  C   UNL A   1      41.173  28.479  27.748  1.00  0.00     0.173 A 
ATOM     65  C   UNL A   1      39.729  26.880  28.816  1.00  0.00     0.173 A 
ATOM     66  F   UNL A   1      41.835  29.644  27.743  1.00  0.00    -0.203 F 
ATOM     67  C   UNL A   1      41.216  27.678  26.611  1.00  0.00     0.198 A 
ATOM     68  C   UNL A   1      39.798  26.067  27.688  1.00  0.00     0.198 A 
ATOM     69  F   UNL A   1      38.994  26.472  29.861  1.00  0.00    -0.203 F 
ATOM     70  F   UNL A   1      41.902  28.084  25.534  1.00  0.00    -0.200 F 
ATOM     71  C   UNL A   1      40.535  26.470  26.583  1.00  0.00     0.200 A 
ATOM     72  F   UNL A   1      39.150  24.895  27.667  1.00  0.00    -0.200 F 
ATOM     73  F   UNL A   1      40.580  25.698  25.489  1.00  0.00    -0.200 F 
ENDBRANCH  49  63
BRANCH  50  74
ATOM     74  C   UNL A   1      39.607  33.989  36.912  1.00  0.00     0.064 A 
ATOM     75  C   UNL A   1      38.821  33.587  38.002  1.00  0.00     0.173 A 
ATOM     76  C   UNL A   1      40.258  35.227  37.000  1.00  0.00     0.173 A 
ATOM     77  F   UNL A   1      38.162  32.419  37.957  1.00  0.00    -0.203 F 
ATOM     78  C   UNL A   1      38.672  34.401  39.123  1.00  0.00     0.198 A 
ATOM     79  C   UNL A   1      40.130  36.029  38.133  1.00  0.00     0.198 A 
ATOM     80  F   UNL A   1      41.025  35.657  35.987  1.00  0.00    -0.203 F 
ATOM     81  F   UNL A   1      37.876  34.013  40.128  1.00  0.00    -0.200 F 
ATOM     82  C   UNL A   1      39.330  35.619  39.189  1.00  0.00     0.200 A 
ATOM     83  F   UNL A   1      40.777  37.200  38.199  1.00  0.00    -0.200 F 
ATOM     84  F   UNL A   1      39.185  36.403  40.267  1.00  0.00    -0.200 F 
ENDBRANCH  50  74
BRANCH  62  85
ATOM     85  C   UNL A   1      43.870  28.769  35.158  1.00  0.00     0.064 A 
ATOM     86  C   UNL A   1      43.686  27.658  35.993  1.00  0.00     0.173 A 
ATOM     87  C   UNL A   1      45.178  29.232  34.952  1.00  0.00     0.173 A 
ATOM     88  F   UNL A   1      42.451  27.190  36.232  1.00  0.00    -0.203 F 
ATOM     89  C   UNL A   1      44.771  27.044  36.611  1.00  0.00     0.198 A 
ATOM     90  C   UNL A   1      46.263  28.598  35.550  1.00  0.00     0.198 A 
ATOM     91  F   UNL A   1      45.405  30.288  34.157  1.00  0.00    -0.203 F 
ATOM     92  F   UNL A   1      44.569  26.006  37.436  1.00  0.00    -0.200 F 
ATOM     93  C   UNL A   1      46.058  27.508  36.383  1.00  0.00     0.200 A 
ATOM     94  F   UNL A   1      47.506  29.039  35.319  1.00  0.00    -0.200 F 
ATOM     95  F   UNL A   1      47.101  26.907  36.971  1.00  0.00    -0.200 F 
ENDBRANCH  62  85
ENDBRANCH  36  37
ENDBRANCH  28  31
ENDBRANCH  26  27
ENDBRANCH  25  26
ENDBRANCH   1  25
TORSDOF 14
ENDMDL
