MODEL 1
REMARK VINA RESULT:     -12.1      0.000      0.000
REMARK SMILES O=C(CC1(NC(=O)c2ccncc2Cl)CCCCC1)NCCCCNC(=O)c1ccc(-c2c3nc(c(-c4c(F)c(F)c(F)c(F)c4F)c4ccc([nH]4)c(-c4c(F)c(F)c(F)c(F)c4F)c4nc(c(-c5c(F)c(F)c(F)c(F)c5F)c5ccc2[nH]5)C=C4)C=C3)cc1
REMARK SMILES IDX 22 1 21 2 20 3 1 4 2 5 3 7 4 8 15 9 19 10 16 11 18 12 17 13
REMARK SMILES IDX 5 14 6 15 7 17 8 18 9 19 13 20 10 21 12 22 14 23 11 24 23 25
REMARK SMILES IDX 24 26 25 27 26 28 27 30 28 31 29 32 90 33 30 34 89 35 31 36
REMARK SMILES IDX 32 37 33 38 83 39 34 40 88 41 82 42 84 43 35 44 87 45 81 46
REMARK SMILES IDX 80 47 36 49 68 50 48 51 67 52 49 53 52 54 66 55 85 56 50 57
REMARK SMILES IDX 51 58 65 60 86 61 53 62 37 63 38 64 46 65 39 66 40 67 44 68
REMARK SMILES IDX 47 69 41 70 42 71 45 72 43 73 69 74 70 75 78 76 71 77 72 78
REMARK SMILES IDX 76 79 79 80 73 81 74 82 77 83 75 84 54 85 55 86 63 87 56 88
REMARK SMILES IDX 57 89 61 90 64 91 58 92 59 93 62 94 60 95
REMARK H PARENT 20 6 5 16 25 29 84 48 52 59
REMARK Flexibility Score: inf
ROOT
ATOM      1  C   UNL A   1      37.388  21.360  24.582  1.00  0.00     0.023 C 
ENDROOT
BRANCH   1   2
ATOM      2  C   UNL A   1      37.610  22.521  25.551  1.00  0.00     0.116 C 
BRANCH   2   3
ATOM      3  N   UNL A   1      36.705  23.607  25.265  1.00  0.00    -0.356 N 
ATOM      4  O   UNL A   1      34.948  22.920  26.597  1.00  0.00    -0.275 OA
ATOM      5  C   UNL A   1      35.432  23.697  25.789  1.00  0.00     0.222 C 
ATOM      6  H   UNL A   1      37.012  24.323  24.664  1.00  0.00     0.163 HD
BRANCH   5   7
ATOM      7  C   UNL A   1      34.679  24.879  25.215  1.00  0.00     0.128 C 
BRANCH   7   8
ATOM      8  C   UNL A   1      33.676  24.601  24.061  1.00  0.00     0.049 C 
ATOM      9  C   UNL A   1      33.959  23.174  23.513  1.00  0.00     0.029 C 
ATOM     10  C   UNL A   1      32.199  24.672  24.562  1.00  0.00     0.029 C 
ATOM     11  C   UNL A   1      32.888  22.633  22.564  1.00  0.00     0.002 C 
ATOM     12  C   UNL A   1      31.152  24.088  23.612  1.00  0.00     0.002 C 
ATOM     13  C   UNL A   1      31.511  22.668  23.207  1.00  0.00     0.000 C 
BRANCH   8  14
ATOM     14  N   UNL A   1      33.800  25.570  22.910  1.00  0.00    -0.346 N 
ATOM     15  C   UNL A   1      33.638  26.917  22.688  1.00  0.00     0.253 C 
ATOM     16  H   UNL A   1      34.076  25.107  22.086  1.00  0.00     0.164 HD
ATOM     17  O   UNL A   1      33.916  27.383  21.586  1.00  0.00    -0.269 OA
BRANCH  15  18
ATOM     18  C   UNL A   1      32.993  27.810  23.657  1.00  0.00     0.061 A 
ATOM     19  C   UNL A   1      33.812  28.329  24.669  1.00  0.00     0.035 A 
ATOM     20  C   UNL A   1      31.654  28.175  23.583  1.00  0.00     0.072 A 
ATOM     21  C   UNL A   1      33.275  29.280  25.516  1.00  0.00     0.112 A 
ATOM     22  C   UNL A   1      31.222  29.153  24.466  1.00  0.00     0.132 A 
ATOM     23  Cl  UNL A   1      30.543  27.499  22.463  1.00  0.00    -0.082 Cl
ATOM     24  N   UNL A   1      32.006  29.727  25.414  1.00  0.00    -0.263 NA
ENDBRANCH  15  18
ENDBRANCH   8  14
ENDBRANCH   7   8
ENDBRANCH   5   7
ENDBRANCH   2   3
ENDBRANCH   1   2
BRANCH   1  25
ATOM     25  C   UNL A   1      38.147  20.071  24.921  1.00  0.00     0.023 C 
BRANCH  25  26
ATOM     26  C   UNL A   1      39.157  20.187  26.059  1.00  0.00     0.116 C 
BRANCH  26  27
ATOM     27  N   UNL A   1      40.243  19.231  25.934  1.00  0.00    -0.352 N 
ATOM     28  C   UNL A   1      41.599  19.421  26.029  1.00  0.00     0.251 C 
ATOM     29  H   UNL A   1      39.963  18.304  25.756  1.00  0.00     0.163 HD
ATOM     30  O   UNL A   1      42.366  18.515  25.715  1.00  0.00    -0.269 OA
BRANCH  28  31
ATOM     31  C   UNL A   1      42.147  20.719  26.481  1.00  0.00     0.039 A 
ATOM     32  C   UNL A   1      42.593  21.630  25.521  1.00  0.00     0.014 A 
ATOM     33  C   UNL A   1      42.241  21.035  27.839  1.00  0.00     0.014 A 
ATOM     34  C   UNL A   1      43.072  22.881  25.917  1.00  0.00     0.010 A 
ATOM     35  C   UNL A   1      42.645  22.310  28.229  1.00  0.00     0.010 A 
ATOM     36  C   UNL A   1      43.065  23.248  27.272  1.00  0.00    -0.014 A 
BRANCH  36  37
ATOM     37  C   UNL A   1      43.483  24.608  27.703  1.00  0.00     0.031 A 
ATOM     38  C   UNL A   1      42.454  25.658  28.019  1.00  0.00     0.074 A 
ATOM     39  C   UNL A   1      44.794  24.916  27.753  1.00  0.00     0.049 A 
ATOM     40  N   UNL A   1      42.626  26.915  28.347  1.00  0.00    -0.248 NA
ATOM     41  C   UNL A   1      41.044  25.249  27.932  1.00  0.00     0.031 C 
ATOM     42  C   UNL A   1      45.889  24.001  27.429  1.00  0.00     0.029 A 
ATOM     43  N   UNL A   1      45.429  26.087  28.083  1.00  0.00    -0.354 N 
ATOM     44  C   UNL A   1      41.351  27.445  28.496  1.00  0.00     0.074 A 
ATOM     45  C   UNL A   1      40.415  26.391  28.164  1.00  0.00     0.031 C 
ATOM     46  C   UNL A   1      47.060  24.637  27.595  1.00  0.00     0.029 A 
ATOM     47  C   UNL A   1      46.798  26.017  27.994  1.00  0.00     0.049 A 
ATOM     48  H   UNL A   1      44.948  26.902  28.359  1.00  0.00     0.167 HD
ATOM     49  C   UNL A   1      40.993  28.688  28.897  1.00  0.00     0.037 A 
ATOM     50  C   UNL A   1      47.737  26.960  28.197  1.00  0.00     0.037 A 
ATOM     51  C   UNL A   1      41.927  29.731  29.236  1.00  0.00     0.049 A 
ATOM     52  C   UNL A   1      47.313  28.342  28.616  1.00  0.00     0.074 A 
ATOM     53  C   UNL A   1      41.663  31.009  29.697  1.00  0.00     0.029 A 
ATOM     54  N   UNL A   1      43.307  29.619  29.141  1.00  0.00    -0.354 N 
ATOM     55  N   UNL A   1      46.107  28.813  28.819  1.00  0.00    -0.248 NA
ATOM     56  C   UNL A   1      48.383  29.324  28.841  1.00  0.00     0.031 C 
ATOM     57  C   UNL A   1      42.878  31.688  29.827  1.00  0.00     0.029 A 
ATOM     58  C   UNL A   1      43.905  30.814  29.510  1.00  0.00     0.049 A 
ATOM     59  H   UNL A   1      43.789  28.810  28.855  1.00  0.00     0.167 HD
ATOM     60  C   UNL A   1      46.272  30.130  29.223  1.00  0.00     0.074 A 
ATOM     61  C   UNL A   1      47.697  30.380  29.254  1.00  0.00     0.031 C 
ATOM     62  C   UNL A   1      45.327  31.050  29.542  1.00  0.00     0.037 A 
BRANCH  49  63
ATOM     63  C   UNL A   1      39.524  28.991  28.990  1.00  0.00     0.064 A 
ATOM     64  C   UNL A   1      38.778  29.382  27.866  1.00  0.00     0.173 A 
ATOM     65  C   UNL A   1      38.843  28.858  30.210  1.00  0.00     0.173 A 
ATOM     66  F   UNL A   1      39.381  29.534  26.677  1.00  0.00    -0.203 F 
ATOM     67  C   UNL A   1      37.418  29.661  27.967  1.00  0.00     0.198 A 
ATOM     68  C   UNL A   1      37.475  29.103  30.300  1.00  0.00     0.198 A 
ATOM     69  F   UNL A   1      39.502  28.481  31.316  1.00  0.00    -0.203 F 
ATOM     70  F   UNL A   1      36.741  30.087  26.892  1.00  0.00    -0.200 F 
ATOM     71  C   UNL A   1      36.766  29.514  29.182  1.00  0.00     0.200 A 
ATOM     72  F   UNL A   1      36.843  28.945  31.472  1.00  0.00    -0.200 F 
ATOM     73  F   UNL A   1      35.455  29.776  29.277  1.00  0.00    -0.200 F 
ENDBRANCH  49  63
BRANCH  50  74
ATOM     74  C   UNL A   1      49.175  26.626  28.018  1.00  0.00     0.064 A 
ATOM     75  C   UNL A   1      49.993  26.337  29.121  1.00  0.00     0.173 A 
ATOM     76  C   UNL A   1      49.764  26.594  26.746  1.00  0.00     0.173 A 
ATOM     77  F   UNL A   1      49.483  26.374  30.360  1.00  0.00    -0.203 F 
ATOM     78  C   UNL A   1      51.348  26.054  28.958  1.00  0.00     0.198 A 
ATOM     79  C   UNL A   1      51.111  26.276  26.581  1.00  0.00     0.198 A 
ATOM     80  F   UNL A   1      49.026  26.854  25.657  1.00  0.00    -0.203 F 
ATOM     81  F   UNL A   1      52.116  25.831  30.033  1.00  0.00    -0.200 F 
ATOM     82  C   UNL A   1      51.904  26.016  27.688  1.00  0.00     0.200 A 
ATOM     83  F   UNL A   1      51.640  26.224  25.351  1.00  0.00    -0.200 F 
ATOM     84  F   UNL A   1      53.205  25.738  27.533  1.00  0.00    -0.200 F 
ENDBRANCH  50  74
BRANCH  62  85
ATOM     85  C   UNL A   1      45.804  32.403  29.990  1.00  0.00     0.064 A 
ATOM     86  C   UNL A   1      45.975  33.464  29.088  1.00  0.00     0.173 A 
ATOM     87  C   UNL A   1      46.055  32.651  31.349  1.00  0.00     0.173 A 
ATOM     88  F   UNL A   1      45.762  33.278  27.778  1.00  0.00    -0.203 F 
ATOM     89  C   UNL A   1      46.408  34.713  29.527  1.00  0.00     0.198 A 
ATOM     90  C   UNL A   1      46.454  33.910  31.788  1.00  0.00     0.198 A 
ATOM     91  F   UNL A   1      45.901  31.673  32.254  1.00  0.00    -0.203 F 
ATOM     92  F   UNL A   1      46.616  35.697  28.640  1.00  0.00    -0.200 F 
ATOM     93  C   UNL A   1      46.638  34.938  30.875  1.00  0.00     0.200 A 
ATOM     94  F   UNL A   1      46.660  34.128  33.093  1.00  0.00    -0.200 F 
ATOM     95  F   UNL A   1      47.047  36.143  31.296  1.00  0.00    -0.200 F 
ENDBRANCH  62  85
ENDBRANCH  36  37
ENDBRANCH  28  31
ENDBRANCH  26  27
ENDBRANCH  25  26
ENDBRANCH   1  25
TORSDOF 14
ENDMDL
MODEL 2
REMARK VINA RESULT:     -12.0      5.231     10.460
REMARK SMILES O=C(CC1(NC(=O)c2ccncc2Cl)CCCCC1)NCCCCNC(=O)c1ccc(-c2c3nc(c(-c4c(F)c(F)c(F)c(F)c4F)c4ccc([nH]4)c(-c4c(F)c(F)c(F)c(F)c4F)c4nc(c(-c5c(F)c(F)c(F)c(F)c5F)c5ccc2[nH]5)C=C4)C=C3)cc1
REMARK SMILES IDX 22 1 21 2 20 3 1 4 2 5 3 7 4 8 15 9 19 10 16 11 18 12 17 13
REMARK SMILES IDX 5 14 6 15 7 17 8 18 9 19 13 20 10 21 12 22 14 23 11 24 23 25
REMARK SMILES IDX 24 26 25 27 26 28 27 30 28 31 29 32 90 33 30 34 89 35 31 36
REMARK SMILES IDX 32 37 33 38 83 39 34 40 88 41 82 42 84 43 35 44 87 45 81 46
REMARK SMILES IDX 80 47 36 49 68 50 48 51 67 52 49 53 52 54 66 55 85 56 50 57
REMARK SMILES IDX 51 58 65 60 86 61 53 62 37 63 38 64 46 65 39 66 40 67 44 68
REMARK SMILES IDX 47 69 41 70 42 71 45 72 43 73 69 74 70 75 78 76 71 77 72 78
REMARK SMILES IDX 76 79 79 80 73 81 74 82 77 83 75 84 54 85 55 86 63 87 56 88
REMARK SMILES IDX 57 89 61 90 64 91 58 92 59 93 62 94 60 95
REMARK H PARENT 20 6 5 16 25 29 84 48 52 59
REMARK Flexibility Score: inf
ROOT
ATOM      1  C   UNL A   1      31.795  30.606  26.542  1.00  0.00     0.023 C 
ENDROOT
BRANCH   1   2
ATOM      2  C   UNL A   1      33.267  30.192  26.521  1.00  0.00     0.116 C 
BRANCH   2   3
ATOM      3  N   UNL A   1      33.397  28.759  26.625  1.00  0.00    -0.356 N 
ATOM      4  O   UNL A   1      33.693  28.301  24.382  1.00  0.00    -0.275 OA
ATOM      5  C   UNL A   1      33.566  27.928  25.537  1.00  0.00     0.222 C 
ATOM      6  H   UNL A   1      33.363  28.352  27.521  1.00  0.00     0.163 HD
BRANCH   5   7
ATOM      7  C   UNL A   1      33.550  26.470  25.946  1.00  0.00     0.128 C 
BRANCH   7   8
ATOM      8  C   UNL A   1      32.272  25.647  25.623  1.00  0.00     0.049 C 
ATOM      9  C   UNL A   1      31.054  26.612  25.674  1.00  0.00     0.029 C 
ATOM     10  C   UNL A   1      32.354  25.003  24.203  1.00  0.00     0.029 C 
ATOM     11  C   UNL A   1      29.756  26.029  25.112  1.00  0.00     0.002 C 
ATOM     12  C   UNL A   1      31.035  24.464  23.647  1.00  0.00     0.002 C 
ATOM     13  C   UNL A   1      29.948  25.525  23.690  1.00  0.00     0.000 C 
BRANCH   8  14
ATOM     14  N   UNL A   1      32.015  24.527  26.603  1.00  0.00    -0.346 N 
ATOM     15  C   UNL A   1      32.606  23.345  26.979  1.00  0.00     0.253 C 
ATOM     16  H   UNL A   1      31.193  24.691  27.119  1.00  0.00     0.164 HD
ATOM     17  O   UNL A   1      32.127  22.702  27.911  1.00  0.00    -0.269 OA
BRANCH  15  18
ATOM     18  C   UNL A   1      33.693  22.723  26.217  1.00  0.00     0.061 A 
ATOM     19  C   UNL A   1      34.986  23.206  26.464  1.00  0.00     0.035 A 
ATOM     20  C   UNL A   1      33.495  21.680  25.318  1.00  0.00     0.072 A 
ATOM     21  C   UNL A   1      36.048  22.552  25.870  1.00  0.00     0.112 A 
ATOM     22  C   UNL A   1      34.631  21.080  24.795  1.00  0.00     0.132 A 
ATOM     23  Cl  UNL A   1      31.946  21.105  24.854  1.00  0.00    -0.082 Cl
ATOM     24  N   UNL A   1      35.899  21.479  25.066  1.00  0.00    -0.263 NA
ENDBRANCH  15  18
ENDBRANCH   8  14
ENDBRANCH   7   8
ENDBRANCH   5   7
ENDBRANCH   2   3
ENDBRANCH   1   2
BRANCH   1  25
ATOM     25  C   UNL A   1      31.536  32.086  26.853  1.00  0.00     0.023 C 
BRANCH  25  26
ATOM     26  C   UNL A   1      32.784  32.932  27.086  1.00  0.00     0.116 C 
BRANCH  26  27
ATOM     27  N   UNL A   1      32.467  34.256  27.592  1.00  0.00    -0.352 N 
ATOM     28  C   UNL A   1      32.991  34.940  28.661  1.00  0.00     0.251 C 
ATOM     29  H   UNL A   1      31.770  34.738  27.091  1.00  0.00     0.163 HD
ATOM     30  O   UNL A   1      32.465  35.982  29.037  1.00  0.00    -0.269 OA
BRANCH  28  31
ATOM     31  C   UNL A   1      34.173  34.416  29.381  1.00  0.00     0.039 A 
ATOM     32  C   UNL A   1      33.974  33.704  30.567  1.00  0.00     0.014 A 
ATOM     33  C   UNL A   1      35.469  34.636  28.909  1.00  0.00     0.014 A 
ATOM     34  C   UNL A   1      35.068  33.158  31.244  1.00  0.00     0.010 A 
ATOM     35  C   UNL A   1      36.552  34.026  29.541  1.00  0.00     0.010 A 
ATOM     36  C   UNL A   1      36.363  33.281  30.716  1.00  0.00    -0.014 A 
BRANCH  36  37
ATOM     37  C   UNL A   1      37.526  32.628  31.373  1.00  0.00     0.031 A 
ATOM     38  C   UNL A   1      38.225  31.472  30.712  1.00  0.00     0.074 A 
ATOM     39  C   UNL A   1      37.917  33.039  32.594  1.00  0.00     0.049 A 
ATOM     40  N   UNL A   1      39.212  30.736  31.159  1.00  0.00    -0.248 NA
ATOM     41  C   UNL A   1      37.734  31.074  29.384  1.00  0.00     0.031 C 
ATOM     42  C   UNL A   1      37.295  34.120  33.361  1.00  0.00     0.029 A 
ATOM     43  N   UNL A   1      38.923  32.590  33.413  1.00  0.00    -0.354 N 
ATOM     44  C   UNL A   1      39.453  29.787  30.173  1.00  0.00     0.074 A 
ATOM     45  C   UNL A   1      38.470  30.002  29.133  1.00  0.00     0.031 C 
ATOM     46  C   UNL A   1      37.944  34.265  34.527  1.00  0.00     0.029 A 
ATOM     47  C   UNL A   1      38.999  33.258  34.612  1.00  0.00     0.049 A 
ATOM     48  H   UNL A   1      39.533  31.858  33.165  1.00  0.00     0.167 HD
ATOM     49  C   UNL A   1      40.421  28.840  30.127  1.00  0.00     0.037 A 
ATOM     50  C   UNL A   1      39.815  33.073  35.666  1.00  0.00     0.037 A 
ATOM     51  C   UNL A   1      41.404  28.636  31.160  1.00  0.00     0.049 A 
ATOM     52  C   UNL A   1      40.865  31.997  35.603  1.00  0.00     0.074 A 
ATOM     53  C   UNL A   1      42.453  27.734  31.187  1.00  0.00     0.029 A 
ATOM     54  N   UNL A   1      41.453  29.338  32.356  1.00  0.00    -0.354 N 
ATOM     55  N   UNL A   1      41.127  31.150  34.637  1.00  0.00    -0.248 NA
ATOM     56  C   UNL A   1      41.740  31.855  36.776  1.00  0.00     0.031 C 
ATOM     57  C   UNL A   1      43.101  27.850  32.420  1.00  0.00     0.029 A 
ATOM     58  C   UNL A   1      42.498  28.871  33.137  1.00  0.00     0.049 A 
ATOM     59  H   UNL A   1      40.837  30.063  32.611  1.00  0.00     0.167 HD
ATOM     60  C   UNL A   1      42.209  30.397  35.070  1.00  0.00     0.074 A 
ATOM     61  C   UNL A   1      42.569  30.900  36.379  1.00  0.00     0.031 C 
ATOM     62  C   UNL A   1      42.850  29.382  34.439  1.00  0.00     0.037 A 
BRANCH  49  63
ATOM     63  C   UNL A   1      40.463  27.948  28.919  1.00  0.00     0.064 A 
ATOM     64  C   UNL A   1      41.248  28.263  27.797  1.00  0.00     0.173 A 
ATOM     65  C   UNL A   1      39.739  26.747  28.892  1.00  0.00     0.173 A 
ATOM     66  F   UNL A   1      41.953  29.404  27.766  1.00  0.00    -0.203 F 
ATOM     67  C   UNL A   1      41.278  27.427  26.684  1.00  0.00     0.198 A 
ATOM     68  C   UNL A   1      39.799  25.896  27.791  1.00  0.00     0.198 A 
ATOM     69  F   UNL A   1      38.978  26.391  29.937  1.00  0.00    -0.203 F 
ATOM     70  F   UNL A   1      41.989  27.778  25.604  1.00  0.00    -0.200 F 
ATOM     71  C   UNL A   1      40.560  26.241  26.684  1.00  0.00     0.200 A 
ATOM     72  F   UNL A   1      39.117  24.742  27.799  1.00  0.00    -0.200 F 
ATOM     73  F   UNL A   1      40.594  25.434  25.614  1.00  0.00    -0.200 F 
ENDBRANCH  49  63
BRANCH  50  74
ATOM     74  C   UNL A   1      39.681  33.937  36.869  1.00  0.00     0.064 A 
ATOM     75  C   UNL A   1      38.881  33.548  37.954  1.00  0.00     0.173 A 
ATOM     76  C   UNL A   1      40.344  35.170  36.960  1.00  0.00     0.173 A 
ATOM     77  F   UNL A   1      38.211  32.387  37.908  1.00  0.00    -0.203 F 
ATOM     78  C   UNL A   1      38.731  34.369  39.069  1.00  0.00     0.198 A 
ATOM     79  C   UNL A   1      40.220  35.975  38.090  1.00  0.00     0.198 A 
ATOM     80  F   UNL A   1      41.128  35.587  35.954  1.00  0.00    -0.203 F 
ATOM     81  F   UNL A   1      37.920  33.995  40.069  1.00  0.00    -0.200 F 
ATOM     82  C   UNL A   1      39.406  35.579  39.140  1.00  0.00     0.200 A 
ATOM     83  F   UNL A   1      40.888  37.134  38.162  1.00  0.00    -0.200 F 
ATOM     84  F   UNL A   1      39.264  36.364  40.216  1.00  0.00    -0.200 F 
ENDBRANCH  50  74
BRANCH  62  85
ATOM     85  C   UNL A   1      44.031  28.770  35.137  1.00  0.00     0.064 A 
ATOM     86  C   UNL A   1      45.330  29.275  34.976  1.00  0.00     0.173 A 
ATOM     87  C   UNL A   1      43.853  27.686  36.012  1.00  0.00     0.173 A 
ATOM     88  F   UNL A   1      45.558  30.300  34.143  1.00  0.00    -0.203 F 
ATOM     89  C   UNL A   1      46.410  28.698  35.641  1.00  0.00     0.198 A 
ATOM     90  C   UNL A   1      44.930  27.134  36.701  1.00  0.00     0.198 A 
ATOM     91  F   UNL A   1      42.631  27.169  36.207  1.00  0.00    -0.203 F 
ATOM     92  F   UNL A   1      47.650  29.163  35.430  1.00  0.00    -0.200 F 
ATOM     93  C   UNL A   1      46.208  27.636  36.508  1.00  0.00     0.200 A 
ATOM     94  F   UNL A   1      44.729  26.119  37.551  1.00  0.00    -0.200 F 
ATOM     95  F   UNL A   1      47.247  27.088  37.154  1.00  0.00    -0.200 F 
ENDBRANCH  62  85
ENDBRANCH  36  37
ENDBRANCH  28  31
ENDBRANCH  26  27
ENDBRANCH  25  26
ENDBRANCH   1  25
TORSDOF 14
ENDMDL
MODEL 3
REMARK VINA RESULT:     -12.0      5.270     10.495
REMARK SMILES O=C(CC1(NC(=O)c2ccncc2Cl)CCCCC1)NCCCCNC(=O)c1ccc(-c2c3nc(c(-c4c(F)c(F)c(F)c(F)c4F)c4ccc([nH]4)c(-c4c(F)c(F)c(F)c(F)c4F)c4nc(c(-c5c(F)c(F)c(F)c(F)c5F)c5ccc2[nH]5)C=C4)C=C3)cc1
REMARK SMILES IDX 22 1 21 2 20 3 1 4 2 5 3 7 4 8 15 9 19 10 16 11 18 12 17 13
REMARK SMILES IDX 5 14 6 15 7 17 8 18 9 19 13 20 10 21 12 22 14 23 11 24 23 25
REMARK SMILES IDX 24 26 25 27 26 28 27 30 28 31 29 32 90 33 30 34 89 35 31 36
REMARK SMILES IDX 32 37 33 38 83 39 34 40 88 41 82 42 84 43 35 44 87 45 81 46
REMARK SMILES IDX 80 47 36 49 68 50 48 51 67 52 49 53 52 54 66 55 85 56 50 57
REMARK SMILES IDX 51 58 65 60 86 61 53 62 37 63 38 64 46 65 39 66 40 67 44 68
REMARK SMILES IDX 47 69 41 70 42 71 45 72 43 73 69 74 70 75 78 76 71 77 72 78
REMARK SMILES IDX 76 79 79 80 73 81 74 82 77 83 75 84 54 85 55 86 63 87 56 88
REMARK SMILES IDX 57 89 61 90 64 91 58 92 59 93 62 94 60 95
REMARK H PARENT 20 6 5 16 25 29 84 48 52 59
REMARK Flexibility Score: inf
ROOT
ATOM      1  C   UNL A   1      31.440  30.765  26.103  1.00  0.00     0.023 C 
ENDROOT
BRANCH   1   2
ATOM      2  C   UNL A   1      32.390  29.931  26.963  1.00  0.00     0.116 C 
BRANCH   2   3
ATOM      3  N   UNL A   1      32.945  28.839  26.201  1.00  0.00    -0.356 N 
ATOM      4  O   UNL A   1      31.630  27.148  27.061  1.00  0.00    -0.275 OA
ATOM      5  C   UNL A   1      32.539  27.528  26.340  1.00  0.00     0.222 C 
ATOM      6  H   UNL A   1      33.653  29.040  25.547  1.00  0.00     0.163 HD
BRANCH   5   7
ATOM      7  C   UNL A   1      33.383  26.594  25.499  1.00  0.00     0.128 C 
BRANCH   7   8
ATOM      8  C   UNL A   1      32.684  25.856  24.323  1.00  0.00     0.049 C 
ATOM      9  C   UNL A   1      31.916  26.915  23.482  1.00  0.00     0.029 C 
ATOM     10  C   UNL A   1      33.723  25.135  23.408  1.00  0.00     0.029 C 
ATOM     11  C   UNL A   1      31.402  26.405  22.134  1.00  0.00     0.002 C 
ATOM     12  C   UNL A   1      33.195  24.671  22.050  1.00  0.00     0.002 C 
ATOM     13  C   UNL A   1      32.528  25.814  21.302  1.00  0.00     0.000 C 
BRANCH   8  14
ATOM     14  N   UNL A   1      31.690  24.814  24.773  1.00  0.00    -0.346 N 
ATOM     15  C   UNL A   1      31.711  23.543  25.296  1.00  0.00     0.253 C 
ATOM     16  H   UNL A   1      30.766  25.135  24.662  1.00  0.00     0.164 HD
ATOM     17  O   UNL A   1      30.653  23.010  25.625  1.00  0.00    -0.269 OA
BRANCH  15  18
ATOM     18  C   UNL A   1      32.923  22.719  25.334  1.00  0.00     0.061 A 
ATOM     19  C   UNL A   1      33.827  22.984  26.372  1.00  0.00     0.035 A 
ATOM     20  C   UNL A   1      33.178  21.695  24.428  1.00  0.00     0.072 A 
ATOM     21  C   UNL A   1      34.910  22.140  26.522  1.00  0.00     0.112 A 
ATOM     22  C   UNL A   1      34.280  20.893  24.684  1.00  0.00     0.132 A 
ATOM     23  Cl  UNL A   1      32.201  21.375  23.054  1.00  0.00    -0.082 Cl
ATOM     24  N   UNL A   1      35.137  21.080  25.719  1.00  0.00    -0.263 NA
ENDBRANCH  15  18
ENDBRANCH   8  14
ENDBRANCH   7   8
ENDBRANCH   5   7
ENDBRANCH   2   3
ENDBRANCH   1   2
BRANCH   1  25
ATOM     25  C   UNL A   1      31.322  32.241  26.501  1.00  0.00     0.023 C 
BRANCH  25  26
ATOM     26  C   UNL A   1      32.521  32.813  27.252  1.00  0.00     0.116 C 
BRANCH  26  27
ATOM     27  N   UNL A   1      32.328  34.203  27.625  1.00  0.00    -0.352 N 
ATOM     28  C   UNL A   1      32.957  34.953  28.588  1.00  0.00     0.251 C 
ATOM     29  H   UNL A   1      31.642  34.683  27.107  1.00  0.00     0.163 HD
ATOM     30  O   UNL A   1      32.528  36.067  28.872  1.00  0.00    -0.269 OA
BRANCH  28  31
ATOM     31  C   UNL A   1      34.134  34.417  29.307  1.00  0.00     0.039 A 
ATOM     32  C   UNL A   1      33.949  33.854  30.572  1.00  0.00     0.014 A 
ATOM     33  C   UNL A   1      35.416  34.483  28.754  1.00  0.00     0.014 A 
ATOM     34  C   UNL A   1      35.036  33.300  31.253  1.00  0.00     0.010 A 
ATOM     35  C   UNL A   1      36.484  33.861  29.399  1.00  0.00     0.010 A 
ATOM     36  C   UNL A   1      36.305  33.263  30.656  1.00  0.00    -0.014 A 
BRANCH  36  37
ATOM     37  C   UNL A   1      37.452  32.594  31.326  1.00  0.00     0.031 A 
ATOM     38  C   UNL A   1      38.150  31.436  30.668  1.00  0.00     0.074 A 
ATOM     39  C   UNL A   1      37.827  32.993  32.557  1.00  0.00     0.049 A 
ATOM     40  N   UNL A   1      39.123  30.687  31.126  1.00  0.00    -0.248 NA
ATOM     41  C   UNL A   1      37.677  31.053  29.330  1.00  0.00     0.031 C 
ATOM     42  C   UNL A   1      37.203  34.074  33.321  1.00  0.00     0.029 A 
ATOM     43  N   UNL A   1      38.815  32.529  33.389  1.00  0.00    -0.354 N 
ATOM     44  C   UNL A   1      39.371  29.743  30.137  1.00  0.00     0.074 A 
ATOM     45  C   UNL A   1      38.407  29.975  29.083  1.00  0.00     0.031 C 
ATOM     46  C   UNL A   1      37.834  34.204  34.499  1.00  0.00     0.029 A 
ATOM     47  C   UNL A   1      38.878  33.188  34.593  1.00  0.00     0.049 A 
ATOM     48  H   UNL A   1      39.423  31.793  33.145  1.00  0.00     0.167 HD
ATOM     49  C   UNL A   1      40.330  28.788  30.100  1.00  0.00     0.037 A 
ATOM     50  C   UNL A   1      39.676  32.987  35.659  1.00  0.00     0.037 A 
ATOM     51  C   UNL A   1      41.295  28.567  31.147  1.00  0.00     0.049 A 
ATOM     52  C   UNL A   1      40.717  31.902  35.605  1.00  0.00     0.074 A 
ATOM     53  C   UNL A   1      42.335  27.655  31.183  1.00  0.00     0.029 A 
ATOM     54  N   UNL A   1      41.332  29.260  32.348  1.00  0.00    -0.354 N 
ATOM     55  N   UNL A   1      40.985  31.059  34.637  1.00  0.00    -0.248 NA
ATOM     56  C   UNL A   1      41.571  31.743  36.790  1.00  0.00     0.031 C 
ATOM     57  C   UNL A   1      42.965  27.756  32.428  1.00  0.00     0.029 A 
ATOM     58  C   UNL A   1      42.360  28.778  33.142  1.00  0.00     0.049 A 
ATOM     59  H   UNL A   1      40.718  29.989  32.599  1.00  0.00     0.167 HD
ATOM     60  C   UNL A   1      42.054  30.293  35.082  1.00  0.00     0.074 A 
ATOM     61  C   UNL A   1      42.397  30.783  36.400  1.00  0.00     0.031 C 
ATOM     62  C   UNL A   1      42.695  29.277  34.453  1.00  0.00     0.037 A 
BRANCH  49  63
ATOM     63  C   UNL A   1      40.384  27.904  28.886  1.00  0.00     0.064 A 
ATOM     64  C   UNL A   1      41.172  28.231  27.770  1.00  0.00     0.173 A 
ATOM     65  C   UNL A   1      39.667  26.699  28.847  1.00  0.00     0.173 A 
ATOM     66  F   UNL A   1      41.871  29.376  27.750  1.00  0.00    -0.203 F 
ATOM     67  C   UNL A   1      41.212  27.403  26.652  1.00  0.00     0.198 A 
ATOM     68  C   UNL A   1      39.738  25.856  27.741  1.00  0.00     0.198 A 
ATOM     69  F   UNL A   1      38.903  26.332  29.887  1.00  0.00    -0.203 F 
ATOM     70  F   UNL A   1      41.927  27.765  25.577  1.00  0.00    -0.200 F 
ATOM     71  C   UNL A   1      40.501  26.213  26.640  1.00  0.00     0.200 A 
ATOM     72  F   UNL A   1      39.062  24.698  27.738  1.00  0.00    -0.200 F 
ATOM     73  F   UNL A   1      40.546  25.413  25.566  1.00  0.00    -0.200 F 
ENDBRANCH  49  63
BRANCH  50  74
ATOM     74  C   UNL A   1      39.531  33.844  36.866  1.00  0.00     0.064 A 
ATOM     75  C   UNL A   1      40.176  35.086  36.954  1.00  0.00     0.173 A 
ATOM     76  C   UNL A   1      38.750  33.439  37.958  1.00  0.00     0.173 A 
ATOM     77  F   UNL A   1      40.951  35.510  35.944  1.00  0.00    -0.203 F 
ATOM     78  C   UNL A   1      40.066  35.876  38.096  1.00  0.00     0.198 A 
ATOM     79  C   UNL A   1      38.612  34.245  39.086  1.00  0.00     0.198 A 
ATOM     80  F   UNL A   1      38.104  32.263  37.923  1.00  0.00    -0.203 F 
ATOM     81  F   UNL A   1      40.734  37.035  38.172  1.00  0.00    -0.200 F 
ATOM     82  C   UNL A   1      39.278  35.459  39.158  1.00  0.00     0.200 A 
ATOM     83  F   UNL A   1      37.835  33.846  40.102  1.00  0.00    -0.200 F 
ATOM     84  F   UNL A   1      39.168  36.222  40.253  1.00  0.00    -0.200 F 
ENDBRANCH  50  74
BRANCH  62  85
ATOM     85  C   UNL A   1      43.860  28.648  35.166  1.00  0.00     0.064 A 
ATOM     86  C   UNL A   1      45.166  29.141  35.028  1.00  0.00     0.173 A 
ATOM     87  C   UNL A   1      43.657  27.561  36.031  1.00  0.00     0.173 A 
ATOM     88  F   UNL A   1      45.416  30.169  34.205  1.00  0.00    -0.203 F 
ATOM     89  C   UNL A   1      46.229  28.549  35.706  1.00  0.00     0.198 A 
ATOM     90  C   UNL A   1      44.717  26.994  36.733  1.00  0.00     0.198 A 
ATOM     91  F   UNL A   1      42.427  27.054  36.204  1.00  0.00    -0.203 F 
ATOM     92  F   UNL A   1      47.477  29.003  35.518  1.00  0.00    -0.200 F 
ATOM     93  C   UNL A   1      46.003  27.484  36.563  1.00  0.00     0.200 A 
ATOM     94  F   UNL A   1      44.493  25.975  37.574  1.00  0.00    -0.200 F 
ATOM     95  F   UNL A   1      47.027  26.921  37.221  1.00  0.00    -0.200 F 
ENDBRANCH  62  85
ENDBRANCH  36  37
ENDBRANCH  28  31
ENDBRANCH  26  27
ENDBRANCH  25  26
ENDBRANCH   1  25
TORSDOF 14
ENDMDL
