MODEL 1
REMARK VINA RESULT:     -12.4      0.000      0.000
REMARK SMILES CCOC(=O)C1=NN(c2ccc(Cl)cc2F)[C@@H](C(=O)NCCCCNC(=O)c2ccc(-c3c4nc(c(-c5c(F)c(F)c(F)c(F)c5F)c5ccc([nH]5)c(-c5c(F)c(F)c(F)c(F)c5F)c5nc(c(-c6c(F)c(F)c(F)c(F)c6F)c6ccc3[nH]6)C=C5)C=C4)cc2)C1
REMARK SMILES IDX 22 1 21 2 20 3 18 4 19 5 17 7 6 8 7 9 91 10 8 11 4 12 5 13
REMARK SMILES IDX 3 14 2 15 1 16 9 17 10 18 15 19 11 20 14 21 16 22 12 23
REMARK SMILES IDX 13 24 23 25 24 26 25 27 26 28 27 30 28 31 29 32 90 33 30 34
REMARK SMILES IDX 89 35 31 36 32 37 33 38 83 39 34 40 88 41 82 42 84 43 35 44
REMARK SMILES IDX 87 45 81 46 80 47 36 49 68 50 48 51 67 52 49 53 52 54 66 55
REMARK SMILES IDX 85 56 50 57 51 58 65 60 86 61 53 62 37 63 38 64 46 65 39 66
REMARK SMILES IDX 40 67 44 68 47 69 41 70 42 71 45 72 43 73 69 74 70 75 78 76
REMARK SMILES IDX 71 77 72 78 76 79 79 80 73 81 74 82 77 83 75 84 54 85 55 86
REMARK SMILES IDX 63 87 56 88 57 89 61 90 64 91 58 92 59 93 62 94 60 95
REMARK H PARENT 20 6 25 29 84 48 52 59
REMARK Flexibility Score: inf
ROOT
ATOM      1  C   UNL A   1      31.508  30.711  26.114  1.00  0.00     0.023 C 
ENDROOT
BRANCH   1   2
ATOM      2  C   UNL A   1      32.371  29.874  27.054  1.00  0.00     0.116 C 
BRANCH   2   3
ATOM      3  N   UNL A   1      31.862  28.524  27.207  1.00  0.00    -0.354 N 
ATOM      4  C   UNL A   1      32.072  27.388  26.481  1.00  0.00     0.245 C 
ATOM      5  O   UNL A   1      31.468  26.379  26.870  1.00  0.00    -0.273 OA
ATOM      6  H   UNL A   1      31.255  28.407  27.974  1.00  0.00     0.163 HD
BRANCH   4   7
ATOM      7  C   UNL A   1      32.896  27.332  25.183  1.00  0.00     0.203 C 
ATOM      8  C   UNL A   1      33.520  25.425  24.053  1.00  0.00     0.148 C 
ATOM      9  N   UNL A   1      32.534  25.883  23.344  1.00  0.00    -0.169 NA
ATOM     10  C   UNL A   1      33.930  26.213  25.246  1.00  0.00     0.103 C 
ATOM     11  N   UNL A   1      32.123  27.030  23.971  1.00  0.00    -0.249 N 
BRANCH   8  12
ATOM     12  C   UNL A   1      34.226  24.137  23.749  1.00  0.00     0.354 C 
ATOM     13  O   UNL A   1      34.320  23.679  22.626  1.00  0.00    -0.245 OA
BRANCH  12  14
ATOM     14  O   UNL A   1      34.736  23.664  24.905  1.00  0.00    -0.461 OA
BRANCH  14  15
ATOM     15  C   UNL A   1      35.956  22.919  24.782  1.00  0.00     0.230 C 
ATOM     16  C   UNL A   1      37.101  23.699  25.396  1.00  0.00     0.049 C 
ENDBRANCH  14  15
ENDBRANCH  12  14
ENDBRANCH   8  12
BRANCH  11  17
ATOM     17  C   UNL A   1      31.063  27.787  23.471  1.00  0.00     0.096 A 
ATOM     18  C   UNL A   1      31.314  28.957  22.727  1.00  0.00     0.032 A 
ATOM     19  C   UNL A   1      29.712  27.443  23.659  1.00  0.00     0.149 A 
ATOM     20  C   UNL A   1      30.277  29.717  22.175  1.00  0.00     0.023 A 
ATOM     21  C   UNL A   1      28.667  28.197  23.126  1.00  0.00     0.062 A 
ATOM     22  F   UNL A   1      29.377  26.368  24.390  1.00  0.00    -0.205 F 
ATOM     23  C   UNL A   1      28.956  29.330  22.377  1.00  0.00     0.044 A 
ATOM     24  Cl  UNL A   1      27.678  30.257  21.696  1.00  0.00    -0.084 Cl
ENDBRANCH  11  17
ENDBRANCH   4   7
ENDBRANCH   2   3
ENDBRANCH   1   2
BRANCH   1  25
ATOM     25  C   UNL A   1      31.353  32.184  26.505  1.00  0.00     0.023 C 
BRANCH  25  26
ATOM     26  C   UNL A   1      32.567  32.834  27.174  1.00  0.00     0.116 C 
BRANCH  26  27
ATOM     27  N   UNL A   1      32.322  34.191  27.630  1.00  0.00    -0.352 N 
ATOM     28  C   UNL A   1      32.976  34.935  28.579  1.00  0.00     0.251 C 
ATOM     29  H   UNL A   1      31.569  34.648  27.189  1.00  0.00     0.163 HD
ATOM     30  O   UNL A   1      32.558  36.054  28.861  1.00  0.00    -0.269 OA
BRANCH  28  31
ATOM     31  C   UNL A   1      34.151  34.394  29.298  1.00  0.00     0.039 A 
ATOM     32  C   UNL A   1      33.931  33.765  30.529  1.00  0.00     0.014 A 
ATOM     33  C   UNL A   1      35.452  34.528  28.806  1.00  0.00     0.014 A 
ATOM     34  C   UNL A   1      35.002  33.214  31.233  1.00  0.00     0.010 A 
ATOM     35  C   UNL A   1      36.521  33.951  29.496  1.00  0.00     0.010 A 
ATOM     36  C   UNL A   1      36.300  33.280  30.708  1.00  0.00    -0.014 A 
BRANCH  36  37
ATOM     37  C   UNL A   1      37.425  32.610  31.400  1.00  0.00     0.031 A 
ATOM     38  C   UNL A   1      38.156  31.474  30.753  1.00  0.00     0.074 A 
ATOM     39  C   UNL A   1      37.757  33.008  32.641  1.00  0.00     0.049 A 
ATOM     40  N   UNL A   1      39.127  30.739  31.235  1.00  0.00    -0.248 NA
ATOM     41  C   UNL A   1      37.734  31.103  29.395  1.00  0.00     0.031 C 
ATOM     42  C   UNL A   1      37.097  34.079  33.390  1.00  0.00     0.029 A 
ATOM     43  N   UNL A   1      38.728  32.550  33.495  1.00  0.00    -0.354 N 
ATOM     44  C   UNL A   1      39.413  29.802  30.254  1.00  0.00     0.074 A 
ATOM     45  C   UNL A   1      38.517  30.062  29.145  1.00  0.00     0.031 C 
ATOM     46  C   UNL A   1      37.690  34.204  34.588  1.00  0.00     0.029 A 
ATOM     47  C   UNL A   1      38.760  33.214  34.694  1.00  0.00     0.049 A 
ATOM     48  H   UNL A   1      39.343  31.816  33.268  1.00  0.00     0.167 HD
ATOM     49  C   UNL A   1      40.338  28.814  30.277  1.00  0.00     0.037 A 
ATOM     50  C   UNL A   1      39.563  33.047  35.760  1.00  0.00     0.037 A 
ATOM     51  C   UNL A   1      41.256  28.572  31.358  1.00  0.00     0.049 A 
ATOM     52  C   UNL A   1      40.630  31.993  35.729  1.00  0.00     0.074 A 
ATOM     53  C   UNL A   1      42.250  27.613  31.451  1.00  0.00     0.029 A 
ATOM     54  N   UNL A   1      41.296  29.306  32.533  1.00  0.00    -0.354 N 
ATOM     55  N   UNL A   1      40.903  31.126  34.787  1.00  0.00    -0.248 NA
ATOM     56  C   UNL A   1      41.500  31.898  36.909  1.00  0.00     0.031 C 
ATOM     57  C   UNL A   1      42.891  27.764  32.688  1.00  0.00     0.029 A 
ATOM     58  C   UNL A   1      42.299  28.823  33.357  1.00  0.00     0.049 A 
ATOM     59  H   UNL A   1      40.701  30.059  32.750  1.00  0.00     0.167 HD
ATOM     60  C   UNL A   1      41.978  30.386  35.254  1.00  0.00     0.074 A 
ATOM     61  C   UNL A   1      42.314  30.909  36.562  1.00  0.00     0.031 C 
ATOM     62  C   UNL A   1      42.625  29.361  34.651  1.00  0.00     0.037 A 
BRANCH  49  63
ATOM     63  C   UNL A   1      40.396  27.907  29.091  1.00  0.00     0.064 A 
ATOM     64  C   UNL A   1      39.652  26.721  29.044  1.00  0.00     0.173 A 
ATOM     65  C   UNL A   1      41.182  28.246  27.979  1.00  0.00     0.173 A 
ATOM     66  F   UNL A   1      38.899  26.355  30.092  1.00  0.00    -0.203 F 
ATOM     67  C   UNL A   1      39.698  25.897  27.924  1.00  0.00     0.198 A 
ATOM     68  C   UNL A   1      41.218  27.423  26.857  1.00  0.00     0.198 A 
ATOM     69  F   UNL A   1      41.913  29.369  27.984  1.00  0.00    -0.203 F 
ATOM     70  F   UNL A   1      38.994  24.757  27.904  1.00  0.00    -0.200 F 
ATOM     71  C   UNL A   1      40.479  26.249  26.831  1.00  0.00     0.200 A 
ATOM     72  F   UNL A   1      41.974  27.763  25.804  1.00  0.00    -0.200 F 
ATOM     73  F   UNL A   1      40.522  25.453  25.754  1.00  0.00    -0.200 F 
ENDBRANCH  49  63
BRANCH  50  74
ATOM     74  C   UNL A   1      39.396  33.923  36.940  1.00  0.00     0.064 A 
ATOM     75  C   UNL A   1      38.660  33.491  38.050  1.00  0.00     0.173 A 
ATOM     76  C   UNL A   1      39.991  35.190  36.990  1.00  0.00     0.173 A 
ATOM     77  F   UNL A   1      38.064  32.291  38.034  1.00  0.00    -0.203 F 
ATOM     78  C   UNL A   1      38.523  34.302  39.174  1.00  0.00     0.198 A 
ATOM     79  C   UNL A   1      39.860  35.995  38.117  1.00  0.00     0.198 A 
ATOM     80  F   UNL A   1      40.704  35.638  35.946  1.00  0.00    -0.203 F 
ATOM     81  F   UNL A   1      37.805  33.874  40.221  1.00  0.00    -0.200 F 
ATOM     82  C   UNL A   1      39.125  35.551  39.208  1.00  0.00     0.200 A 
ATOM     83  F   UNL A   1      40.445  37.200  38.149  1.00  0.00    -0.200 F 
ATOM     84  F   UNL A   1      38.996  36.328  40.291  1.00  0.00    -0.200 F 
ENDBRANCH  50  74
BRANCH  62  85
ATOM     85  C   UNL A   1      43.766  28.750  35.396  1.00  0.00     0.064 A 
ATOM     86  C   UNL A   1      45.081  29.186  35.185  1.00  0.00     0.173 A 
ATOM     87  C   UNL A   1      43.541  27.744  36.345  1.00  0.00     0.173 A 
ATOM     88  F   UNL A   1      45.340  30.136  34.275  1.00  0.00    -0.203 F 
ATOM     89  C   UNL A   1      46.138  28.626  35.897  1.00  0.00     0.198 A 
ATOM     90  C   UNL A   1      44.599  27.191  37.060  1.00  0.00     0.198 A 
ATOM     91  F   UNL A   1      42.298  27.294  36.571  1.00  0.00    -0.203 F 
ATOM     92  F   UNL A   1      47.392  29.041  35.669  1.00  0.00    -0.200 F 
ATOM     93  C   UNL A   1      45.896  27.632  36.835  1.00  0.00     0.200 A 
ATOM     94  F   UNL A   1      44.367  26.227  37.960  1.00  0.00    -0.200 F 
ATOM     95  F   UNL A   1      46.916  27.091  37.516  1.00  0.00    -0.200 F 
ENDBRANCH  62  85
ENDBRANCH  36  37
ENDBRANCH  28  31
ENDBRANCH  26  27
ENDBRANCH  25  26
ENDBRANCH   1  25
TORSDOF 15
ENDMDL
MODEL 2
REMARK VINA RESULT:     -12.2      0.775      2.188
REMARK SMILES CCOC(=O)C1=NN(c2ccc(Cl)cc2F)[C@@H](C(=O)NCCCCNC(=O)c2ccc(-c3c4nc(c(-c5c(F)c(F)c(F)c(F)c5F)c5ccc([nH]5)c(-c5c(F)c(F)c(F)c(F)c5F)c5nc(c(-c6c(F)c(F)c(F)c(F)c6F)c6ccc3[nH]6)C=C5)C=C4)cc2)C1
REMARK SMILES IDX 22 1 21 2 20 3 18 4 19 5 17 7 6 8 7 9 91 10 8 11 4 12 5 13
REMARK SMILES IDX 3 14 2 15 1 16 9 17 10 18 15 19 11 20 14 21 16 22 12 23
REMARK SMILES IDX 13 24 23 25 24 26 25 27 26 28 27 30 28 31 29 32 90 33 30 34
REMARK SMILES IDX 89 35 31 36 32 37 33 38 83 39 34 40 88 41 82 42 84 43 35 44
REMARK SMILES IDX 87 45 81 46 80 47 36 49 68 50 48 51 67 52 49 53 52 54 66 55
REMARK SMILES IDX 85 56 50 57 51 58 65 60 86 61 53 62 37 63 38 64 46 65 39 66
REMARK SMILES IDX 40 67 44 68 47 69 41 70 42 71 45 72 43 73 69 74 70 75 78 76
REMARK SMILES IDX 71 77 72 78 76 79 79 80 73 81 74 82 77 83 75 84 54 85 55 86
REMARK SMILES IDX 63 87 56 88 57 89 61 90 64 91 58 92 59 93 62 94 60 95
REMARK H PARENT 20 6 25 29 84 48 52 59
REMARK Flexibility Score: inf
ROOT
ATOM      1  C   UNL A   1      31.557  30.492  26.122  1.00  0.00     0.023 C 
ENDROOT
BRANCH   1   2
ATOM      2  C   UNL A   1      32.356  29.655  27.117  1.00  0.00     0.116 C 
BRANCH   2   3
ATOM      3  N   UNL A   1      31.831  28.308  27.244  1.00  0.00    -0.354 N 
ATOM      4  C   UNL A   1      32.068  27.171  26.528  1.00  0.00     0.245 C 
ATOM      5  O   UNL A   1      31.439  26.167  26.886  1.00  0.00    -0.273 OA
ATOM      6  H   UNL A   1      31.188  28.194  27.981  1.00  0.00     0.163 HD
BRANCH   4   7
ATOM      7  C   UNL A   1      32.951  27.111  25.270  1.00  0.00     0.203 C 
ATOM      8  C   UNL A   1      33.587  25.204  24.147  1.00  0.00     0.148 C 
ATOM      9  N   UNL A   1      32.646  25.691  23.398  1.00  0.00    -0.169 NA
ATOM     10  C   UNL A   1      33.957  25.969  25.368  1.00  0.00     0.103 C 
ATOM     11  N   UNL A   1      32.232  26.840  24.018  1.00  0.00    -0.249 N 
BRANCH   8  12
ATOM     12  C   UNL A   1      34.278  23.904  23.862  1.00  0.00     0.354 C 
ATOM     13  O   UNL A   1      34.914  23.697  22.846  1.00  0.00    -0.245 OA
BRANCH  12  14
ATOM     14  O   UNL A   1      34.092  23.095  24.926  1.00  0.00    -0.461 OA
BRANCH  14  15
ATOM     15  C   UNL A   1      32.815  22.446  24.993  1.00  0.00     0.230 C 
ATOM     16  C   UNL A   1      32.784  21.266  24.041  1.00  0.00     0.049 C 
ENDBRANCH  14  15
ENDBRANCH  12  14
ENDBRANCH   8  12
BRANCH  11  17
ATOM     17  C   UNL A   1      31.214  27.626  23.478  1.00  0.00     0.096 A 
ATOM     18  C   UNL A   1      29.864  27.269  23.667  1.00  0.00     0.032 A 
ATOM     19  C   UNL A   1      31.453  28.799  22.739  1.00  0.00     0.149 A 
ATOM     20  C   UNL A   1      28.816  28.056  23.176  1.00  0.00     0.023 A 
ATOM     21  C   UNL A   1      30.420  29.587  22.232  1.00  0.00     0.062 A 
ATOM     22  F   UNL A   1      32.707  29.195  22.473  1.00  0.00    -0.205 F 
ATOM     23  C   UNL A   1      29.102  29.215  22.461  1.00  0.00     0.044 A 
ATOM     24  Cl  UNL A   1      27.818  30.189  21.861  1.00  0.00    -0.084 Cl
ENDBRANCH  11  17
ENDBRANCH   4   7
ENDBRANCH   2   3
ENDBRANCH   1   2
BRANCH   1  25
ATOM     25  C   UNL A   1      31.371  31.964  26.507  1.00  0.00     0.023 C 
BRANCH  25  26
ATOM     26  C   UNL A   1      32.599  32.667  27.090  1.00  0.00     0.116 C 
BRANCH  26  27
ATOM     27  N   UNL A   1      32.328  34.014  27.560  1.00  0.00    -0.352 N 
ATOM     28  C   UNL A   1      32.979  34.768  28.503  1.00  0.00     0.251 C 
ATOM     29  H   UNL A   1      31.557  34.456  27.135  1.00  0.00     0.163 HD
ATOM     30  O   UNL A   1      32.538  35.875  28.801  1.00  0.00    -0.269 OA
BRANCH  28  31
ATOM     31  C   UNL A   1      34.178  34.251  29.199  1.00  0.00     0.039 A 
ATOM     32  C   UNL A   1      33.983  33.454  30.334  1.00  0.00     0.014 A 
ATOM     33  C   UNL A   1      35.475  34.567  28.783  1.00  0.00     0.014 A 
ATOM     34  C   UNL A   1      35.080  32.919  31.009  1.00  0.00     0.010 A 
ATOM     35  C   UNL A   1      36.573  34.008  29.442  1.00  0.00     0.010 A 
ATOM     36  C   UNL A   1      36.382  33.172  30.551  1.00  0.00    -0.014 A 
BRANCH  36  37
ATOM     37  C   UNL A   1      37.544  32.527  31.203  1.00  0.00     0.031 A 
ATOM     38  C   UNL A   1      38.307  31.440  30.509  1.00  0.00     0.074 A 
ATOM     39  C   UNL A   1      37.884  32.900  32.450  1.00  0.00     0.049 A 
ATOM     40  N   UNL A   1      39.315  30.731  30.951  1.00  0.00    -0.248 NA
ATOM     41  C   UNL A   1      37.874  31.093  29.148  1.00  0.00     0.031 C 
ATOM     42  C   UNL A   1      37.197  33.921  33.242  1.00  0.00     0.029 A 
ATOM     43  N   UNL A   1      38.888  32.456  33.272  1.00  0.00    -0.354 N 
ATOM     44  C   UNL A   1      39.619  29.835  29.937  1.00  0.00     0.074 A 
ATOM     45  C   UNL A   1      38.693  30.092  28.853  1.00  0.00     0.031 C 
ATOM     46  C   UNL A   1      37.807  34.034  34.433  1.00  0.00     0.029 A 
ATOM     47  C   UNL A   1      38.916  33.085  34.490  1.00  0.00     0.049 A 
ATOM     48  H   UNL A   1      39.527  31.754  33.013  1.00  0.00     0.167 HD
ATOM     49  C   UNL A   1      40.582  28.884  29.914  1.00  0.00     0.037 A 
ATOM     50  C   UNL A   1      39.745  32.917  35.536  1.00  0.00     0.037 A 
ATOM     51  C   UNL A   1      41.529  28.646  30.970  1.00  0.00     0.049 A 
ATOM     52  C   UNL A   1      40.852  31.908  35.454  1.00  0.00     0.074 A 
ATOM     53  C   UNL A   1      42.561  27.725  31.017  1.00  0.00     0.029 A 
ATOM     54  N   UNL A   1      41.562  29.346  32.167  1.00  0.00    -0.354 N 
ATOM     55  N   UNL A   1      41.141  31.081  34.482  1.00  0.00    -0.248 NA
ATOM     56  C   UNL A   1      41.747  31.813  36.616  1.00  0.00     0.031 C 
ATOM     57  C   UNL A   1      43.219  27.865  32.246  1.00  0.00     0.029 A 
ATOM     58  C   UNL A   1      42.599  28.879  32.957  1.00  0.00     0.049 A 
ATOM     59  H   UNL A   1      40.942  30.068  32.417  1.00  0.00     0.167 HD
ATOM     60  C   UNL A   1      42.252  30.371  34.907  1.00  0.00     0.074 A 
ATOM     61  C   UNL A   1      42.593  30.868  36.224  1.00  0.00     0.031 C 
ATOM     62  C   UNL A   1      42.927  29.391  34.261  1.00  0.00     0.037 A 
BRANCH  49  63
ATOM     63  C   UNL A   1      40.653  28.016  28.700  1.00  0.00     0.064 A 
ATOM     64  C   UNL A   1      41.441  28.371  27.596  1.00  0.00     0.173 A 
ATOM     65  C   UNL A   1      39.949  26.804  28.654  1.00  0.00     0.173 A 
ATOM     66  F   UNL A   1      42.118  29.529  27.595  1.00  0.00    -0.203 F 
ATOM     67  C   UNL A   1      41.516  27.543  26.481  1.00  0.00     0.198 A 
ATOM     68  C   UNL A   1      40.034  25.974  27.540  1.00  0.00     0.198 A 
ATOM     69  F   UNL A   1      39.181  26.428  29.685  1.00  0.00    -0.203 F 
ATOM     70  F   UNL A   1      42.260  27.907  25.427  1.00  0.00    -0.200 F 
ATOM     71  C   UNL A   1      40.815  26.345  26.454  1.00  0.00     0.200 A 
ATOM     72  F   UNL A   1      39.356  24.818  27.514  1.00  0.00    -0.200 F 
ATOM     73  F   UNL A   1      40.888  25.550  25.378  1.00  0.00    -0.200 F 
ENDBRANCH  49  63
BRANCH  50  74
ATOM     74  C   UNL A   1      39.567  33.751  36.745  1.00  0.00     0.064 A 
ATOM     75  C   UNL A   1      40.157  35.018  36.830  1.00  0.00     0.173 A 
ATOM     76  C   UNL A   1      38.784  33.310  37.819  1.00  0.00     0.173 A 
ATOM     77  F   UNL A   1      40.925  35.469  35.828  1.00  0.00    -0.203 F 
ATOM     78  C   UNL A   1      39.971  35.818  37.954  1.00  0.00     0.198 A 
ATOM     79  C   UNL A   1      38.591  34.114  38.939  1.00  0.00     0.198 A 
ATOM     80  F   UNL A   1      38.203  32.102  37.774  1.00  0.00    -0.203 F 
ATOM     81  F   UNL A   1      40.553  37.023  38.020  1.00  0.00    -0.200 F 
ATOM     82  C   UNL A   1      39.186  35.367  39.006  1.00  0.00     0.200 A 
ATOM     83  F   UNL A   1      37.831  33.678  39.951  1.00  0.00    -0.200 F 
ATOM     84  F   UNL A   1      39.003  36.139  40.085  1.00  0.00    -0.200 F 
ENDBRANCH  50  74
BRANCH  62  85
ATOM     85  C   UNL A   1      44.105  28.803  34.967  1.00  0.00     0.064 A 
ATOM     86  C   UNL A   1      43.961  27.694  35.812  1.00  0.00     0.173 A 
ATOM     87  C   UNL A   1      45.388  29.334  34.778  1.00  0.00     0.173 A 
ATOM     88  F   UNL A   1      42.748  27.166  36.031  1.00  0.00    -0.203 F 
ATOM     89  C   UNL A   1      45.066  27.139  36.451  1.00  0.00     0.198 A 
ATOM     90  C   UNL A   1      46.491  28.772  35.413  1.00  0.00     0.198 A 
ATOM     91  F   UNL A   1      45.568  30.399  33.983  1.00  0.00    -0.203 F 
ATOM     92  F   UNL A   1      44.907  26.090  37.270  1.00  0.00    -0.200 F 
ATOM     93  C   UNL A   1      46.329  27.676  36.249  1.00  0.00     0.200 A 
ATOM     94  F   UNL A   1      47.711  29.295  35.224  1.00  0.00    -0.200 F 
ATOM     95  F   UNL A   1      47.391  27.143  36.869  1.00  0.00    -0.200 F 
ENDBRANCH  62  85
ENDBRANCH  36  37
ENDBRANCH  28  31
ENDBRANCH  26  27
ENDBRANCH  25  26
ENDBRANCH   1  25
TORSDOF 15
ENDMDL
MODEL 3
REMARK VINA RESULT:     -12.2      0.750      7.167
REMARK SMILES CCOC(=O)C1=NN(c2ccc(Cl)cc2F)[C@@H](C(=O)NCCCCNC(=O)c2ccc(-c3c4nc(c(-c5c(F)c(F)c(F)c(F)c5F)c5ccc([nH]5)c(-c5c(F)c(F)c(F)c(F)c5F)c5nc(c(-c6c(F)c(F)c(F)c(F)c6F)c6ccc3[nH]6)C=C5)C=C4)cc2)C1
REMARK SMILES IDX 22 1 21 2 20 3 18 4 19 5 17 7 6 8 7 9 91 10 8 11 4 12 5 13
REMARK SMILES IDX 3 14 2 15 1 16 9 17 10 18 15 19 11 20 14 21 16 22 12 23
REMARK SMILES IDX 13 24 23 25 24 26 25 27 26 28 27 30 28 31 29 32 90 33 30 34
REMARK SMILES IDX 89 35 31 36 32 37 33 38 83 39 34 40 88 41 82 42 84 43 35 44
REMARK SMILES IDX 87 45 81 46 80 47 36 49 68 50 48 51 67 52 49 53 52 54 66 55
REMARK SMILES IDX 85 56 50 57 51 58 65 60 86 61 53 62 37 63 38 64 46 65 39 66
REMARK SMILES IDX 40 67 44 68 47 69 41 70 42 71 45 72 43 73 69 74 70 75 78 76
REMARK SMILES IDX 71 77 72 78 76 79 79 80 73 81 74 82 77 83 75 84 54 85 55 86
REMARK SMILES IDX 63 87 56 88 57 89 61 90 64 91 58 92 59 93 62 94 60 95
REMARK H PARENT 20 6 25 29 84 48 52 59
REMARK Flexibility Score: inf
ROOT
ATOM      1  C   UNL A   1      31.377  30.688  26.086  1.00  0.00     0.023 C 
ENDROOT
BRANCH   1   2
ATOM      2  C   UNL A   1      32.359  29.851  26.903  1.00  0.00     0.116 C 
BRANCH   2   3
ATOM      3  N   UNL A   1      31.870  28.502  27.127  1.00  0.00    -0.354 N 
ATOM      4  C   UNL A   1      32.092  27.335  26.458  1.00  0.00     0.245 C 
ATOM      5  O   UNL A   1      31.506  26.338  26.901  1.00  0.00    -0.273 OA
ATOM      6  H   UNL A   1      31.271  28.415  27.904  1.00  0.00     0.163 HD
BRANCH   4   7
ATOM      7  C   UNL A   1      32.907  27.226  25.157  1.00  0.00     0.203 C 
ATOM      8  C   UNL A   1      33.450  25.279  24.054  1.00  0.00     0.148 C 
ATOM      9  N   UNL A   1      32.479  25.764  23.342  1.00  0.00    -0.169 NA
ATOM     10  C   UNL A   1      33.896  26.068  25.233  1.00  0.00     0.103 C 
ATOM     11  N   UNL A   1      32.117  26.937  23.953  1.00  0.00    -0.249 N 
BRANCH   8  12
ATOM     12  C   UNL A   1      34.102  23.959  23.768  1.00  0.00     0.354 C 
ATOM     13  O   UNL A   1      34.964  23.813  22.923  1.00  0.00    -0.245 OA
BRANCH  12  14
ATOM     14  O   UNL A   1      33.592  23.052  24.626  1.00  0.00    -0.461 OA
BRANCH  14  15
ATOM     15  C   UNL A   1      33.322  21.758  24.069  1.00  0.00     0.230 C 
ATOM     16  C   UNL A   1      32.299  21.877  22.957  1.00  0.00     0.049 C 
ENDBRANCH  14  15
ENDBRANCH  12  14
ENDBRANCH   8  12
BRANCH  11  17
ATOM     17  C   UNL A   1      31.086  27.727  23.446  1.00  0.00     0.096 A 
ATOM     18  C   UNL A   1      31.380  28.884  22.697  1.00  0.00     0.032 A 
ATOM     19  C   UNL A   1      29.723  27.431  23.630  1.00  0.00     0.149 A 
ATOM     20  C   UNL A   1      30.372  29.677  22.138  1.00  0.00     0.023 A 
ATOM     21  C   UNL A   1      28.707  28.218  23.090  1.00  0.00     0.062 A 
ATOM     22  F   UNL A   1      29.348  26.372  24.364  1.00  0.00    -0.205 F 
ATOM     23  C   UNL A   1      29.037  29.337  22.337  1.00  0.00     0.044 A 
ATOM     24  Cl  UNL A   1      27.795  30.305  21.646  1.00  0.00    -0.084 Cl
ENDBRANCH  11  17
ENDBRANCH   4   7
ENDBRANCH   2   3
ENDBRANCH   1   2
BRANCH   1  25
ATOM     25  C   UNL A   1      31.286  32.165  26.488  1.00  0.00     0.023 C 
BRANCH  25  26
ATOM     26  C   UNL A   1      32.544  32.770  27.118  1.00  0.00     0.116 C 
BRANCH  26  27
ATOM     27  N   UNL A   1      32.356  34.126  27.600  1.00  0.00    -0.352 N 
ATOM     28  C   UNL A   1      33.058  34.833  28.543  1.00  0.00     0.251 C 
ATOM     29  H   UNL A   1      31.608  34.615  27.186  1.00  0.00     0.163 HD
ATOM     30  O   UNL A   1      32.685  35.961  28.853  1.00  0.00    -0.269 OA
BRANCH  28  31
ATOM     31  C   UNL A   1      34.232  34.242  29.224  1.00  0.00     0.039 A 
ATOM     32  C   UNL A   1      33.998  33.406  30.322  1.00  0.00     0.014 A 
ATOM     33  C   UNL A   1      35.543  34.525  28.829  1.00  0.00     0.014 A 
ATOM     34  C   UNL A   1      35.068  32.801  30.981  1.00  0.00     0.010 A 
ATOM     35  C   UNL A   1      36.614  33.897  29.470  1.00  0.00     0.010 A 
ATOM     36  C   UNL A   1      36.382  33.022  30.542  1.00  0.00    -0.014 A 
BRANCH  36  37
ATOM     37  C   UNL A   1      37.514  32.306  31.172  1.00  0.00     0.031 A 
ATOM     38  C   UNL A   1      37.964  32.653  32.558  1.00  0.00     0.074 A 
ATOM     39  C   UNL A   1      38.166  31.365  30.466  1.00  0.00     0.049 A 
ATOM     40  N   UNL A   1      38.968  32.166  33.244  1.00  0.00    -0.248 NA
ATOM     41  C   UNL A   1      37.197  33.689  33.264  1.00  0.00     0.031 C 
ATOM     42  C   UNL A   1      37.844  30.965  29.095  1.00  0.00     0.029 A 
ATOM     43  N   UNL A   1      39.241  30.581  30.801  1.00  0.00    -0.354 N 
ATOM     44  C   UNL A   1      38.974  32.855  34.447  1.00  0.00     0.074 A 
ATOM     45  C   UNL A   1      37.869  33.792  34.403  1.00  0.00     0.031 C 
ATOM     46  C   UNL A   1      38.697  30.001  28.710  1.00  0.00     0.029 A 
ATOM     47  C   UNL A   1      39.629  29.729  29.801  1.00  0.00     0.049 A 
ATOM     48  H   UNL A   1      39.689  30.627  31.676  1.00  0.00     0.167 HD
ATOM     49  C   UNL A   1      39.824  32.719  35.491  1.00  0.00     0.037 A 
ATOM     50  C   UNL A   1      40.625  28.825  29.767  1.00  0.00     0.037 A 
ATOM     51  C   UNL A   1      40.900  31.768  35.558  1.00  0.00     0.049 A 
ATOM     52  C   UNL A   1      41.506  28.643  30.968  1.00  0.00     0.074 A 
ATOM     53  C   UNL A   1      41.790  31.539  36.593  1.00  0.00     0.029 A 
ATOM     54  N   UNL A   1      41.226  30.878  34.545  1.00  0.00    -0.354 N 
ATOM     55  N   UNL A   1      41.487  29.287  32.107  1.00  0.00    -0.248 NA
ATOM     56  C   UNL A   1      42.542  27.605  30.876  1.00  0.00     0.031 C 
ATOM     57  C   UNL A   1      42.659  30.510  36.205  1.00  0.00     0.029 A 
ATOM     58  C   UNL A   1      42.301  30.097  34.932  1.00  0.00     0.049 A 
ATOM     59  H   UNL A   1      40.760  30.812  33.681  1.00  0.00     0.167 HD
ATOM     60  C   UNL A   1      42.502  28.733  32.871  1.00  0.00     0.074 A 
ATOM     61  C   UNL A   1      43.114  27.693  32.071  1.00  0.00     0.031 C 
ATOM     62  C   UNL A   1      42.891  29.062  34.125  1.00  0.00     0.037 A 
BRANCH  49  63
ATOM     63  C   UNL A   1      39.626  33.638  36.653  1.00  0.00     0.064 A 
ATOM     64  C   UNL A   1      38.818  33.275  37.738  1.00  0.00     0.173 A 
ATOM     65  C   UNL A   1      40.277  34.880  36.693  1.00  0.00     0.173 A 
ATOM     66  F   UNL A   1      38.167  32.102  37.733  1.00  0.00    -0.203 F 
ATOM     67  C   UNL A   1      38.660  34.130  38.825  1.00  0.00     0.198 A 
ATOM     68  C   UNL A   1      40.123  35.728  37.785  1.00  0.00     0.198 A 
ATOM     69  F   UNL A   1      41.056  35.268  35.674  1.00  0.00    -0.203 F 
ATOM     70  F   UNL A   1      37.867  33.774  39.846  1.00  0.00    -0.200 F 
ATOM     71  C   UNL A   1      39.314  35.354  38.848  1.00  0.00     0.200 A 
ATOM     72  F   UNL A   1      40.755  36.911  37.807  1.00  0.00    -0.200 F 
ATOM     73  F   UNL A   1      39.160  36.176  39.896  1.00  0.00    -0.200 F 
ENDBRANCH  49  63
BRANCH  50  74
ATOM     74  C   UNL A   1      40.822  28.006  28.551  1.00  0.00     0.064 A 
ATOM     75  C   UNL A   1      40.176  26.770  28.412  1.00  0.00     0.173 A 
ATOM     76  C   UNL A   1      41.631  28.454  27.500  1.00  0.00     0.173 A 
ATOM     77  F   UNL A   1      39.404  26.302  29.403  1.00  0.00    -0.203 F 
ATOM     78  C   UNL A   1      40.336  26.008  27.258  1.00  0.00     0.198 A 
ATOM     79  C   UNL A   1      41.783  27.694  26.343  1.00  0.00     0.198 A 
ATOM     80  F   UNL A   1      42.265  29.632  27.596  1.00  0.00    -0.203 F 
ATOM     81  F   UNL A   1      39.718  24.824  27.150  1.00  0.00    -0.200 F 
ATOM     82  C   UNL A   1      41.137  26.471  26.224  1.00  0.00     0.200 A 
ATOM     83  F   UNL A   1      42.554  28.145  25.345  1.00  0.00    -0.200 F 
ATOM     84  F   UNL A   1      41.287  25.739  25.113  1.00  0.00    -0.200 F 
ENDBRANCH  50  74
BRANCH  62  85
ATOM     85  C   UNL A   1      44.023  28.281  34.708  1.00  0.00     0.064 A 
ATOM     86  C   UNL A   1      45.348  28.719  34.574  1.00  0.00     0.173 A 
ATOM     87  C   UNL A   1      43.782  27.103  35.428  1.00  0.00     0.173 A 
ATOM     88  F   UNL A   1      45.622  29.833  33.879  1.00  0.00    -0.203 F 
ATOM     89  C   UNL A   1      46.396  27.997  35.136  1.00  0.00     0.198 A 
ATOM     90  C   UNL A   1      44.832  26.388  35.995  1.00  0.00     0.198 A 
ATOM     91  F   UNL A   1      42.529  26.646  35.574  1.00  0.00    -0.203 F 
ATOM     92  F   UNL A   1      47.658  28.421  34.981  1.00  0.00    -0.200 F 
ATOM     93  C   UNL A   1      46.137  26.835  35.848  1.00  0.00     0.200 A 
ATOM     94  F   UNL A   1      44.583  25.261  36.677  1.00  0.00    -0.200 F 
ATOM     95  F   UNL A   1      47.149  26.139  36.385  1.00  0.00    -0.200 F 
ENDBRANCH  62  85
ENDBRANCH  36  37
ENDBRANCH  28  31
ENDBRANCH  26  27
ENDBRANCH  25  26
ENDBRANCH   1  25
TORSDOF 15
ENDMDL
