MODEL 1
REMARK VINA RESULT:     -13.0      0.000      0.000
REMARK SMILES CCc1n[nH]c(C(=O)N[C@@]2(C(=O)NCCCCNC(=O)c3ccc(-c4c5nc(c(-c6c(F)c(F)c(F)c(F)c6F)c6ccc([nH]6)c(-c6c(F)c(F)c(F)c(F)c6F)c6nc(c(-c7c(F)c(F)c(F)c(F)c7F)c7ccc4[nH]7)C=C6)C=C5)cc3)CCCC[C@H]2C)n1
REMARK SMILES IDX 15 1 14 2 13 3 11 4 12 5 10 7 84 8 88 9 85 10 87 11 89 12
REMARK SMILES IDX 86 13 9 14 7 15 8 16 6 18 3 19 4 20 90 21 5 22 2 24 1 25
REMARK SMILES IDX 16 26 17 27 18 28 19 29 20 31 21 32 22 33 83 34 23 35 82 36
REMARK SMILES IDX 24 37 25 38 26 39 76 40 27 41 81 42 75 43 77 44 28 45 80 46
REMARK SMILES IDX 74 47 73 48 29 50 61 51 41 52 60 53 42 54 45 55 59 56 78 57
REMARK SMILES IDX 43 58 44 59 58 61 79 62 46 63 30 64 31 65 39 66 32 67 33 68
REMARK SMILES IDX 37 69 40 70 34 71 35 72 38 73 36 74 62 75 63 76 71 77 64 78
REMARK SMILES IDX 65 79 69 80 72 81 66 82 67 83 70 84 68 85 47 86 48 87 56 88
REMARK SMILES IDX 49 89 50 90 54 91 57 92 51 93 52 94 55 95 53 96
REMARK H PARENT 13 6 9 17 5 23 18 30 77 49 45 60
REMARK Flexibility Score: inf
ROOT
ATOM      1  C   UNL A   1      32.406  30.466  25.889  1.00  0.00     0.023 C 
ENDROOT
BRANCH   1   2
ATOM      2  C   UNL A   1      31.374  29.448  25.429  1.00  0.00     0.116 C 
BRANCH   2   3
ATOM      3  N   UNL A   1      30.968  29.579  24.042  1.00  0.00    -0.354 N 
ATOM      4  C   UNL A   1      31.085  28.680  23.008  1.00  0.00     0.246 C 
ATOM      5  O   UNL A   1      30.575  28.994  21.926  1.00  0.00    -0.272 OA
ATOM      6  H   UNL A   1      30.547  30.438  23.806  1.00  0.00     0.163 HD
BRANCH   4   7
ATOM      7  C   UNL A   1      31.899  27.328  23.162  1.00  0.00     0.122 C 
ATOM      8  C   UNL A   1      31.023  26.346  23.974  1.00  0.00     0.039 C 
ATOM      9  C   UNL A   1      33.259  27.746  23.797  1.00  0.00     0.021 C 
ATOM     10  C   UNL A   1      31.622  25.757  25.260  1.00  0.00     0.003 C 
ATOM     11  C   UNL A   1      33.968  26.576  24.452  1.00  0.00     0.006 C 
ATOM     12  C   UNL A   1      34.188  28.510  22.840  1.00  0.00     0.011 C 
ATOM     13  C   UNL A   1      33.109  25.979  25.560  1.00  0.00     0.000 C 
BRANCH   7  14
ATOM     14  N   UNL A   1      32.094  26.834  21.757  1.00  0.00    -0.335 N 
ATOM     15  C   UNL A   1      32.590  25.700  21.150  1.00  0.00     0.289 C 
ATOM     16  O   UNL A   1      32.631  25.712  19.916  1.00  0.00    -0.266 OA
ATOM     17  H   UNL A   1      31.787  27.494  21.095  1.00  0.00     0.165 HD
BRANCH  15  18
ATOM     18  C   UNL A   1      32.965  24.504  21.876  1.00  0.00     0.214 A 
ATOM     19  C   UNL A   1      33.924  23.045  23.096  1.00  0.00     0.151 A 
ATOM     20  N   UNL A   1      32.639  22.680  23.158  1.00  0.00    -0.158 NA
ATOM     21  N   UNL A   1      34.156  24.122  22.280  1.00  0.00    -0.207 NA
ATOM     22  N   UNL A   1      32.062  23.584  22.337  1.00  0.00    -0.255 N 
ATOM     23  H   UNL A   1      31.107  23.582  22.099  1.00  0.00     0.192 HD
BRANCH  19  24
ATOM     24  C   UNL A   1      35.006  22.526  23.979  1.00  0.00     0.076 C 
ATOM     25  C   UNL A   1      36.398  23.065  23.735  1.00  0.00     0.012 C 
ENDBRANCH  19  24
ENDBRANCH  15  18
ENDBRANCH   7  14
ENDBRANCH   4   7
ENDBRANCH   2   3
ENDBRANCH   1   2
BRANCH   1  26
ATOM     26  C   UNL A   1      31.851  31.585  26.755  1.00  0.00     0.023 C 
BRANCH  26  27
ATOM     27  C   UNL A   1      32.896  32.492  27.394  1.00  0.00     0.116 C 
BRANCH  27  28
ATOM     28  N   UNL A   1      32.448  33.862  27.616  1.00  0.00    -0.352 N 
ATOM     29  C   UNL A   1      32.962  34.791  28.492  1.00  0.00     0.251 C 
ATOM     30  H   UNL A   1      31.684  34.159  27.070  1.00  0.00     0.163 HD
ATOM     31  O   UNL A   1      32.433  35.890  28.627  1.00  0.00    -0.269 OA
BRANCH  29  32
ATOM     32  C   UNL A   1      34.136  34.424  29.308  1.00  0.00     0.039 A 
ATOM     33  C   UNL A   1      33.934  33.833  30.556  1.00  0.00     0.014 A 
ATOM     34  C   UNL A   1      35.425  34.580  28.794  1.00  0.00     0.014 A 
ATOM     35  C   UNL A   1      35.025  33.311  31.253  1.00  0.00     0.010 A 
ATOM     36  C   UNL A   1      36.499  33.987  29.450  1.00  0.00     0.010 A 
ATOM     37  C   UNL A   1      36.309  33.341  30.682  1.00  0.00    -0.014 A 
BRANCH  37  38
ATOM     38  C   UNL A   1      37.467  32.696  31.348  1.00  0.00     0.031 A 
ATOM     39  C   UNL A   1      38.178  31.555  30.677  1.00  0.00     0.074 A 
ATOM     40  C   UNL A   1      37.826  33.080  32.588  1.00  0.00     0.049 A 
ATOM     41  N   UNL A   1      39.150  30.804  31.128  1.00  0.00    -0.248 NA
ATOM     42  C   UNL A   1      37.711  31.189  29.330  1.00  0.00     0.031 C 
ATOM     43  C   UNL A   1      37.178  34.136  33.369  1.00  0.00     0.029 A 
ATOM     44  N   UNL A   1      38.817  32.616  33.418  1.00  0.00    -0.354 N 
ATOM     45  C   UNL A   1      39.396  29.870  30.131  1.00  0.00     0.074 A 
ATOM     46  C   UNL A   1      38.437  30.111  29.076  1.00  0.00     0.031 C 
ATOM     47  C   UNL A   1      37.803  34.254  34.552  1.00  0.00     0.029 A 
ATOM     48  C   UNL A   1      38.870  33.263  34.629  1.00  0.00     0.049 A 
ATOM     49  H   UNL A   1      39.432  31.890  33.167  1.00  0.00     0.167 HD
ATOM     50  C   UNL A   1      40.354  28.913  30.088  1.00  0.00     0.037 A 
ATOM     51  C   UNL A   1      39.685  33.070  35.683  1.00  0.00     0.037 A 
ATOM     52  C   UNL A   1      41.328  28.697  31.124  1.00  0.00     0.049 A 
ATOM     53  C   UNL A   1      40.747  32.008  35.606  1.00  0.00     0.074 A 
ATOM     54  C   UNL A   1      42.379  27.798  31.147  1.00  0.00     0.029 A 
ATOM     55  N   UNL A   1      41.369  29.391  32.325  1.00  0.00    -0.354 N 
ATOM     56  N   UNL A   1      41.017  31.177  34.629  1.00  0.00    -0.248 NA
ATOM     57  C   UNL A   1      41.623  31.860  36.778  1.00  0.00     0.031 C 
ATOM     58  C   UNL A   1      43.033  27.921  32.378  1.00  0.00     0.029 A 
ATOM     59  C   UNL A   1      42.418  28.928  33.102  1.00  0.00     0.049 A 
ATOM     60  H   UNL A   1      40.745  30.108  32.585  1.00  0.00     0.167 HD
ATOM     61  C   UNL A   1      42.107  30.430  35.053  1.00  0.00     0.074 A 
ATOM     62  C   UNL A   1      42.459  30.914  36.372  1.00  0.00     0.031 C 
ATOM     63  C   UNL A   1      42.759  29.432  34.408  1.00  0.00     0.037 A 
BRANCH  50  64
ATOM     64  C   UNL A   1      40.399  28.034  28.873  1.00  0.00     0.064 A 
ATOM     65  C   UNL A   1      41.154  28.383  27.742  1.00  0.00     0.173 A 
ATOM     66  C   UNL A   1      39.704  26.816  28.848  1.00  0.00     0.173 A 
ATOM     67  F   UNL A   1      41.825  29.544  27.711  1.00  0.00    -0.203 F 
ATOM     68  C   UNL A   1      41.186  27.559  26.620  1.00  0.00     0.198 A 
ATOM     69  C   UNL A   1      39.764  25.981  27.735  1.00  0.00     0.198 A 
ATOM     70  F   UNL A   1      38.970  26.433  29.903  1.00  0.00    -0.203 F 
ATOM     71  F   UNL A   1      41.873  27.938  25.533  1.00  0.00    -0.200 F 
ATOM     72  C   UNL A   1      40.498  26.356  26.620  1.00  0.00     0.200 A 
ATOM     73  F   UNL A   1      39.107  24.813  27.741  1.00  0.00    -0.200 F 
ATOM     74  F   UNL A   1      40.536  25.561  25.542  1.00  0.00    -0.200 F 
ENDBRANCH  50  64
BRANCH  51  75
ATOM     75  C   UNL A   1      39.552  33.926  36.892  1.00  0.00     0.064 A 
ATOM     76  C   UNL A   1      38.779  33.507  37.984  1.00  0.00     0.173 A 
ATOM     77  C   UNL A   1      40.182  35.174  36.979  1.00  0.00     0.173 A 
ATOM     78  F   UNL A   1      38.139  32.329  37.939  1.00  0.00    -0.203 F 
ATOM     79  C   UNL A   1      38.626  34.313  39.110  1.00  0.00     0.198 A 
ATOM     80  C   UNL A   1      40.051  35.969  38.117  1.00  0.00     0.198 A 
ATOM     81  F   UNL A   1      40.937  35.619  35.963  1.00  0.00    -0.203 F 
ATOM     82  F   UNL A   1      37.846  33.908  40.121  1.00  0.00    -0.200 F 
ATOM     83  C   UNL A   1      39.267  35.541  39.178  1.00  0.00     0.200 A 
ATOM     84  F   UNL A   1      40.683  37.148  38.184  1.00  0.00    -0.200 F 
ATOM     85  F   UNL A   1      39.123  36.316  40.262  1.00  0.00    -0.200 F 
ENDBRANCH  51  75
BRANCH  63  86
ATOM     86  C   UNL A   1      43.942  28.821  35.101  1.00  0.00     0.064 A 
ATOM     87  C   UNL A   1      43.808  27.708  35.942  1.00  0.00     0.173 A 
ATOM     88  C   UNL A   1      45.232  29.332  34.885  1.00  0.00     0.173 A 
ATOM     89  F   UNL A   1      42.595  27.193  36.192  1.00  0.00    -0.203 F 
ATOM     90  C   UNL A   1      44.919  27.141  36.561  1.00  0.00     0.198 A 
ATOM     91  C   UNL A   1      46.343  28.746  35.482  1.00  0.00     0.198 A 
ATOM     92  F   UNL A   1      45.413  30.393  34.083  1.00  0.00    -0.203 F 
ATOM     93  F   UNL A   1      44.763  26.105  37.395  1.00  0.00    -0.200 F 
ATOM     94  C   UNL A   1      46.186  27.656  36.324  1.00  0.00     0.200 A 
ATOM     95  F   UNL A   1      47.567  29.236  35.243  1.00  0.00    -0.200 F 
ATOM     96  F   UNL A   1      47.255  27.103  36.914  1.00  0.00    -0.200 F 
ENDBRANCH  63  86
ENDBRANCH  37  38
ENDBRANCH  29  32
ENDBRANCH  27  28
ENDBRANCH  26  27
ENDBRANCH   1  26
TORSDOF 14
ENDMDL
MODEL 2
REMARK VINA RESULT:     -13.0      0.181      1.134
REMARK SMILES CCc1n[nH]c(C(=O)N[C@@]2(C(=O)NCCCCNC(=O)c3ccc(-c4c5nc(c(-c6c(F)c(F)c(F)c(F)c6F)c6ccc([nH]6)c(-c6c(F)c(F)c(F)c(F)c6F)c6nc(c(-c7c(F)c(F)c(F)c(F)c7F)c7ccc4[nH]7)C=C6)C=C5)cc3)CCCC[C@H]2C)n1
REMARK SMILES IDX 15 1 14 2 13 3 11 4 12 5 10 7 84 8 88 9 85 10 87 11 89 12
REMARK SMILES IDX 86 13 9 14 7 15 8 16 6 18 3 19 4 20 90 21 5 22 2 24 1 25
REMARK SMILES IDX 16 26 17 27 18 28 19 29 20 31 21 32 22 33 83 34 23 35 82 36
REMARK SMILES IDX 24 37 25 38 26 39 76 40 27 41 81 42 75 43 77 44 28 45 80 46
REMARK SMILES IDX 74 47 73 48 29 50 61 51 41 52 60 53 42 54 45 55 59 56 78 57
REMARK SMILES IDX 43 58 44 59 58 61 79 62 46 63 30 64 31 65 39 66 32 67 33 68
REMARK SMILES IDX 37 69 40 70 34 71 35 72 38 73 36 74 62 75 63 76 71 77 64 78
REMARK SMILES IDX 65 79 69 80 72 81 66 82 67 83 70 84 68 85 47 86 48 87 56 88
REMARK SMILES IDX 49 89 50 90 54 91 57 92 51 93 52 94 55 95 53 96
REMARK H PARENT 13 6 9 17 5 23 18 30 77 49 45 60
REMARK Flexibility Score: inf
ROOT
ATOM      1  C   UNL A   1      32.443  30.453  25.906  1.00  0.00     0.023 C 
ENDROOT
BRANCH   1   2
ATOM      2  C   UNL A   1      31.403  29.429  25.478  1.00  0.00     0.116 C 
BRANCH   2   3
ATOM      3  N   UNL A   1      30.991  29.527  24.089  1.00  0.00    -0.354 N 
ATOM      4  C   UNL A   1      31.125  28.613  23.071  1.00  0.00     0.246 C 
ATOM      5  O   UNL A   1      30.606  28.896  21.985  1.00  0.00    -0.272 OA
ATOM      6  H   UNL A   1      30.551  30.372  23.839  1.00  0.00     0.163 HD
BRANCH   4   7
ATOM      7  C   UNL A   1      31.969  27.282  23.247  1.00  0.00     0.122 C 
ATOM      8  C   UNL A   1      31.101  26.281  24.044  1.00  0.00     0.039 C 
ATOM      9  C   UNL A   1      33.304  27.736  23.910  1.00  0.00     0.021 C 
ATOM     10  C   UNL A   1      31.686  25.710  25.344  1.00  0.00     0.003 C 
ATOM     11  C   UNL A   1      34.028  26.585  24.584  1.00  0.00     0.006 C 
ATOM     12  C   UNL A   1      34.234  28.519  22.970  1.00  0.00     0.011 C 
ATOM     13  C   UNL A   1      33.160  25.970  25.675  1.00  0.00     0.000 C 
BRANCH   7  14
ATOM     14  N   UNL A   1      32.207  26.789  21.849  1.00  0.00    -0.335 N 
ATOM     15  C   UNL A   1      32.699  25.646  21.255  1.00  0.00     0.289 C 
ATOM     16  O   UNL A   1      32.788  25.662  20.024  1.00  0.00    -0.266 OA
ATOM     17  H   UNL A   1      31.941  27.458  21.178  1.00  0.00     0.165 HD
BRANCH  15  18
ATOM     18  C   UNL A   1      33.018  24.439  21.990  1.00  0.00     0.214 A 
ATOM     19  C   UNL A   1      33.885  22.958  23.252  1.00  0.00     0.151 A 
ATOM     20  N   UNL A   1      32.597  22.602  23.224  1.00  0.00    -0.158 NA
ATOM     21  N   UNL A   1      34.177  24.044  22.466  1.00  0.00    -0.207 NA
ATOM     22  N   UNL A   1      32.081  23.520  22.379  1.00  0.00    -0.255 N 
ATOM     23  H   UNL A   1      31.144  23.528  22.078  1.00  0.00     0.192 HD
BRANCH  19  24
ATOM     24  C   UNL A   1      34.903  22.421  24.197  1.00  0.00     0.076 C 
ATOM     25  C   UNL A   1      36.353  22.577  23.794  1.00  0.00     0.012 C 
ENDBRANCH  19  24
ENDBRANCH  15  18
ENDBRANCH   7  14
ENDBRANCH   4   7
ENDBRANCH   2   3
ENDBRANCH   1   2
BRANCH   1  26
ATOM     26  C   UNL A   1      31.909  31.568  26.791  1.00  0.00     0.023 C 
BRANCH  26  27
ATOM     27  C   UNL A   1      32.968  32.477  27.403  1.00  0.00     0.116 C 
BRANCH  27  28
ATOM     28  N   UNL A   1      32.528  33.848  27.626  1.00  0.00    -0.352 N 
ATOM     29  C   UNL A   1      33.035  34.769  28.514  1.00  0.00     0.251 C 
ATOM     30  H   UNL A   1      31.774  34.154  27.070  1.00  0.00     0.163 HD
ATOM     31  O   UNL A   1      32.513  35.871  28.649  1.00  0.00    -0.269 OA
BRANCH  29  32
ATOM     32  C   UNL A   1      34.195  34.389  29.346  1.00  0.00     0.039 A 
ATOM     33  C   UNL A   1      33.970  33.788  30.586  1.00  0.00     0.014 A 
ATOM     34  C   UNL A   1      35.493  34.541  28.854  1.00  0.00     0.014 A 
ATOM     35  C   UNL A   1      35.048  33.254  31.295  1.00  0.00     0.010 A 
ATOM     36  C   UNL A   1      36.553  33.937  29.520  1.00  0.00     0.010 A 
ATOM     37  C   UNL A   1      36.341  33.282  30.744  1.00  0.00    -0.014 A 
BRANCH  37  38
ATOM     38  C   UNL A   1      37.484  32.625  31.422  1.00  0.00     0.031 A 
ATOM     39  C   UNL A   1      38.182  31.468  30.765  1.00  0.00     0.074 A 
ATOM     40  C   UNL A   1      37.842  33.013  32.662  1.00  0.00     0.049 A 
ATOM     41  N   UNL A   1      39.140  30.706  31.228  1.00  0.00    -0.248 NA
ATOM     42  C   UNL A   1      37.719  31.099  29.418  1.00  0.00     0.031 C 
ATOM     43  C   UNL A   1      37.204  34.085  33.431  1.00  0.00     0.029 A 
ATOM     44  N   UNL A   1      38.820  32.541  33.501  1.00  0.00    -0.354 N 
ATOM     45  C   UNL A   1      39.379  29.760  30.239  1.00  0.00     0.074 A 
ATOM     46  C   UNL A   1      38.430  30.008  29.177  1.00  0.00     0.031 C 
ATOM     47  C   UNL A   1      37.823  34.203  34.617  1.00  0.00     0.029 A 
ATOM     48  C   UNL A   1      38.875  33.196  34.708  1.00  0.00     0.049 A 
ATOM     49  H   UNL A   1      39.425  31.804  33.260  1.00  0.00     0.167 HD
ATOM     50  C   UNL A   1      40.322  28.790  30.211  1.00  0.00     0.037 A 
ATOM     51  C   UNL A   1      39.681  33.000  35.769  1.00  0.00     0.037 A 
ATOM     52  C   UNL A   1      41.286  28.567  31.255  1.00  0.00     0.049 A 
ATOM     53  C   UNL A   1      40.727  31.921  35.707  1.00  0.00     0.074 A 
ATOM     54  C   UNL A   1      42.323  27.652  31.291  1.00  0.00     0.029 A 
ATOM     55  N   UNL A   1      41.330  29.270  32.450  1.00  0.00    -0.354 N 
ATOM     56  N   UNL A   1      40.990  31.078  34.738  1.00  0.00    -0.248 NA
ATOM     57  C   UNL A   1      41.593  31.769  36.886  1.00  0.00     0.031 C 
ATOM     58  C   UNL A   1      42.971  27.775  32.525  1.00  0.00     0.029 A 
ATOM     59  C   UNL A   1      42.367  28.797  33.238  1.00  0.00     0.049 A 
ATOM     60  H   UNL A   1      40.715  29.998  32.701  1.00  0.00     0.167 HD
ATOM     61  C   UNL A   1      42.067  30.319  35.175  1.00  0.00     0.074 A 
ATOM     62  C   UNL A   1      42.417  30.808  36.492  1.00  0.00     0.031 C 
ATOM     63  C   UNL A   1      42.708  29.305  34.542  1.00  0.00     0.037 A 
BRANCH  50  64
ATOM     64  C   UNL A   1      40.362  27.900  29.002  1.00  0.00     0.064 A 
ATOM     65  C   UNL A   1      41.129  28.229  27.874  1.00  0.00     0.173 A 
ATOM     66  C   UNL A   1      39.649  26.693  28.983  1.00  0.00     0.173 A 
ATOM     67  F   UNL A   1      41.817  29.380  27.838  1.00  0.00    -0.203 F 
ATOM     68  C   UNL A   1      41.156  27.396  26.759  1.00  0.00     0.198 A 
ATOM     69  C   UNL A   1      39.703  25.847  27.877  1.00  0.00     0.198 A 
ATOM     70  F   UNL A   1      38.903  26.329  30.036  1.00  0.00    -0.203 F 
ATOM     71  F   UNL A   1      41.854  27.756  25.672  1.00  0.00    -0.200 F 
ATOM     72  C   UNL A   1      40.449  26.203  26.764  1.00  0.00     0.200 A 
ATOM     73  F   UNL A   1      39.029  24.689  27.888  1.00  0.00    -0.200 F 
ATOM     74  F   UNL A   1      40.482  25.399  25.692  1.00  0.00    -0.200 F 
ENDBRANCH  50  64
BRANCH  51  75
ATOM     75  C   UNL A   1      39.552  33.866  36.970  1.00  0.00     0.064 A 
ATOM     76  C   UNL A   1      38.783  33.458  38.069  1.00  0.00     0.173 A 
ATOM     77  C   UNL A   1      40.184  35.114  37.043  1.00  0.00     0.173 A 
ATOM     78  F   UNL A   1      38.142  32.281  38.037  1.00  0.00    -0.203 F 
ATOM     79  C   UNL A   1      38.635  34.276  39.188  1.00  0.00     0.198 A 
ATOM     80  C   UNL A   1      40.058  35.921  38.174  1.00  0.00     0.198 A 
ATOM     81  F   UNL A   1      40.936  35.549  36.021  1.00  0.00    -0.203 F 
ATOM     82  F   UNL A   1      37.858  33.881  40.206  1.00  0.00    -0.200 F 
ATOM     83  C   UNL A   1      39.277  35.503  39.242  1.00  0.00     0.200 A 
ATOM     84  F   UNL A   1      40.691  37.100  38.228  1.00  0.00    -0.200 F 
ATOM     85  F   UNL A   1      39.138  36.288  40.319  1.00  0.00    -0.200 F 
ENDBRANCH  51  75
BRANCH  63  86
ATOM     86  C   UNL A   1      43.877  28.683  35.247  1.00  0.00     0.064 A 
ATOM     87  C   UNL A   1      45.181  29.168  35.077  1.00  0.00     0.173 A 
ATOM     88  C   UNL A   1      43.681  27.616  36.138  1.00  0.00     0.173 A 
ATOM     89  F   UNL A   1      45.421  30.175  34.225  1.00  0.00    -0.203 F 
ATOM     90  C   UNL A   1      46.252  28.591  35.755  1.00  0.00     0.198 A 
ATOM     91  C   UNL A   1      44.749  27.061  36.836  1.00  0.00     0.198 A 
ATOM     92  F   UNL A   1      42.450  27.121  36.340  1.00  0.00    -0.203 F 
ATOM     93  F   UNL A   1      47.496  29.041  35.544  1.00  0.00    -0.200 F 
ATOM     94  C   UNL A   1      46.034  27.544  36.639  1.00  0.00     0.200 A 
ATOM     95  F   UNL A   1      44.536  26.059  37.699  1.00  0.00    -0.200 F 
ATOM     96  F   UNL A   1      47.065  26.997  37.298  1.00  0.00    -0.200 F 
ENDBRANCH  63  86
ENDBRANCH  37  38
ENDBRANCH  29  32
ENDBRANCH  27  28
ENDBRANCH  26  27
ENDBRANCH   1  26
TORSDOF 14
ENDMDL
MODEL 3
REMARK VINA RESULT:     -12.9      5.772     11.198
REMARK SMILES CCc1n[nH]c(C(=O)N[C@@]2(C(=O)NCCCCNC(=O)c3ccc(-c4c5nc(c(-c6c(F)c(F)c(F)c(F)c6F)c6ccc([nH]6)c(-c6c(F)c(F)c(F)c(F)c6F)c6nc(c(-c7c(F)c(F)c(F)c(F)c7F)c7ccc4[nH]7)C=C6)C=C5)cc3)CCCC[C@H]2C)n1
REMARK SMILES IDX 15 1 14 2 13 3 11 4 12 5 10 7 84 8 88 9 85 10 87 11 89 12
REMARK SMILES IDX 86 13 9 14 7 15 8 16 6 18 3 19 4 20 90 21 5 22 2 24 1 25
REMARK SMILES IDX 16 26 17 27 18 28 19 29 20 31 21 32 22 33 83 34 23 35 82 36
REMARK SMILES IDX 24 37 25 38 26 39 76 40 27 41 81 42 75 43 77 44 28 45 80 46
REMARK SMILES IDX 74 47 73 48 29 50 61 51 41 52 60 53 42 54 45 55 59 56 78 57
REMARK SMILES IDX 43 58 44 59 58 61 79 62 46 63 30 64 31 65 39 66 32 67 33 68
REMARK SMILES IDX 37 69 40 70 34 71 35 72 38 73 36 74 62 75 63 76 71 77 64 78
REMARK SMILES IDX 65 79 69 80 72 81 66 82 67 83 70 84 68 85 47 86 48 87 56 88
REMARK SMILES IDX 49 89 50 90 54 91 57 92 51 93 52 94 55 95 53 96
REMARK H PARENT 13 6 9 17 5 23 18 30 77 49 45 60
REMARK Flexibility Score: inf
ROOT
ATOM      1  C   UNL A   1      36.935  21.221  25.444  1.00  0.00     0.023 C 
ENDROOT
BRANCH   1   2
ATOM      2  C   UNL A   1      35.683  21.130  24.585  1.00  0.00     0.116 C 
BRANCH   2   3
ATOM      3  N   UNL A   1      34.627  20.302  25.139  1.00  0.00    -0.354 N 
ATOM      4  C   UNL A   1      33.353  20.651  25.523  1.00  0.00     0.246 C 
ATOM      5  O   UNL A   1      32.602  19.737  25.883  1.00  0.00    -0.272 OA
ATOM      6  H   UNL A   1      34.855  19.351  25.256  1.00  0.00     0.163 HD
BRANCH   4   7
ATOM      7  C   UNL A   1      32.880  22.163  25.575  1.00  0.00     0.122 C 
ATOM      8  C   UNL A   1      32.640  22.628  24.120  1.00  0.00     0.039 C 
ATOM      9  C   UNL A   1      33.990  22.906  26.375  1.00  0.00     0.021 C 
ATOM     10  C   UNL A   1      33.408  23.865  23.633  1.00  0.00     0.003 C 
ATOM     11  C   UNL A   1      33.969  24.403  26.128  1.00  0.00     0.006 C 
ATOM     12  C   UNL A   1      34.004  22.579  27.877  1.00  0.00     0.011 C 
ATOM     13  C   UNL A   1      34.187  24.707  24.651  1.00  0.00     0.000 C 
BRANCH   7  14
ATOM     14  N   UNL A   1      31.591  22.136  26.346  1.00  0.00    -0.335 N 
ATOM     15  C   UNL A   1      30.614  23.041  26.705  1.00  0.00     0.289 C 
ATOM     16  O   UNL A   1      29.706  22.612  27.423  1.00  0.00    -0.266 OA
ATOM     17  H   UNL A   1      31.390  21.234  26.685  1.00  0.00     0.165 HD
BRANCH  15  18
ATOM     18  C   UNL A   1      30.568  24.402  26.214  1.00  0.00     0.214 A 
ATOM     19  C   UNL A   1      30.899  26.471  25.829  1.00  0.00     0.151 A 
ATOM     20  N   UNL A   1      30.393  26.035  24.670  1.00  0.00    -0.158 NA
ATOM     21  N   UNL A   1      30.968  25.507  26.802  1.00  0.00    -0.207 NA
ATOM     22  N   UNL A   1      30.143  24.739  24.956  1.00  0.00    -0.255 N 
ATOM     23  H   UNL A   1      29.707  24.111  24.336  1.00  0.00     0.192 HD
BRANCH  19  24
ATOM     24  C   UNL A   1      31.556  27.792  26.034  1.00  0.00     0.076 C 
ATOM     25  C   UNL A   1      31.619  28.306  27.456  1.00  0.00     0.012 C 
ENDBRANCH  19  24
ENDBRANCH  15  18
ENDBRANCH   7  14
ENDBRANCH   4   7
ENDBRANCH   2   3
ENDBRANCH   1   2
BRANCH   1  26
ATOM     26  C   UNL A   1      38.025  20.223  25.085  1.00  0.00     0.023 C 
BRANCH  26  27
ATOM     27  C   UNL A   1      39.362  20.441  25.782  1.00  0.00     0.116 C 
BRANCH  27  28
ATOM     28  N   UNL A   1      40.209  19.257  25.841  1.00  0.00    -0.352 N 
ATOM     29  C   UNL A   1      41.557  19.190  26.115  1.00  0.00     0.251 C 
ATOM     30  H   UNL A   1      39.761  18.397  25.664  1.00  0.00     0.163 HD
ATOM     31  O   UNL A   1      42.160  18.123  26.056  1.00  0.00    -0.269 OA
BRANCH  29  32
ATOM     32  C   UNL A   1      42.279  20.437  26.433  1.00  0.00     0.039 A 
ATOM     33  C   UNL A   1      42.877  21.156  25.397  1.00  0.00     0.014 A 
ATOM     34  C   UNL A   1      42.279  20.937  27.738  1.00  0.00     0.014 A 
ATOM     35  C   UNL A   1      43.398  22.425  25.653  1.00  0.00     0.010 A 
ATOM     36  C   UNL A   1      42.722  22.233  27.974  1.00  0.00     0.010 A 
ATOM     37  C   UNL A   1      43.280  22.993  26.934  1.00  0.00    -0.014 A 
BRANCH  37  38
ATOM     38  C   UNL A   1      43.722  24.382  27.207  1.00  0.00     0.031 A 
ATOM     39  C   UNL A   1      42.740  25.394  27.725  1.00  0.00     0.074 A 
ATOM     40  C   UNL A   1      44.984  24.754  26.913  1.00  0.00     0.049 A 
ATOM     41  N   UNL A   1      42.905  26.674  27.943  1.00  0.00    -0.248 NA
ATOM     42  C   UNL A   1      41.379  24.908  28.004  1.00  0.00     0.031 C 
ATOM     43  C   UNL A   1      46.016  23.879  26.352  1.00  0.00     0.029 A 
ATOM     44  N   UNL A   1      45.609  25.970  27.032  1.00  0.00    -0.354 N 
ATOM     45  C   UNL A   1      41.669  27.145  28.366  1.00  0.00     0.074 A 
ATOM     46  C   UNL A   1      40.750  26.029  28.320  1.00  0.00     0.031 C 
ATOM     47  C   UNL A   1      47.150  24.581  26.198  1.00  0.00     0.029 A 
ATOM     48  C   UNL A   1      46.919  25.959  26.615  1.00  0.00     0.049 A 
ATOM     49  H   UNL A   1      45.162  26.773  27.384  1.00  0.00     0.167 HD
ATOM     50  C   UNL A   1      41.338  28.391  28.779  1.00  0.00     0.037 A 
ATOM     51  C   UNL A   1      47.825  26.954  26.570  1.00  0.00     0.037 A 
ATOM     52  C   UNL A   1      42.262  29.491  28.854  1.00  0.00     0.049 A 
ATOM     53  C   UNL A   1      47.434  28.327  27.044  1.00  0.00     0.074 A 
ATOM     54  C   UNL A   1      42.040  30.774  29.322  1.00  0.00     0.029 A 
ATOM     55  N   UNL A   1      43.588  29.435  28.451  1.00  0.00    -0.354 N 
ATOM     56  N   UNL A   1      46.282  28.745  27.509  1.00  0.00    -0.248 NA
ATOM     57  C   UNL A   1      48.473  29.366  26.993  1.00  0.00     0.031 C 
ATOM     58  C   UNL A   1      43.222  31.507  29.165  1.00  0.00     0.029 A 
ATOM     59  C   UNL A   1      44.192  30.667  28.643  1.00  0.00     0.049 A 
ATOM     60  H   UNL A   1      44.034  28.637  28.083  1.00  0.00     0.167 HD
ATOM     61  C   UNL A   1      46.464  30.082  27.833  1.00  0.00     0.074 A 
ATOM     62  C   UNL A   1      47.841  30.405  27.524  1.00  0.00     0.031 C 
ATOM     63  C   UNL A   1      45.569  30.965  28.340  1.00  0.00     0.037 A 
BRANCH  50  64
ATOM     64  C   UNL A   1      39.915  28.627  29.192  1.00  0.00     0.064 A 
ATOM     65  C   UNL A   1      39.482  28.388  30.506  1.00  0.00     0.173 A 
ATOM     66  C   UNL A   1      38.979  29.124  28.273  1.00  0.00     0.173 A 
ATOM     67  F   UNL A   1      40.335  27.899  31.418  1.00  0.00    -0.203 F 
ATOM     68  C   UNL A   1      38.159  28.609  30.876  1.00  0.00     0.198 A 
ATOM     69  C   UNL A   1      37.663  29.373  28.656  1.00  0.00     0.198 A 
ATOM     70  F   UNL A   1      39.340  29.372  27.006  1.00  0.00    -0.203 F 
ATOM     71  F   UNL A   1      37.757  28.325  32.123  1.00  0.00    -0.200 F 
ATOM     72  C   UNL A   1      37.252  29.107  29.953  1.00  0.00     0.200 A 
ATOM     73  F   UNL A   1      36.791  29.865  27.766  1.00  0.00    -0.200 F 
ATOM     74  F   UNL A   1      35.980  29.326  30.313  1.00  0.00    -0.200 F 
ENDBRANCH  50  64
BRANCH  51  75
ATOM     75  C   UNL A   1      49.204  26.681  26.086  1.00  0.00     0.064 A 
ATOM     76  C   UNL A   1      49.570  26.969  24.763  1.00  0.00     0.173 A 
ATOM     77  C   UNL A   1      50.178  26.124  26.925  1.00  0.00     0.173 A 
ATOM     78  F   UNL A   1      48.666  27.485  23.916  1.00  0.00    -0.203 F 
ATOM     79  C   UNL A   1      50.852  26.692  24.293  1.00  0.00     0.198 A 
ATOM     80  C   UNL A   1      51.468  25.871  26.462  1.00  0.00     0.198 A 
ATOM     81  F   UNL A   1      49.880  25.833  28.200  1.00  0.00    -0.203 F 
ATOM     82  F   UNL A   1      51.162  26.937  23.013  1.00  0.00    -0.200 F 
ATOM     83  C   UNL A   1      51.802  26.149  25.144  1.00  0.00     0.200 A 
ATOM     84  F   UNL A   1      52.387  25.358  27.292  1.00  0.00    -0.200 F 
ATOM     85  F   UNL A   1      53.036  25.885  24.693  1.00  0.00    -0.200 F 
ENDBRANCH  51  75
BRANCH  63  86
ATOM     86  C   UNL A   1      46.060  32.353  28.630  1.00  0.00     0.064 A 
ATOM     87  C   UNL A   1      46.638  32.687  29.863  1.00  0.00     0.173 A 
ATOM     88  C   UNL A   1      45.989  33.350  27.644  1.00  0.00     0.173 A 
ATOM     89  F   UNL A   1      46.713  31.773  30.842  1.00  0.00    -0.203 F 
ATOM     90  C   UNL A   1      47.107  33.974  30.107  1.00  0.00     0.198 A 
ATOM     91  C   UNL A   1      46.485  34.628  27.882  1.00  0.00     0.198 A 
ATOM     92  F   UNL A   1      45.451  33.078  26.445  1.00  0.00    -0.203 F 
ATOM     93  F   UNL A   1      47.615  34.284  31.307  1.00  0.00    -0.200 F 
ATOM     94  C   UNL A   1      47.037  34.942  29.114  1.00  0.00     0.200 A 
ATOM     95  F   UNL A   1      46.429  35.557  26.918  1.00  0.00    -0.200 F 
ATOM     96  F   UNL A   1      47.497  36.178  29.349  1.00  0.00    -0.200 F 
ENDBRANCH  63  86
ENDBRANCH  37  38
ENDBRANCH  29  32
ENDBRANCH  27  28
ENDBRANCH  26  27
ENDBRANCH   1  26
TORSDOF 14
ENDMDL
