MODEL 1
REMARK VINA RESULT:     -12.2      0.000      0.000
REMARK SMILES C[NH2+][C@]1(C(=O)NCCCCNC(=O)c2ccc(-c3c4nc(c(-c5c(F)c(F)c(F)c(F)c5F)c5ccc([nH]5)c(-c5c(F)c(F)c(F)c(F)c5F)c5nc(c(-c6c(F)c(F)c(F)c(F)c6F)c6ccc3[nH]6)C=C5)C=C4)cc2)CCC[C@@H]1CCSc1cccc(Cl)c1
REMARK SMILES IDX 7 1 6 2 4 3 5 4 3 6 77 7 80 8 78 9 79 10 2 11 1 12 81 15
REMARK SMILES IDX 82 16 83 17 84 18 85 19 90 20 86 21 88 22 87 23 89 24 8 25
REMARK SMILES IDX 9 26 10 27 11 28 12 29 13 31 14 32 15 33 76 34 16 35 75 36
REMARK SMILES IDX 17 37 18 38 19 39 69 40 20 41 74 42 68 43 70 44 21 45 73 46
REMARK SMILES IDX 67 47 66 48 22 50 54 51 34 52 53 53 35 54 38 55 52 56 71 57
REMARK SMILES IDX 36 58 37 59 51 61 72 62 39 63 23 64 24 65 32 66 25 67 26 68
REMARK SMILES IDX 30 69 33 70 27 71 28 72 31 73 29 74 55 75 56 76 64 77 57 78
REMARK SMILES IDX 58 79 62 80 65 81 59 82 60 83 63 84 61 85 40 86 41 87 49 88
REMARK SMILES IDX 42 89 43 90 47 91 50 92 44 93 45 94 48 95 46 96
REMARK H PARENT 6 5 2 13 2 14 11 30 70 49 38 60
REMARK Flexibility Score: inf
ROOT
ATOM      1  C   UNL A   1      33.210  29.759  26.498  1.00  0.00     0.116 C 
ENDROOT
BRANCH   1   2
ATOM      2  N   UNL A   1      33.598  29.728  25.099  1.00  0.00    -0.351 N 
ATOM      3  C   UNL A   1      33.363  28.844  24.090  1.00  0.00     0.281 C 
ATOM      4  O   UNL A   1      33.946  29.097  23.025  1.00  0.00    -0.268 OA
ATOM      5  H   UNL A   1      34.139  30.504  24.824  1.00  0.00     0.163 HD
BRANCH   3   6
ATOM      6  C   UNL A   1      32.480  27.541  24.234  1.00  0.00     0.178 C 
ATOM      7  C   UNL A   1      32.984  26.706  25.430  1.00  0.00     0.079 C 
ATOM      8  C   UNL A   1      31.002  27.865  24.591  1.00  0.00     0.061 C 
ATOM      9  C   UNL A   1      31.749  26.130  26.123  1.00  0.00     0.008 C 
ATOM     10  C   UNL A   1      30.527  26.633  25.367  1.00  0.00     0.011 C 
BRANCH   6  11
ATOM     11  N   UNL A   1      32.600  26.812  22.939  1.00  0.00    -0.336 N 
ATOM     12  C   UNL A   1      33.381  25.595  22.862  1.00  0.00     0.331 C 
ATOM     13  H   UNL A   1      31.653  26.573  22.647  1.00  0.00     0.346 HD
ATOM     14  H   UNL A   1      33.122  27.462  22.351  1.00  0.00     0.346 HD
ENDBRANCH   6  11
BRANCH   8  15
ATOM     15  C   UNL A   1      30.094  28.252  23.411  1.00  0.00     0.022 C 
BRANCH  15  16
ATOM     16  C   UNL A   1      28.762  27.493  23.354  1.00  0.00     0.075 C 
BRANCH  16  17
ATOM     17  S   UNL A   1      27.287  28.577  23.269  1.00  0.00    -0.126 SA
BRANCH  17  18
ATOM     18  C   UNL A   1      27.878  30.227  22.928  1.00  0.00     0.009 A 
ATOM     19  C   UNL A   1      28.331  31.146  23.878  1.00  0.00     0.015 A 
ATOM     20  C   UNL A   1      27.831  30.631  21.588  1.00  0.00     0.035 A 
ATOM     21  C   UNL A   1      28.800  32.409  23.494  1.00  0.00     0.003 A 
ATOM     22  C   UNL A   1      28.255  31.906  21.211  1.00  0.00     0.042 A 
ATOM     23  C   UNL A   1      28.766  32.790  22.156  1.00  0.00     0.020 A 
ATOM     24  Cl  UNL A   1      28.107  32.388  19.567  1.00  0.00    -0.084 Cl
ENDBRANCH  17  18
ENDBRANCH  16  17
ENDBRANCH  15  16
ENDBRANCH   8  15
ENDBRANCH   3   6
ENDBRANCH   1   2
BRANCH   1  25
ATOM     25  C   UNL A   1      31.793  30.294  26.694  1.00  0.00     0.023 C 
BRANCH  25  26
ATOM     26  C   UNL A   1      31.650  31.817  26.651  1.00  0.00     0.023 C 
BRANCH  26  27
ATOM     27  C   UNL A   1      32.783  32.612  27.297  1.00  0.00     0.116 C 
BRANCH  27  28
ATOM     28  N   UNL A   1      32.415  33.976  27.643  1.00  0.00    -0.352 N 
ATOM     29  C   UNL A   1      32.995  34.848  28.533  1.00  0.00     0.251 C 
ATOM     30  H   UNL A   1      31.631  34.329  27.165  1.00  0.00     0.163 HD
ATOM     31  O   UNL A   1      32.472  35.944  28.723  1.00  0.00    -0.269 OA
BRANCH  29  32
ATOM     32  C   UNL A   1      34.200  34.461  29.310  1.00  0.00     0.039 A 
ATOM     33  C   UNL A   1      34.013  33.915  30.585  1.00  0.00     0.014 A 
ATOM     34  C   UNL A   1      35.495  34.600  28.802  1.00  0.00     0.014 A 
ATOM     35  C   UNL A   1      35.103  33.405  31.294  1.00  0.00     0.010 A 
ATOM     36  C   UNL A   1      36.575  34.037  29.481  1.00  0.00     0.010 A 
ATOM     37  C   UNL A   1      36.383  33.405  30.717  1.00  0.00    -0.014 A 
BRANCH  37  38
ATOM     38  C   UNL A   1      37.497  32.652  31.346  1.00  0.00     0.031 A 
ATOM     39  C   UNL A   1      38.023  33.022  32.700  1.00  0.00     0.074 A 
ATOM     40  C   UNL A   1      38.089  31.670  30.639  1.00  0.00     0.049 A 
ATOM     41  N   UNL A   1      39.003  32.483  33.381  1.00  0.00    -0.248 NA
ATOM     42  C   UNL A   1      37.381  34.163  33.371  1.00  0.00     0.031 C 
ATOM     43  C   UNL A   1      37.716  31.268  29.280  1.00  0.00     0.029 A 
ATOM     44  N   UNL A   1      39.135  30.839  30.954  1.00  0.00    -0.354 N 
ATOM     45  C   UNL A   1      39.098  33.215  34.555  1.00  0.00     0.074 A 
ATOM     46  C   UNL A   1      38.106  34.267  34.478  1.00  0.00     0.031 C 
ATOM     47  C   UNL A   1      38.503  30.254  28.888  1.00  0.00     0.029 A 
ATOM     48  C   UNL A   1      39.453  29.952  29.954  1.00  0.00     0.049 A 
ATOM     49  H   UNL A   1      39.611  30.875  31.814  1.00  0.00     0.167 HD
ATOM     50  C   UNL A   1      39.928  33.016  35.608  1.00  0.00     0.037 A 
ATOM     51  C   UNL A   1      40.402  29.000  29.902  1.00  0.00     0.037 A 
ATOM     52  C   UNL A   1      40.904  31.960  35.687  1.00  0.00     0.049 A 
ATOM     53  C   UNL A   1      41.293  28.787  31.092  1.00  0.00     0.074 A 
ATOM     54  C   UNL A   1      41.745  31.637  36.739  1.00  0.00     0.029 A 
ATOM     55  N   UNL A   1      41.178  31.060  34.667  1.00  0.00    -0.354 N 
ATOM     56  N   UNL A   1      41.313  29.429  32.233  1.00  0.00    -0.248 NA
ATOM     57  C   UNL A   1      42.287  27.709  30.990  1.00  0.00     0.031 C 
ATOM     58  C   UNL A   1      42.550  30.563  36.343  1.00  0.00     0.029 A 
ATOM     59  C   UNL A   1      42.186  30.192  35.058  1.00  0.00     0.049 A 
ATOM     60  H   UNL A   1      40.722  31.039  33.795  1.00  0.00     0.167 HD
ATOM     61  C   UNL A   1      42.302  28.823  32.994  1.00  0.00     0.074 A 
ATOM     62  C   UNL A   1      42.851  27.751  32.190  1.00  0.00     0.031 C 
ATOM     63  C   UNL A   1      42.718  29.129  34.247  1.00  0.00     0.037 A 
BRANCH  50  64
ATOM     64  C   UNL A   1      39.806  33.955  36.771  1.00  0.00     0.064 A 
ATOM     65  C   UNL A   1      39.014  33.640  37.885  1.00  0.00     0.173 A 
ATOM     66  C   UNL A   1      40.521  35.162  36.792  1.00  0.00     0.173 A 
ATOM     67  F   UNL A   1      38.305  32.501  37.909  1.00  0.00    -0.203 F 
ATOM     68  C   UNL A   1      38.923  34.510  38.968  1.00  0.00     0.198 A 
ATOM     69  C   UNL A   1      40.445  36.019  37.887  1.00  0.00     0.198 A 
ATOM     70  F   UNL A   1      41.298  35.507  35.755  1.00  0.00    -0.203 F 
ATOM     71  F   UNL A   1      38.129  34.207  40.005  1.00  0.00    -0.200 F 
ATOM     72  C   UNL A   1      39.642  35.697  38.971  1.00  0.00     0.200 A 
ATOM     73  F   UNL A   1      41.150  37.159  37.894  1.00  0.00    -0.200 F 
ATOM     74  F   UNL A   1      39.557  36.530  40.017  1.00  0.00    -0.200 F 
ENDBRANCH  50  64
BRANCH  51  75
ATOM     75  C   UNL A   1      40.527  28.150  28.692  1.00  0.00     0.064 A 
ATOM     76  C   UNL A   1      41.329  28.552  27.614  1.00  0.00     0.173 A 
ATOM     77  C   UNL A   1      39.864  26.919  28.592  1.00  0.00     0.173 A 
ATOM     78  F   UNL A   1      41.967  29.730  27.658  1.00  0.00    -0.203 F 
ATOM     79  C   UNL A   1      41.450  27.759  26.475  1.00  0.00     0.198 A 
ATOM     80  C   UNL A   1      40.006  26.117  27.462  1.00  0.00     0.198 A 
ATOM     81  F   UNL A   1      39.092  26.489  29.601  1.00  0.00    -0.203 F 
ATOM     82  F   UNL A   1      42.194  28.184  25.444  1.00  0.00    -0.200 F 
ATOM     83  C   UNL A   1      40.793  26.541  26.401  1.00  0.00     0.200 A 
ATOM     84  F   UNL A   1      39.380  24.933  27.400  1.00  0.00    -0.200 F 
ATOM     85  F   UNL A   1      40.915  25.777  25.308  1.00  0.00    -0.200 F 
ENDBRANCH  51  75
BRANCH  63  86
ATOM     86  C   UNL A   1      43.803  28.275  34.832  1.00  0.00     0.064 A 
ATOM     87  C   UNL A   1      45.156  28.627  34.714  1.00  0.00     0.173 A 
ATOM     88  C   UNL A   1      43.484  27.111  35.546  1.00  0.00     0.173 A 
ATOM     89  F   UNL A   1      45.510  29.722  34.025  1.00  0.00    -0.203 F 
ATOM     90  C   UNL A   1      46.152  27.829  35.271  1.00  0.00     0.198 A 
ATOM     91  C   UNL A   1      44.481  26.329  36.123  1.00  0.00     0.198 A 
ATOM     92  F   UNL A   1      42.204  26.734  35.689  1.00  0.00    -0.203 F 
ATOM     93  F   UNL A   1      47.440  28.160  35.109  1.00  0.00    -0.200 F 
ATOM     94  C   UNL A   1      45.814  26.686  35.980  1.00  0.00     0.200 A 
ATOM     95  F   UNL A   1      44.152  25.229  36.814  1.00  0.00    -0.200 F 
ATOM     96  F   UNL A   1      46.774  25.922  36.518  1.00  0.00    -0.200 F 
ENDBRANCH  63  86
ENDBRANCH  37  38
ENDBRANCH  29  32
ENDBRANCH  27  28
ENDBRANCH  26  27
ENDBRANCH  25  26
ENDBRANCH   1  25
TORSDOF 16
ENDMDL
MODEL 2
REMARK VINA RESULT:     -12.1      0.451      7.189
REMARK SMILES C[NH2+][C@]1(C(=O)NCCCCNC(=O)c2ccc(-c3c4nc(c(-c5c(F)c(F)c(F)c(F)c5F)c5ccc([nH]5)c(-c5c(F)c(F)c(F)c(F)c5F)c5nc(c(-c6c(F)c(F)c(F)c(F)c6F)c6ccc3[nH]6)C=C5)C=C4)cc2)CCC[C@@H]1CCSc1cccc(Cl)c1
REMARK SMILES IDX 7 1 6 2 4 3 5 4 3 6 77 7 80 8 78 9 79 10 2 11 1 12 81 15
REMARK SMILES IDX 82 16 83 17 84 18 85 19 90 20 86 21 88 22 87 23 89 24 8 25
REMARK SMILES IDX 9 26 10 27 11 28 12 29 13 31 14 32 15 33 76 34 16 35 75 36
REMARK SMILES IDX 17 37 18 38 19 39 69 40 20 41 74 42 68 43 70 44 21 45 73 46
REMARK SMILES IDX 67 47 66 48 22 50 54 51 34 52 53 53 35 54 38 55 52 56 71 57
REMARK SMILES IDX 36 58 37 59 51 61 72 62 39 63 23 64 24 65 32 66 25 67 26 68
REMARK SMILES IDX 30 69 33 70 27 71 28 72 31 73 29 74 55 75 56 76 64 77 57 78
REMARK SMILES IDX 58 79 62 80 65 81 59 82 60 83 63 84 61 85 40 86 41 87 49 88
REMARK SMILES IDX 42 89 43 90 47 91 50 92 44 93 45 94 48 95 46 96
REMARK H PARENT 6 5 2 13 2 14 11 30 70 49 38 60
REMARK Flexibility Score: inf
ROOT
ATOM      1  C   UNL A   1      33.333  29.512  26.731  1.00  0.00     0.116 C 
ENDROOT
BRANCH   1   2
ATOM      2  N   UNL A   1      33.721  29.545  25.332  1.00  0.00    -0.351 N 
ATOM      3  C   UNL A   1      33.454  28.728  24.275  1.00  0.00     0.281 C 
ATOM      4  O   UNL A   1      34.048  29.017  23.226  1.00  0.00    -0.268 OA
ATOM      5  H   UNL A   1      34.293  30.312  25.100  1.00  0.00     0.163 HD
BRANCH   3   6
ATOM      6  C   UNL A   1      32.520  27.455  24.346  1.00  0.00     0.178 C 
ATOM      7  C   UNL A   1      32.971  26.548  25.510  1.00  0.00     0.079 C 
ATOM      8  C   UNL A   1      31.049  27.820  24.694  1.00  0.00     0.061 C 
ATOM      9  C   UNL A   1      31.704  25.990  26.158  1.00  0.00     0.008 C 
ATOM     10  C   UNL A   1      30.514  26.574  25.406  1.00  0.00     0.011 C 
BRANCH   6  11
ATOM     11  N   UNL A   1      32.634  26.781  23.022  1.00  0.00    -0.336 N 
ATOM     12  C   UNL A   1      33.481  25.615  22.872  1.00  0.00     0.331 C 
ATOM     13  H   UNL A   1      31.692  26.497  22.753  1.00  0.00     0.346 HD
ATOM     14  H   UNL A   1      33.096  27.480  22.441  1.00  0.00     0.346 HD
ENDBRANCH   6  11
BRANCH   8  15
ATOM     15  C   UNL A   1      30.177  28.294  23.520  1.00  0.00     0.022 C 
BRANCH  15  16
ATOM     16  C   UNL A   1      28.878  27.500  23.327  1.00  0.00     0.075 C 
BRANCH  16  17
ATOM     17  S   UNL A   1      27.371  28.541  23.256  1.00  0.00    -0.126 SA
BRANCH  17  18
ATOM     18  C   UNL A   1      27.910  30.208  22.915  1.00  0.00     0.009 A 
ATOM     19  C   UNL A   1      28.312  31.148  23.867  1.00  0.00     0.015 A 
ATOM     20  C   UNL A   1      27.875  30.602  21.571  1.00  0.00     0.035 A 
ATOM     21  C   UNL A   1      28.744  32.424  23.482  1.00  0.00     0.003 A 
ATOM     22  C   UNL A   1      28.261  31.888  21.193  1.00  0.00     0.042 A 
ATOM     23  C   UNL A   1      28.723  32.795  22.141  1.00  0.00     0.020 A 
ATOM     24  Cl  UNL A   1      28.128  32.354  19.543  1.00  0.00    -0.084 Cl
ENDBRANCH  17  18
ENDBRANCH  16  17
ENDBRANCH  15  16
ENDBRANCH   8  15
ENDBRANCH   3   6
ENDBRANCH   1   2
BRANCH   1  25
ATOM     25  C   UNL A   1      31.932  30.078  26.955  1.00  0.00     0.023 C 
BRANCH  25  26
ATOM     26  C   UNL A   1      31.790  31.588  26.750  1.00  0.00     0.023 C 
BRANCH  26  27
ATOM     27  C   UNL A   1      32.916  32.449  27.320  1.00  0.00     0.116 C 
BRANCH  27  28
ATOM     28  N   UNL A   1      32.512  33.811  27.625  1.00  0.00    -0.352 N 
ATOM     29  C   UNL A   1      33.054  34.717  28.506  1.00  0.00     0.251 C 
ATOM     30  H   UNL A   1      31.729  34.136  27.123  1.00  0.00     0.163 HD
ATOM     31  O   UNL A   1      32.503  35.805  28.659  1.00  0.00    -0.269 OA
BRANCH  29  32
ATOM     32  C   UNL A   1      34.250  34.375  29.316  1.00  0.00     0.039 A 
ATOM     33  C   UNL A   1      34.049  33.806  30.579  1.00  0.00     0.014 A 
ATOM     34  C   UNL A   1      35.552  34.578  28.850  1.00  0.00     0.014 A 
ATOM     35  C   UNL A   1      35.139  33.338  31.316  1.00  0.00     0.010 A 
ATOM     36  C   UNL A   1      36.635  34.056  29.557  1.00  0.00     0.010 A 
ATOM     37  C   UNL A   1      36.435  33.401  30.779  1.00  0.00    -0.014 A 
BRANCH  37  38
ATOM     38  C   UNL A   1      37.562  32.692  31.435  1.00  0.00     0.031 A 
ATOM     39  C   UNL A   1      38.236  31.524  30.782  1.00  0.00     0.074 A 
ATOM     40  C   UNL A   1      37.920  33.069  32.679  1.00  0.00     0.049 A 
ATOM     41  N   UNL A   1      39.217  30.782  31.229  1.00  0.00    -0.248 NA
ATOM     42  C   UNL A   1      37.727  31.119  29.462  1.00  0.00     0.031 C 
ATOM     43  C   UNL A   1      37.289  34.143  33.449  1.00  0.00     0.029 A 
ATOM     44  N   UNL A   1      38.893  32.588  33.519  1.00  0.00    -0.354 N 
ATOM     45  C   UNL A   1      39.444  29.823  30.252  1.00  0.00     0.074 A 
ATOM     46  C   UNL A   1      38.468  30.048  29.206  1.00  0.00     0.031 C 
ATOM     47  C   UNL A   1      37.903  34.254  34.637  1.00  0.00     0.029 A 
ATOM     48  C   UNL A   1      38.953  33.244  34.724  1.00  0.00     0.049 A 
ATOM     49  H   UNL A   1      39.491  31.842  33.280  1.00  0.00     0.167 HD
ATOM     50  C   UNL A   1      40.392  28.855  30.225  1.00  0.00     0.037 A 
ATOM     51  C   UNL A   1      39.765  33.056  35.780  1.00  0.00     0.037 A 
ATOM     52  C   UNL A   1      41.369  28.642  31.261  1.00  0.00     0.049 A 
ATOM     53  C   UNL A   1      40.820  31.990  35.714  1.00  0.00     0.074 A 
ATOM     54  C   UNL A   1      42.411  27.731  31.293  1.00  0.00     0.029 A 
ATOM     55  N   UNL A   1      41.420  29.348  32.454  1.00  0.00    -0.354 N 
ATOM     56  N   UNL A   1      41.082  31.147  34.746  1.00  0.00    -0.248 NA
ATOM     57  C   UNL A   1      41.699  31.855  36.883  1.00  0.00     0.031 C 
ATOM     58  C   UNL A   1      43.070  27.861  32.520  1.00  0.00     0.029 A 
ATOM     59  C   UNL A   1      42.464  28.880  33.238  1.00  0.00     0.049 A 
ATOM     60  H   UNL A   1      40.807  30.075  32.707  1.00  0.00     0.167 HD
ATOM     61  C   UNL A   1      42.167  30.398  35.176  1.00  0.00     0.074 A 
ATOM     62  C   UNL A   1      42.525  30.895  36.489  1.00  0.00     0.031 C 
ATOM     63  C   UNL A   1      42.808  29.388  34.540  1.00  0.00     0.037 A 
BRANCH  50  64
ATOM     64  C   UNL A   1      40.425  27.955  29.026  1.00  0.00     0.064 A 
ATOM     65  C   UNL A   1      39.679  26.767  28.982  1.00  0.00     0.173 A 
ATOM     66  C   UNL A   1      41.175  28.303  27.892  1.00  0.00     0.173 A 
ATOM     67  F   UNL A   1      38.953  26.387  30.044  1.00  0.00    -0.203 F 
ATOM     68  C   UNL A   1      39.702  25.948  27.857  1.00  0.00     0.198 A 
ATOM     69  C   UNL A   1      41.176  27.492  26.759  1.00  0.00     0.198 A 
ATOM     70  F   UNL A   1      41.899  29.431  27.879  1.00  0.00    -0.203 F 
ATOM     71  F   UNL A   1      39.013  24.798  27.852  1.00  0.00    -0.200 F 
ATOM     72  C   UNL A   1      40.446  26.313  26.744  1.00  0.00     0.200 A 
ATOM     73  F   UNL A   1      41.886  27.852  25.680  1.00  0.00    -0.200 F 
ATOM     74  F   UNL A   1      40.462  25.526  25.660  1.00  0.00    -0.200 F 
ENDBRANCH  50  64
BRANCH  51  75
ATOM     75  C   UNL A   1      39.634  33.929  36.974  1.00  0.00     0.064 A 
ATOM     76  C   UNL A   1      40.282  35.172  37.027  1.00  0.00     0.173 A 
ATOM     77  C   UNL A   1      38.853  33.550  38.074  1.00  0.00     0.173 A 
ATOM     78  F   UNL A   1      41.054  35.567  36.005  1.00  0.00    -0.203 F 
ATOM     79  C   UNL A   1      40.164  35.995  38.144  1.00  0.00     0.198 A 
ATOM     80  C   UNL A   1      38.717  34.386  39.180  1.00  0.00     0.198 A 
ATOM     81  F   UNL A   1      38.208  32.374  38.066  1.00  0.00    -0.203 F 
ATOM     82  F   UNL A   1      40.822  37.162  38.184  1.00  0.00    -0.200 F 
ATOM     83  C   UNL A   1      39.378  35.605  39.217  1.00  0.00     0.200 A 
ATOM     84  F   UNL A   1      37.946  34.011  40.210  1.00  0.00    -0.200 F 
ATOM     85  F   UNL A   1      39.260  36.400  40.288  1.00  0.00    -0.200 F 
ENDBRANCH  51  75
BRANCH  63  86
ATOM     86  C   UNL A   1      43.979  28.772  35.247  1.00  0.00     0.064 A 
ATOM     87  C   UNL A   1      45.279  29.269  35.081  1.00  0.00     0.173 A 
ATOM     88  C   UNL A   1      43.791  27.693  36.123  1.00  0.00     0.173 A 
ATOM     89  F   UNL A   1      45.509  30.289  34.239  1.00  0.00    -0.203 F 
ATOM     90  C   UNL A   1      46.355  28.693  35.752  1.00  0.00     0.198 A 
ATOM     91  C   UNL A   1      44.865  27.135  36.811  1.00  0.00     0.198 A 
ATOM     92  F   UNL A   1      42.566  27.184  36.317  1.00  0.00    -0.203 F 
ATOM     93  F   UNL A   1      47.596  29.156  35.546  1.00  0.00    -0.200 F 
ATOM     94  C   UNL A   1      46.146  27.632  36.620  1.00  0.00     0.200 A 
ATOM     95  F   UNL A   1      44.662  26.115  37.655  1.00  0.00    -0.200 F 
ATOM     96  F   UNL A   1      47.182  27.081  37.267  1.00  0.00    -0.200 F 
ENDBRANCH  63  86
ENDBRANCH  37  38
ENDBRANCH  29  32
ENDBRANCH  27  28
ENDBRANCH  26  27
ENDBRANCH  25  26
ENDBRANCH   1  25
TORSDOF 16
ENDMDL
MODEL 3
REMARK VINA RESULT:     -11.9      2.265      7.895
REMARK SMILES C[NH2+][C@]1(C(=O)NCCCCNC(=O)c2ccc(-c3c4nc(c(-c5c(F)c(F)c(F)c(F)c5F)c5ccc([nH]5)c(-c5c(F)c(F)c(F)c(F)c5F)c5nc(c(-c6c(F)c(F)c(F)c(F)c6F)c6ccc3[nH]6)C=C5)C=C4)cc2)CCC[C@@H]1CCSc1cccc(Cl)c1
REMARK SMILES IDX 7 1 6 2 4 3 5 4 3 6 77 7 80 8 78 9 79 10 2 11 1 12 81 15
REMARK SMILES IDX 82 16 83 17 84 18 85 19 90 20 86 21 88 22 87 23 89 24 8 25
REMARK SMILES IDX 9 26 10 27 11 28 12 29 13 31 14 32 15 33 76 34 16 35 75 36
REMARK SMILES IDX 17 37 18 38 19 39 69 40 20 41 74 42 68 43 70 44 21 45 73 46
REMARK SMILES IDX 67 47 66 48 22 50 54 51 34 52 53 53 35 54 38 55 52 56 71 57
REMARK SMILES IDX 36 58 37 59 51 61 72 62 39 63 23 64 24 65 32 66 25 67 26 68
REMARK SMILES IDX 30 69 33 70 27 71 28 72 31 73 29 74 55 75 56 76 64 77 57 78
REMARK SMILES IDX 58 79 62 80 65 81 59 82 60 83 63 84 61 85 40 86 41 87 49 88
REMARK SMILES IDX 42 89 43 90 47 91 50 92 44 93 45 94 48 95 46 96
REMARK H PARENT 6 5 2 13 2 14 11 30 70 49 38 60
REMARK Flexibility Score: inf
ROOT
ATOM      1  C   UNL A   1      32.161  26.470  26.373  1.00  0.00     0.116 C 
ENDROOT
BRANCH   1   2
ATOM      2  N   UNL A   1      31.407  25.353  26.913  1.00  0.00    -0.351 N 
ATOM      3  C   UNL A   1      31.359  24.028  26.602  1.00  0.00     0.281 C 
ATOM      4  O   UNL A   1      30.508  23.373  27.223  1.00  0.00    -0.268 OA
ATOM      5  H   UNL A   1      30.809  25.604  27.655  1.00  0.00     0.163 HD
BRANCH   3   6
ATOM      6  C   UNL A   1      32.252  23.340  25.494  1.00  0.00     0.178 C 
ATOM      7  C   UNL A   1      32.245  21.811  25.702  1.00  0.00     0.079 C 
ATOM      8  C   UNL A   1      31.672  23.533  24.064  1.00  0.00     0.061 C 
ATOM      9  C   UNL A   1      32.202  21.171  24.314  1.00  0.00     0.008 C 
ATOM     10  C   UNL A   1      32.161  22.303  23.294  1.00  0.00     0.011 C 
BRANCH   6  11
ATOM     11  N   UNL A   1      33.615  23.927  25.633  1.00  0.00    -0.336 N 
ATOM     12  C   UNL A   1      34.597  23.287  26.484  1.00  0.00     0.331 C 
ATOM     13  H   UNL A   1      34.016  23.964  24.696  1.00  0.00     0.346 HD
ATOM     14  H   UNL A   1      33.441  24.815  26.103  1.00  0.00     0.346 HD
ENDBRANCH   6  11
BRANCH   8  15
ATOM     15  C   UNL A   1      31.999  24.871  23.380  1.00  0.00     0.022 C 
BRANCH  15  16
ATOM     16  C   UNL A   1      30.778  25.750  23.079  1.00  0.00     0.075 C 
BRANCH  16  17
ATOM     17  S   UNL A   1      31.196  27.456  22.557  1.00  0.00    -0.126 SA
BRANCH  17  18
ATOM     18  C   UNL A   1      29.704  28.424  22.713  1.00  0.00     0.009 A 
ATOM     19  C   UNL A   1      28.452  27.940  23.096  1.00  0.00     0.015 A 
ATOM     20  C   UNL A   1      29.814  29.779  22.374  1.00  0.00     0.035 A 
ATOM     21  C   UNL A   1      27.351  28.799  23.213  1.00  0.00     0.003 A 
ATOM     22  C   UNL A   1      28.707  30.625  22.446  1.00  0.00     0.042 A 
ATOM     23  C   UNL A   1      27.479  30.147  22.892  1.00  0.00     0.020 A 
ATOM     24  Cl  UNL A   1      28.867  32.262  21.945  1.00  0.00    -0.084 Cl
ENDBRANCH  17  18
ENDBRANCH  16  17
ENDBRANCH  15  16
ENDBRANCH   8  15
ENDBRANCH   3   6
ENDBRANCH   1   2
BRANCH   1  25
ATOM     25  C   UNL A   1      31.676  27.812  26.918  1.00  0.00     0.023 C 
BRANCH  25  26
ATOM     26  C   UNL A   1      31.542  28.934  25.886  1.00  0.00     0.023 C 
BRANCH  26  27
ATOM     27  C   UNL A   1      32.734  29.885  25.776  1.00  0.00     0.116 C 
BRANCH  27  28
ATOM     28  N   UNL A   1      32.503  31.183  26.388  1.00  0.00    -0.352 N 
ATOM     29  C   UNL A   1      33.285  31.898  27.263  1.00  0.00     0.251 C 
ATOM     30  H   UNL A   1      31.656  31.617  26.136  1.00  0.00     0.163 HD
ATOM     31  O   UNL A   1      32.860  32.959  27.716  1.00  0.00    -0.269 OA
BRANCH  29  32
ATOM     32  C   UNL A   1      34.601  31.378  27.713  1.00  0.00     0.039 A 
ATOM     33  C   UNL A   1      35.643  32.294  27.896  1.00  0.00     0.014 A 
ATOM     34  C   UNL A   1      34.819  30.024  27.980  1.00  0.00     0.014 A 
ATOM     35  C   UNL A   1      36.853  31.874  28.453  1.00  0.00     0.010 A 
ATOM     36  C   UNL A   1      36.003  29.614  28.593  1.00  0.00     0.010 A 
ATOM     37  C   UNL A   1      37.017  30.542  28.866  1.00  0.00    -0.014 A 
BRANCH  37  38
ATOM     38  C   UNL A   1      38.193  30.139  29.677  1.00  0.00     0.031 A 
ATOM     39  C   UNL A   1      39.196  29.152  29.161  1.00  0.00     0.074 A 
ATOM     40  C   UNL A   1      38.303  30.619  30.931  1.00  0.00     0.049 A 
ATOM     41  N   UNL A   1      40.265  28.678  29.750  1.00  0.00    -0.248 NA
ATOM     42  C   UNL A   1      38.958  28.607  27.816  1.00  0.00     0.031 C 
ATOM     43  C   UNL A   1      37.349  31.529  31.572  1.00  0.00     0.029 A 
ATOM     44  N   UNL A   1      39.254  30.405  31.896  1.00  0.00    -0.354 N 
ATOM     45  C   UNL A   1      40.825  27.779  28.854  1.00  0.00     0.074 A 
ATOM     46  C   UNL A   1      39.955  27.739  27.698  1.00  0.00     0.031 C 
ATOM     47  C   UNL A   1      37.774  31.811  32.813  1.00  0.00     0.029 A 
ATOM     48  C   UNL A   1      39.015  31.085  33.066  1.00  0.00     0.049 A 
ATOM     49  H   UNL A   1      40.035  29.820  31.763  1.00  0.00     0.167 HD
ATOM     50  C   UNL A   1      41.971  27.066  28.980  1.00  0.00     0.037 A 
ATOM     51  C   UNL A   1      39.716  31.121  34.213  1.00  0.00     0.037 A 
ATOM     52  C   UNL A   1      42.840  27.118  30.127  1.00  0.00     0.049 A 
ATOM     53  C   UNL A   1      40.993  30.338  34.317  1.00  0.00     0.074 A 
ATOM     54  C   UNL A   1      44.056  26.484  30.320  1.00  0.00     0.029 A 
ATOM     55  N   UNL A   1      42.582  27.843  31.282  1.00  0.00    -0.354 N 
ATOM     56  N   UNL A   1      41.559  29.561  33.428  1.00  0.00    -0.248 NA
ATOM     57  C   UNL A   1      41.734  30.445  35.581  1.00  0.00     0.031 C 
ATOM     58  C   UNL A   1      44.516  26.797  31.604  1.00  0.00     0.029 A 
ATOM     59  C   UNL A   1      43.606  27.657  32.198  1.00  0.00     0.049 A 
ATOM     60  H   UNL A   1      41.789  28.407  31.429  1.00  0.00     0.167 HD
ATOM     61  C   UNL A   1      42.732  29.104  34.012  1.00  0.00     0.074 A 
ATOM     62  C   UNL A   1      42.804  29.702  35.329  1.00  0.00     0.031 C 
ATOM     63  C   UNL A   1      43.664  28.263  33.502  1.00  0.00     0.037 A 
BRANCH  50  64
ATOM     64  C   UNL A   1      42.357  26.173  27.840  1.00  0.00     0.064 A 
ATOM     65  C   UNL A   1      41.809  24.890  27.698  1.00  0.00     0.173 A 
ATOM     66  C   UNL A   1      43.251  26.619  26.854  1.00  0.00     0.173 A 
ATOM     67  F   UNL A   1      40.956  24.415  28.618  1.00  0.00    -0.203 F 
ATOM     68  C   UNL A   1      42.160  24.075  26.625  1.00  0.00     0.198 A 
ATOM     69  C   UNL A   1      43.582  25.810  25.769  1.00  0.00     0.198 A 
ATOM     70  F   UNL A   1      43.798  27.840  26.939  1.00  0.00    -0.203 F 
ATOM     71  F   UNL A   1      41.654  22.837  26.530  1.00  0.00    -0.200 F 
ATOM     72  C   UNL A   1      43.042  24.538  25.658  1.00  0.00     0.200 A 
ATOM     73  F   UNL A   1      44.424  26.263  24.830  1.00  0.00    -0.200 F 
ATOM     74  F   UNL A   1      43.373  23.754  24.623  1.00  0.00    -0.200 F 
ENDBRANCH  50  64
BRANCH  51  75
ATOM     75  C   UNL A   1      39.243  31.965  35.339  1.00  0.00     0.064 A 
ATOM     76  C   UNL A   1      38.458  31.416  36.364  1.00  0.00     0.173 A 
ATOM     77  C   UNL A   1      39.574  33.324  35.424  1.00  0.00     0.173 A 
ATOM     78  F   UNL A   1      38.102  30.125  36.315  1.00  0.00    -0.203 F 
ATOM     79  C   UNL A   1      38.010  32.201  37.423  1.00  0.00     0.198 A 
ATOM     80  C   UNL A   1      39.144  34.102  36.497  1.00  0.00     0.198 A 
ATOM     81  F   UNL A   1      40.328  33.891  34.472  1.00  0.00    -0.203 F 
ATOM     82  F   UNL A   1      37.231  31.660  38.371  1.00  0.00    -0.200 F 
ATOM     83  C   UNL A   1      38.357  33.541  37.492  1.00  0.00     0.200 A 
ATOM     84  F   UNL A   1      39.493  35.394  36.567  1.00  0.00    -0.200 F 
ATOM     85  F   UNL A   1      37.930  34.294  38.514  1.00  0.00    -0.200 F 
ENDBRANCH  51  75
BRANCH  63  86
ATOM     86  C   UNL A   1      44.854  27.961  34.364  1.00  0.00     0.064 A 
ATOM     87  C   UNL A   1      44.866  26.865  35.238  1.00  0.00     0.173 A 
ATOM     88  C   UNL A   1      46.004  28.760  34.290  1.00  0.00     0.173 A 
ATOM     89  F   UNL A   1      43.781  26.083  35.355  1.00  0.00    -0.203 F 
ATOM     90  C   UNL A   1      45.981  26.591  36.025  1.00  0.00     0.198 A 
ATOM     91  C   UNL A   1      47.127  28.469  35.060  1.00  0.00     0.198 A 
ATOM     92  F   UNL A   1      46.042  29.818  33.467  1.00  0.00    -0.203 F 
ATOM     93  F   UNL A   1      45.957  25.564  36.885  1.00  0.00    -0.200 F 
ATOM     94  C   UNL A   1      47.112  27.389  35.930  1.00  0.00     0.200 A 
ATOM     95  F   UNL A   1      48.221  29.236  34.963  1.00  0.00    -0.200 F 
ATOM     96  F   UNL A   1      48.186  27.122  36.686  1.00  0.00    -0.200 F 
ENDBRANCH  63  86
ENDBRANCH  37  38
ENDBRANCH  29  32
ENDBRANCH  27  28
ENDBRANCH  26  27
ENDBRANCH  25  26
ENDBRANCH   1  25
TORSDOF 16
ENDMDL
