MODEL 1
REMARK VINA RESULT:     -12.7      0.000      0.000
REMARK SMILES CS(=O)(=O)c1cc(F)ccc1N1CCC[C@@H](C(=O)NCCCCNC(=O)c2ccc(-c3c4nc(c(-c5c(F)c(F)c(F)c(F)c5F)c5ccc([nH]5)c(-c5c(F)c(F)c(F)c(F)c5F)c5nc(c(-c6c(F)c(F)c(F)c(F)c6F)c6ccc3[nH]6)C=C5)C=C4)cc2)C1
REMARK SMILES IDX 21 1 20 2 19 3 17 4 18 5 16 7 12 8 13 9 90 10 14 11 15 12
REMARK SMILES IDX 11 13 5 14 6 15 7 16 10 17 8 18 9 19 2 20 1 21 3 22 4 23
REMARK SMILES IDX 22 24 23 25 24 26 25 27 26 29 27 30 28 31 89 32 29 33 88 34
REMARK SMILES IDX 30 35 31 36 32 37 82 38 33 39 87 40 81 41 83 42 34 43 86 44
REMARK SMILES IDX 80 45 79 46 35 48 67 49 47 50 66 51 48 52 51 53 65 54 84 55
REMARK SMILES IDX 49 56 50 57 64 59 85 60 52 61 36 62 37 63 45 64 38 65 39 66
REMARK SMILES IDX 43 67 46 68 40 69 41 70 44 71 42 72 68 73 69 74 77 75 70 76
REMARK SMILES IDX 71 77 75 78 78 79 72 80 73 81 76 82 74 83 53 84 54 85 62 86
REMARK SMILES IDX 55 87 56 88 60 89 63 90 57 91 58 92 61 93 59 94
REMARK H PARENT 19 6 24 28 83 47 51 58
REMARK Flexibility Score: inf
ROOT
ATOM      1  C   UNL A   1      31.687  30.660  25.985  1.00  0.00     0.023 C 
ENDROOT
BRANCH   1   2
ATOM      2  C   UNL A   1      32.411  29.683  26.911  1.00  0.00     0.116 C 
BRANCH   2   3
ATOM      3  N   UNL A   1      31.590  28.521  27.194  1.00  0.00    -0.356 N 
ATOM      4  C   UNL A   1      31.552  27.308  26.572  1.00  0.00     0.224 C 
ATOM      5  O   UNL A   1      30.659  26.523  26.896  1.00  0.00    -0.275 OA
ATOM      6  H   UNL A   1      30.965  28.623  27.948  1.00  0.00     0.163 HD
BRANCH   4   7
ATOM      7  C   UNL A   1      32.650  26.923  25.598  1.00  0.00     0.098 C 
ATOM      8  N   UNL A   1      33.642  24.949  24.551  1.00  0.00    -0.370 N 
ATOM      9  C   UNL A   1      33.485  25.450  23.184  1.00  0.00     0.116 C 
ATOM     10  C   UNL A   1      32.667  25.394  25.539  1.00  0.00     0.130 C 
ATOM     11  C   UNL A   1      33.455  26.981  23.212  1.00  0.00     0.022 C 
ATOM     12  C   UNL A   1      32.409  27.507  24.200  1.00  0.00     0.017 C 
BRANCH   8  13
ATOM     13  C   UNL A   1      34.499  23.897  24.790  1.00  0.00     0.056 A 
ATOM     14  C   UNL A   1      34.198  22.524  24.726  1.00  0.00     0.093 A 
ATOM     15  C   UNL A   1      35.169  21.562  25.072  1.00  0.00     0.061 A 
ATOM     16  C   UNL A   1      36.438  21.959  25.465  1.00  0.00     0.124 A 
ATOM     17  C   UNL A   1      35.814  24.251  25.173  1.00  0.00     0.030 A 
ATOM     18  F   UNL A   1      37.350  21.036  25.792  1.00  0.00    -0.207 F 
ATOM     19  C   UNL A   1      36.776  23.298  25.508  1.00  0.00     0.041 A 
BRANCH  14  20
ATOM     20  S   UNL A   1      32.679  21.869  24.049  1.00  0.00     0.177 S 
ATOM     21  C   UNL A   1      32.864  20.108  24.131  1.00  0.00     0.164 C 
ATOM     22  O   UNL A   1      32.666  22.212  22.635  1.00  0.00    -0.224 OA
ATOM     23  O   UNL A   1      31.563  22.261  24.885  1.00  0.00    -0.224 OA
ENDBRANCH  14  20
ENDBRANCH   8  13
ENDBRANCH   4   7
ENDBRANCH   2   3
ENDBRANCH   1   2
BRANCH   1  24
ATOM     24  C   UNL A   1      31.405  32.037  26.602  1.00  0.00     0.023 C 
BRANCH  24  25
ATOM     25  C   UNL A   1      32.596  32.718  27.274  1.00  0.00     0.116 C 
BRANCH  25  26
ATOM     26  N   UNL A   1      32.337  34.104  27.626  1.00  0.00    -0.352 N 
ATOM     27  C   UNL A   1      32.963  34.902  28.553  1.00  0.00     0.251 C 
ATOM     28  H   UNL A   1      31.605  34.535  27.128  1.00  0.00     0.163 HD
ATOM     29  O   UNL A   1      32.522  36.022  28.791  1.00  0.00    -0.269 OA
BRANCH  27  30
ATOM     30  C   UNL A   1      34.144  34.406  29.295  1.00  0.00     0.039 A 
ATOM     31  C   UNL A   1      33.942  33.790  30.534  1.00  0.00     0.014 A 
ATOM     32  C   UNL A   1      35.439  34.554  28.789  1.00  0.00     0.014 A 
ATOM     33  C   UNL A   1      35.030  33.259  31.232  1.00  0.00     0.010 A 
ATOM     34  C   UNL A   1      36.516  33.976  29.460  1.00  0.00     0.010 A 
ATOM     35  C   UNL A   1      36.320  33.315  30.683  1.00  0.00    -0.014 A 
BRANCH  35  36
ATOM     36  C   UNL A   1      37.467  32.656  31.356  1.00  0.00     0.031 A 
ATOM     37  C   UNL A   1      38.167  31.493  30.715  1.00  0.00     0.074 A 
ATOM     38  C   UNL A   1      37.830  33.061  32.588  1.00  0.00     0.049 A 
ATOM     39  N   UNL A   1      39.143  30.756  31.183  1.00  0.00    -0.248 NA
ATOM     40  C   UNL A   1      37.692  31.087  29.383  1.00  0.00     0.031 C 
ATOM     41  C   UNL A   1      37.192  34.141  33.341  1.00  0.00     0.029 A 
ATOM     42  N   UNL A   1      38.814  32.604  33.428  1.00  0.00    -0.354 N 
ATOM     43  C   UNL A   1      39.386  29.791  30.216  1.00  0.00     0.074 A 
ATOM     44  C   UNL A   1      38.431  30.012  29.150  1.00  0.00     0.031 C 
ATOM     45  C   UNL A   1      37.811  34.276  34.524  1.00  0.00     0.029 A 
ATOM     46  C   UNL A   1      38.868  33.273  34.626  1.00  0.00     0.049 A 
ATOM     47  H   UNL A   1      39.423  31.866  33.195  1.00  0.00     0.167 HD
ATOM     48  C   UNL A   1      40.330  28.821  30.213  1.00  0.00     0.037 A 
ATOM     49  C   UNL A   1      39.674  33.098  35.691  1.00  0.00     0.037 A 
ATOM     50  C   UNL A   1      41.304  28.628  31.254  1.00  0.00     0.049 A 
ATOM     51  C   UNL A   1      40.729  32.030  35.654  1.00  0.00     0.074 A 
ATOM     52  C   UNL A   1      42.363  27.738  31.289  1.00  0.00     0.029 A 
ATOM     53  N   UNL A   1      41.336  29.335  32.447  1.00  0.00    -0.354 N 
ATOM     54  N   UNL A   1      40.998  31.170  34.702  1.00  0.00    -0.248 NA
ATOM     55  C   UNL A   1      41.594  31.908  36.835  1.00  0.00     0.031 C 
ATOM     56  C   UNL A   1      43.010  27.876  32.521  1.00  0.00     0.029 A 
ATOM     57  C   UNL A   1      42.380  28.881  33.238  1.00  0.00     0.049 A 
ATOM     58  H   UNL A   1      40.710  30.053  32.695  1.00  0.00     0.167 HD
ATOM     59  C   UNL A   1      42.065  30.413  35.161  1.00  0.00     0.074 A 
ATOM     60  C   UNL A   1      42.407  30.923  36.473  1.00  0.00     0.031 C 
ATOM     61  C   UNL A   1      42.702  29.387  34.548  1.00  0.00     0.037 A 
BRANCH  48  62
ATOM     62  C   UNL A   1      40.365  27.889  29.038  1.00  0.00     0.064 A 
ATOM     63  C   UNL A   1      41.142  28.195  27.911  1.00  0.00     0.173 A 
ATOM     64  C   UNL A   1      39.591  26.720  29.004  1.00  0.00     0.173 A 
ATOM     65  F   UNL A   1      41.896  29.305  27.890  1.00  0.00    -0.203 F 
ATOM     66  C   UNL A   1      41.141  27.366  26.793  1.00  0.00     0.198 A 
ATOM     67  C   UNL A   1      39.611  25.880  27.894  1.00  0.00     0.198 A 
ATOM     68  F   UNL A   1      38.838  26.378  30.061  1.00  0.00    -0.203 F 
ATOM     69  F   UNL A   1      41.876  27.688  25.720  1.00  0.00    -0.200 F 
ATOM     70  C   UNL A   1      40.380  26.207  26.788  1.00  0.00     0.200 A 
ATOM     71  F   UNL A   1      38.893  24.748  27.900  1.00  0.00    -0.200 F 
ATOM     72  F   UNL A   1      40.392  25.400  25.717  1.00  0.00    -0.200 F 
ENDBRANCH  48  62
BRANCH  49  73
ATOM     73  C   UNL A   1      39.520  33.990  36.865  1.00  0.00     0.064 A 
ATOM     74  C   UNL A   1      40.186  35.222  36.936  1.00  0.00     0.173 A 
ATOM     75  C   UNL A   1      38.750  33.595  37.968  1.00  0.00     0.173 A 
ATOM     76  F   UNL A   1      40.939  35.637  35.908  1.00  0.00    -0.203 F 
ATOM     77  C   UNL A   1      40.106  36.015  38.078  1.00  0.00     0.198 A 
ATOM     78  C   UNL A   1      38.656  34.398  39.101  1.00  0.00     0.198 A 
ATOM     79  F   UNL A   1      38.083  32.432  37.935  1.00  0.00    -0.203 F 
ATOM     80  F   UNL A   1      40.782  37.171  38.137  1.00  0.00    -0.200 F 
ATOM     81  C   UNL A   1      39.342  35.603  39.160  1.00  0.00     0.200 A 
ATOM     82  F   UNL A   1      37.905  34.004  40.138  1.00  0.00    -0.200 F 
ATOM     83  F   UNL A   1      39.267  36.365  40.260  1.00  0.00    -0.200 F 
ENDBRANCH  49  73
BRANCH  61  84
ATOM     84  C   UNL A   1      43.836  28.736  35.282  1.00  0.00     0.064 A 
ATOM     85  C   UNL A   1      45.156  29.168  35.087  1.00  0.00     0.173 A 
ATOM     86  C   UNL A   1      43.621  27.633  36.122  1.00  0.00     0.173 A 
ATOM     87  F   UNL A   1      45.412  30.215  34.288  1.00  0.00    -0.203 F 
ATOM     88  C   UNL A   1      46.222  28.511  35.694  1.00  0.00     0.198 A 
ATOM     89  C   UNL A   1      44.687  26.993  36.746  1.00  0.00     0.198 A 
ATOM     90  F   UNL A   1      42.374  27.192  36.350  1.00  0.00    -0.203 F 
ATOM     91  F   UNL A   1      47.477  28.923  35.470  1.00  0.00    -0.200 F 
ATOM     92  C   UNL A   1      45.986  27.425  36.525  1.00  0.00     0.200 A 
ATOM     93  F   UNL A   1      44.458  25.956  37.564  1.00  0.00    -0.200 F 
ATOM     94  F   UNL A   1      47.013  26.797  37.114  1.00  0.00    -0.200 F 
ENDBRANCH  61  84
ENDBRANCH  35  36
ENDBRANCH  27  30
ENDBRANCH  25  26
ENDBRANCH  24  25
ENDBRANCH   1  24
TORSDOF 13
ENDMDL
MODEL 2
REMARK VINA RESULT:     -12.7      0.381      1.628
REMARK SMILES CS(=O)(=O)c1cc(F)ccc1N1CCC[C@@H](C(=O)NCCCCNC(=O)c2ccc(-c3c4nc(c(-c5c(F)c(F)c(F)c(F)c5F)c5ccc([nH]5)c(-c5c(F)c(F)c(F)c(F)c5F)c5nc(c(-c6c(F)c(F)c(F)c(F)c6F)c6ccc3[nH]6)C=C5)C=C4)cc2)C1
REMARK SMILES IDX 21 1 20 2 19 3 17 4 18 5 16 7 12 8 13 9 90 10 14 11 15 12
REMARK SMILES IDX 11 13 5 14 6 15 7 16 10 17 8 18 9 19 2 20 1 21 3 22 4 23
REMARK SMILES IDX 22 24 23 25 24 26 25 27 26 29 27 30 28 31 89 32 29 33 88 34
REMARK SMILES IDX 30 35 31 36 32 37 82 38 33 39 87 40 81 41 83 42 34 43 86 44
REMARK SMILES IDX 80 45 79 46 35 48 67 49 47 50 66 51 48 52 51 53 65 54 84 55
REMARK SMILES IDX 49 56 50 57 64 59 85 60 52 61 36 62 37 63 45 64 38 65 39 66
REMARK SMILES IDX 43 67 46 68 40 69 41 70 44 71 42 72 68 73 69 74 77 75 70 76
REMARK SMILES IDX 71 77 75 78 78 79 72 80 73 81 76 82 74 83 53 84 54 85 62 86
REMARK SMILES IDX 55 87 56 88 60 89 63 90 57 91 58 92 61 93 59 94
REMARK H PARENT 19 6 24 28 83 47 51 58
REMARK Flexibility Score: inf
ROOT
ATOM      1  C   UNL A   1      31.665  30.455  25.900  1.00  0.00     0.023 C 
ENDROOT
BRANCH   1   2
ATOM      2  C   UNL A   1      32.408  29.490  26.824  1.00  0.00     0.116 C 
BRANCH   2   3
ATOM      3  N   UNL A   1      31.594  28.330  27.136  1.00  0.00    -0.356 N 
ATOM      4  C   UNL A   1      31.537  27.114  26.522  1.00  0.00     0.224 C 
ATOM      5  O   UNL A   1      30.653  26.333  26.876  1.00  0.00    -0.275 OA
ATOM      6  H   UNL A   1      30.992  28.437  27.908  1.00  0.00     0.163 HD
BRANCH   4   7
ATOM      7  C   UNL A   1      32.605  26.724  25.518  1.00  0.00     0.098 C 
ATOM      8  N   UNL A   1      33.601  24.740  24.494  1.00  0.00    -0.370 N 
ATOM      9  C   UNL A   1      33.382  25.196  23.119  1.00  0.00     0.116 C 
ATOM     10  C   UNL A   1      32.655  25.194  25.504  1.00  0.00     0.130 C 
ATOM     11  C   UNL A   1      33.319  26.726  23.103  1.00  0.00     0.022 C 
ATOM     12  C   UNL A   1      32.299  27.259  24.114  1.00  0.00     0.017 C 
BRANCH   8  13
ATOM     13  C   UNL A   1      34.490  23.714  24.730  1.00  0.00     0.056 A 
ATOM     14  C   UNL A   1      34.209  22.336  24.758  1.00  0.00     0.093 A 
ATOM     15  C   UNL A   1      35.218  21.407  25.089  1.00  0.00     0.061 A 
ATOM     16  C   UNL A   1      36.502  21.842  25.377  1.00  0.00     0.124 A 
ATOM     17  C   UNL A   1      35.820  24.106  25.007  1.00  0.00     0.030 A 
ATOM     18  F   UNL A   1      37.449  20.950  25.691  1.00  0.00    -0.207 F 
ATOM     19  C   UNL A   1      36.819  23.186  25.328  1.00  0.00     0.041 A 
BRANCH  14  20
ATOM     20  S   UNL A   1      32.662  21.625  24.216  1.00  0.00     0.177 S 
ATOM     21  C   UNL A   1      32.904  19.871  24.318  1.00  0.00     0.164 C 
ATOM     22  O   UNL A   1      32.527  21.936  22.802  1.00  0.00    -0.224 OA
ATOM     23  O   UNL A   1      31.604  22.004  25.131  1.00  0.00    -0.224 OA
ENDBRANCH  14  20
ENDBRANCH   8  13
ENDBRANCH   4   7
ENDBRANCH   2   3
ENDBRANCH   1   2
BRANCH   1  24
ATOM     24  C   UNL A   1      31.403  31.843  26.501  1.00  0.00     0.023 C 
BRANCH  24  25
ATOM     25  C   UNL A   1      32.594  32.498  27.198  1.00  0.00     0.116 C 
BRANCH  25  26
ATOM     26  N   UNL A   1      32.349  33.882  27.566  1.00  0.00    -0.352 N 
ATOM     27  C   UNL A   1      32.986  34.665  28.499  1.00  0.00     0.251 C 
ATOM     28  H   UNL A   1      31.619  34.325  27.077  1.00  0.00     0.163 HD
ATOM     29  O   UNL A   1      32.557  35.786  28.751  1.00  0.00    -0.269 OA
BRANCH  27  30
ATOM     30  C   UNL A   1      34.167  34.151  29.229  1.00  0.00     0.039 A 
ATOM     31  C   UNL A   1      33.957  33.377  30.375  1.00  0.00     0.014 A 
ATOM     32  C   UNL A   1      35.468  34.432  28.804  1.00  0.00     0.014 A 
ATOM     33  C   UNL A   1      35.047  32.829  31.054  1.00  0.00     0.010 A 
ATOM     34  C   UNL A   1      36.553  33.839  29.450  1.00  0.00     0.010 A 
ATOM     35  C   UNL A   1      36.352  33.025  30.575  1.00  0.00    -0.014 A 
BRANCH  35  36
ATOM     36  C   UNL A   1      37.510  32.355  31.216  1.00  0.00     0.031 A 
ATOM     37  C   UNL A   1      38.203  31.207  30.540  1.00  0.00     0.074 A 
ATOM     38  C   UNL A   1      37.892  32.736  32.450  1.00  0.00     0.049 A 
ATOM     39  N   UNL A   1      39.188  30.464  30.978  1.00  0.00    -0.248 NA
ATOM     40  C   UNL A   1      37.708  30.828  29.208  1.00  0.00     0.031 C 
ATOM     41  C   UNL A   1      37.264  33.798  33.235  1.00  0.00     0.029 A 
ATOM     42  N   UNL A   1      38.891  32.265  33.265  1.00  0.00    -0.354 N 
ATOM     43  C   UNL A   1      39.418  29.519  29.987  1.00  0.00     0.074 A 
ATOM     44  C   UNL A   1      38.445  29.759  28.941  1.00  0.00     0.031 C 
ATOM     45  C   UNL A   1      37.901  33.911  34.411  1.00  0.00     0.029 A 
ATOM     46  C   UNL A   1      38.962  32.909  34.475  1.00  0.00     0.049 A 
ATOM     47  H   UNL A   1      39.498  31.533  33.007  1.00  0.00     0.167 HD
ATOM     48  C   UNL A   1      40.364  28.552  29.949  1.00  0.00     0.037 A 
ATOM     49  C   UNL A   1      39.785  32.714  35.523  1.00  0.00     0.037 A 
ATOM     50  C   UNL A   1      41.355  28.340  30.971  1.00  0.00     0.049 A 
ATOM     51  C   UNL A   1      40.842  31.650  35.448  1.00  0.00     0.074 A 
ATOM     52  C   UNL A   1      42.417  27.453  30.971  1.00  0.00     0.029 A 
ATOM     53  N   UNL A   1      41.405  29.023  32.177  1.00  0.00    -0.354 N 
ATOM     54  N   UNL A   1      41.098  30.811  34.474  1.00  0.00    -0.248 NA
ATOM     55  C   UNL A   1      41.726  31.506  36.613  1.00  0.00     0.031 C 
ATOM     56  C   UNL A   1      43.083  27.567  32.195  1.00  0.00     0.029 A 
ATOM     57  C   UNL A   1      42.462  28.556  32.942  1.00  0.00     0.049 A 
ATOM     58  H   UNL A   1      40.780  29.734  32.450  1.00  0.00     0.167 HD
ATOM     59  C   UNL A   1      42.174  30.047  34.901  1.00  0.00     0.074 A 
ATOM     60  C   UNL A   1      42.536  30.531  36.217  1.00  0.00     0.031 C 
ATOM     61  C   UNL A   1      42.804  29.035  34.257  1.00  0.00     0.037 A 
BRANCH  48  62
ATOM     62  C   UNL A   1      40.383  27.644  28.755  1.00  0.00     0.064 A 
ATOM     63  C   UNL A   1      39.656  26.443  28.765  1.00  0.00     0.173 A 
ATOM     64  C   UNL A   1      41.158  27.933  27.624  1.00  0.00     0.173 A 
ATOM     65  F   UNL A   1      38.903  26.117  29.826  1.00  0.00    -0.203 F 
ATOM     66  C   UNL A   1      39.708  25.566  27.685  1.00  0.00     0.198 A 
ATOM     67  C   UNL A   1      41.188  27.066  26.535  1.00  0.00     0.198 A 
ATOM     68  F   UNL A   1      41.863  29.074  27.562  1.00  0.00    -0.203 F 
ATOM     69  F   UNL A   1      39.021  24.416  27.724  1.00  0.00    -0.200 F 
ATOM     70  C   UNL A   1      40.469  25.881  26.570  1.00  0.00     0.200 A 
ATOM     71  F   UNL A   1      41.906  27.383  25.448  1.00  0.00    -0.200 F 
ATOM     72  F   UNL A   1      40.506  25.043  25.524  1.00  0.00    -0.200 F 
ENDBRANCH  48  62
BRANCH  49  73
ATOM     73  C   UNL A   1      39.648  33.581  36.718  1.00  0.00     0.064 A 
ATOM     74  C   UNL A   1      38.805  33.229  37.781  1.00  0.00     0.173 A 
ATOM     75  C   UNL A   1      40.314  34.813  36.788  1.00  0.00     0.173 A 
ATOM     76  F   UNL A   1      38.143  32.063  37.754  1.00  0.00    -0.203 F 
ATOM     77  C   UNL A   1      38.615  34.088  38.861  1.00  0.00     0.198 A 
ATOM     78  C   UNL A   1      40.137  35.662  37.878  1.00  0.00     0.198 A 
ATOM     79  F   UNL A   1      41.143  35.181  35.801  1.00  0.00    -0.203 F 
ATOM     80  F   UNL A   1      37.775  33.745  39.848  1.00  0.00    -0.200 F 
ATOM     81  C   UNL A   1      39.280  35.303  38.909  1.00  0.00     0.200 A 
ATOM     82  F   UNL A   1      40.793  36.829  37.927  1.00  0.00    -0.200 F 
ATOM     83  F   UNL A   1      39.095  36.131  39.946  1.00  0.00    -0.200 F 
ENDBRANCH  49  73
BRANCH  61  84
ATOM     84  C   UNL A   1      43.951  28.373  34.959  1.00  0.00     0.064 A 
ATOM     85  C   UNL A   1      45.260  28.845  34.792  1.00  0.00     0.173 A 
ATOM     86  C   UNL A   1      43.759  27.222  35.739  1.00  0.00     0.173 A 
ATOM     87  F   UNL A   1      45.494  29.939  34.050  1.00  0.00    -0.203 F 
ATOM     88  C   UNL A   1      46.340  28.182  35.367  1.00  0.00     0.198 A 
ATOM     89  C   UNL A   1      44.839  26.574  36.332  1.00  0.00     0.198 A 
ATOM     90  F   UNL A   1      42.523  26.741  35.939  1.00  0.00    -0.203 F 
ATOM     91  F   UNL A   1      47.586  28.634  35.170  1.00  0.00    -0.200 F 
ATOM     92  C   UNL A   1      46.128  27.048  36.138  1.00  0.00     0.200 A 
ATOM     93  F   UNL A   1      44.632  25.491  37.093  1.00  0.00    -0.200 F 
ATOM     94  F   UNL A   1      47.167  26.413  36.697  1.00  0.00    -0.200 F 
ENDBRANCH  61  84
ENDBRANCH  35  36
ENDBRANCH  27  30
ENDBRANCH  25  26
ENDBRANCH  24  25
ENDBRANCH   1  24
TORSDOF 13
ENDMDL
MODEL 3
REMARK VINA RESULT:     -12.6      5.625     11.244
REMARK SMILES CS(=O)(=O)c1cc(F)ccc1N1CCC[C@@H](C(=O)NCCCCNC(=O)c2ccc(-c3c4nc(c(-c5c(F)c(F)c(F)c(F)c5F)c5ccc([nH]5)c(-c5c(F)c(F)c(F)c(F)c5F)c5nc(c(-c6c(F)c(F)c(F)c(F)c6F)c6ccc3[nH]6)C=C5)C=C4)cc2)C1
REMARK SMILES IDX 21 1 20 2 19 3 17 4 18 5 16 7 12 8 13 9 90 10 14 11 15 12
REMARK SMILES IDX 11 13 5 14 6 15 7 16 10 17 8 18 9 19 2 20 1 21 3 22 4 23
REMARK SMILES IDX 22 24 23 25 24 26 25 27 26 29 27 30 28 31 89 32 29 33 88 34
REMARK SMILES IDX 30 35 31 36 32 37 82 38 33 39 87 40 81 41 83 42 34 43 86 44
REMARK SMILES IDX 80 45 79 46 35 48 67 49 47 50 66 51 48 52 51 53 65 54 84 55
REMARK SMILES IDX 49 56 50 57 64 59 85 60 52 61 36 62 37 63 45 64 38 65 39 66
REMARK SMILES IDX 43 67 46 68 40 69 41 70 44 71 42 72 68 73 69 74 77 75 70 76
REMARK SMILES IDX 71 77 75 78 78 79 72 80 73 81 76 82 74 83 53 84 54 85 62 86
REMARK SMILES IDX 55 87 56 88 60 89 63 90 57 91 58 92 61 93 59 94
REMARK H PARENT 19 6 24 28 83 47 51 58
REMARK Flexibility Score: inf
ROOT
ATOM      1  C   UNL A   1      36.745  20.679  25.007  1.00  0.00     0.023 C 
ENDROOT
BRANCH   1   2
ATOM      2  C   UNL A   1      36.944  22.171  24.740  1.00  0.00     0.116 C 
BRANCH   2   3
ATOM      3  N   UNL A   1      36.213  22.595  23.560  1.00  0.00    -0.356 N 
ATOM      4  C   UNL A   1      34.995  23.200  23.460  1.00  0.00     0.224 C 
ATOM      5  O   UNL A   1      34.508  23.329  22.336  1.00  0.00    -0.275 OA
ATOM      6  H   UNL A   1      36.663  22.418  22.702  1.00  0.00     0.163 HD
BRANCH   4   7
ATOM      7  C   UNL A   1      34.337  23.783  24.697  1.00  0.00     0.098 C 
ATOM      8  N   UNL A   1      32.661  25.442  25.342  1.00  0.00    -0.370 N 
ATOM      9  C   UNL A   1      31.872  24.505  26.146  1.00  0.00     0.116 C 
ATOM     10  C   UNL A   1      33.400  24.892  24.213  1.00  0.00     0.130 C 
ATOM     11  C   UNL A   1      32.783  23.377  26.637  1.00  0.00     0.022 C 
ATOM     12  C   UNL A   1      33.549  22.726  25.482  1.00  0.00     0.017 C 
BRANCH   8  13
ATOM     13  C   UNL A   1      32.466  26.797  25.500  1.00  0.00     0.056 A 
ATOM     14  C   UNL A   1      31.604  27.623  24.756  1.00  0.00     0.093 A 
ATOM     15  C   UNL A   1      31.568  29.014  24.989  1.00  0.00     0.061 A 
ATOM     16  C   UNL A   1      32.372  29.580  25.966  1.00  0.00     0.124 A 
ATOM     17  C   UNL A   1      33.248  27.418  26.500  1.00  0.00     0.030 A 
ATOM     18  F   UNL A   1      32.330  30.901  26.175  1.00  0.00    -0.207 F 
ATOM     19  C   UNL A   1      33.207  28.792  26.735  1.00  0.00     0.041 A 
BRANCH  14  20
ATOM     20  S   UNL A   1      30.375  27.007  23.614  1.00  0.00     0.177 S 
ATOM     21  C   UNL A   1      29.446  28.436  23.126  1.00  0.00     0.164 C 
ATOM     22  O   UNL A   1      29.465  26.173  24.384  1.00  0.00    -0.224 OA
ATOM     23  O   UNL A   1      31.029  26.453  22.446  1.00  0.00    -0.224 OA
ENDBRANCH  14  20
ENDBRANCH   8  13
ENDBRANCH   4   7
ENDBRANCH   2   3
ENDBRANCH   1   2
BRANCH   1  24
ATOM     24  C   UNL A   1      38.016  19.829  24.865  1.00  0.00     0.023 C 
BRANCH  24  25
ATOM     25  C   UNL A   1      39.161  20.187  25.811  1.00  0.00     0.116 C 
BRANCH  25  26
ATOM     26  N   UNL A   1      40.173  19.148  25.900  1.00  0.00    -0.352 N 
ATOM     27  C   UNL A   1      41.524  19.260  26.125  1.00  0.00     0.251 C 
ATOM     28  H   UNL A   1      39.842  18.228  25.782  1.00  0.00     0.163 HD
ATOM     29  O   UNL A   1      42.239  18.266  26.051  1.00  0.00    -0.269 OA
BRANCH  27  30
ATOM     30  C   UNL A   1      42.128  20.578  26.421  1.00  0.00     0.039 A 
ATOM     31  C   UNL A   1      42.568  21.365  25.352  1.00  0.00     0.014 A 
ATOM     32  C   UNL A   1      42.276  21.037  27.733  1.00  0.00     0.014 A 
ATOM     33  C   UNL A   1      43.089  22.638  25.592  1.00  0.00     0.010 A 
ATOM     34  C   UNL A   1      42.745  22.328  27.969  1.00  0.00     0.010 A 
ATOM     35  C   UNL A   1      43.148  23.144  26.900  1.00  0.00    -0.014 A 
BRANCH  35  36
ATOM     36  C   UNL A   1      43.591  24.537  27.162  1.00  0.00     0.031 A 
ATOM     37  C   UNL A   1      42.622  25.568  27.664  1.00  0.00     0.074 A 
ATOM     38  C   UNL A   1      44.857  24.890  26.873  1.00  0.00     0.049 A 
ATOM     39  N   UNL A   1      42.816  26.843  27.888  1.00  0.00    -0.248 NA
ATOM     40  C   UNL A   1      41.248  25.113  27.925  1.00  0.00     0.031 C 
ATOM     41  C   UNL A   1      45.878  23.996  26.326  1.00  0.00     0.029 A 
ATOM     42  N   UNL A   1      45.498  26.099  26.986  1.00  0.00    -0.354 N 
ATOM     43  C   UNL A   1      41.589  27.346  28.296  1.00  0.00     0.074 A 
ATOM     44  C   UNL A   1      40.647  26.247  28.254  1.00  0.00     0.031 C 
ATOM     45  C   UNL A   1      47.021  24.680  26.167  1.00  0.00     0.029 A 
ATOM     46  C   UNL A   1      46.807  26.067  26.571  1.00  0.00     0.049 A 
ATOM     47  H   UNL A   1      45.062  26.911  27.330  1.00  0.00     0.167 HD
ATOM     48  C   UNL A   1      41.283  28.606  28.685  1.00  0.00     0.037 A 
ATOM     49  C   UNL A   1      47.731  27.045  26.515  1.00  0.00     0.037 A 
ATOM     50  C   UNL A   1      42.229  29.687  28.764  1.00  0.00     0.049 A 
ATOM     51  C   UNL A   1      47.374  28.429  26.974  1.00  0.00     0.074 A 
ATOM     52  C   UNL A   1      42.033  30.970  29.245  1.00  0.00     0.029 A 
ATOM     53  N   UNL A   1      43.550  29.614  28.348  1.00  0.00    -0.354 N 
ATOM     54  N   UNL A   1      46.229  28.876  27.429  1.00  0.00    -0.248 NA
ATOM     55  C   UNL A   1      48.435  29.444  26.915  1.00  0.00     0.031 C 
ATOM     56  C   UNL A   1      43.223  31.686  29.080  1.00  0.00     0.029 A 
ATOM     57  C   UNL A   1      44.174  30.837  28.535  1.00  0.00     0.049 A 
ATOM     58  H   UNL A   1      43.981  28.811  27.976  1.00  0.00     0.167 HD
ATOM     59  C   UNL A   1      46.431  30.217  27.719  1.00  0.00     0.074 A 
ATOM     60  C   UNL A   1      47.814  30.511  27.404  1.00  0.00     0.031 C 
ATOM     61  C   UNL A   1      45.547  31.122  28.204  1.00  0.00     0.037 A 
BRANCH  48  62
ATOM     62  C   UNL A   1      39.860  28.890  29.065  1.00  0.00     0.064 A 
ATOM     63  C   UNL A   1      39.424  28.691  30.384  1.00  0.00     0.173 A 
ATOM     64  C   UNL A   1      38.915  29.308  28.117  1.00  0.00     0.173 A 
ATOM     65  F   UNL A   1      40.287  28.286  31.328  1.00  0.00    -0.203 F 
ATOM     66  C   UNL A   1      38.094  28.899  30.738  1.00  0.00     0.198 A 
ATOM     67  C   UNL A   1      37.591  29.538  28.480  1.00  0.00     0.198 A 
ATOM     68  F   UNL A   1      39.284  29.521  26.845  1.00  0.00    -0.203 F 
ATOM     69  F   UNL A   1      37.695  28.684  32.000  1.00  0.00    -0.200 F 
ATOM     70  C   UNL A   1      37.180  29.328  29.787  1.00  0.00     0.200 A 
ATOM     71  F   UNL A   1      36.714  29.976  27.565  1.00  0.00    -0.200 F 
ATOM     72  F   UNL A   1      35.903  29.542  30.132  1.00  0.00    -0.200 F 
ENDBRANCH  48  62
BRANCH  49  73
ATOM     73  C   UNL A   1      49.095  26.720  26.032  1.00  0.00     0.064 A 
ATOM     74  C   UNL A   1      50.080  26.234  26.903  1.00  0.00     0.173 A 
ATOM     75  C   UNL A   1      49.455  26.952  24.697  1.00  0.00     0.173 A 
ATOM     76  F   UNL A   1      49.783  26.004  28.190  1.00  0.00    -0.203 F 
ATOM     77  C   UNL A   1      51.383  26.014  26.462  1.00  0.00     0.198 A 
ATOM     78  C   UNL A   1      50.753  26.712  24.253  1.00  0.00     0.198 A 
ATOM     79  F   UNL A   1      48.539  27.400  23.826  1.00  0.00    -0.203 F 
ATOM     80  F   UNL A   1      52.316  25.584  27.322  1.00  0.00    -0.200 F 
ATOM     81  C   UNL A   1      51.718  26.253  25.138  1.00  0.00     0.200 A 
ATOM     82  F   UNL A   1      51.070  26.930  22.970  1.00  0.00    -0.200 F 
ATOM     83  F   UNL A   1      52.972  26.043  24.713  1.00  0.00    -0.200 F 
ENDBRANCH  49  73
BRANCH  61  84
ATOM     84  C   UNL A   1      46.037  32.522  28.424  1.00  0.00     0.064 A 
ATOM     85  C   UNL A   1      46.555  32.910  29.668  1.00  0.00     0.173 A 
ATOM     86  C   UNL A   1      45.922  33.499  27.424  1.00  0.00     0.173 A 
ATOM     87  F   UNL A   1      46.679  32.012  30.658  1.00  0.00    -0.203 F 
ATOM     88  C   UNL A   1      46.928  34.229  29.909  1.00  0.00     0.198 A 
ATOM     89  C   UNL A   1      46.316  34.812  27.661  1.00  0.00     0.198 A 
ATOM     90  F   UNL A   1      45.444  33.171  26.214  1.00  0.00    -0.203 F 
ATOM     91  F   UNL A   1      47.393  34.584  31.115  1.00  0.00    -0.200 F 
ATOM     92  C   UNL A   1      46.809  35.179  28.904  1.00  0.00     0.200 A 
ATOM     93  F   UNL A   1      46.221  35.725  26.684  1.00  0.00    -0.200 F 
ATOM     94  F   UNL A   1      47.173  36.447  29.135  1.00  0.00    -0.200 F 
ENDBRANCH  61  84
ENDBRANCH  35  36
ENDBRANCH  27  30
ENDBRANCH  25  26
ENDBRANCH  24  25
ENDBRANCH   1  24
TORSDOF 13
ENDMDL
