MODEL 1
REMARK VINA RESULT:     -14.8      0.000      0.000
REMARK SMILES O=C(NCCCCNC(=O)[C@H]1CCCN(c2cc(-c3ccccn3)nc(-c3ccccc3F)n2)C1)c1ccc(-c2c3nc(c(-c4c(F)c(F)c(F)c(F)c4F)c4ccc([nH]4)c(-c4c(F)c(F)c(F)c(F)c4F)c4nc(c(-c5c(F)c(F)c(F)c(F)c5F)c5ccc2[nH]5)C=C4)C=C3)cc1
REMARK SMILES IDX 5 1 4 2 3 3 1 4 2 5 36 7 37 8 98 9 38 10 97 11 39 12 40 13
REMARK SMILES IDX 41 14 91 15 42 16 96 17 90 18 92 19 43 20 95 21 89 22 88 23
REMARK SMILES IDX 44 25 76 26 56 27 75 28 57 29 60 30 74 31 93 32 58 33 59 34
REMARK SMILES IDX 73 36 94 37 61 38 45 39 46 40 54 41 47 42 48 43 52 44 55 45
REMARK SMILES IDX 49 46 50 47 53 48 51 49 77 50 78 51 86 52 79 53 80 54 84 55
REMARK SMILES IDX 87 56 81 57 82 58 85 59 83 60 62 61 63 62 71 63 64 64 65 65
REMARK SMILES IDX 69 66 72 67 66 68 67 69 70 70 68 71 6 72 7 73 8 74 9 75
REMARK SMILES IDX 10 77 11 78 12 79 35 80 13 81 15 82 14 83 16 84 17 85 34 86
REMARK SMILES IDX 18 87 26 88 25 89 19 90 20 91 24 92 21 93 23 94 22 95 27 96
REMARK SMILES IDX 28 97 32 98 29 99 31 100 33 101 30 102
REMARK H PARENT 3 6 92 24 60 35 8 76
REMARK Flexibility Score: inf
ROOT
ATOM      1  C   UNL A   1      32.272  28.583  24.635  1.00  0.00     0.023 C 
ENDROOT
BRANCH   1   2
ATOM      2  C   UNL A   1      33.134  29.306  25.659  1.00  0.00     0.116 C 
BRANCH   2   3
ATOM      3  N   UNL A   1      32.586  30.588  26.071  1.00  0.00    -0.352 N 
ATOM      4  O   UNL A   1      32.430  32.469  27.315  1.00  0.00    -0.269 OA
ATOM      5  C   UNL A   1      33.075  31.472  27.004  1.00  0.00     0.251 C 
ATOM      6  H   UNL A   1      31.755  30.860  25.620  1.00  0.00     0.163 HD
BRANCH   5   7
ATOM      7  C   UNL A   1      34.372  31.198  27.660  1.00  0.00     0.039 A 
ATOM      8  C   UNL A   1      34.692  29.909  28.089  1.00  0.00     0.014 A 
ATOM      9  C   UNL A   1      35.270  32.251  27.866  1.00  0.00     0.014 A 
ATOM     10  C   UNL A   1      35.833  29.702  28.853  1.00  0.00     0.010 A 
ATOM     11  C   UNL A   1      36.464  32.020  28.559  1.00  0.00     0.010 A 
ATOM     12  C   UNL A   1      36.739  30.751  29.086  1.00  0.00    -0.014 A 
BRANCH  12  13
ATOM     13  C   UNL A   1      37.990  30.459  29.832  1.00  0.00     0.031 A 
ATOM     14  C   UNL A   1      38.173  30.894  31.259  1.00  0.00     0.074 A 
ATOM     15  C   UNL A   1      38.939  29.722  29.221  1.00  0.00     0.049 A 
ATOM     16  N   UNL A   1      39.170  30.644  32.072  1.00  0.00    -0.248 NA
ATOM     17  C   UNL A   1      37.109  31.716  31.856  1.00  0.00     0.031 C 
ATOM     18  C   UNL A   1      38.871  29.254  27.835  1.00  0.00     0.029 A 
ATOM     19  N   UNL A   1      40.116  29.201  29.691  1.00  0.00    -0.354 N 
ATOM     20  C   UNL A   1      38.862  31.285  33.264  1.00  0.00     0.074 A 
ATOM     21  C   UNL A   1      37.595  31.955  33.068  1.00  0.00     0.031 C 
ATOM     22  C   UNL A   1      39.916  28.452  27.591  1.00  0.00     0.029 A 
ATOM     23  C   UNL A   1      40.759  28.399  28.779  1.00  0.00     0.049 A 
ATOM     24  H   UNL A   1      40.467  29.383  30.591  1.00  0.00     0.167 HD
ATOM     25  C   UNL A   1      39.572  31.300  34.417  1.00  0.00     0.037 A 
ATOM     26  C   UNL A   1      41.901  27.694  28.887  1.00  0.00     0.037 A 
ATOM     27  C   UNL A   1      40.820  30.609  34.616  1.00  0.00     0.049 A 
ATOM     28  C   UNL A   1      42.665  27.737  30.178  1.00  0.00     0.074 A 
ATOM     29  C   UNL A   1      41.602  30.554  35.758  1.00  0.00     0.029 A 
ATOM     30  N   UNL A   1      41.467  29.849  33.653  1.00  0.00    -0.354 N 
ATOM     31  N   UNL A   1      42.356  28.342  31.299  1.00  0.00    -0.248 NA
ATOM     32  C   UNL A   1      43.940  27.010  30.216  1.00  0.00     0.031 C 
ATOM     33  C   UNL A   1      42.737  29.789  35.476  1.00  0.00     0.029 A 
ATOM     34  C   UNL A   1      42.644  29.334  34.171  1.00  0.00     0.049 A 
ATOM     35  H   UNL A   1      41.138  29.699  32.738  1.00  0.00     0.167 HD
ATOM     36  C   UNL A   1      43.395  28.066  32.176  1.00  0.00     0.074 A 
ATOM     37  C   UNL A   1      44.328  27.216  31.467  1.00  0.00     0.031 C 
ATOM     38  C   UNL A   1      43.564  28.492  33.451  1.00  0.00     0.037 A 
BRANCH  25  39
ATOM     39  C   UNL A   1      39.026  32.084  35.575  1.00  0.00     0.064 A 
ATOM     40  C   UNL A   1      39.357  33.438  35.734  1.00  0.00     0.173 A 
ATOM     41  C   UNL A   1      38.272  31.468  36.583  1.00  0.00     0.173 A 
ATOM     42  F   UNL A   1      40.084  34.070  34.800  1.00  0.00    -0.203 F 
ATOM     43  C   UNL A   1      38.970  34.142  36.872  1.00  0.00     0.198 A 
ATOM     44  C   UNL A   1      37.869  32.180  37.710  1.00  0.00     0.198 A 
ATOM     45  F   UNL A   1      37.924  30.177  36.473  1.00  0.00    -0.203 F 
ATOM     46  F   UNL A   1      39.330  35.425  37.020  1.00  0.00    -0.200 F 
ATOM     47  C   UNL A   1      38.228  33.512  37.859  1.00  0.00     0.200 A 
ATOM     48  F   UNL A   1      37.139  31.575  38.658  1.00  0.00    -0.200 F 
ATOM     49  F   UNL A   1      37.860  34.189  38.956  1.00  0.00    -0.200 F 
ENDBRANCH  25  39
BRANCH  26  50
ATOM     50  C   UNL A   1      42.373  26.880  27.740  1.00  0.00     0.064 A 
ATOM     51  C   UNL A   1      42.031  25.525  27.617  1.00  0.00     0.173 A 
ATOM     52  C   UNL A   1      43.202  27.436  26.756  1.00  0.00     0.173 A 
ATOM     53  F   UNL A   1      41.244  24.946  28.535  1.00  0.00    -0.203 F 
ATOM     54  C   UNL A   1      42.517  24.753  26.565  1.00  0.00     0.198 A 
ATOM     55  C   UNL A   1      43.665  26.670  25.689  1.00  0.00     0.198 A 
ATOM     56  F   UNL A   1      43.541  28.732  26.821  1.00  0.00    -0.203 F 
ATOM     57  F   UNL A   1      42.204  23.452  26.492  1.00  0.00    -0.200 F 
ATOM     58  C   UNL A   1      43.329  25.328  25.599  1.00  0.00     0.200 A 
ATOM     59  F   UNL A   1      44.430  27.235  24.744  1.00  0.00    -0.200 F 
ATOM     60  F   UNL A   1      43.785  24.588  24.579  1.00  0.00    -0.200 F 
ENDBRANCH  26  50
BRANCH  38  61
ATOM     61  C   UNL A   1      44.802  28.040  34.164  1.00  0.00     0.064 A 
ATOM     62  C   UNL A   1      45.978  28.801  34.103  1.00  0.00     0.173 A 
ATOM     63  C   UNL A   1      44.835  26.827  34.867  1.00  0.00     0.173 A 
ATOM     64  F   UNL A   1      45.997  29.965  33.437  1.00  0.00    -0.203 F 
ATOM     65  C   UNL A   1      47.146  28.361  34.718  1.00  0.00     0.198 A 
ATOM     66  C   UNL A   1      45.998  26.401  35.501  1.00  0.00     0.198 A 
ATOM     67  F   UNL A   1      43.729  26.073  34.963  1.00  0.00    -0.203 F 
ATOM     68  F   UNL A   1      48.265  29.092  34.630  1.00  0.00    -0.200 F 
ATOM     69  C   UNL A   1      47.154  27.165  35.421  1.00  0.00     0.200 A 
ATOM     70  F   UNL A   1      45.997  25.258  36.200  1.00  0.00    -0.200 F 
ATOM     71  F   UNL A   1      48.275  26.749  36.026  1.00  0.00    -0.200 F 
ENDBRANCH  38  61
ENDBRANCH  12  13
ENDBRANCH   5   7
ENDBRANCH   2   3
ENDBRANCH   1   2
BRANCH   1  72
ATOM     72  C   UNL A   1      32.663  28.811  23.176  1.00  0.00     0.023 C 
BRANCH  72  73
ATOM     73  C   UNL A   1      33.901  28.046  22.707  1.00  0.00     0.116 C 
BRANCH  73  74
ATOM     74  N   UNL A   1      33.662  27.309  21.476  1.00  0.00    -0.356 N 
ATOM     75  C   UNL A   1      33.082  26.086  21.294  1.00  0.00     0.224 C 
ATOM     76  H   UNL A   1      33.964  27.757  20.652  1.00  0.00     0.163 HD
ATOM     77  O   UNL A   1      32.959  25.669  20.143  1.00  0.00    -0.275 OA
BRANCH  75  78
ATOM     78  C   UNL A   1      32.634  25.288  22.506  1.00  0.00     0.098 C 
ATOM     79  C   UNL A   1      31.160  25.547  22.860  1.00  0.00     0.017 C 
ATOM     80  C   UNL A   1      32.824  23.803  22.213  1.00  0.00     0.131 C 
ATOM     81  C   UNL A   1      30.728  24.676  24.044  1.00  0.00     0.022 C 
ATOM     82  N   UNL A   1      32.369  23.017  23.349  1.00  0.00    -0.356 N 
ATOM     83  C   UNL A   1      30.996  23.188  23.793  1.00  0.00     0.118 C 
BRANCH  82  84
ATOM     84  C   UNL A   1      33.250  22.144  23.946  1.00  0.00     0.133 A 
ATOM     85  C   UNL A   1      32.907  20.821  24.121  1.00  0.00     0.077 A 
ATOM     86  N   UNL A   1      34.465  22.600  24.296  1.00  0.00    -0.211 NA
ATOM     87  C   UNL A   1      33.871  19.972  24.630  1.00  0.00     0.095 A 
ATOM     88  C   UNL A   1      35.328  21.715  24.832  1.00  0.00     0.165 A 
ATOM     89  N   UNL A   1      35.089  20.408  25.000  1.00  0.00    -0.226 NA
BRANCH  87  90
ATOM     90  C   UNL A   1      33.627  18.528  24.725  1.00  0.00     0.089 A 
ATOM     91  C   UNL A   1      34.347  17.623  23.942  1.00  0.00     0.030 A 
ATOM     92  N   UNL A   1      32.650  18.128  25.579  1.00  0.00    -0.255 NA
ATOM     93  C   UNL A   1      34.060  16.264  24.041  1.00  0.00     0.004 A 
ATOM     94  C   UNL A   1      32.405  16.803  25.665  1.00  0.00     0.112 A 
ATOM     95  C   UNL A   1      33.072  15.844  24.921  1.00  0.00     0.020 A 
ENDBRANCH  87  90
BRANCH  88  96
ATOM     96  C   UNL A   1      36.592  22.230  25.346  1.00  0.00     0.055 A 
ATOM     97  C   UNL A   1      36.678  23.525  25.891  1.00  0.00     0.015 A 
ATOM     98  C   UNL A   1      37.749  21.445  25.354  1.00  0.00     0.134 A 
ATOM     99  C   UNL A   1      37.874  24.000  26.442  1.00  0.00     0.001 A 
ATOM    100  C   UNL A   1      38.948  21.914  25.892  1.00  0.00     0.040 A 
ATOM    101  F   UNL A   1      37.737  20.214  24.818  1.00  0.00    -0.206 F 
ATOM    102  C   UNL A   1      39.009  23.192  26.444  1.00  0.00     0.003 A 
ENDBRANCH  88  96
ENDBRANCH  82  84
ENDBRANCH  75  78
ENDBRANCH  73  74
ENDBRANCH  72  73
ENDBRANCH   1  72
TORSDOF 14
ENDMDL
MODEL 2
REMARK VINA RESULT:     -14.7      2.450      7.270
REMARK SMILES O=C(NCCCCNC(=O)[C@H]1CCCN(c2cc(-c3ccccn3)nc(-c3ccccc3F)n2)C1)c1ccc(-c2c3nc(c(-c4c(F)c(F)c(F)c(F)c4F)c4ccc([nH]4)c(-c4c(F)c(F)c(F)c(F)c4F)c4nc(c(-c5c(F)c(F)c(F)c(F)c5F)c5ccc2[nH]5)C=C4)C=C3)cc1
REMARK SMILES IDX 5 1 4 2 3 3 1 4 2 5 36 7 37 8 98 9 38 10 97 11 39 12 40 13
REMARK SMILES IDX 41 14 91 15 42 16 96 17 90 18 92 19 43 20 95 21 89 22 88 23
REMARK SMILES IDX 44 25 76 26 56 27 75 28 57 29 60 30 74 31 93 32 58 33 59 34
REMARK SMILES IDX 73 36 94 37 61 38 45 39 46 40 54 41 47 42 48 43 52 44 55 45
REMARK SMILES IDX 49 46 50 47 53 48 51 49 77 50 78 51 86 52 79 53 80 54 84 55
REMARK SMILES IDX 87 56 81 57 82 58 85 59 83 60 62 61 63 62 71 63 64 64 65 65
REMARK SMILES IDX 69 66 72 67 66 68 67 69 70 70 68 71 6 72 7 73 8 74 9 75
REMARK SMILES IDX 10 77 11 78 12 79 35 80 13 81 15 82 14 83 16 84 17 85 34 86
REMARK SMILES IDX 18 87 26 88 25 89 19 90 20 91 24 92 21 93 23 94 22 95 27 96
REMARK SMILES IDX 28 97 32 98 29 99 31 100 33 101 30 102
REMARK H PARENT 3 6 92 24 60 35 8 76
REMARK Flexibility Score: inf
ROOT
ATOM      1  C   UNL A   1      33.493  27.641  25.393  1.00  0.00     0.023 C 
ENDROOT
BRANCH   1   2
ATOM      2  C   UNL A   1      34.185  28.179  26.636  1.00  0.00     0.116 C 
BRANCH   2   3
ATOM      3  N   UNL A   1      33.789  29.537  26.973  1.00  0.00    -0.352 N 
ATOM      4  O   UNL A   1      33.935  31.538  28.013  1.00  0.00    -0.269 OA
ATOM      5  C   UNL A   1      34.461  30.466  27.731  1.00  0.00     0.251 C 
ATOM      6  H   UNL A   1      32.923  29.830  26.608  1.00  0.00     0.163 HD
BRANCH   5   7
ATOM      7  C   UNL A   1      35.815  30.152  28.239  1.00  0.00     0.039 A 
ATOM      8  C   UNL A   1      36.940  30.380  27.445  1.00  0.00     0.014 A 
ATOM      9  C   UNL A   1      35.956  29.604  29.518  1.00  0.00     0.014 A 
ATOM     10  C   UNL A   1      38.182  29.923  27.866  1.00  0.00     0.010 A 
ATOM     11  C   UNL A   1      37.223  29.227  29.977  1.00  0.00     0.010 A 
ATOM     12  C   UNL A   1      38.341  29.354  29.141  1.00  0.00    -0.014 A 
BRANCH  12  13
ATOM     13  C   UNL A   1      39.706  28.963  29.581  1.00  0.00     0.031 A 
ATOM     14  C   UNL A   1      40.385  27.737  29.039  1.00  0.00     0.074 A 
ATOM     15  C   UNL A   1      40.360  29.781  30.429  1.00  0.00     0.049 A 
ATOM     16  N   UNL A   1      41.603  27.308  29.261  1.00  0.00    -0.248 NA
ATOM     17  C   UNL A   1      39.604  26.876  28.138  1.00  0.00     0.031 C 
ATOM     18  C   UNL A   1      39.794  30.994  31.026  1.00  0.00     0.029 A 
ATOM     19  N   UNL A   1      41.646  29.748  30.902  1.00  0.00    -0.354 N 
ATOM     20  C   UNL A   1      41.730  26.128  28.541  1.00  0.00     0.074 A 
ATOM     21  C   UNL A   1      40.460  25.891  27.890  1.00  0.00     0.031 C 
ATOM     22  C   UNL A   1      40.748  31.629  31.718  1.00  0.00     0.029 A 
ATOM     23  C   UNL A   1      41.973  30.840  31.668  1.00  0.00     0.049 A 
ATOM     24  H   UNL A   1      42.273  29.014  30.711  1.00  0.00     0.167 HD
ATOM     25  C   UNL A   1      42.815  25.325  28.429  1.00  0.00     0.037 A 
ATOM     26  C   UNL A   1      43.134  31.173  32.264  1.00  0.00     0.037 A 
ATOM     27  C   UNL A   1      44.086  25.578  29.059  1.00  0.00     0.049 A 
ATOM     28  C   UNL A   1      44.315  30.258  32.123  1.00  0.00     0.074 A 
ATOM     29  C   UNL A   1      45.247  24.827  28.987  1.00  0.00     0.029 A 
ATOM     30  N   UNL A   1      44.364  26.668  29.870  1.00  0.00    -0.354 N 
ATOM     31  N   UNL A   1      44.421  29.149  31.433  1.00  0.00    -0.248 NA
ATOM     32  C   UNL A   1      45.533  30.633  32.854  1.00  0.00     0.031 C 
ATOM     33  C   UNL A   1      46.218  25.443  29.782  1.00  0.00     0.029 A 
ATOM     34  C   UNL A   1      45.674  26.600  30.316  1.00  0.00     0.049 A 
ATOM     35  H   UNL A   1      43.726  27.382  30.096  1.00  0.00     0.167 HD
ATOM     36  C   UNL A   1      45.715  28.696  31.641  1.00  0.00     0.074 A 
ATOM     37  C   UNL A   1      46.365  29.665  32.499  1.00  0.00     0.031 C 
ATOM     38  C   UNL A   1      46.306  27.571  31.172  1.00  0.00     0.037 A 
BRANCH  25  39
ATOM     39  C   UNL A   1      42.696  24.085  27.591  1.00  0.00     0.064 A 
ATOM     40  C   UNL A   1      42.399  22.850  28.189  1.00  0.00     0.173 A 
ATOM     41  C   UNL A   1      42.985  24.101  26.220  1.00  0.00     0.173 A 
ATOM     42  F   UNL A   1      42.124  22.783  29.500  1.00  0.00    -0.203 F 
ATOM     43  C   UNL A   1      42.419  21.672  27.447  1.00  0.00     0.198 A 
ATOM     44  C   UNL A   1      42.983  22.923  25.476  1.00  0.00     0.198 A 
ATOM     45  F   UNL A   1      43.266  25.258  25.602  1.00  0.00    -0.203 F 
ATOM     46  F   UNL A   1      42.171  20.499  28.046  1.00  0.00    -0.200 F 
ATOM     47  C   UNL A   1      42.712  21.710  26.092  1.00  0.00     0.200 A 
ATOM     48  F   UNL A   1      43.252  22.961  24.163  1.00  0.00    -0.200 F 
ATOM     49  F   UNL A   1      42.735  20.574  25.379  1.00  0.00    -0.200 F 
ENDBRANCH  25  39
BRANCH  26  50
ATOM     50  C   UNL A   1      43.229  32.440  33.031  1.00  0.00     0.064 A 
ATOM     51  C   UNL A   1      43.588  33.645  32.408  1.00  0.00     0.173 A 
ATOM     52  C   UNL A   1      42.988  32.465  34.411  1.00  0.00     0.173 A 
ATOM     53  F   UNL A   1      43.833  33.672  31.090  1.00  0.00    -0.203 F 
ATOM     54  C   UNL A   1      43.724  34.821  33.141  1.00  0.00     0.198 A 
ATOM     55  C   UNL A   1      43.096  33.648  35.138  1.00  0.00     0.198 A 
ATOM     56  F   UNL A   1      42.624  31.342  35.047  1.00  0.00    -0.203 F 
ATOM     57  F   UNL A   1      44.105  35.950  32.527  1.00  0.00    -0.200 F 
ATOM     58  C   UNL A   1      43.472  34.822  34.505  1.00  0.00     0.200 A 
ATOM     59  F   UNL A   1      42.829  33.651  36.452  1.00  0.00    -0.200 F 
ATOM     60  F   UNL A   1      43.590  35.958  35.207  1.00  0.00    -0.200 F 
ENDBRANCH  26  50
BRANCH  38  61
ATOM     61  C   UNL A   1      47.729  27.328  31.574  1.00  0.00     0.064 A 
ATOM     62  C   UNL A   1      48.784  27.826  30.797  1.00  0.00     0.173 A 
ATOM     63  C   UNL A   1      48.045  26.560  32.704  1.00  0.00     0.173 A 
ATOM     64  F   UNL A   1      48.531  28.560  29.703  1.00  0.00    -0.203 F 
ATOM     65  C   UNL A   1      50.108  27.558  31.134  1.00  0.00     0.198 A 
ATOM     66  C   UNL A   1      49.370  26.315  33.052  1.00  0.00     0.198 A 
ATOM     67  F   UNL A   1      47.068  26.075  33.485  1.00  0.00    -0.203 F 
ATOM     68  F   UNL A   1      51.101  28.026  30.366  1.00  0.00    -0.200 F 
ATOM     69  C   UNL A   1      50.400  26.809  32.264  1.00  0.00     0.200 A 
ATOM     70  F   UNL A   1      49.650  25.612  34.157  1.00  0.00    -0.200 F 
ATOM     71  F   UNL A   1      51.674  26.565  32.597  1.00  0.00    -0.200 F 
ENDBRANCH  38  61
ENDBRANCH  12  13
ENDBRANCH   5   7
ENDBRANCH   2   3
ENDBRANCH   1   2
BRANCH   1  72
ATOM     72  C   UNL A   1      33.956  28.253  24.072  1.00  0.00     0.023 C 
BRANCH  72  73
ATOM     73  C   UNL A   1      32.872  28.391  23.003  1.00  0.00     0.116 C 
BRANCH  73  74
ATOM     74  N   UNL A   1      33.166  27.610  21.812  1.00  0.00    -0.356 N 
ATOM     75  C   UNL A   1      33.038  26.267  21.601  1.00  0.00     0.224 C 
ATOM     76  H   UNL A   1      33.509  28.125  21.046  1.00  0.00     0.163 HD
ATOM     77  O   UNL A   1      33.324  25.825  20.488  1.00  0.00    -0.275 OA
BRANCH  75  78
ATOM     78  C   UNL A   1      32.571  25.376  22.739  1.00  0.00     0.098 C 
ATOM     79  C   UNL A   1      31.080  25.573  23.058  1.00  0.00     0.017 C 
ATOM     80  C   UNL A   1      32.810  23.920  22.352  1.00  0.00     0.131 C 
ATOM     81  C   UNL A   1      30.633  24.612  24.164  1.00  0.00     0.022 C 
ATOM     82  N   UNL A   1      32.340  23.046  23.416  1.00  0.00    -0.356 N 
ATOM     83  C   UNL A   1      30.948  23.152  23.822  1.00  0.00     0.118 C 
BRANCH  82  84
ATOM     84  C   UNL A   1      33.223  22.156  23.982  1.00  0.00     0.133 A 
ATOM     85  C   UNL A   1      32.869  20.835  24.149  1.00  0.00     0.077 A 
ATOM     86  N   UNL A   1      34.452  22.594  24.309  1.00  0.00    -0.211 NA
ATOM     87  C   UNL A   1      33.834  19.969  24.626  1.00  0.00     0.095 A 
ATOM     88  C   UNL A   1      35.316  21.693  24.815  1.00  0.00     0.165 A 
ATOM     89  N   UNL A   1      35.066  20.387  24.973  1.00  0.00    -0.226 NA
BRANCH  87  90
ATOM     90  C   UNL A   1      33.576  18.527  24.709  1.00  0.00     0.089 A 
ATOM     91  C   UNL A   1      34.298  17.620  23.931  1.00  0.00     0.030 A 
ATOM     92  N   UNL A   1      32.584  18.131  25.548  1.00  0.00    -0.255 NA
ATOM     93  C   UNL A   1      33.998  16.263  24.019  1.00  0.00     0.004 A 
ATOM     94  C   UNL A   1      32.325  16.808  25.622  1.00  0.00     0.112 A 
ATOM     95  C   UNL A   1      32.993  15.847  24.882  1.00  0.00     0.020 A 
ENDBRANCH  87  90
BRANCH  88  96
ATOM     96  C   UNL A   1      36.597  22.188  25.307  1.00  0.00     0.055 A 
ATOM     97  C   UNL A   1      36.715  23.483  25.843  1.00  0.00     0.015 A 
ATOM     98  C   UNL A   1      37.739  21.381  25.302  1.00  0.00     0.134 A 
ATOM     99  C   UNL A   1      37.928  23.939  26.372  1.00  0.00     0.001 A 
ATOM    100  C   UNL A   1      38.955  21.830  25.818  1.00  0.00     0.040 A 
ATOM    101  F   UNL A   1      37.697  20.147  24.773  1.00  0.00    -0.206 F 
ATOM    102  C   UNL A   1      39.048  23.110  26.361  1.00  0.00     0.003 A 
ENDBRANCH  88  96
ENDBRANCH  82  84
ENDBRANCH  75  78
ENDBRANCH  73  74
ENDBRANCH  72  73
ENDBRANCH   1  72
TORSDOF 14
ENDMDL
MODEL 3
REMARK VINA RESULT:     -14.7      0.731      2.947
REMARK SMILES O=C(NCCCCNC(=O)[C@H]1CCCN(c2cc(-c3ccccn3)nc(-c3ccccc3F)n2)C1)c1ccc(-c2c3nc(c(-c4c(F)c(F)c(F)c(F)c4F)c4ccc([nH]4)c(-c4c(F)c(F)c(F)c(F)c4F)c4nc(c(-c5c(F)c(F)c(F)c(F)c5F)c5ccc2[nH]5)C=C4)C=C3)cc1
REMARK SMILES IDX 5 1 4 2 3 3 1 4 2 5 36 7 37 8 98 9 38 10 97 11 39 12 40 13
REMARK SMILES IDX 41 14 91 15 42 16 96 17 90 18 92 19 43 20 95 21 89 22 88 23
REMARK SMILES IDX 44 25 76 26 56 27 75 28 57 29 60 30 74 31 93 32 58 33 59 34
REMARK SMILES IDX 73 36 94 37 61 38 45 39 46 40 54 41 47 42 48 43 52 44 55 45
REMARK SMILES IDX 49 46 50 47 53 48 51 49 77 50 78 51 86 52 79 53 80 54 84 55
REMARK SMILES IDX 87 56 81 57 82 58 85 59 83 60 62 61 63 62 71 63 64 64 65 65
REMARK SMILES IDX 69 66 72 67 66 68 67 69 70 70 68 71 6 72 7 73 8 74 9 75
REMARK SMILES IDX 10 77 11 78 12 79 35 80 13 81 15 82 14 83 16 84 17 85 34 86
REMARK SMILES IDX 18 87 26 88 25 89 19 90 20 91 24 92 21 93 23 94 22 95 27 96
REMARK SMILES IDX 28 97 32 98 29 99 31 100 33 101 30 102
REMARK H PARENT 3 6 92 24 60 35 8 76
REMARK Flexibility Score: inf
ROOT
ATOM      1  C   UNL A   1      32.227  28.589  24.697  1.00  0.00     0.023 C 
ENDROOT
BRANCH   1   2
ATOM      2  C   UNL A   1      33.084  29.301  25.733  1.00  0.00     0.116 C 
BRANCH   2   3
ATOM      3  N   UNL A   1      32.561  30.603  26.116  1.00  0.00    -0.352 N 
ATOM      4  O   UNL A   1      32.445  32.516  27.313  1.00  0.00    -0.269 OA
ATOM      5  C   UNL A   1      33.070  31.501  27.023  1.00  0.00     0.251 C 
ATOM      6  H   UNL A   1      31.731  30.878  25.663  1.00  0.00     0.163 HD
BRANCH   5   7
ATOM      7  C   UNL A   1      34.366  31.221  27.679  1.00  0.00     0.039 A 
ATOM      8  C   UNL A   1      34.670  29.936  28.132  1.00  0.00     0.014 A 
ATOM      9  C   UNL A   1      35.281  32.264  27.860  1.00  0.00     0.014 A 
ATOM     10  C   UNL A   1      35.811  29.728  28.894  1.00  0.00     0.010 A 
ATOM     11  C   UNL A   1      36.474  32.031  28.551  1.00  0.00     0.010 A 
ATOM     12  C   UNL A   1      36.734  30.768  29.102  1.00  0.00    -0.014 A 
BRANCH  12  13
ATOM     13  C   UNL A   1      37.984  30.472  29.848  1.00  0.00     0.031 A 
ATOM     14  C   UNL A   1      38.166  30.900  31.277  1.00  0.00     0.074 A 
ATOM     15  C   UNL A   1      38.934  29.739  29.234  1.00  0.00     0.049 A 
ATOM     16  N   UNL A   1      39.162  30.646  32.090  1.00  0.00    -0.248 NA
ATOM     17  C   UNL A   1      37.101  31.719  31.877  1.00  0.00     0.031 C 
ATOM     18  C   UNL A   1      38.867  29.277  27.845  1.00  0.00     0.029 A 
ATOM     19  N   UNL A   1      40.111  29.215  29.702  1.00  0.00    -0.354 N 
ATOM     20  C   UNL A   1      38.853  31.281  33.285  1.00  0.00     0.074 A 
ATOM     21  C   UNL A   1      37.586  31.952  33.091  1.00  0.00     0.031 C 
ATOM     22  C   UNL A   1      39.912  28.477  27.598  1.00  0.00     0.029 A 
ATOM     23  C   UNL A   1      40.754  28.418  28.787  1.00  0.00     0.049 A 
ATOM     24  H   UNL A   1      40.461  29.393  30.604  1.00  0.00     0.167 HD
ATOM     25  C   UNL A   1      39.562  31.290  34.439  1.00  0.00     0.037 A 
ATOM     26  C   UNL A   1      41.897  27.713  28.893  1.00  0.00     0.037 A 
ATOM     27  C   UNL A   1      40.810  30.599  34.635  1.00  0.00     0.049 A 
ATOM     28  C   UNL A   1      42.659  27.749  30.184  1.00  0.00     0.074 A 
ATOM     29  C   UNL A   1      41.590  30.538  35.777  1.00  0.00     0.029 A 
ATOM     30  N   UNL A   1      41.457  29.843  33.669  1.00  0.00    -0.354 N 
ATOM     31  N   UNL A   1      42.350  28.349  31.308  1.00  0.00    -0.248 NA
ATOM     32  C   UNL A   1      43.935  27.022  30.220  1.00  0.00     0.031 C 
ATOM     33  C   UNL A   1      42.727  29.775  35.493  1.00  0.00     0.029 A 
ATOM     34  C   UNL A   1      42.635  29.326  34.185  1.00  0.00     0.049 A 
ATOM     35  H   UNL A   1      41.130  29.698  32.752  1.00  0.00     0.167 HD
ATOM     36  C   UNL A   1      43.387  28.069  32.185  1.00  0.00     0.074 A 
ATOM     37  C   UNL A   1      44.321  27.222  31.472  1.00  0.00     0.031 C 
ATOM     38  C   UNL A   1      43.555  28.488  33.462  1.00  0.00     0.037 A 
BRANCH  25  39
ATOM     39  C   UNL A   1      39.015  32.068  35.600  1.00  0.00     0.064 A 
ATOM     40  C   UNL A   1      39.346  33.421  35.767  1.00  0.00     0.173 A 
ATOM     41  C   UNL A   1      38.259  31.447  36.603  1.00  0.00     0.173 A 
ATOM     42  F   UNL A   1      40.075  34.058  34.837  1.00  0.00    -0.203 F 
ATOM     43  C   UNL A   1      38.958  34.119  36.908  1.00  0.00     0.198 A 
ATOM     44  C   UNL A   1      37.854  32.154  37.734  1.00  0.00     0.198 A 
ATOM     45  F   UNL A   1      37.909  30.157  36.486  1.00  0.00    -0.203 F 
ATOM     46  F   UNL A   1      39.319  35.401  37.064  1.00  0.00    -0.200 F 
ATOM     47  C   UNL A   1      38.214  33.484  37.890  1.00  0.00     0.200 A 
ATOM     48  F   UNL A   1      37.122  31.544  38.677  1.00  0.00    -0.200 F 
ATOM     49  F   UNL A   1      37.845  34.155  38.991  1.00  0.00    -0.200 F 
ENDBRANCH  25  39
BRANCH  26  50
ATOM     50  C   UNL A   1      42.370  26.905  27.741  1.00  0.00     0.064 A 
ATOM     51  C   UNL A   1      42.075  25.537  27.640  1.00  0.00     0.173 A 
ATOM     52  C   UNL A   1      43.153  27.481  26.732  1.00  0.00     0.173 A 
ATOM     53  F   UNL A   1      41.333  24.939  28.583  1.00  0.00    -0.203 F 
ATOM     54  C   UNL A   1      42.563  24.772  26.584  1.00  0.00     0.198 A 
ATOM     55  C   UNL A   1      43.618  26.721  25.661  1.00  0.00     0.198 A 
ATOM     56  F   UNL A   1      43.446  28.789  26.776  1.00  0.00    -0.203 F 
ATOM     57  F   UNL A   1      42.297  23.460  26.531  1.00  0.00    -0.200 F 
ATOM     58  C   UNL A   1      43.330  25.367  25.592  1.00  0.00     0.200 A 
ATOM     59  F   UNL A   1      44.338  27.303  24.692  1.00  0.00    -0.200 F 
ATOM     60  F   UNL A   1      43.788  24.633  24.568  1.00  0.00    -0.200 F 
ENDBRANCH  26  50
BRANCH  38  61
ATOM     61  C   UNL A   1      44.793  28.033  34.174  1.00  0.00     0.064 A 
ATOM     62  C   UNL A   1      44.791  26.846  34.920  1.00  0.00     0.173 A 
ATOM     63  C   UNL A   1      45.967  28.800  34.153  1.00  0.00     0.173 A 
ATOM     64  F   UNL A   1      43.690  26.083  34.975  1.00  0.00    -0.203 F 
ATOM     65  C   UNL A   1      45.921  26.445  35.627  1.00  0.00     0.198 A 
ATOM     66  C   UNL A   1      47.103  28.384  34.841  1.00  0.00     0.198 A 
ATOM     67  F   UNL A   1      46.019  29.935  33.440  1.00  0.00    -0.203 F 
ATOM     68  F   UNL A   1      45.892  25.319  36.352  1.00  0.00    -0.200 F 
ATOM     69  C   UNL A   1      47.077  27.211  35.583  1.00  0.00     0.200 A 
ATOM     70  F   UNL A   1      48.226  29.112  34.777  1.00  0.00    -0.200 F 
ATOM     71  F   UNL A   1      48.170  26.816  36.250  1.00  0.00    -0.200 F 
ENDBRANCH  38  61
ENDBRANCH  12  13
ENDBRANCH   5   7
ENDBRANCH   2   3
ENDBRANCH   1   2
BRANCH   1  72
ATOM     72  C   UNL A   1      32.626  28.831  23.243  1.00  0.00     0.023 C 
BRANCH  72  73
ATOM     73  C   UNL A   1      33.847  28.046  22.764  1.00  0.00     0.116 C 
BRANCH  73  74
ATOM     74  N   UNL A   1      33.600  27.348  21.512  1.00  0.00    -0.356 N 
ATOM     75  C   UNL A   1      33.061  26.112  21.297  1.00  0.00     0.224 C 
ATOM     76  H   UNL A   1      33.861  27.839  20.698  1.00  0.00     0.163 HD
ATOM     77  O   UNL A   1      32.919  25.735  20.135  1.00  0.00    -0.275 OA
BRANCH  75  78
ATOM     78  C   UNL A   1      32.678  25.251  22.488  1.00  0.00     0.098 C 
ATOM     79  C   UNL A   1      31.201  25.424  22.881  1.00  0.00     0.017 C 
ATOM     80  C   UNL A   1      32.934  23.789  22.139  1.00  0.00     0.131 C 
ATOM     81  C   UNL A   1      30.838  24.492  24.042  1.00  0.00     0.022 C 
ATOM     82  N   UNL A   1      32.543  22.942  23.256  1.00  0.00    -0.356 N 
ATOM     83  C   UNL A   1      31.173  23.029  23.733  1.00  0.00     0.118 C 
BRANCH  82  84
ATOM     84  C   UNL A   1      33.478  22.093  23.803  1.00  0.00     0.133 A 
ATOM     85  C   UNL A   1      34.699  22.578  24.218  1.00  0.00     0.077 A 
ATOM     86  N   UNL A   1      33.148  20.801  23.972  1.00  0.00    -0.211 NA
ATOM     87  C   UNL A   1      35.554  21.699  24.854  1.00  0.00     0.095 A 
ATOM     88  C   UNL A   1      34.061  20.000  24.555  1.00  0.00     0.165 A 
ATOM     89  N   UNL A   1      35.251  20.398  25.023  1.00  0.00    -0.226 NA
BRANCH  87  90
ATOM     90  C   UNL A   1      36.815  22.167  25.439  1.00  0.00     0.089 A 
ATOM     91  C   UNL A   1      36.950  23.476  25.908  1.00  0.00     0.030 A 
ATOM     92  N   UNL A   1      37.843  21.280  25.467  1.00  0.00    -0.255 NA
ATOM     93  C   UNL A   1      38.175  23.887  26.426  1.00  0.00     0.004 A 
ATOM     94  C   UNL A   1      39.014  21.703  25.989  1.00  0.00     0.112 A 
ATOM     95  C   UNL A   1      39.229  22.983  26.470  1.00  0.00     0.020 A 
ENDBRANCH  87  90
BRANCH  88  96
ATOM     96  C   UNL A   1      33.770  18.572  24.612  1.00  0.00     0.055 A 
ATOM     97  C   UNL A   1      34.248  17.696  23.620  1.00  0.00     0.015 A 
ATOM     98  C   UNL A   1      33.045  18.018  25.672  1.00  0.00     0.134 A 
ATOM     99  C   UNL A   1      34.023  16.317  23.703  1.00  0.00     0.001 A 
ATOM    100  C   UNL A   1      32.809  16.646  25.759  1.00  0.00     0.040 A 
ATOM    101  F   UNL A   1      32.536  18.808  26.631  1.00  0.00    -0.206 F 
ATOM    102  C   UNL A   1      33.305  15.792  24.776  1.00  0.00     0.003 A 
ENDBRANCH  88  96
ENDBRANCH  82  84
ENDBRANCH  75  78
ENDBRANCH  73  74
ENDBRANCH  72  73
ENDBRANCH   1  72
TORSDOF 14
ENDMDL
