MODEL 1
REMARK VINA RESULT:     -10.3      0.000      0.000
REMARK SMILES Cc1c(CC(=O)N[C@H](CO)C(=O)NCCCCNC(=O)c2ccc(-c3c4nc(c(-c5c(F)c(F)c(F)c(F)c5F)c5ccc([nH]5)c(-c5c(F)c(F)c(F)c(F)c5F)c5nc(c(-c6c(F)c(F)c(F)c(F)c6F)c6ccc3[nH]6)C=C5)C=C4)cc2)cc(-c2ccc(S(C)(=O)=O)cc2)n1-c1cccc(F)c1
REMARK SMILES IDX 14 1 13 2 11 3 12 4 8 6 7 7 5 8 6 9 4 11 3 12 1 13 2 14
REMARK SMILES IDX 96 15 84 16 85 17 97 18 98 19 103 20 99 21 101 22 100 23
REMARK SMILES IDX 102 24 86 25 87 26 95 27 88 28 94 29 89 30 90 31 91 32 92 33
REMARK SMILES IDX 93 34 9 35 10 36 15 38 16 39 17 40 18 41 19 42 20 44 21 45
REMARK SMILES IDX 22 46 83 47 23 48 82 49 24 50 25 51 26 52 76 53 27 54 81 55
REMARK SMILES IDX 75 56 77 57 28 58 80 59 74 60 73 61 29 63 61 64 41 65 60 66
REMARK SMILES IDX 42 67 45 68 59 69 78 70 43 71 44 72 58 74 79 75 46 76 30 77
REMARK SMILES IDX 31 78 39 79 32 80 33 81 37 82 40 83 34 84 35 85 38 86 36 87
REMARK SMILES IDX 62 88 63 89 71 90 64 91 65 92 69 93 72 94 66 95 67 96 70 97
REMARK SMILES IDX 68 98 47 99 48 100 56 101 49 102 50 103 54 104 57 105 51 106
REMARK SMILES IDX 52 107 55 108 53 109
REMARK H PARENT 13 5 7 10 10 37 18 43 77 62 45 73
REMARK Flexibility Score: inf
ROOT
ATOM      1  C   UNL A   1      45.403  27.961  26.226  1.00  0.00     0.116 C 
ENDROOT
BRANCH   1   2
ATOM      2  N   UNL A   1      44.110  27.936  25.523  1.00  0.00    -0.354 N 
ATOM      3  C   UNL A   1      43.184  26.914  25.428  1.00  0.00     0.244 C 
ATOM      4  O   UNL A   1      42.189  27.062  24.713  1.00  0.00    -0.273 OA
ATOM      5  H   UNL A   1      43.870  28.766  25.053  1.00  0.00     0.163 HD
BRANCH   3   6
ATOM      6  C   UNL A   1      43.465  25.544  26.045  1.00  0.00     0.197 C 
BRANCH   6   7
ATOM      7  N   UNL A   1      43.458  24.513  25.014  1.00  0.00    -0.342 N 
ATOM      8  C   UNL A   1      44.306  23.448  24.861  1.00  0.00     0.225 C 
ATOM      9  O   UNL A   1      44.170  22.772  23.834  1.00  0.00    -0.275 OA
ATOM     10  H   UNL A   1      42.748  24.593  24.336  1.00  0.00     0.164 HD
BRANCH   8  11
ATOM     11  C   UNL A   1      45.376  23.082  25.910  1.00  0.00     0.137 C 
BRANCH  11  12
ATOM     12  C   UNL A   1      46.448  24.109  26.284  1.00  0.00    -0.017 A 
ATOM     13  C   UNL A   1      45.712  24.412  28.592  1.00  0.00     0.065 C 
ATOM     14  C   UNL A   1      46.717  24.700  27.520  1.00  0.00     0.024 A 
ATOM     15  N   UNL A   1      47.934  25.501  27.427  1.00  0.00    -0.313 N 
ATOM     16  C   UNL A   1      47.268  24.785  25.373  1.00  0.00     0.033 A 
ATOM     17  C   UNL A   1      48.225  25.499  26.065  1.00  0.00     0.053 A 
BRANCH  15  18
ATOM     18  C   UNL A   1      48.862  26.196  28.381  1.00  0.00     0.049 A 
ATOM     19  C   UNL A   1      49.370  25.532  29.511  1.00  0.00     0.027 A 
ATOM     20  C   UNL A   1      48.899  27.603  28.530  1.00  0.00     0.065 A 
ATOM     21  C   UNL A   1      50.089  26.216  30.541  1.00  0.00     0.005 A 
ATOM     22  C   UNL A   1      49.700  28.277  29.471  1.00  0.00     0.125 A 
ATOM     23  C   UNL A   1      50.320  27.587  30.483  1.00  0.00     0.039 A 
ATOM     24  F   UNL A   1      49.799  29.615  29.425  1.00  0.00    -0.207 F 
ENDBRANCH  15  18
BRANCH  17  25
ATOM     25  C   UNL A   1      49.421  26.047  25.459  1.00  0.00    -0.001 A 
ATOM     26  C   UNL A   1      50.676  25.554  25.839  1.00  0.00     0.011 A 
ATOM     27  C   UNL A   1      49.297  26.939  24.393  1.00  0.00     0.011 A 
ATOM     28  C   UNL A   1      51.816  25.977  25.176  1.00  0.00     0.021 A 
ATOM     29  C   UNL A   1      50.432  27.354  23.712  1.00  0.00     0.021 A 
ATOM     30  C   UNL A   1      51.682  26.880  24.121  1.00  0.00     0.067 A 
BRANCH  30  31
ATOM     31  S   UNL A   1      53.140  27.453  23.302  1.00  0.00     0.175 S 
ATOM     32  C   UNL A   1      52.490  28.045  21.759  1.00  0.00     0.163 C 
ATOM     33  O   UNL A   1      53.631  28.602  24.065  1.00  0.00    -0.224 OA
ATOM     34  O   UNL A   1      53.978  26.320  23.033  1.00  0.00    -0.224 OA
ENDBRANCH  30  31
ENDBRANCH  17  25
ENDBRANCH  11  12
ENDBRANCH   8  11
ENDBRANCH   6   7
BRANCH   6  35
ATOM     35  C   UNL A   1      42.363  25.390  27.123  1.00  0.00     0.191 C 
BRANCH  35  36
ATOM     36  O   UNL A   1      42.209  24.034  27.545  1.00  0.00    -0.394 OA
ATOM     37  H   UNL A   1      41.765  23.527  26.849  1.00  0.00     0.210 HD
ENDBRANCH  35  36
ENDBRANCH   6  35
ENDBRANCH   3   6
ENDBRANCH   1   2
BRANCH   1  38
ATOM     38  C   UNL A   1      46.434  29.033  25.785  1.00  0.00     0.023 C 
BRANCH  38  39
ATOM     39  C   UNL A   1      46.419  30.411  26.502  1.00  0.00     0.023 C 
BRANCH  39  40
ATOM     40  C   UNL A   1      47.657  31.292  26.870  1.00  0.00     0.116 C 
BRANCH  40  41
ATOM     41  N   UNL A   1      47.878  32.708  26.503  1.00  0.00    -0.352 N 
ATOM     42  C   UNL A   1      47.424  33.971  27.019  1.00  0.00     0.251 C 
ATOM     43  H   UNL A   1      48.475  32.809  25.726  1.00  0.00     0.163 HD
ATOM     44  O   UNL A   1      47.991  34.949  26.505  1.00  0.00    -0.269 OA
BRANCH  42  45
ATOM     45  C   UNL A   1      46.275  34.352  28.042  1.00  0.00     0.039 A 
ATOM     46  C   UNL A   1      45.981  33.459  29.079  1.00  0.00     0.014 A 
ATOM     47  C   UNL A   1      45.242  35.318  27.911  1.00  0.00     0.014 A 
ATOM     48  C   UNL A   1      44.846  33.609  29.999  1.00  0.00     0.010 A 
ATOM     49  C   UNL A   1      44.051  35.454  28.831  1.00  0.00     0.010 A 
ATOM     50  C   UNL A   1      43.801  34.606  29.935  1.00  0.00    -0.014 A 
BRANCH  50  51
ATOM     51  C   UNL A   1      42.324  34.247  30.675  1.00  0.00     0.031 A 
ATOM     52  C   UNL A   1      42.810  33.552  31.902  1.00  0.00     0.074 A 
ATOM     53  C   UNL A   1      40.906  34.252  30.579  1.00  0.00     0.049 A 
ATOM     54  N   UNL A   1      43.598  32.517  31.786  1.00  0.00    -0.248 NA
ATOM     55  C   UNL A   1      42.798  34.168  33.229  1.00  0.00     0.031 C 
ATOM     56  C   UNL A   1      40.058  34.716  29.459  1.00  0.00     0.029 A 
ATOM     57  N   UNL A   1      39.834  33.830  31.482  1.00  0.00    -0.354 N 
ATOM     58  C   UNL A   1      43.945  32.157  33.061  1.00  0.00     0.074 A 
ATOM     59  C   UNL A   1      43.621  33.328  33.868  1.00  0.00     0.031 C 
ATOM     60  C   UNL A   1      38.717  34.692  29.757  1.00  0.00     0.029 A 
ATOM     61  C   UNL A   1      38.457  34.139  31.089  1.00  0.00     0.049 A 
ATOM     62  H   UNL A   1      40.032  33.357  32.323  1.00  0.00     0.167 HD
ATOM     63  C   UNL A   1      43.735  30.842  33.355  1.00  0.00     0.037 A 
ATOM     64  C   UNL A   1      37.206  33.902  31.701  1.00  0.00     0.037 A 
ATOM     65  C   UNL A   1      42.505  30.642  34.068  1.00  0.00     0.049 A 
ATOM     66  C   UNL A   1      37.383  32.759  32.602  1.00  0.00     0.074 A 
ATOM     67  C   UNL A   1      41.905  31.322  35.109  1.00  0.00     0.029 A 
ATOM     68  N   UNL A   1      41.507  29.944  33.423  1.00  0.00    -0.354 N 
ATOM     69  N   UNL A   1      37.416  31.542  32.150  1.00  0.00    -0.248 NA
ATOM     70  C   UNL A   1      37.370  32.885  34.056  1.00  0.00     0.031 C 
ATOM     71  C   UNL A   1      40.565  31.464  34.697  1.00  0.00     0.029 A 
ATOM     72  C   UNL A   1      40.302  30.547  33.687  1.00  0.00     0.049 A 
ATOM     73  H   UNL A   1      41.637  29.144  32.864  1.00  0.00     0.167 HD
ATOM     74  C   UNL A   1      38.010  30.874  33.169  1.00  0.00     0.074 A 
ATOM     75  C   UNL A   1      37.681  31.624  34.368  1.00  0.00     0.031 C 
ATOM     76  C   UNL A   1      39.177  30.271  32.838  1.00  0.00     0.037 A 
BRANCH  63  77
ATOM     77  C   UNL A   1      44.247  29.893  32.310  1.00  0.00     0.064 A 
ATOM     78  C   UNL A   1      45.437  29.205  32.550  1.00  0.00     0.173 A 
ATOM     79  C   UNL A   1      43.635  29.716  31.050  1.00  0.00     0.173 A 
ATOM     80  F   UNL A   1      46.021  29.273  33.757  1.00  0.00    -0.203 F 
ATOM     81  C   UNL A   1      46.026  28.428  31.555  1.00  0.00     0.198 A 
ATOM     82  C   UNL A   1      44.260  29.000  30.038  1.00  0.00     0.198 A 
ATOM     83  F   UNL A   1      42.408  30.203  30.803  1.00  0.00    -0.203 F 
ATOM     84  F   UNL A   1      47.147  27.743  31.819  1.00  0.00    -0.200 F 
ATOM     85  C   UNL A   1      45.459  28.356  30.290  1.00  0.00     0.200 A 
ATOM     86  F   UNL A   1      43.689  28.918  28.827  1.00  0.00    -0.200 F 
ATOM     87  F   UNL A   1      46.048  27.639  29.323  1.00  0.00    -0.200 F 
ENDBRANCH  63  77
BRANCH  64  88
ATOM     88  C   UNL A   1      35.650  34.217  31.688  1.00  0.00     0.064 A 
ATOM     89  C   UNL A   1      35.047  35.120  32.648  1.00  0.00     0.173 A 
ATOM     90  C   UNL A   1      34.851  34.037  30.550  1.00  0.00     0.173 A 
ATOM     91  F   UNL A   1      35.635  35.391  33.822  1.00  0.00    -0.203 F 
ATOM     92  C   UNL A   1      33.856  35.845  32.430  1.00  0.00     0.198 A 
ATOM     93  C   UNL A   1      33.626  34.742  30.349  1.00  0.00     0.198 A 
ATOM     94  F   UNL A   1      35.277  33.245  29.558  1.00  0.00    -0.203 F 
ATOM     95  F   UNL A   1      33.445  36.761  33.323  1.00  0.00    -0.200 F 
ATOM     96  C   UNL A   1      33.153  35.669  31.266  1.00  0.00     0.200 A 
ATOM     97  F   UNL A   1      32.935  34.570  29.212  1.00  0.00    -0.200 F 
ATOM     98  F   UNL A   1      32.054  36.402  31.017  1.00  0.00    -0.200 F 
ENDBRANCH  64  88
BRANCH  76  99
ATOM     99  C   UNL A   1      39.197  29.544  31.502  1.00  0.00     0.064 A 
ATOM    100  C   UNL A   1      39.323  30.131  30.219  1.00  0.00     0.173 A 
ATOM    101  C   UNL A   1      38.945  28.168  31.521  1.00  0.00     0.173 A 
ATOM    102  F   UNL A   1      39.677  31.413  30.054  1.00  0.00    -0.203 F 
ATOM    103  C   UNL A   1      39.098  29.405  29.046  1.00  0.00     0.198 A 
ATOM    104  C   UNL A   1      38.772  27.432  30.348  1.00  0.00     0.198 A 
ATOM    105  F   UNL A   1      38.870  27.521  32.695  1.00  0.00    -0.203 F 
ATOM    106  F   UNL A   1      39.146  30.017  27.853  1.00  0.00    -0.200 F 
ATOM    107  C   UNL A   1      38.818  28.054  29.113  1.00  0.00     0.200 A 
ATOM    108  F   UNL A   1      38.553  26.112  30.423  1.00  0.00    -0.200 F 
ATOM    109  F   UNL A   1      38.608  27.350  27.992  1.00  0.00    -0.200 F 
ENDBRANCH  76  99
ENDBRANCH  50  51
ENDBRANCH  42  45
ENDBRANCH  40  41
ENDBRANCH  39  40
ENDBRANCH  38  39
ENDBRANCH   1  38
TORSDOF 19
ENDMDL
MODEL 2
REMARK VINA RESULT:     -10.2      4.899     12.112
REMARK SMILES Cc1c(CC(=O)N[C@H](CO)C(=O)NCCCCNC(=O)c2ccc(-c3c4nc(c(-c5c(F)c(F)c(F)c(F)c5F)c5ccc([nH]5)c(-c5c(F)c(F)c(F)c(F)c5F)c5nc(c(-c6c(F)c(F)c(F)c(F)c6F)c6ccc3[nH]6)C=C5)C=C4)cc2)cc(-c2ccc(S(C)(=O)=O)cc2)n1-c1cccc(F)c1
REMARK SMILES IDX 14 1 13 2 11 3 12 4 8 6 7 7 5 8 6 9 4 11 3 12 1 13 2 14
REMARK SMILES IDX 96 15 84 16 85 17 97 18 98 19 103 20 99 21 101 22 100 23
REMARK SMILES IDX 102 24 86 25 87 26 95 27 88 28 94 29 89 30 90 31 91 32 92 33
REMARK SMILES IDX 93 34 9 35 10 36 15 38 16 39 17 40 18 41 19 42 20 44 21 45
REMARK SMILES IDX 22 46 83 47 23 48 82 49 24 50 25 51 26 52 76 53 27 54 81 55
REMARK SMILES IDX 75 56 77 57 28 58 80 59 74 60 73 61 29 63 61 64 41 65 60 66
REMARK SMILES IDX 42 67 45 68 59 69 78 70 43 71 44 72 58 74 79 75 46 76 30 77
REMARK SMILES IDX 31 78 39 79 32 80 33 81 37 82 40 83 34 84 35 85 38 86 36 87
REMARK SMILES IDX 62 88 63 89 71 90 64 91 65 92 69 93 72 94 66 95 67 96 70 97
REMARK SMILES IDX 68 98 47 99 48 100 56 101 49 102 50 103 54 104 57 105 51 106
REMARK SMILES IDX 52 107 55 108 53 109
REMARK H PARENT 13 5 7 10 10 37 18 43 77 62 45 73
REMARK Flexibility Score: inf
ROOT
ATOM      1  C   UNL A   1      44.354  34.005  36.709  1.00  0.00     0.116 C 
ENDROOT
BRANCH   1   2
ATOM      2  N   UNL A   1      43.597  34.557  37.846  1.00  0.00    -0.354 N 
ATOM      3  C   UNL A   1      42.253  34.430  38.146  1.00  0.00     0.244 C 
ATOM      4  O   UNL A   1      41.788  35.045  39.110  1.00  0.00    -0.273 OA
ATOM      5  H   UNL A   1      44.123  35.091  38.483  1.00  0.00     0.163 HD
BRANCH   3   6
ATOM      6  C   UNL A   1      41.306  33.693  37.201  1.00  0.00     0.197 C 
BRANCH   6   7
ATOM      7  N   UNL A   1      40.311  34.612  36.662  1.00  0.00    -0.342 N 
ATOM      8  C   UNL A   1      40.427  35.478  35.606  1.00  0.00     0.225 C 
ATOM      9  O   UNL A   1      39.477  36.245  35.409  1.00  0.00    -0.275 OA
ATOM     10  H   UNL A   1      39.438  34.611  37.117  1.00  0.00     0.164 HD
BRANCH   8  11
ATOM     11  C   UNL A   1      41.666  35.502  34.686  1.00  0.00     0.137 C 
BRANCH  11  12
ATOM     12  C   UNL A   1      41.516  35.130  33.208  1.00  0.00    -0.017 A 
ATOM     13  C   UNL A   1      43.636  36.106  32.489  1.00  0.00     0.065 C 
ATOM     14  C   UNL A   1      42.418  35.299  32.157  1.00  0.00     0.024 A 
ATOM     15  N   UNL A   1      41.900  34.650  30.956  1.00  0.00    -0.313 N 
ATOM     16  C   UNL A   1      40.333  34.691  32.604  1.00  0.00     0.033 A 
ATOM     17  C   UNL A   1      40.604  34.286  31.314  1.00  0.00     0.053 A 
BRANCH  15  18
ATOM     18  C   UNL A   1      42.424  34.281  29.598  1.00  0.00     0.049 A 
ATOM     19  C   UNL A   1      43.384  33.267  29.443  1.00  0.00     0.027 A 
ATOM     20  C   UNL A   1      42.414  35.177  28.502  1.00  0.00     0.065 A 
ATOM     21  C   UNL A   1      44.050  33.027  28.199  1.00  0.00     0.005 A 
ATOM     22  C   UNL A   1      42.970  34.888  27.241  1.00  0.00     0.125 A 
ATOM     23  C   UNL A   1      43.785  33.796  27.071  1.00  0.00     0.039 A 
ATOM     24  F   UNL A   1      42.763  35.726  26.214  1.00  0.00    -0.207 F 
ENDBRANCH  15  18
BRANCH  17  25
ATOM     25  C   UNL A   1      39.703  33.485  30.511  1.00  0.00    -0.001 A 
ATOM     26  C   UNL A   1      39.678  32.094  30.680  1.00  0.00     0.011 A 
ATOM     27  C   UNL A   1      38.762  34.122  29.702  1.00  0.00     0.011 A 
ATOM     28  C   UNL A   1      38.733  31.333  30.013  1.00  0.00     0.021 A 
ATOM     29  C   UNL A   1      37.800  33.368  29.045  1.00  0.00     0.021 A 
ATOM     30  C   UNL A   1      37.806  31.978  29.196  1.00  0.00     0.067 A 
BRANCH  30  31
ATOM     31  S   UNL A   1      36.626  31.003  28.312  1.00  0.00     0.175 S 
ATOM     32  C   UNL A   1      36.110  29.835  29.545  1.00  0.00     0.163 C 
ATOM     33  O   UNL A   1      35.494  31.881  28.006  1.00  0.00    -0.224 OA
ATOM     34  O   UNL A   1      37.319  30.290  27.277  1.00  0.00    -0.224 OA
ENDBRANCH  30  31
ENDBRANCH  17  25
ENDBRANCH  11  12
ENDBRANCH   8  11
ENDBRANCH   6   7
BRANCH   6  35
ATOM     35  C   UNL A   1      40.727  32.550  38.074  1.00  0.00     0.191 C 
BRANCH  35  36
ATOM     36  O   UNL A   1      41.689  32.040  38.998  1.00  0.00    -0.394 OA
ATOM     37  H   UNL A   1      42.581  32.165  38.640  1.00  0.00     0.210 HD
ENDBRANCH  35  36
ENDBRANCH   6  35
ENDBRANCH   3   6
ENDBRANCH   1   2
BRANCH   1  38
ATOM     38  C   UNL A   1      45.533  33.051  37.034  1.00  0.00     0.023 C 
BRANCH  38  39
ATOM     39  C   UNL A   1      45.237  31.760  37.846  1.00  0.00     0.023 C 
BRANCH  39  40
ATOM     40  C   UNL A   1      45.353  30.285  37.340  1.00  0.00     0.116 C 
BRANCH  40  41
ATOM     41  N   UNL A   1      45.685  29.093  38.151  1.00  0.00    -0.352 N 
ATOM     42  C   UNL A   1      45.883  27.698  37.867  1.00  0.00     0.251 C 
ATOM     43  H   UNL A   1      45.797  29.304  39.107  1.00  0.00     0.163 HD
ATOM     44  O   UNL A   1      46.318  27.052  38.834  1.00  0.00    -0.269 OA
BRANCH  42  45
ATOM     45  C   UNL A   1      45.562  26.816  36.590  1.00  0.00     0.039 A 
ATOM     46  C   UNL A   1      46.621  26.427  35.763  1.00  0.00     0.014 A 
ATOM     47  C   UNL A   1      44.319  26.604  35.936  1.00  0.00     0.014 A 
ATOM     48  C   UNL A   1      46.454  25.746  34.473  1.00  0.00     0.010 A 
ATOM     49  C   UNL A   1      44.142  25.938  34.591  1.00  0.00     0.010 A 
ATOM     50  C   UNL A   1      45.209  25.463  33.795  1.00  0.00    -0.014 A 
BRANCH  50  51
ATOM     51  C   UNL A   1      45.257  25.243  32.119  1.00  0.00     0.031 A 
ATOM     52  C   UNL A   1      46.014  26.464  31.718  1.00  0.00     0.074 A 
ATOM     53  C   UNL A   1      44.827  24.478  31.001  1.00  0.00     0.049 A 
ATOM     54  N   UNL A   1      45.575  27.641  32.075  1.00  0.00    -0.248 NA
ATOM     55  C   UNL A   1      47.415  26.435  31.296  1.00  0.00     0.031 C 
ATOM     56  C   UNL A   1      43.945  23.290  30.978  1.00  0.00     0.029 A 
ATOM     57  N   UNL A   1      45.076  24.573  29.561  1.00  0.00    -0.354 N 
ATOM     58  C   UNL A   1      46.512  28.544  31.649  1.00  0.00     0.074 A 
ATOM     59  C   UNL A   1      47.702  27.738  31.397  1.00  0.00     0.031 C 
ATOM     60  C   UNL A   1      43.842  22.724  29.731  1.00  0.00     0.029 A 
ATOM     61  C   UNL A   1      44.573  23.487  28.716  1.00  0.00     0.049 A 
ATOM     62  H   UNL A   1      45.563  25.337  29.176  1.00  0.00     0.167 HD
ATOM     63  C   UNL A   1      46.011  29.570  30.903  1.00  0.00     0.037 A 
ATOM     64  C   UNL A   1      44.637  23.242  27.325  1.00  0.00     0.037 A 
ATOM     65  C   UNL A   1      46.181  29.343  29.496  1.00  0.00     0.049 A 
ATOM     66  C   UNL A   1      44.816  24.544  26.673  1.00  0.00     0.074 A 
ATOM     67  C   UNL A   1      47.236  28.862  28.746  1.00  0.00     0.029 A 
ATOM     68  N   UNL A   1      45.041  29.155  28.744  1.00  0.00    -0.354 N 
ATOM     69  N   UNL A   1      43.820  25.360  26.506  1.00  0.00    -0.248 NA
ATOM     70  C   UNL A   1      46.065  24.942  26.030  1.00  0.00     0.031 C 
ATOM     71  C   UNL A   1      46.641  27.920  27.884  1.00  0.00     0.029 A 
ATOM     72  C   UNL A   1      45.272  28.155  27.832  1.00  0.00     0.049 A 
ATOM     73  H   UNL A   1      44.200  29.656  28.845  1.00  0.00     0.167 HD
ATOM     74  C   UNL A   1      44.449  26.541  26.299  1.00  0.00     0.074 A 
ATOM     75  C   UNL A   1      45.737  26.200  25.721  1.00  0.00     0.031 C 
ATOM     76  C   UNL A   1      44.155  27.499  27.211  1.00  0.00     0.037 A 
BRANCH  63  77
ATOM     77  C   UNL A   1      44.791  30.215  31.494  1.00  0.00     0.064 A 
ATOM     78  C   UNL A   1      44.941  31.392  32.230  1.00  0.00     0.173 A 
ATOM     79  C   UNL A   1      43.498  29.653  31.421  1.00  0.00     0.173 A 
ATOM     80  F   UNL A   1      46.129  32.014  32.268  1.00  0.00    -0.203 F 
ATOM     81  C   UNL A   1      43.862  31.946  32.917  1.00  0.00     0.198 A 
ATOM     82  C   UNL A   1      42.444  30.167  32.164  1.00  0.00     0.198 A 
ATOM     83  F   UNL A   1      43.238  28.624  30.597  1.00  0.00    -0.203 F 
ATOM     84  F   UNL A   1      44.018  33.098  33.583  1.00  0.00    -0.200 F 
ATOM     85  C   UNL A   1      42.626  31.314  32.915  1.00  0.00     0.200 A 
ATOM     86  F   UNL A   1      41.248  29.560  32.134  1.00  0.00    -0.200 F 
ATOM     87  F   UNL A   1      41.602  31.829  33.608  1.00  0.00    -0.200 F 
ENDBRANCH  63  77
BRANCH  64  88
ATOM     88  C   UNL A   1      44.403  22.192  26.158  1.00  0.00     0.064 A 
ATOM     89  C   UNL A   1      45.505  21.643  25.395  1.00  0.00     0.173 A 
ATOM     90  C   UNL A   1      43.247  21.402  26.072  1.00  0.00     0.173 A 
ATOM     91  F   UNL A   1      46.686  22.271  25.316  1.00  0.00    -0.203 F 
ATOM     92  C   UNL A   1      45.483  20.395  24.737  1.00  0.00     0.198 A 
ATOM     93  C   UNL A   1      43.216  20.158  25.372  1.00  0.00     0.198 A 
ATOM     94  F   UNL A   1      42.144  21.764  26.737  1.00  0.00    -0.203 F 
ATOM     95  F   UNL A   1      46.598  19.906  24.168  1.00  0.00    -0.200 F 
ATOM     96  C   UNL A   1      44.338  19.640  24.742  1.00  0.00     0.200 A 
ATOM     97  F   UNL A   1      42.096  19.419  25.374  1.00  0.00    -0.200 F 
ATOM     98  F   UNL A   1      44.324  18.421  24.178  1.00  0.00    -0.200 F 
ENDBRANCH  64  88
BRANCH  76  99
ATOM     99  C   UNL A   1      42.691  27.617  27.606  1.00  0.00     0.064 A 
ATOM    100  C   UNL A   1      42.004  26.826  28.560  1.00  0.00     0.173 A 
ATOM    101  C   UNL A   1      41.903  28.512  26.875  1.00  0.00     0.173 A 
ATOM    102  F   UNL A   1      42.648  26.011  29.406  1.00  0.00    -0.203 F 
ATOM    103  C   UNL A   1      40.612  26.856  28.683  1.00  0.00     0.198 A 
ATOM    104  C   UNL A   1      40.518  28.580  27.036  1.00  0.00     0.198 A 
ATOM    105  F   UNL A   1      42.482  29.341  25.993  1.00  0.00    -0.203 F 
ATOM    106  F   UNL A   1      39.992  26.031  29.541  1.00  0.00    -0.200 F 
ATOM    107  C   UNL A   1      39.870  27.733  27.916  1.00  0.00     0.200 A 
ATOM    108  F   UNL A   1      39.814  29.470  26.325  1.00  0.00    -0.200 F 
ATOM    109  F   UNL A   1      38.535  27.772  28.035  1.00  0.00    -0.200 F 
ENDBRANCH  76  99
ENDBRANCH  50  51
ENDBRANCH  42  45
ENDBRANCH  40  41
ENDBRANCH  39  40
ENDBRANCH  38  39
ENDBRANCH   1  38
TORSDOF 19
ENDMDL
MODEL 3
REMARK VINA RESULT:     -10.1      5.262     10.877
REMARK SMILES Cc1c(CC(=O)N[C@H](CO)C(=O)NCCCCNC(=O)c2ccc(-c3c4nc(c(-c5c(F)c(F)c(F)c(F)c5F)c5ccc([nH]5)c(-c5c(F)c(F)c(F)c(F)c5F)c5nc(c(-c6c(F)c(F)c(F)c(F)c6F)c6ccc3[nH]6)C=C5)C=C4)cc2)cc(-c2ccc(S(C)(=O)=O)cc2)n1-c1cccc(F)c1
REMARK SMILES IDX 14 1 13 2 11 3 12 4 8 6 7 7 5 8 6 9 4 11 3 12 1 13 2 14
REMARK SMILES IDX 96 15 84 16 85 17 97 18 98 19 103 20 99 21 101 22 100 23
REMARK SMILES IDX 102 24 86 25 87 26 95 27 88 28 94 29 89 30 90 31 91 32 92 33
REMARK SMILES IDX 93 34 9 35 10 36 15 38 16 39 17 40 18 41 19 42 20 44 21 45
REMARK SMILES IDX 22 46 83 47 23 48 82 49 24 50 25 51 26 52 76 53 27 54 81 55
REMARK SMILES IDX 75 56 77 57 28 58 80 59 74 60 73 61 29 63 61 64 41 65 60 66
REMARK SMILES IDX 42 67 45 68 59 69 78 70 43 71 44 72 58 74 79 75 46 76 30 77
REMARK SMILES IDX 31 78 39 79 32 80 33 81 37 82 40 83 34 84 35 85 38 86 36 87
REMARK SMILES IDX 62 88 63 89 71 90 64 91 65 92 69 93 72 94 66 95 67 96 70 97
REMARK SMILES IDX 68 98 47 99 48 100 56 101 49 102 50 103 54 104 57 105 51 106
REMARK SMILES IDX 52 107 55 108 53 109
REMARK H PARENT 13 5 7 10 10 37 18 43 77 62 45 73
REMARK Flexibility Score: inf
ROOT
ATOM      1  C   UNL A   1      31.927  25.944  25.668  1.00  0.00     0.116 C 
ENDROOT
BRANCH   1   2
ATOM      2  N   UNL A   1      31.319  24.930  24.789  1.00  0.00    -0.354 N 
ATOM      3  C   UNL A   1      31.134  23.579  25.009  1.00  0.00     0.244 C 
ATOM      4  O   UNL A   1      30.677  22.875  24.103  1.00  0.00    -0.273 OA
ATOM      5  H   UNL A   1      30.999  25.264  23.920  1.00  0.00     0.163 HD
BRANCH   3   6
ATOM      6  C   UNL A   1      31.655  22.914  26.282  1.00  0.00     0.197 C 
BRANCH   6   7
ATOM      7  N   UNL A   1      32.143  21.571  25.990  1.00  0.00    -0.342 N 
ATOM      8  C   UNL A   1      33.118  21.186  25.107  1.00  0.00     0.225 C 
ATOM      9  O   UNL A   1      33.276  19.970  24.949  1.00  0.00    -0.275 OA
ATOM     10  H   UNL A   1      31.714  20.843  26.495  1.00  0.00     0.164 HD
BRANCH   8  11
ATOM     11  C   UNL A   1      33.996  22.202  24.347  1.00  0.00     0.137 C 
BRANCH  11  12
ATOM     12  C   UNL A   1      35.445  22.425  24.787  1.00  0.00    -0.017 A 
ATOM     13  C   UNL A   1      35.258  24.845  25.047  1.00  0.00     0.065 C 
ATOM     14  C   UNL A   1      36.073  23.599  25.207  1.00  0.00     0.024 A 
ATOM     15  N   UNL A   1      37.422  23.294  25.675  1.00  0.00    -0.313 N 
ATOM     16  C   UNL A   1      36.474  21.482  24.678  1.00  0.00     0.033 A 
ATOM     17  C   UNL A   1      37.597  21.957  25.323  1.00  0.00     0.053 A 
BRANCH  15  18
ATOM     18  C   UNL A   1      38.510  24.012  26.419  1.00  0.00     0.049 A 
ATOM     19  C   UNL A   1      38.301  24.494  27.722  1.00  0.00     0.027 A 
ATOM     20  C   UNL A   1      39.572  24.684  25.768  1.00  0.00     0.065 A 
ATOM     21  C   UNL A   1      39.237  25.351  28.382  1.00  0.00     0.005 A 
ATOM     22  C   UNL A   1      40.561  25.432  26.435  1.00  0.00     0.125 A 
ATOM     23  C   UNL A   1      40.412  25.763  27.759  1.00  0.00     0.039 A 
ATOM     24  F   UNL A   1      41.622  25.891  25.754  1.00  0.00    -0.207 F 
ENDBRANCH  15  18
BRANCH  17  25
ATOM     25  C   UNL A   1      38.729  21.132  25.690  1.00  0.00    -0.001 A 
ATOM     26  C   UNL A   1      38.802  19.812  25.226  1.00  0.00     0.011 A 
ATOM     27  C   UNL A   1      39.806  21.712  26.361  1.00  0.00     0.011 A 
ATOM     28  C   UNL A   1      39.938  19.057  25.462  1.00  0.00     0.021 A 
ATOM     29  C   UNL A   1      40.955  20.969  26.586  1.00  0.00     0.021 A 
ATOM     30  C   UNL A   1      41.003  19.642  26.146  1.00  0.00     0.067 A 
BRANCH  30  31
ATOM     31  S   UNL A   1      42.437  18.666  26.485  1.00  0.00     0.175 S 
ATOM     32  C   UNL A   1      43.734  19.653  25.779  1.00  0.00     0.163 C 
ATOM     33  O   UNL A   1      42.608  18.653  27.939  1.00  0.00    -0.224 OA
ATOM     34  O   UNL A   1      42.338  17.447  25.733  1.00  0.00    -0.224 OA
ENDBRANCH  30  31
ENDBRANCH  17  25
ENDBRANCH  11  12
ENDBRANCH   8  11
ENDBRANCH   6   7
BRANCH   6  35
ATOM     35  C   UNL A   1      30.446  22.969  27.250  1.00  0.00     0.191 C 
BRANCH  35  36
ATOM     36  O   UNL A   1      29.386  23.777  26.740  1.00  0.00    -0.394 OA
ATOM     37  H   UNL A   1      29.738  24.398  26.083  1.00  0.00     0.210 HD
ENDBRANCH  35  36
ENDBRANCH   6  35
ENDBRANCH   3   6
ENDBRANCH   1   2
BRANCH   1  38
ATOM     38  C   UNL A   1      31.893  27.418  25.187  1.00  0.00     0.023 C 
BRANCH  38  39
ATOM     39  C   UNL A   1      32.783  28.457  25.924  1.00  0.00     0.023 C 
BRANCH  39  40
ATOM     40  C   UNL A   1      32.939  29.973  25.578  1.00  0.00     0.116 C 
BRANCH  40  41
ATOM     41  N   UNL A   1      32.927  31.106  26.530  1.00  0.00    -0.352 N 
ATOM     42  C   UNL A   1      33.832  31.595  27.533  1.00  0.00     0.251 C 
ATOM     43  H   UNL A   1      32.109  31.651  26.459  1.00  0.00     0.163 HD
ATOM     44  O   UNL A   1      33.502  32.695  28.004  1.00  0.00    -0.269 OA
BRANCH  42  45
ATOM     45  C   UNL A   1      35.111  30.955  28.217  1.00  0.00     0.039 A 
ATOM     46  C   UNL A   1      36.300  31.694  28.234  1.00  0.00     0.014 A 
ATOM     47  C   UNL A   1      35.367  29.598  28.548  1.00  0.00     0.014 A 
ATOM     48  C   UNL A   1      37.592  31.166  28.691  1.00  0.00     0.010 A 
ATOM     49  C   UNL A   1      36.702  29.041  28.982  1.00  0.00     0.010 A 
ATOM     50  C   UNL A   1      37.885  29.808  29.086  1.00  0.00    -0.014 A 
BRANCH  50  51
ATOM     51  C   UNL A   1      39.491  29.287  28.987  1.00  0.00     0.031 A 
ATOM     52  C   UNL A   1      39.755  28.985  30.423  1.00  0.00     0.074 A 
ATOM     53  C   UNL A   1      40.644  29.116  28.173  1.00  0.00     0.049 A 
ATOM     54  N   UNL A   1      39.564  29.912  31.322  1.00  0.00    -0.248 NA
ATOM     55  C   UNL A   1      39.833  27.623  30.953  1.00  0.00     0.031 C 
ATOM     56  C   UNL A   1      40.822  29.443  26.742  1.00  0.00     0.029 A 
ATOM     57  N   UNL A   1      41.987  28.592  28.430  1.00  0.00    -0.354 N 
ATOM     58  C   UNL A   1      39.797  29.321  32.536  1.00  0.00     0.074 A 
ATOM     59  C   UNL A   1      39.725  27.890  32.260  1.00  0.00     0.031 C 
ATOM     60  C   UNL A   1      42.032  29.026  26.244  1.00  0.00     0.029 A 
ATOM     61  C   UNL A   1      42.879  28.426  27.279  1.00  0.00     0.049 A 
ATOM     62  H   UNL A   1      42.279  28.359  29.340  1.00  0.00     0.167 HD
ATOM     63  C   UNL A   1      40.684  29.987  33.329  1.00  0.00     0.037 A 
ATOM     64  C   UNL A   1      44.203  27.950  27.148  1.00  0.00     0.037 A 
ATOM     65  C   UNL A   1      42.000  29.418  33.257  1.00  0.00     0.049 A 
ATOM     66  C   UNL A   1      44.851  28.135  28.451  1.00  0.00     0.074 A 
ATOM     67  C   UNL A   1      42.457  28.115  33.254  1.00  0.00     0.029 A 
ATOM     68  N   UNL A   1      42.990  30.188  32.685  1.00  0.00    -0.354 N 
ATOM     69  N   UNL A   1      45.284  29.299  28.831  1.00  0.00    -0.248 NA
ATOM     70  C   UNL A   1      45.198  27.021  29.329  1.00  0.00     0.031 C 
ATOM     71  C   UNL A   1      43.393  28.084  32.202  1.00  0.00     0.029 A 
ATOM     72  C   UNL A   1      43.777  29.385  31.898  1.00  0.00     0.049 A 
ATOM     73  H   UNL A   1      43.113  31.155  32.820  1.00  0.00     0.167 HD
ATOM     74  C   UNL A   1      45.388  29.141  30.173  1.00  0.00     0.074 A 
ATOM     75  C   UNL A   1      45.631  27.724  30.380  1.00  0.00     0.031 C 
ATOM     76  C   UNL A   1      44.615  29.985  30.897  1.00  0.00     0.037 A 
BRANCH  63  77
ATOM     77  C   UNL A   1      40.427  31.463  33.427  1.00  0.00     0.064 A 
ATOM     78  C   UNL A   1      39.890  31.976  34.609  1.00  0.00     0.173 A 
ATOM     79  C   UNL A   1      40.619  32.362  32.356  1.00  0.00     0.173 A 
ATOM     80  F   UNL A   1      39.758  31.186  35.686  1.00  0.00    -0.203 F 
ATOM     81  C   UNL A   1      39.499  33.311  34.696  1.00  0.00     0.198 A 
ATOM     82  C   UNL A   1      40.164  33.672  32.421  1.00  0.00     0.198 A 
ATOM     83  F   UNL A   1      41.286  31.987  31.251  1.00  0.00    -0.203 F 
ATOM     84  F   UNL A   1      39.024  33.793  35.852  1.00  0.00    -0.200 F 
ATOM     85  C   UNL A   1      39.601  34.147  33.592  1.00  0.00     0.200 A 
ATOM     86  F   UNL A   1      40.291  34.476  31.355  1.00  0.00    -0.200 F 
ATOM     87  F   UNL A   1      39.189  35.420  33.667  1.00  0.00    -0.200 F 
ENDBRANCH  63  77
BRANCH  64  88
ATOM     88  C   UNL A   1      45.344  27.482  26.150  1.00  0.00     0.064 A 
ATOM     89  C   UNL A   1      46.569  28.238  25.984  1.00  0.00     0.173 A 
ATOM     90  C   UNL A   1      45.473  26.154  25.717  1.00  0.00     0.173 A 
ATOM     91  F   UNL A   1      46.640  29.538  26.301  1.00  0.00    -0.203 F 
ATOM     92  C   UNL A   1      47.799  27.691  25.559  1.00  0.00     0.198 A 
ATOM     93  C   UNL A   1      46.709  25.613  25.250  1.00  0.00     0.198 A 
ATOM     94  F   UNL A   1      44.433  25.318  25.820  1.00  0.00    -0.203 F 
ATOM     95  F   UNL A   1      48.915  28.440  25.566  1.00  0.00    -0.200 F 
ATOM     96  C   UNL A   1      47.873  26.367  25.208  1.00  0.00     0.200 A 
ATOM     97  F   UNL A   1      46.783  24.319  24.904  1.00  0.00    -0.200 F 
ATOM     98  F   UNL A   1      49.051  25.818  24.867  1.00  0.00    -0.200 F 
ENDBRANCH  64  88
BRANCH  76  99
ATOM     99  C   UNL A   1      44.582  31.431  30.426  1.00  0.00     0.064 A 
ATOM    100  C   UNL A   1      43.789  31.963  29.379  1.00  0.00     0.173 A 
ATOM    101  C   UNL A   1      45.512  32.308  30.994  1.00  0.00     0.173 A 
ATOM    102  F   UNL A   1      42.784  31.273  28.825  1.00  0.00    -0.203 F 
ATOM    103  C   UNL A   1      44.000  33.248  28.870  1.00  0.00     0.198 A 
ATOM    104  C   UNL A   1      45.686  33.609  30.519  1.00  0.00     0.198 A 
ATOM    105  F   UNL A   1      46.263  31.903  32.030  1.00  0.00    -0.203 F 
ATOM    106  F   UNL A   1      43.283  33.685  27.823  1.00  0.00    -0.200 F 
ATOM    107  C   UNL A   1      44.953  34.069  29.440  1.00  0.00     0.200 A 
ATOM    108  F   UNL A   1      46.577  34.415  31.114  1.00  0.00    -0.200 F 
ATOM    109  F   UNL A   1      45.155  35.305  28.961  1.00  0.00    -0.200 F 
ENDBRANCH  76  99
ENDBRANCH  50  51
ENDBRANCH  42  45
ENDBRANCH  40  41
ENDBRANCH  39  40
ENDBRANCH  38  39
ENDBRANCH   1  38
TORSDOF 19
ENDMDL
