MODEL 1
REMARK VINA RESULT:     -13.5      0.000      0.000
REMARK SMILES Cc1cc(S(=O)(=O)Nc2ccc(Cl)cc2F)ccc1OCC(=O)NCCCCNC(=O)c1ccc(-c2c3nc(c(-c4c(F)c(F)c(F)c(F)c4F)c4ccc([nH]4)c(-c4c(F)c(F)c(F)c(F)c4F)c4nc(c(-c5c(F)c(F)c(F)c(F)c5F)c5ccc2[nH]5)C=C4)C=C3)cc1
REMARK SMILES IDX 25 1 24 2 22 3 23 4 21 6 20 7 19 8 1 9 2 10 3 11 4 12 18 13
REMARK SMILES IDX 17 14 5 15 6 16 7 17 8 18 9 20 10 21 15 22 11 23 14 24 16 25
REMARK SMILES IDX 12 26 13 27 26 28 27 29 28 30 29 31 30 32 31 34 32 35 33 36
REMARK SMILES IDX 94 37 34 38 93 39 35 40 36 41 37 42 87 43 38 44 92 45 86 46
REMARK SMILES IDX 88 47 39 48 91 49 85 50 84 51 40 53 72 54 52 55 71 56 53 57
REMARK SMILES IDX 56 58 70 59 89 60 54 61 55 62 69 64 90 65 57 66 41 67 42 68
REMARK SMILES IDX 50 69 43 70 44 71 48 72 51 73 45 74 46 75 49 76 47 77 73 78
REMARK SMILES IDX 74 79 82 80 75 81 76 82 80 83 83 84 77 85 78 86 81 87 79 88
REMARK SMILES IDX 58 89 59 90 67 91 60 92 61 93 65 94 68 95 62 96 63 97 66 98
REMARK SMILES IDX 64 99
REMARK H PARENT 24 5 8 19 29 33 88 52 56 63
REMARK Flexibility Score: inf
ROOT
ATOM      1  C   UNL A   1      31.616  29.695  25.239  1.00  0.00     0.116 C 
ENDROOT
BRANCH   1   2
ATOM      2  N   UNL A   1      32.533  29.325  24.175  1.00  0.00    -0.353 N 
ATOM      3  C   UNL A   1      32.257  28.937  22.895  1.00  0.00     0.257 C 
ATOM      4  O   UNL A   1      33.201  28.798  22.113  1.00  0.00    -0.271 OA
ATOM      5  H   UNL A   1      33.487  29.360  24.409  1.00  0.00     0.163 HD
BRANCH   3   6
ATOM      6  C   UNL A   1      30.807  28.759  22.441  1.00  0.00     0.329 C 
BRANCH   6   7
ATOM      7  O   UNL A   1      30.281  27.453  22.347  1.00  0.00    -0.484 OA
BRANCH   7   8
ATOM      8  C   UNL A   1      30.638  26.477  23.231  1.00  0.00     0.123 A 
ATOM      9  C   UNL A   1      32.429  25.172  21.903  1.00  0.00     0.048 C 
ATOM     10  C   UNL A   1      31.528  25.410  23.078  1.00  0.00    -0.008 A 
ATOM     11  C   UNL A   1      31.605  24.454  24.120  1.00  0.00     0.029 A 
ATOM     12  C   UNL A   1      30.860  24.574  25.302  1.00  0.00     0.088 A 
ATOM     13  C   UNL A   1      29.907  26.582  24.425  1.00  0.00     0.048 A 
ATOM     14  C   UNL A   1      30.083  25.701  25.489  1.00  0.00     0.026 A 
BRANCH  12  15
ATOM     15  S   UNL A   1      30.882  23.174  26.399  1.00  0.00     0.262 S 
ATOM     16  O   UNL A   1      29.829  23.367  27.364  1.00  0.00    -0.201 OA
ATOM     17  O   UNL A   1      30.880  22.005  25.529  1.00  0.00    -0.201 OA
BRANCH  15  18
ATOM     18  N   UNL A   1      32.330  23.028  27.240  1.00  0.00    -0.277 N 
ATOM     19  H   UNL A   1      32.285  23.069  28.222  1.00  0.00     0.180 HD
BRANCH  18  20
ATOM     20  C   UNL A   1      33.614  22.850  26.655  1.00  0.00     0.085 A 
ATOM     21  C   UNL A   1      34.054  21.523  26.555  1.00  0.00     0.031 A 
ATOM     22  C   UNL A   1      34.406  23.871  26.119  1.00  0.00     0.148 A 
ATOM     23  C   UNL A   1      35.204  21.213  25.829  1.00  0.00     0.023 A 
ATOM     24  C   UNL A   1      35.555  23.566  25.387  1.00  0.00     0.062 A 
ATOM     25  F   UNL A   1      34.026  25.151  26.207  1.00  0.00    -0.205 F 
ATOM     26  C   UNL A   1      35.937  22.235  25.228  1.00  0.00     0.044 A 
ATOM     27  Cl  UNL A   1      37.297  21.836  24.255  1.00  0.00    -0.084 Cl
ENDBRANCH  18  20
ENDBRANCH  15  18
ENDBRANCH  12  15
ENDBRANCH   7   8
ENDBRANCH   6   7
ENDBRANCH   3   6
ENDBRANCH   1   2
BRANCH   1  28
ATOM     28  C   UNL A   1      31.911  29.006  26.576  1.00  0.00     0.023 C 
BRANCH  28  29
ATOM     29  C   UNL A   1      32.677  29.821  27.615  1.00  0.00     0.023 C 
BRANCH  29  30
ATOM     30  C   UNL A   1      33.950  30.445  27.082  1.00  0.00     0.116 C 
BRANCH  30  31
ATOM     31  N   UNL A   1      34.565  31.430  27.957  1.00  0.00    -0.352 N 
ATOM     32  C   UNL A   1      35.621  31.298  28.841  1.00  0.00     0.251 C 
ATOM     33  H   UNL A   1      34.169  32.330  27.913  1.00  0.00     0.163 HD
ATOM     34  O   UNL A   1      35.882  32.230  29.598  1.00  0.00    -0.269 OA
BRANCH  32  35
ATOM     35  C   UNL A   1      36.530  30.120  28.785  1.00  0.00     0.039 A 
ATOM     36  C   UNL A   1      36.667  29.328  29.938  1.00  0.00     0.014 A 
ATOM     37  C   UNL A   1      37.387  29.906  27.714  1.00  0.00     0.014 A 
ATOM     38  C   UNL A   1      37.798  28.527  30.101  1.00  0.00     0.010 A 
ATOM     39  C   UNL A   1      38.572  29.246  27.929  1.00  0.00     0.010 A 
ATOM     40  C   UNL A   1      38.800  28.595  29.142  1.00  0.00    -0.014 A 
BRANCH  40  41
ATOM     41  C   UNL A   1      40.157  28.099  29.302  1.00  0.00     0.031 A 
ATOM     42  C   UNL A   1      40.532  26.780  28.751  1.00  0.00     0.074 A 
ATOM     43  C   UNL A   1      41.106  28.973  29.706  1.00  0.00     0.049 A 
ATOM     44  N   UNL A   1      41.634  26.172  29.026  1.00  0.00    -0.248 NA
ATOM     45  C   UNL A   1      39.678  26.023  27.840  1.00  0.00     0.031 C 
ATOM     46  C   UNL A   1      42.549  28.870  29.507  1.00  0.00     0.029 A 
ATOM     47  N   UNL A   1      40.953  30.099  30.535  1.00  0.00    -0.354 N 
ATOM     48  C   UNL A   1      41.767  25.118  28.151  1.00  0.00     0.074 A 
ATOM     49  C   UNL A   1      40.500  25.039  27.462  1.00  0.00     0.031 C 
ATOM     50  C   UNL A   1      43.170  29.666  30.392  1.00  0.00     0.029 A 
ATOM     51  C   UNL A   1      42.149  30.174  31.289  1.00  0.00     0.049 A 
ATOM     52  H   UNL A   1      40.179  30.707  30.580  1.00  0.00     0.167 HD
ATOM     53  C   UNL A   1      42.982  24.513  28.030  1.00  0.00     0.037 A 
ATOM     54  C   UNL A   1      42.148  29.987  32.641  1.00  0.00     0.037 A 
ATOM     55  C   UNL A   1      43.949  25.110  28.945  1.00  0.00     0.049 A 
ATOM     56  C   UNL A   1      43.009  28.834  33.098  1.00  0.00     0.074 A 
ATOM     57  C   UNL A   1      44.915  26.089  28.777  1.00  0.00     0.029 A 
ATOM     58  N   UNL A   1      43.777  24.953  30.314  1.00  0.00    -0.354 N 
ATOM     59  N   UNL A   1      43.351  27.837  32.329  1.00  0.00    -0.248 NA
ATOM     60  C   UNL A   1      43.551  28.709  34.447  1.00  0.00     0.031 C 
ATOM     61  C   UNL A   1      45.308  26.541  30.060  1.00  0.00     0.029 A 
ATOM     62  C   UNL A   1      44.592  25.825  31.004  1.00  0.00     0.049 A 
ATOM     63  H   UNL A   1      43.160  24.309  30.733  1.00  0.00     0.167 HD
ATOM     64  C   UNL A   1      44.135  26.960  33.035  1.00  0.00     0.074 A 
ATOM     65  C   UNL A   1      44.236  27.555  34.353  1.00  0.00     0.031 C 
ATOM     66  C   UNL A   1      44.626  25.821  32.458  1.00  0.00     0.037 A 
BRANCH  53  67
ATOM     67  C   UNL A   1      43.370  23.563  26.923  1.00  0.00     0.064 A 
ATOM     68  C   UNL A   1      42.968  22.208  26.961  1.00  0.00     0.173 A 
ATOM     69  C   UNL A   1      44.152  23.913  25.809  1.00  0.00     0.173 A 
ATOM     70  F   UNL A   1      42.151  21.744  27.915  1.00  0.00    -0.203 F 
ATOM     71  C   UNL A   1      43.394  21.269  26.019  1.00  0.00     0.198 A 
ATOM     72  C   UNL A   1      44.622  22.964  24.894  1.00  0.00     0.198 A 
ATOM     73  F   UNL A   1      44.441  25.193  25.537  1.00  0.00    -0.203 F 
ATOM     74  F   UNL A   1      42.977  19.998  26.111  1.00  0.00    -0.200 F 
ATOM     75  C   UNL A   1      44.248  21.640  25.002  1.00  0.00     0.200 A 
ATOM     76  F   UNL A   1      45.436  23.347  23.899  1.00  0.00    -0.200 F 
ATOM     77  F   UNL A   1      44.688  20.734  24.120  1.00  0.00    -0.200 F 
ENDBRANCH  53  67
BRANCH  54  78
ATOM     78  C   UNL A   1      40.875  30.424  33.275  1.00  0.00     0.064 A 
ATOM     79  C   UNL A   1      40.659  31.809  33.415  1.00  0.00     0.173 A 
ATOM     80  C   UNL A   1      39.755  29.585  33.304  1.00  0.00     0.173 A 
ATOM     81  F   UNL A   1      41.702  32.654  33.392  1.00  0.00    -0.203 F 
ATOM     82  C   UNL A   1      39.372  32.342  33.435  1.00  0.00     0.198 A 
ATOM     83  C   UNL A   1      38.466  30.124  33.343  1.00  0.00     0.198 A 
ATOM     84  F   UNL A   1      39.895  28.260  33.160  1.00  0.00    -0.203 F 
ATOM     85  F   UNL A   1      39.199  33.671  33.433  1.00  0.00    -0.200 F 
ATOM     86  C   UNL A   1      38.276  31.499  33.364  1.00  0.00     0.200 A 
ATOM     87  F   UNL A   1      37.401  29.313  33.251  1.00  0.00    -0.200 F 
ATOM     88  F   UNL A   1      37.041  32.010  33.269  1.00  0.00    -0.200 F 
ENDBRANCH  54  78
BRANCH  66  89
ATOM     89  C   UNL A   1      45.265  24.636  33.152  1.00  0.00     0.064 A 
ATOM     90  C   UNL A   1      46.581  24.617  33.638  1.00  0.00     0.173 A 
ATOM     91  C   UNL A   1      44.481  23.502  33.498  1.00  0.00     0.173 A 
ATOM     92  F   UNL A   1      47.399  25.666  33.486  1.00  0.00    -0.203 F 
ATOM     93  C   UNL A   1      47.089  23.535  34.365  1.00  0.00     0.198 A 
ATOM     94  C   UNL A   1      44.970  22.456  34.278  1.00  0.00     0.198 A 
ATOM     95  F   UNL A   1      43.200  23.384  33.119  1.00  0.00    -0.203 F 
ATOM     96  F   UNL A   1      48.365  23.553  34.773  1.00  0.00    -0.200 F 
ATOM     97  C   UNL A   1      46.280  22.464  34.699  1.00  0.00     0.200 A 
ATOM     98  F   UNL A   1      44.153  21.456  34.638  1.00  0.00    -0.200 F 
ATOM     99  F   UNL A   1      46.757  21.458  35.444  1.00  0.00    -0.200 F 
ENDBRANCH  66  89
ENDBRANCH  40  41
ENDBRANCH  32  35
ENDBRANCH  30  31
ENDBRANCH  29  30
ENDBRANCH  28  29
ENDBRANCH   1  28
TORSDOF 16
ENDMDL
MODEL 2
REMARK VINA RESULT:     -13.4      0.605      1.685
REMARK SMILES Cc1cc(S(=O)(=O)Nc2ccc(Cl)cc2F)ccc1OCC(=O)NCCCCNC(=O)c1ccc(-c2c3nc(c(-c4c(F)c(F)c(F)c(F)c4F)c4ccc([nH]4)c(-c4c(F)c(F)c(F)c(F)c4F)c4nc(c(-c5c(F)c(F)c(F)c(F)c5F)c5ccc2[nH]5)C=C4)C=C3)cc1
REMARK SMILES IDX 25 1 24 2 22 3 23 4 21 6 20 7 19 8 1 9 2 10 3 11 4 12 18 13
REMARK SMILES IDX 17 14 5 15 6 16 7 17 8 18 9 20 10 21 15 22 11 23 14 24 16 25
REMARK SMILES IDX 12 26 13 27 26 28 27 29 28 30 29 31 30 32 31 34 32 35 33 36
REMARK SMILES IDX 94 37 34 38 93 39 35 40 36 41 37 42 87 43 38 44 92 45 86 46
REMARK SMILES IDX 88 47 39 48 91 49 85 50 84 51 40 53 72 54 52 55 71 56 53 57
REMARK SMILES IDX 56 58 70 59 89 60 54 61 55 62 69 64 90 65 57 66 41 67 42 68
REMARK SMILES IDX 50 69 43 70 44 71 48 72 51 73 45 74 46 75 49 76 47 77 73 78
REMARK SMILES IDX 74 79 82 80 75 81 76 82 80 83 83 84 77 85 78 86 81 87 79 88
REMARK SMILES IDX 58 89 59 90 67 91 60 92 61 93 65 94 68 95 62 96 63 97 66 98
REMARK SMILES IDX 64 99
REMARK H PARENT 24 5 8 19 29 33 88 52 56 63
REMARK Flexibility Score: inf
ROOT
ATOM      1  C   UNL A   1      31.868  29.418  24.942  1.00  0.00     0.116 C 
ENDROOT
BRANCH   1   2
ATOM      2  N   UNL A   1      30.748  30.080  24.297  1.00  0.00    -0.353 N 
ATOM      3  C   UNL A   1      30.056  29.714  23.178  1.00  0.00     0.257 C 
ATOM      4  O   UNL A   1      29.046  30.356  22.881  1.00  0.00    -0.271 OA
ATOM      5  H   UNL A   1      30.444  30.910  24.729  1.00  0.00     0.163 HD
BRANCH   3   6
ATOM      6  C   UNL A   1      30.495  28.490  22.371  1.00  0.00     0.329 C 
BRANCH   6   7
ATOM      7  O   UNL A   1      29.804  27.274  22.554  1.00  0.00    -0.484 OA
BRANCH   7   8
ATOM      8  C   UNL A   1      30.251  26.325  23.426  1.00  0.00     0.123 A 
ATOM      9  C   UNL A   1      32.034  25.092  22.019  1.00  0.00     0.048 C 
ATOM     10  C   UNL A   1      31.183  25.300  23.237  1.00  0.00    -0.008 A 
ATOM     11  C   UNL A   1      31.358  24.360  24.282  1.00  0.00     0.029 A 
ATOM     12  C   UNL A   1      30.670  24.457  25.500  1.00  0.00     0.088 A 
ATOM     13  C   UNL A   1      29.578  26.409  24.655  1.00  0.00     0.048 A 
ATOM     14  C   UNL A   1      29.850  25.548  25.717  1.00  0.00     0.026 A 
BRANCH  12  15
ATOM     15  S   UNL A   1      30.814  23.072  26.606  1.00  0.00     0.262 S 
ATOM     16  O   UNL A   1      29.810  23.230  27.627  1.00  0.00    -0.201 OA
ATOM     17  O   UNL A   1      30.815  21.895  25.748  1.00  0.00    -0.201 OA
BRANCH  15  18
ATOM     18  N   UNL A   1      32.312  22.999  27.365  1.00  0.00    -0.277 N 
ATOM     19  H   UNL A   1      32.319  23.037  28.348  1.00  0.00     0.180 HD
BRANCH  18  20
ATOM     20  C   UNL A   1      33.569  22.887  26.709  1.00  0.00     0.085 A 
ATOM     21  C   UNL A   1      34.067  21.584  26.577  1.00  0.00     0.031 A 
ATOM     22  C   UNL A   1      34.280  23.947  26.138  1.00  0.00     0.148 A 
ATOM     23  C   UNL A   1      35.190  21.333  25.787  1.00  0.00     0.023 A 
ATOM     24  C   UNL A   1      35.400  23.702  25.341  1.00  0.00     0.062 A 
ATOM     25  F   UNL A   1      33.843  25.206  26.254  1.00  0.00    -0.205 F 
ATOM     26  C   UNL A   1      35.837  22.392  25.153  1.00  0.00     0.044 A 
ATOM     27  Cl  UNL A   1      37.159  22.064  24.104  1.00  0.00    -0.084 Cl
ENDBRANCH  18  20
ENDBRANCH  15  18
ENDBRANCH  12  15
ENDBRANCH   7   8
ENDBRANCH   6   7
ENDBRANCH   3   6
ENDBRANCH   1   2
BRANCH   1  28
ATOM     28  C   UNL A   1      31.806  29.445  26.473  1.00  0.00     0.023 C 
BRANCH  28  29
ATOM     29  C   UNL A   1      32.545  30.582  27.172  1.00  0.00     0.023 C 
BRANCH  29  30
ATOM     30  C   UNL A   1      34.028  30.328  27.348  1.00  0.00     0.116 C 
BRANCH  30  31
ATOM     31  N   UNL A   1      34.776  31.427  27.937  1.00  0.00    -0.352 N 
ATOM     32  C   UNL A   1      35.967  31.416  28.639  1.00  0.00     0.251 C 
ATOM     33  H   UNL A   1      34.371  32.316  27.817  1.00  0.00     0.163 HD
ATOM     34  O   UNL A   1      36.346  32.451  29.182  1.00  0.00    -0.269 OA
BRANCH  32  35
ATOM     35  C   UNL A   1      36.863  30.227  28.620  1.00  0.00     0.039 A 
ATOM     36  C   UNL A   1      36.891  29.394  29.751  1.00  0.00     0.014 A 
ATOM     37  C   UNL A   1      37.804  30.035  27.618  1.00  0.00     0.014 A 
ATOM     38  C   UNL A   1      37.993  28.571  29.982  1.00  0.00     0.010 A 
ATOM     39  C   UNL A   1      38.958  29.349  27.909  1.00  0.00     0.010 A 
ATOM     40  C   UNL A   1      39.074  28.654  29.113  1.00  0.00    -0.014 A 
BRANCH  40  41
ATOM     41  C   UNL A   1      40.406  28.132  29.371  1.00  0.00     0.031 A 
ATOM     42  C   UNL A   1      40.806  26.822  28.816  1.00  0.00     0.074 A 
ATOM     43  C   UNL A   1      41.332  28.980  29.874  1.00  0.00     0.049 A 
ATOM     44  N   UNL A   1      41.872  26.189  29.163  1.00  0.00    -0.248 NA
ATOM     45  C   UNL A   1      40.019  26.103  27.818  1.00  0.00     0.031 C 
ATOM     46  C   UNL A   1      42.785  28.858  29.790  1.00  0.00     0.029 A 
ATOM     47  N   UNL A   1      41.127  30.086  30.718  1.00  0.00    -0.354 N 
ATOM     48  C   UNL A   1      42.061  25.156  28.274  1.00  0.00     0.074 A 
ATOM     49  C   UNL A   1      40.855  25.115  27.482  1.00  0.00     0.031 C 
ATOM     50  C   UNL A   1      43.342  29.620  30.744  1.00  0.00     0.029 A 
ATOM     51  C   UNL A   1      42.259  30.121  31.568  1.00  0.00     0.049 A 
ATOM     52  H   UNL A   1      40.361  30.705  30.716  1.00  0.00     0.167 HD
ATOM     53  C   UNL A   1      43.274  24.534  28.237  1.00  0.00     0.037 A 
ATOM     54  C   UNL A   1      42.143  29.900  32.911  1.00  0.00     0.037 A 
ATOM     55  C   UNL A   1      44.171  25.091  29.243  1.00  0.00     0.049 A 
ATOM     56  C   UNL A   1      42.948  28.722  33.405  1.00  0.00     0.074 A 
ATOM     57  C   UNL A   1      45.162  26.057  29.182  1.00  0.00     0.029 A 
ATOM     58  N   UNL A   1      43.885  24.901  30.589  1.00  0.00    -0.354 N 
ATOM     59  N   UNL A   1      43.337  27.739  32.640  1.00  0.00    -0.248 NA
ATOM     60  C   UNL A   1      43.375  28.553  34.790  1.00  0.00     0.031 C 
ATOM     61  C   UNL A   1      45.454  26.470  30.504  1.00  0.00     0.029 A 
ATOM     62  C   UNL A   1      44.653  25.742  31.367  1.00  0.00     0.049 A 
ATOM     63  H   UNL A   1      43.226  24.257  30.938  1.00  0.00     0.167 HD
ATOM     64  C   UNL A   1      44.047  26.831  33.383  1.00  0.00     0.074 A 
ATOM     65  C   UNL A   1      44.048  27.390  34.721  1.00  0.00     0.031 C 
ATOM     66  C   UNL A   1      44.568  25.700  32.817  1.00  0.00     0.037 A 
BRANCH  53  67
ATOM     67  C   UNL A   1      43.737  23.606  27.140  1.00  0.00     0.064 A 
ATOM     68  C   UNL A   1      44.621  24.061  26.133  1.00  0.00     0.173 A 
ATOM     69  C   UNL A   1      43.335  22.266  27.007  1.00  0.00     0.173 A 
ATOM     70  F   UNL A   1      45.156  25.288  26.171  1.00  0.00    -0.203 F 
ATOM     71  C   UNL A   1      44.988  23.273  25.041  1.00  0.00     0.198 A 
ATOM     72  C   UNL A   1      43.660  21.493  25.886  1.00  0.00     0.198 A 
ATOM     73  F   UNL A   1      42.661  21.643  27.982  1.00  0.00    -0.203 F 
ATOM     74  F   UNL A   1      45.829  23.763  24.120  1.00  0.00    -0.200 F 
ATOM     75  C   UNL A   1      44.481  21.998  24.899  1.00  0.00     0.200 A 
ATOM     76  F   UNL A   1      43.175  20.248  25.775  1.00  0.00    -0.200 F 
ATOM     77  F   UNL A   1      44.802  21.255  23.833  1.00  0.00    -0.200 F 
ENDBRANCH  53  67
BRANCH  54  78
ATOM     78  C   UNL A   1      40.830  30.342  33.450  1.00  0.00     0.064 A 
ATOM     79  C   UNL A   1      40.619  31.726  33.602  1.00  0.00     0.173 A 
ATOM     80  C   UNL A   1      39.700  29.518  33.372  1.00  0.00     0.173 A 
ATOM     81  F   UNL A   1      41.671  32.557  33.680  1.00  0.00    -0.203 F 
ATOM     82  C   UNL A   1      39.341  32.276  33.531  1.00  0.00     0.198 A 
ATOM     83  C   UNL A   1      38.419  30.074  33.319  1.00  0.00     0.198 A 
ATOM     84  F   UNL A   1      39.835  28.194  33.211  1.00  0.00    -0.203 F 
ATOM     85  F   UNL A   1      39.185  33.608  33.543  1.00  0.00    -0.200 F 
ATOM     86  C   UNL A   1      38.245  31.450  33.355  1.00  0.00     0.200 A 
ATOM     87  F   UNL A   1      37.355  29.279  33.126  1.00  0.00    -0.200 F 
ATOM     88  F   UNL A   1      37.028  31.980  33.173  1.00  0.00    -0.200 F 
ENDBRANCH  54  78
BRANCH  66  89
ATOM     89  C   UNL A   1      45.131  24.487  33.529  1.00  0.00     0.064 A 
ATOM     90  C   UNL A   1      44.402  23.319  33.801  1.00  0.00     0.173 A 
ATOM     91  C   UNL A   1      46.520  24.410  33.822  1.00  0.00     0.173 A 
ATOM     92  F   UNL A   1      43.110  23.207  33.472  1.00  0.00    -0.203 F 
ATOM     93  C   UNL A   1      44.999  22.187  34.368  1.00  0.00     0.198 A 
ATOM     94  C   UNL A   1      47.122  23.258  34.325  1.00  0.00     0.198 A 
ATOM     95  F   UNL A   1      47.349  25.441  33.601  1.00  0.00    -0.203 F 
ATOM     96  F   UNL A   1      44.248  21.112  34.642  1.00  0.00    -0.200 F 
ATOM     97  C   UNL A   1      46.359  22.150  34.613  1.00  0.00     0.200 A 
ATOM     98  F   UNL A   1      48.451  23.226  34.502  1.00  0.00    -0.200 F 
ATOM     99  F   UNL A   1      46.933  21.043  35.101  1.00  0.00    -0.200 F 
ENDBRANCH  66  89
ENDBRANCH  40  41
ENDBRANCH  32  35
ENDBRANCH  30  31
ENDBRANCH  29  30
ENDBRANCH  28  29
ENDBRANCH   1  28
TORSDOF 16
ENDMDL
MODEL 3
REMARK VINA RESULT:     -13.3      3.606      9.687
REMARK SMILES Cc1cc(S(=O)(=O)Nc2ccc(Cl)cc2F)ccc1OCC(=O)NCCCCNC(=O)c1ccc(-c2c3nc(c(-c4c(F)c(F)c(F)c(F)c4F)c4ccc([nH]4)c(-c4c(F)c(F)c(F)c(F)c4F)c4nc(c(-c5c(F)c(F)c(F)c(F)c5F)c5ccc2[nH]5)C=C4)C=C3)cc1
REMARK SMILES IDX 25 1 24 2 22 3 23 4 21 6 20 7 19 8 1 9 2 10 3 11 4 12 18 13
REMARK SMILES IDX 17 14 5 15 6 16 7 17 8 18 9 20 10 21 15 22 11 23 14 24 16 25
REMARK SMILES IDX 12 26 13 27 26 28 27 29 28 30 29 31 30 32 31 34 32 35 33 36
REMARK SMILES IDX 94 37 34 38 93 39 35 40 36 41 37 42 87 43 38 44 92 45 86 46
REMARK SMILES IDX 88 47 39 48 91 49 85 50 84 51 40 53 72 54 52 55 71 56 53 57
REMARK SMILES IDX 56 58 70 59 89 60 54 61 55 62 69 64 90 65 57 66 41 67 42 68
REMARK SMILES IDX 50 69 43 70 44 71 48 72 51 73 45 74 46 75 49 76 47 77 73 78
REMARK SMILES IDX 74 79 82 80 75 81 76 82 80 83 83 84 77 85 78 86 81 87 79 88
REMARK SMILES IDX 58 89 59 90 67 91 60 92 61 93 65 94 68 95 62 96 63 97 66 98
REMARK SMILES IDX 64 99
REMARK H PARENT 24 5 8 19 29 33 88 52 56 63
REMARK Flexibility Score: inf
ROOT
ATOM      1  C   UNL A   1      35.208  20.745  25.469  1.00  0.00     0.116 C 
ENDROOT
BRANCH   1   2
ATOM      2  N   UNL A   1      34.179  19.721  25.519  1.00  0.00    -0.353 N 
ATOM      3  C   UNL A   1      32.841  19.830  25.271  1.00  0.00     0.257 C 
ATOM      4  O   UNL A   1      32.168  18.796  25.241  1.00  0.00    -0.271 OA
ATOM      5  H   UNL A   1      34.491  18.821  25.766  1.00  0.00     0.163 HD
BRANCH   3   6
ATOM      6  C   UNL A   1      32.225  21.197  24.965  1.00  0.00     0.329 C 
BRANCH   6   7
ATOM      7  O   UNL A   1      32.287  21.689  23.644  1.00  0.00    -0.484 OA
BRANCH   7   8
ATOM      8  C   UNL A   1      32.272  23.027  23.382  1.00  0.00     0.123 A 
ATOM      9  C   UNL A   1      34.791  23.605  23.368  1.00  0.00     0.048 C 
ATOM     10  C   UNL A   1      33.330  23.939  23.307  1.00  0.00    -0.008 A 
ATOM     11  C   UNL A   1      33.014  25.311  23.157  1.00  0.00     0.029 A 
ATOM     12  C   UNL A   1      31.693  25.767  23.033  1.00  0.00     0.088 A 
ATOM     13  C   UNL A   1      30.958  23.503  23.249  1.00  0.00     0.048 A 
ATOM     14  C   UNL A   1      30.671  24.840  22.981  1.00  0.00     0.026 A 
BRANCH  12  15
ATOM     15  S   UNL A   1      31.452  27.528  23.099  1.00  0.00     0.262 S 
ATOM     16  O   UNL A   1      32.738  28.146  22.896  1.00  0.00    -0.201 OA
ATOM     17  O   UNL A   1      30.350  27.798  22.185  1.00  0.00    -0.201 OA
BRANCH  15  18
ATOM     18  N   UNL A   1      30.860  28.049  24.583  1.00  0.00    -0.277 N 
ATOM     19  H   UNL A   1      29.955  27.755  24.834  1.00  0.00     0.180 HD
BRANCH  18  20
ATOM     20  C   UNL A   1      31.554  28.877  25.509  1.00  0.00     0.085 A 
ATOM     21  C   UNL A   1      32.531  28.233  26.281  1.00  0.00     0.031 A 
ATOM     22  C   UNL A   1      31.387  30.259  25.639  1.00  0.00     0.148 A 
ATOM     23  C   UNL A   1      33.402  28.975  27.079  1.00  0.00     0.023 A 
ATOM     24  C   UNL A   1      32.260  31.007  26.431  1.00  0.00     0.062 A 
ATOM     25  F   UNL A   1      30.457  30.907  24.929  1.00  0.00    -0.205 F 
ATOM     26  C   UNL A   1      33.278  30.361  27.131  1.00  0.00     0.044 A 
ATOM     27  Cl  UNL A   1      34.417  31.275  28.039  1.00  0.00    -0.084 Cl
ENDBRANCH  18  20
ENDBRANCH  15  18
ENDBRANCH  12  15
ENDBRANCH   7   8
ENDBRANCH   6   7
ENDBRANCH   3   6
ENDBRANCH   1   2
BRANCH   1  28
ATOM     28  C   UNL A   1      36.563  20.236  24.965  1.00  0.00     0.023 C 
BRANCH  28  29
ATOM     29  C   UNL A   1      37.579  21.293  24.538  1.00  0.00     0.023 C 
BRANCH  29  30
ATOM     30  C   UNL A   1      38.033  22.194  25.668  1.00  0.00     0.116 C 
BRANCH  30  31
ATOM     31  N   UNL A   1      39.418  22.021  26.075  1.00  0.00    -0.352 N 
ATOM     32  C   UNL A   1      40.354  22.961  26.462  1.00  0.00     0.251 C 
ATOM     33  H   UNL A   1      39.737  21.089  26.075  1.00  0.00     0.163 HD
ATOM     34  O   UNL A   1      41.521  22.608  26.621  1.00  0.00    -0.269 OA
BRANCH  32  35
ATOM     35  C   UNL A   1      39.950  24.346  26.833  1.00  0.00     0.039 A 
ATOM     36  C   UNL A   1      40.458  25.415  26.076  1.00  0.00     0.014 A 
ATOM     37  C   UNL A   1      39.263  24.617  28.008  1.00  0.00     0.014 A 
ATOM     38  C   UNL A   1      40.497  26.697  26.623  1.00  0.00     0.010 A 
ATOM     39  C   UNL A   1      39.435  25.837  28.616  1.00  0.00     0.010 A 
ATOM     40  C   UNL A   1      40.096  26.866  27.943  1.00  0.00    -0.014 A 
BRANCH  40  41
ATOM     41  C   UNL A   1      40.370  28.032  28.766  1.00  0.00     0.031 A 
ATOM     42  C   UNL A   1      39.360  29.105  28.887  1.00  0.00     0.074 A 
ATOM     43  C   UNL A   1      41.420  27.975  29.615  1.00  0.00     0.049 A 
ATOM     44  N   UNL A   1      39.594  30.257  29.412  1.00  0.00    -0.248 NA
ATOM     45  C   UNL A   1      37.987  28.967  28.410  1.00  0.00     0.031 C 
ATOM     46  C   UNL A   1      41.629  28.769  30.823  1.00  0.00     0.029 A 
ATOM     47  N   UNL A   1      42.621  27.258  29.463  1.00  0.00    -0.354 N 
ATOM     48  C   UNL A   1      38.387  30.893  29.595  1.00  0.00     0.074 A 
ATOM     49  C   UNL A   1      37.419  30.068  28.912  1.00  0.00     0.031 C 
ATOM     50  C   UNL A   1      42.932  28.744  31.142  1.00  0.00     0.029 A 
ATOM     51  C   UNL A   1      43.618  28.069  30.056  1.00  0.00     0.049 A 
ATOM     52  H   UNL A   1      42.741  26.378  29.036  1.00  0.00     0.167 HD
ATOM     53  C   UNL A   1      38.336  31.984  30.411  1.00  0.00     0.037 A 
ATOM     54  C   UNL A   1      44.616  28.627  29.309  1.00  0.00     0.037 A 
ATOM     55  C   UNL A   1      39.663  32.310  30.921  1.00  0.00     0.049 A 
ATOM     56  C   UNL A   1      44.648  30.135  29.364  1.00  0.00     0.074 A 
ATOM     57  C   UNL A   1      40.311  32.006  32.107  1.00  0.00     0.029 A 
ATOM     58  N   UNL A   1      40.639  32.758  30.040  1.00  0.00    -0.354 N 
ATOM     59  N   UNL A   1      43.618  30.870  29.679  1.00  0.00    -0.248 NA
ATOM     60  C   UNL A   1      45.833  30.934  29.070  1.00  0.00     0.031 C 
ATOM     61  C   UNL A   1      41.694  32.250  31.927  1.00  0.00     0.029 A 
ATOM     62  C   UNL A   1      41.881  32.717  30.637  1.00  0.00     0.049 A 
ATOM     63  H   UNL A   1      40.468  33.062  29.118  1.00  0.00     0.167 HD
ATOM     64  C   UNL A   1      43.969  32.195  29.642  1.00  0.00     0.074 A 
ATOM     65  C   UNL A   1      45.368  32.181  29.262  1.00  0.00     0.031 C 
ATOM     66  C   UNL A   1      43.064  33.180  29.930  1.00  0.00     0.037 A 
BRANCH  53  67
ATOM     67  C   UNL A   1      37.070  32.604  30.949  1.00  0.00     0.064 A 
ATOM     68  C   UNL A   1      36.287  33.464  30.143  1.00  0.00     0.173 A 
ATOM     69  C   UNL A   1      36.580  32.413  32.252  1.00  0.00     0.173 A 
ATOM     70  F   UNL A   1      36.580  33.677  28.854  1.00  0.00    -0.203 F 
ATOM     71  C   UNL A   1      35.171  34.146  30.632  1.00  0.00     0.198 A 
ATOM     72  C   UNL A   1      35.492  33.134  32.758  1.00  0.00     0.198 A 
ATOM     73  F   UNL A   1      37.101  31.481  33.061  1.00  0.00    -0.203 F 
ATOM     74  F   UNL A   1      34.471  34.947  29.817  1.00  0.00    -0.200 F 
ATOM     75  C   UNL A   1      34.791  34.006  31.950  1.00  0.00     0.200 A 
ATOM     76  F   UNL A   1      35.124  32.971  34.038  1.00  0.00    -0.200 F 
ATOM     77  F   UNL A   1      33.744  34.688  32.431  1.00  0.00    -0.200 F 
ENDBRANCH  53  67
BRANCH  54  78
ATOM     78  C   UNL A   1      44.979  27.793  28.132  1.00  0.00     0.064 A 
ATOM     79  C   UNL A   1      45.734  26.627  28.367  1.00  0.00     0.173 A 
ATOM     80  C   UNL A   1      44.247  27.864  26.940  1.00  0.00     0.173 A 
ATOM     81  F   UNL A   1      46.450  26.511  29.497  1.00  0.00    -0.203 F 
ATOM     82  C   UNL A   1      45.644  25.525  27.520  1.00  0.00     0.198 A 
ATOM     83  C   UNL A   1      44.176  26.762  26.084  1.00  0.00     0.198 A 
ATOM     84  F   UNL A   1      43.498  28.942  26.667  1.00  0.00    -0.203 F 
ATOM     85  F   UNL A   1      46.267  24.382  27.842  1.00  0.00    -0.200 F 
ATOM     86  C   UNL A   1      44.837  25.582  26.396  1.00  0.00     0.200 A 
ATOM     87  F   UNL A   1      43.378  26.805  25.007  1.00  0.00    -0.200 F 
ATOM     88  F   UNL A   1      44.659  24.490  25.641  1.00  0.00    -0.200 F 
ENDBRANCH  54  78
BRANCH  66  89
ATOM     89  C   UNL A   1      43.207  34.667  29.678  1.00  0.00     0.064 A 
ATOM     90  C   UNL A   1      43.422  35.624  30.682  1.00  0.00     0.173 A 
ATOM     91  C   UNL A   1      43.293  35.162  28.348  1.00  0.00     0.173 A 
ATOM     92  F   UNL A   1      43.482  35.282  31.975  1.00  0.00    -0.203 F 
ATOM     93  C   UNL A   1      43.651  36.972  30.385  1.00  0.00     0.198 A 
ATOM     94  C   UNL A   1      43.587  36.493  28.056  1.00  0.00     0.198 A 
ATOM     95  F   UNL A   1      43.126  34.364  27.283  1.00  0.00    -0.203 F 
ATOM     96  F   UNL A   1      43.812  37.851  31.384  1.00  0.00    -0.200 F 
ATOM     97  C   UNL A   1      43.751  37.403  29.075  1.00  0.00     0.200 A 
ATOM     98  F   UNL A   1      43.735  36.876  26.780  1.00  0.00    -0.200 F 
ATOM     99  F   UNL A   1      44.028  38.683  28.799  1.00  0.00    -0.200 F 
ENDBRANCH  66  89
ENDBRANCH  40  41
ENDBRANCH  32  35
ENDBRANCH  30  31
ENDBRANCH  29  30
ENDBRANCH  28  29
ENDBRANCH   1  28
TORSDOF 16
ENDMDL
