MODEL 1
REMARK VINA RESULT:     -11.8      0.000      0.000
REMARK SMILES C[C@@H](NC(=O)[C@@H](C)NC(=O)C(C)(C)C)C(=O)NCCCCNC(=O)c1ccc(-c2c3nc(c(-c4c(F)c(F)c(F)c(F)c4F)c4ccc([nH]4)c(-c4c(F)c(F)c(F)c(F)c4F)c4nc(c(-c5c(F)c(F)c(F)c(F)c5F)c5ccc2[nH]5)C=C4)C=C3)cc1
REMARK SMILES IDX 18 1 17 2 15 3 16 4 2 6 1 7 3 8 4 9 5 11 6 12 7 13 8 14 9 15
REMARK SMILES IDX 10 17 11 18 12 19 13 20 14 21 19 22 20 23 21 24 22 25 23 26
REMARK SMILES IDX 24 28 25 29 26 30 87 31 27 32 86 33 28 34 29 35 30 36 80 37
REMARK SMILES IDX 31 38 85 39 79 40 81 41 32 42 84 43 78 44 77 45 33 47 65 48
REMARK SMILES IDX 45 49 64 50 46 51 49 52 63 53 82 54 47 55 48 56 62 58 83 59
REMARK SMILES IDX 50 60 34 61 35 62 43 63 36 64 37 65 41 66 44 67 38 68 39 69
REMARK SMILES IDX 42 70 40 71 66 72 67 73 75 74 68 75 69 76 73 77 76 78 70 79
REMARK SMILES IDX 71 80 74 81 72 82 51 83 52 84 60 85 53 86 54 87 58 88 61 89
REMARK SMILES IDX 55 90 56 91 59 92 57 93
REMARK H PARENT 17 5 3 10 8 16 22 27 81 46 49 57
REMARK Flexibility Score: inf
ROOT
ATOM      1  C   UNL A   1      31.969  29.817  25.460  1.00  0.00     0.116 C 
ENDROOT
BRANCH   1   2
ATOM      2  N   UNL A   1      30.988  30.214  24.463  1.00  0.00    -0.354 N 
ATOM      3  C   UNL A   1      30.219  29.481  23.612  1.00  0.00     0.242 C 
ATOM      4  O   UNL A   1      29.421  30.100  22.902  1.00  0.00    -0.273 OA
ATOM      5  H   UNL A   1      30.854  31.187  24.392  1.00  0.00     0.163 HD
BRANCH   3   6
ATOM      6  C   UNL A   1      30.381  27.965  23.424  1.00  0.00     0.168 C 
ATOM      7  C   UNL A   1      28.998  27.303  23.501  1.00  0.00     0.041 C 
BRANCH   6   8
ATOM      8  N   UNL A   1      31.087  27.495  22.235  1.00  0.00    -0.343 N 
ATOM      9  C   UNL A   1      31.488  26.245  21.872  1.00  0.00     0.242 C 
ATOM     10  H   UNL A   1      31.310  28.201  21.586  1.00  0.00     0.164 HD
ATOM     11  O   UNL A   1      31.587  26.052  20.654  1.00  0.00    -0.273 OA
BRANCH   9  12
ATOM     12  C   UNL A   1      31.991  25.158  22.858  1.00  0.00     0.168 C 
ATOM     13  C   UNL A   1      30.870  24.188  23.170  1.00  0.00     0.041 C 
BRANCH  12  14
ATOM     14  N   UNL A   1      33.224  24.449  22.562  1.00  0.00    -0.344 N 
ATOM     15  C   UNL A   1      34.247  24.083  23.391  1.00  0.00     0.226 C 
ATOM     16  H   UNL A   1      33.339  24.193  21.619  1.00  0.00     0.164 HD
ATOM     17  O   UNL A   1      35.154  23.436  22.853  1.00  0.00    -0.275 OA
BRANCH  15  18
ATOM     18  C   UNL A   1      34.309  24.416  24.920  1.00  0.00     0.041 C 
ATOM     19  C   UNL A   1      34.041  25.895  25.230  1.00  0.00     0.021 C 
ATOM     20  C   UNL A   1      33.391  23.518  25.762  1.00  0.00     0.021 C 
ATOM     21  C   UNL A   1      35.753  24.122  25.406  1.00  0.00     0.021 C 
ENDBRANCH  15  18
ENDBRANCH  12  14
ENDBRANCH   9  12
ENDBRANCH   6   8
ENDBRANCH   3   6
ENDBRANCH   1   2
BRANCH   1  22
ATOM     22  C   UNL A   1      31.744  30.501  26.813  1.00  0.00     0.023 C 
BRANCH  22  23
ATOM     23  C   UNL A   1      31.540  32.022  26.800  1.00  0.00     0.023 C 
BRANCH  23  24
ATOM     24  C   UNL A   1      32.767  32.878  27.092  1.00  0.00     0.116 C 
BRANCH  24  25
ATOM     25  N   UNL A   1      32.444  34.206  27.579  1.00  0.00    -0.352 N 
ATOM     26  C   UNL A   1      32.986  34.927  28.617  1.00  0.00     0.251 C 
ATOM     27  H   UNL A   1      31.723  34.663  27.090  1.00  0.00     0.163 HD
ATOM     28  O   UNL A   1      32.469  35.985  28.956  1.00  0.00    -0.269 OA
BRANCH  26  29
ATOM     29  C   UNL A   1      34.168  34.424  29.351  1.00  0.00     0.039 A 
ATOM     30  C   UNL A   1      33.964  33.762  30.566  1.00  0.00     0.014 A 
ATOM     31  C   UNL A   1      35.467  34.616  28.872  1.00  0.00     0.014 A 
ATOM     32  C   UNL A   1      35.054  33.229  31.259  1.00  0.00     0.010 A 
ATOM     33  C   UNL A   1      36.545  34.021  29.528  1.00  0.00     0.010 A 
ATOM     34  C   UNL A   1      36.350  33.315  30.726  1.00  0.00    -0.014 A 
BRANCH  34  35
ATOM     35  C   UNL A   1      37.499  32.655  31.402  1.00  0.00     0.031 A 
ATOM     36  C   UNL A   1      38.204  31.494  30.757  1.00  0.00     0.074 A 
ATOM     37  C   UNL A   1      37.881  33.073  32.625  1.00  0.00     0.049 A 
ATOM     38  N   UNL A   1      39.193  30.766  31.216  1.00  0.00    -0.248 NA
ATOM     39  C   UNL A   1      37.720  31.079  29.433  1.00  0.00     0.031 C 
ATOM     40  C   UNL A   1      37.254  34.160  33.379  1.00  0.00     0.029 A 
ATOM     41  N   UNL A   1      38.881  32.629  33.456  1.00  0.00    -0.354 N 
ATOM     42  C   UNL A   1      39.445  29.810  30.241  1.00  0.00     0.074 A 
ATOM     43  C   UNL A   1      38.467  30.011  29.193  1.00  0.00     0.031 C 
ATOM     44  C   UNL A   1      37.895  34.312  34.549  1.00  0.00     0.029 A 
ATOM     45  C   UNL A   1      38.949  33.307  34.649  1.00  0.00     0.049 A 
ATOM     46  H   UNL A   1      39.491  31.893  33.219  1.00  0.00     0.167 HD
ATOM     47  C   UNL A   1      40.417  28.866  30.210  1.00  0.00     0.037 A 
ATOM     48  C   UNL A   1      39.760  33.134  35.710  1.00  0.00     0.037 A 
ATOM     49  C   UNL A   1      41.394  28.672  31.251  1.00  0.00     0.049 A 
ATOM     50  C   UNL A   1      40.813  32.058  35.664  1.00  0.00     0.074 A 
ATOM     51  C   UNL A   1      42.447  27.772  31.290  1.00  0.00     0.029 A 
ATOM     52  N   UNL A   1      41.434  29.382  32.443  1.00  0.00    -0.354 N 
ATOM     53  N   UNL A   1      41.085  31.206  34.706  1.00  0.00    -0.248 NA
ATOM     54  C   UNL A   1      41.678  31.927  36.845  1.00  0.00     0.031 C 
ATOM     55  C   UNL A   1      43.085  27.898  32.528  1.00  0.00     0.029 A 
ATOM     56  C   UNL A   1      42.474  28.922  33.235  1.00  0.00     0.049 A 
ATOM     57  H   UNL A   1      40.813  30.106  32.689  1.00  0.00     0.167 HD
ATOM     58  C   UNL A   1      42.167  30.460  35.154  1.00  0.00     0.074 A 
ATOM     59  C   UNL A   1      42.513  30.972  36.463  1.00  0.00     0.031 C 
ATOM     60  C   UNL A   1      42.815  29.442  34.535  1.00  0.00     0.037 A 
BRANCH  47  61
ATOM     61  C   UNL A   1      40.474  27.966  29.007  1.00  0.00     0.064 A 
ATOM     62  C   UNL A   1      39.715  26.787  28.933  1.00  0.00     0.173 A 
ATOM     63  C   UNL A   1      41.267  28.303  27.899  1.00  0.00     0.173 A 
ATOM     64  F   UNL A   1      38.946  26.413  29.967  1.00  0.00    -0.203 F 
ATOM     65  C   UNL A   1      39.775  25.964  27.812  1.00  0.00     0.198 A 
ATOM     66  C   UNL A   1      41.297  27.495  26.765  1.00  0.00     0.198 A 
ATOM     67  F   UNL A   1      42.006  29.423  27.911  1.00  0.00    -0.203 F 
ATOM     68  F   UNL A   1      39.085  24.815  27.789  1.00  0.00    -0.200 F 
ATOM     69  C   UNL A   1      40.560  26.322  26.726  1.00  0.00     0.200 A 
ATOM     70  F   UNL A   1      42.043  27.852  25.711  1.00  0.00    -0.200 F 
ATOM     71  F   UNL A   1      40.610  25.532  25.644  1.00  0.00    -0.200 F 
ENDBRANCH  47  61
BRANCH  48  72
ATOM     72  C   UNL A   1      39.616  34.006  36.906  1.00  0.00     0.064 A 
ATOM     73  C   UNL A   1      40.275  35.241  36.985  1.00  0.00     0.173 A 
ATOM     74  C   UNL A   1      38.824  33.620  37.999  1.00  0.00     0.173 A 
ATOM     75  F   UNL A   1      41.060  35.646  35.975  1.00  0.00    -0.203 F 
ATOM     76  C   UNL A   1      40.167  36.045  38.118  1.00  0.00     0.198 A 
ATOM     77  C   UNL A   1      38.691  34.440  39.118  1.00  0.00     0.198 A 
ATOM     78  F   UNL A   1      38.168  32.452  37.974  1.00  0.00    -0.203 F 
ATOM     79  F   UNL A   1      40.849  37.196  38.187  1.00  0.00    -0.200 F 
ATOM     80  C   UNL A   1      39.370  35.647  39.180  1.00  0.00     0.200 A 
ATOM     81  F   UNL A   1      37.905  34.060  40.133  1.00  0.00    -0.200 F 
ATOM     82  F   UNL A   1      39.263  36.423  40.268  1.00  0.00    -0.200 F 
ENDBRANCH  48  72
BRANCH  60  83
ATOM     83  C   UNL A   1      43.992  28.837  35.247  1.00  0.00     0.064 A 
ATOM     84  C   UNL A   1      43.852  27.739  36.111  1.00  0.00     0.173 A 
ATOM     85  C   UNL A   1      45.285  29.338  35.031  1.00  0.00     0.173 A 
ATOM     86  F   UNL A   1      42.637  27.230  36.363  1.00  0.00    -0.203 F 
ATOM     87  C   UNL A   1      44.958  27.188  36.754  1.00  0.00     0.198 A 
ATOM     88  C   UNL A   1      46.392  28.763  35.649  1.00  0.00     0.198 A 
ATOM     89  F   UNL A   1      45.478  30.383  34.210  1.00  0.00    -0.203 F 
ATOM     90  F   UNL A   1      44.792  26.175  37.616  1.00  0.00    -0.200 F 
ATOM     91  C   UNL A   1      46.227  27.694  36.516  1.00  0.00     0.200 A 
ATOM     92  F   UNL A   1      47.619  29.242  35.404  1.00  0.00    -0.200 F 
ATOM     93  F   UNL A   1      47.290  27.155  37.129  1.00  0.00    -0.200 F 
ENDBRANCH  60  83
ENDBRANCH  34  35
ENDBRANCH  26  29
ENDBRANCH  24  25
ENDBRANCH  23  24
ENDBRANCH  22  23
ENDBRANCH   1  22
TORSDOF 15
ENDMDL
MODEL 2
REMARK VINA RESULT:     -11.5      0.712      7.519
REMARK SMILES C[C@@H](NC(=O)[C@@H](C)NC(=O)C(C)(C)C)C(=O)NCCCCNC(=O)c1ccc(-c2c3nc(c(-c4c(F)c(F)c(F)c(F)c4F)c4ccc([nH]4)c(-c4c(F)c(F)c(F)c(F)c4F)c4nc(c(-c5c(F)c(F)c(F)c(F)c5F)c5ccc2[nH]5)C=C4)C=C3)cc1
REMARK SMILES IDX 18 1 17 2 15 3 16 4 2 6 1 7 3 8 4 9 5 11 6 12 7 13 8 14 9 15
REMARK SMILES IDX 10 17 11 18 12 19 13 20 14 21 19 22 20 23 21 24 22 25 23 26
REMARK SMILES IDX 24 28 25 29 26 30 87 31 27 32 86 33 28 34 29 35 30 36 80 37
REMARK SMILES IDX 31 38 85 39 79 40 81 41 32 42 84 43 78 44 77 45 33 47 65 48
REMARK SMILES IDX 45 49 64 50 46 51 49 52 63 53 82 54 47 55 48 56 62 58 83 59
REMARK SMILES IDX 50 60 34 61 35 62 43 63 36 64 37 65 41 66 44 67 38 68 39 69
REMARK SMILES IDX 42 70 40 71 66 72 67 73 75 74 68 75 69 76 73 77 76 78 70 79
REMARK SMILES IDX 71 80 74 81 72 82 51 83 52 84 60 85 53 86 54 87 58 88 61 89
REMARK SMILES IDX 55 90 56 91 59 92 57 93
REMARK H PARENT 17 5 3 10 8 16 22 27 81 46 49 57
REMARK Flexibility Score: inf
ROOT
ATOM      1  C   UNL A   1      31.899  29.887  25.351  1.00  0.00     0.116 C 
ENDROOT
BRANCH   1   2
ATOM      2  N   UNL A   1      30.908  30.190  24.330  1.00  0.00    -0.354 N 
ATOM      3  C   UNL A   1      30.195  29.384  23.498  1.00  0.00     0.242 C 
ATOM      4  O   UNL A   1      29.371  29.929  22.757  1.00  0.00    -0.273 OA
ATOM      5  H   UNL A   1      30.719  31.151  24.222  1.00  0.00     0.163 HD
BRANCH   3   6
ATOM      6  C   UNL A   1      30.448  27.873  23.368  1.00  0.00     0.168 C 
ATOM      7  C   UNL A   1      29.112  27.131  23.517  1.00  0.00     0.041 C 
BRANCH   6   8
ATOM      8  N   UNL A   1      31.145  27.398  22.176  1.00  0.00    -0.343 N 
ATOM      9  C   UNL A   1      31.534  26.145  21.811  1.00  0.00     0.242 C 
ATOM     10  H   UNL A   1      31.374  28.103  21.527  1.00  0.00     0.164 HD
ATOM     11  O   UNL A   1      31.628  25.951  20.593  1.00  0.00    -0.273 OA
BRANCH   9  12
ATOM     12  C   UNL A   1      32.030  25.052  22.796  1.00  0.00     0.168 C 
ATOM     13  C   UNL A   1      30.898  24.098  23.119  1.00  0.00     0.041 C 
BRANCH  12  14
ATOM     14  N   UNL A   1      33.250  24.326  22.492  1.00  0.00    -0.344 N 
ATOM     15  C   UNL A   1      34.278  23.952  23.313  1.00  0.00     0.226 C 
ATOM     16  H   UNL A   1      33.353  24.063  21.549  1.00  0.00     0.164 HD
ATOM     17  O   UNL A   1      35.171  23.290  22.770  1.00  0.00    -0.275 OA
BRANCH  15  18
ATOM     18  C   UNL A   1      34.359  24.292  24.839  1.00  0.00     0.041 C 
ATOM     19  C   UNL A   1      33.314  23.548  25.683  1.00  0.00     0.021 C 
ATOM     20  C   UNL A   1      35.764  24.081  25.421  1.00  0.00     0.021 C 
ATOM     21  C   UNL A   1      34.054  25.804  25.000  1.00  0.00     0.021 C 
ENDBRANCH  15  18
ENDBRANCH  12  14
ENDBRANCH   9  12
ENDBRANCH   6   8
ENDBRANCH   3   6
ENDBRANCH   1   2
BRANCH   1  22
ATOM     22  C   UNL A   1      31.530  30.470  26.720  1.00  0.00     0.023 C 
BRANCH  22  23
ATOM     23  C   UNL A   1      31.414  31.998  26.819  1.00  0.00     0.023 C 
BRANCH  23  24
ATOM     24  C   UNL A   1      32.701  32.764  27.099  1.00  0.00     0.116 C 
BRANCH  24  25
ATOM     25  N   UNL A   1      32.479  34.097  27.625  1.00  0.00    -0.352 N 
ATOM     26  C   UNL A   1      33.094  34.756  28.663  1.00  0.00     0.251 C 
ATOM     27  H   UNL A   1      31.777  34.613  27.166  1.00  0.00     0.163 HD
ATOM     28  O   UNL A   1      32.656  35.837  29.042  1.00  0.00    -0.269 OA
BRANCH  26  29
ATOM     29  C   UNL A   1      34.259  34.159  29.353  1.00  0.00     0.039 A 
ATOM     30  C   UNL A   1      34.025  33.251  30.390  1.00  0.00     0.014 A 
ATOM     31  C   UNL A   1      35.570  34.498  29.008  1.00  0.00     0.014 A 
ATOM     32  C   UNL A   1      35.102  32.630  31.027  1.00  0.00     0.010 A 
ATOM     33  C   UNL A   1      36.641  33.824  29.595  1.00  0.00     0.010 A 
ATOM     34  C   UNL A   1      36.419  32.877  30.608  1.00  0.00    -0.014 A 
BRANCH  34  35
ATOM     35  C   UNL A   1      37.563  32.138  31.205  1.00  0.00     0.031 A 
ATOM     36  C   UNL A   1      38.063  32.479  32.582  1.00  0.00     0.074 A 
ATOM     37  C   UNL A   1      38.188  31.185  30.484  1.00  0.00     0.049 A 
ATOM     38  N   UNL A   1      39.075  31.974  33.245  1.00  0.00    -0.248 NA
ATOM     39  C   UNL A   1      37.347  33.543  33.300  1.00  0.00     0.031 C 
ATOM     40  C   UNL A   1      37.830  30.788  29.122  1.00  0.00     0.029 A 
ATOM     41  N   UNL A   1      39.261  30.383  30.792  1.00  0.00    -0.354 N 
ATOM     42  C   UNL A   1      39.118  32.660  34.452  1.00  0.00     0.074 A 
ATOM     43  C   UNL A   1      38.069  33.658  34.405  1.00  0.00     0.031 C 
ATOM     44  C   UNL A   1      38.653  29.806  28.719  1.00  0.00     0.029 A 
ATOM     45  C   UNL A   1      39.623  29.533  29.775  1.00  0.00     0.049 A 
ATOM     46  H   UNL A   1      39.727  30.415  31.659  1.00  0.00     0.167 HD
ATOM     47  C   UNL A   1      39.939  32.462  35.511  1.00  0.00     0.037 A 
ATOM     48  C   UNL A   1      40.630  28.642  29.696  1.00  0.00     0.037 A 
ATOM     49  C   UNL A   1      40.977  31.465  35.558  1.00  0.00     0.049 A 
ATOM     50  C   UNL A   1      41.548  28.461  30.875  1.00  0.00     0.074 A 
ATOM     51  C   UNL A   1      41.831  31.157  36.604  1.00  0.00     0.029 A 
ATOM     52  N   UNL A   1      41.311  30.619  34.510  1.00  0.00    -0.354 N 
ATOM     53  N   UNL A   1      41.534  29.068  32.037  1.00  0.00    -0.248 NA
ATOM     54  C   UNL A   1      42.618  27.464  30.735  1.00  0.00     0.031 C 
ATOM     55  C   UNL A   1      42.719  30.167  36.169  1.00  0.00     0.029 A 
ATOM     56  C   UNL A   1      42.376  29.809  34.875  1.00  0.00     0.049 A 
ATOM     57  H   UNL A   1      40.858  30.597  33.636  1.00  0.00     0.167 HD
ATOM     58  C   UNL A   1      42.568  28.508  32.774  1.00  0.00     0.074 A 
ATOM     59  C   UNL A   1      43.179  27.499  31.935  1.00  0.00     0.031 C 
ATOM     60  C   UNL A   1      42.975  28.803  34.034  1.00  0.00     0.037 A 
BRANCH  47  61
ATOM     61  C   UNL A   1      39.748  33.345  36.713  1.00  0.00     0.064 A 
ATOM     62  C   UNL A   1      40.404  34.581  36.831  1.00  0.00     0.173 A 
ATOM     63  C   UNL A   1      38.871  32.970  37.743  1.00  0.00     0.173 A 
ATOM     64  F   UNL A   1      41.260  34.984  35.880  1.00  0.00    -0.203 F 
ATOM     65  C   UNL A   1      40.216  35.390  37.949  1.00  0.00     0.198 A 
ATOM     66  C   UNL A   1      38.659  33.798  38.843  1.00  0.00     0.198 A 
ATOM     67  F   UNL A   1      38.210  31.804  37.679  1.00  0.00    -0.203 F 
ATOM     68  F   UNL A   1      40.897  36.538  38.064  1.00  0.00    -0.200 F 
ATOM     69  C   UNL A   1      39.338  35.002  38.950  1.00  0.00     0.200 A 
ATOM     70  F   UNL A   1      37.798  33.429  39.800  1.00  0.00    -0.200 F 
ATOM     71  F   UNL A   1      39.153  35.785  40.021  1.00  0.00    -0.200 F 
ENDBRANCH  47  61
BRANCH  48  72
ATOM     72  C   UNL A   1      40.819  27.843  28.455  1.00  0.00     0.064 A 
ATOM     73  C   UNL A   1      40.145  26.628  28.267  1.00  0.00     0.173 A 
ATOM     74  C   UNL A   1      41.683  28.272  27.436  1.00  0.00     0.173 A 
ATOM     75  F   UNL A   1      39.323  26.165  29.221  1.00  0.00    -0.203 F 
ATOM     76  C   UNL A   1      40.345  25.862  27.120  1.00  0.00     0.198 A 
ATOM     77  C   UNL A   1      41.858  27.521  26.275  1.00  0.00     0.198 A 
ATOM     78  F   UNL A   1      42.348  29.429  27.562  1.00  0.00    -0.203 F 
ATOM     79  F   UNL A   1      39.727  24.680  26.991  1.00  0.00    -0.200 F 
ATOM     80  C   UNL A   1      41.196  26.313  26.122  1.00  0.00     0.200 A 
ATOM     81  F   UNL A   1      42.666  27.970  25.306  1.00  0.00    -0.200 F 
ATOM     82  F   UNL A   1      41.384  25.578  25.018  1.00  0.00    -0.200 F 
ENDBRANCH  48  72
BRANCH  60  83
ATOM     83  C   UNL A   1      44.111  27.999  34.601  1.00  0.00     0.064 A 
ATOM     84  C   UNL A   1      43.898  26.780  35.263  1.00  0.00     0.173 A 
ATOM     85  C   UNL A   1      45.435  28.436  34.445  1.00  0.00     0.173 A 
ATOM     86  F   UNL A   1      42.651  26.323  35.453  1.00  0.00    -0.203 F 
ATOM     87  C   UNL A   1      44.966  26.047  35.774  1.00  0.00     0.198 A 
ATOM     88  C   UNL A   1      46.502  27.683  34.926  1.00  0.00     0.198 A 
ATOM     89  F   UNL A   1      45.697  29.592  33.813  1.00  0.00    -0.203 F 
ATOM     90  F   UNL A   1      44.735  24.913  36.451  1.00  0.00    -0.200 F 
ATOM     91  C   UNL A   1      46.267  26.494  35.597  1.00  0.00     0.200 A 
ATOM     92  F   UNL A   1      47.759  28.109  34.739  1.00  0.00    -0.200 F 
ATOM     93  F   UNL A   1      47.294  25.781  36.082  1.00  0.00    -0.200 F 
ENDBRANCH  60  83
ENDBRANCH  34  35
ENDBRANCH  26  29
ENDBRANCH  24  25
ENDBRANCH  23  24
ENDBRANCH  22  23
ENDBRANCH   1  22
TORSDOF 15
ENDMDL
MODEL 3
REMARK VINA RESULT:     -11.3      1.429      3.106
REMARK SMILES C[C@@H](NC(=O)[C@@H](C)NC(=O)C(C)(C)C)C(=O)NCCCCNC(=O)c1ccc(-c2c3nc(c(-c4c(F)c(F)c(F)c(F)c4F)c4ccc([nH]4)c(-c4c(F)c(F)c(F)c(F)c4F)c4nc(c(-c5c(F)c(F)c(F)c(F)c5F)c5ccc2[nH]5)C=C4)C=C3)cc1
REMARK SMILES IDX 18 1 17 2 15 3 16 4 2 6 1 7 3 8 4 9 5 11 6 12 7 13 8 14 9 15
REMARK SMILES IDX 10 17 11 18 12 19 13 20 14 21 19 22 20 23 21 24 22 25 23 26
REMARK SMILES IDX 24 28 25 29 26 30 87 31 27 32 86 33 28 34 29 35 30 36 80 37
REMARK SMILES IDX 31 38 85 39 79 40 81 41 32 42 84 43 78 44 77 45 33 47 65 48
REMARK SMILES IDX 45 49 64 50 46 51 49 52 63 53 82 54 47 55 48 56 62 58 83 59
REMARK SMILES IDX 50 60 34 61 35 62 43 63 36 64 37 65 41 66 44 67 38 68 39 69
REMARK SMILES IDX 42 70 40 71 66 72 67 73 75 74 68 75 69 76 73 77 76 78 70 79
REMARK SMILES IDX 71 80 74 81 72 82 51 83 52 84 60 85 53 86 54 87 58 88 61 89
REMARK SMILES IDX 55 90 56 91 59 92 57 93
REMARK H PARENT 17 5 3 10 8 16 22 27 81 46 49 57
REMARK Flexibility Score: inf
ROOT
ATOM      1  C   UNL A   1      33.954  29.824  27.186  1.00  0.00     0.116 C 
ENDROOT
BRANCH   1   2
ATOM      2  N   UNL A   1      32.762  29.189  27.725  1.00  0.00    -0.354 N 
ATOM      3  C   UNL A   1      31.992  28.171  27.256  1.00  0.00     0.242 C 
ATOM      4  O   UNL A   1      31.054  27.801  27.969  1.00  0.00    -0.273 OA
ATOM      5  H   UNL A   1      32.459  29.563  28.585  1.00  0.00     0.163 HD
BRANCH   3   6
ATOM      6  C   UNL A   1      32.171  27.553  25.860  1.00  0.00     0.168 C 
ATOM      7  C   UNL A   1      32.911  26.215  25.998  1.00  0.00     0.041 C 
BRANCH   6   8
ATOM      8  N   UNL A   1      30.979  27.374  25.035  1.00  0.00    -0.343 N 
ATOM      9  C   UNL A   1      30.725  27.732  23.746  1.00  0.00     0.242 C 
ATOM     10  H   UNL A   1      30.232  26.919  25.488  1.00  0.00     0.164 HD
ATOM     11  O   UNL A   1      29.886  27.039  23.157  1.00  0.00    -0.273 OA
BRANCH   9  12
ATOM     12  C   UNL A   1      31.262  29.020  23.064  1.00  0.00     0.168 C 
ATOM     13  C   UNL A   1      32.750  28.886  22.811  1.00  0.00     0.041 C 
BRANCH  12  14
ATOM     14  N   UNL A   1      30.580  29.537  21.892  1.00  0.00    -0.344 N 
ATOM     15  C   UNL A   1      29.472  30.332  21.799  1.00  0.00     0.226 C 
ATOM     16  H   UNL A   1      30.978  29.275  21.030  1.00  0.00     0.164 HD
ATOM     17  O   UNL A   1      29.150  30.654  20.649  1.00  0.00    -0.275 OA
BRANCH  15  18
ATOM     18  C   UNL A   1      28.644  30.841  23.026  1.00  0.00     0.041 C 
ATOM     19  C   UNL A   1      27.553  29.856  23.474  1.00  0.00     0.021 C 
ATOM     20  C   UNL A   1      29.528  31.236  24.218  1.00  0.00     0.021 C 
ATOM     21  C   UNL A   1      27.910  32.137  22.593  1.00  0.00     0.021 C 
ENDBRANCH  15  18
ENDBRANCH  12  14
ENDBRANCH   9  12
ENDBRANCH   6   8
ENDBRANCH   3   6
ENDBRANCH   1   2
BRANCH   1  22
ATOM     22  C   UNL A   1      34.348  31.089  27.958  1.00  0.00     0.023 C 
BRANCH  22  23
ATOM     23  C   UNL A   1      33.948  32.436  27.340  1.00  0.00     0.023 C 
BRANCH  23  24
ATOM     24  C   UNL A   1      32.502  32.875  27.538  1.00  0.00     0.116 C 
BRANCH  24  25
ATOM     25  N   UNL A   1      32.361  34.288  27.834  1.00  0.00    -0.352 N 
ATOM     26  C   UNL A   1      33.052  35.084  28.716  1.00  0.00     0.251 C 
ATOM     27  H   UNL A   1      31.659  34.751  27.321  1.00  0.00     0.163 HD
ATOM     28  O   UNL A   1      32.678  36.233  28.919  1.00  0.00    -0.269 OA
BRANCH  26  29
ATOM     29  C   UNL A   1      34.223  34.557  29.451  1.00  0.00     0.039 A 
ATOM     30  C   UNL A   1      34.007  33.907  30.670  1.00  0.00     0.014 A 
ATOM     31  C   UNL A   1      35.525  34.716  28.969  1.00  0.00     0.014 A 
ATOM     32  C   UNL A   1      35.085  33.352  31.364  1.00  0.00     0.010 A 
ATOM     33  C   UNL A   1      36.590  34.099  29.626  1.00  0.00     0.010 A 
ATOM     34  C   UNL A   1      36.382  33.405  30.828  1.00  0.00    -0.014 A 
BRANCH  34  35
ATOM     35  C   UNL A   1      37.517  32.722  31.505  1.00  0.00     0.031 A 
ATOM     36  C   UNL A   1      38.205  31.552  30.857  1.00  0.00     0.074 A 
ATOM     37  C   UNL A   1      37.899  33.126  32.733  1.00  0.00     0.049 A 
ATOM     38  N   UNL A   1      39.180  30.806  31.316  1.00  0.00    -0.248 NA
ATOM     39  C   UNL A   1      37.720  31.154  29.528  1.00  0.00     0.031 C 
ATOM     40  C   UNL A   1      37.287  34.219  33.490  1.00  0.00     0.029 A 
ATOM     41  N   UNL A   1      38.888  32.660  33.565  1.00  0.00    -0.354 N 
ATOM     42  C   UNL A   1      39.420  29.851  30.337  1.00  0.00     0.074 A 
ATOM     43  C   UNL A   1      38.450  30.075  29.285  1.00  0.00     0.031 C 
ATOM     44  C   UNL A   1      37.925  34.353  34.664  1.00  0.00     0.029 A 
ATOM     45  C   UNL A   1      38.962  33.330  34.763  1.00  0.00     0.049 A 
ATOM     46  H   UNL A   1      39.487  31.916  33.327  1.00  0.00     0.167 HD
ATOM     47  C   UNL A   1      40.377  28.892  30.304  1.00  0.00     0.037 A 
ATOM     48  C   UNL A   1      39.765  33.137  35.826  1.00  0.00     0.037 A 
ATOM     49  C   UNL A   1      41.345  28.675  31.348  1.00  0.00     0.049 A 
ATOM     50  C   UNL A   1      40.800  32.045  35.779  1.00  0.00     0.074 A 
ATOM     51  C   UNL A   1      42.382  27.758  31.387  1.00  0.00     0.029 A 
ATOM     52  N   UNL A   1      41.391  29.378  32.545  1.00  0.00    -0.354 N 
ATOM     53  N   UNL A   1      41.062  31.193  34.817  1.00  0.00    -0.248 NA
ATOM     54  C   UNL A   1      41.657  31.892  36.963  1.00  0.00     0.031 C 
ATOM     55  C   UNL A   1      43.017  27.865  32.629  1.00  0.00     0.029 A 
ATOM     56  C   UNL A   1      42.420  28.895  33.339  1.00  0.00     0.049 A 
ATOM     57  H   UNL A   1      40.782  30.110  32.792  1.00  0.00     0.167 HD
ATOM     58  C   UNL A   1      42.130  30.427  35.266  1.00  0.00     0.074 A 
ATOM     59  C   UNL A   1      42.478  30.925  36.579  1.00  0.00     0.031 C 
ATOM     60  C   UNL A   1      42.764  29.402  34.644  1.00  0.00     0.037 A 
BRANCH  47  61
ATOM     61  C   UNL A   1      40.424  27.998  29.097  1.00  0.00     0.064 A 
ATOM     62  C   UNL A   1      39.682  26.808  29.031  1.00  0.00     0.173 A 
ATOM     63  C   UNL A   1      41.190  28.351  27.975  1.00  0.00     0.173 A 
ATOM     64  F   UNL A   1      38.938  26.417  30.078  1.00  0.00    -0.203 F 
ATOM     65  C   UNL A   1      39.733  25.990  27.905  1.00  0.00     0.198 A 
ATOM     66  C   UNL A   1      41.211  27.549  26.837  1.00  0.00     0.198 A 
ATOM     67  F   UNL A   1      41.913  29.482  27.978  1.00  0.00    -0.203 F 
ATOM     68  F   UNL A   1      39.059  24.832  27.889  1.00  0.00    -0.200 F 
ATOM     69  C   UNL A   1      40.491  26.365  26.806  1.00  0.00     0.200 A 
ATOM     70  F   UNL A   1      41.932  27.922  25.770  1.00  0.00    -0.200 F 
ATOM     71  F   UNL A   1      40.533  25.581  25.720  1.00  0.00    -0.200 F 
ENDBRANCH  47  61
BRANCH  48  72
ATOM     72  C   UNL A   1      39.630  34.005  37.027  1.00  0.00     0.064 A 
ATOM     73  C   UNL A   1      38.847  33.611  38.121  1.00  0.00     0.173 A 
ATOM     74  C   UNL A   1      40.273  35.250  37.102  1.00  0.00     0.173 A 
ATOM     75  F   UNL A   1      38.196  32.438  38.089  1.00  0.00    -0.203 F 
ATOM     76  C   UNL A   1      38.693  34.436  39.233  1.00  0.00     0.198 A 
ATOM     77  C   UNL A   1      40.145  36.060  38.229  1.00  0.00     0.198 A 
ATOM     78  F   UNL A   1      41.038  35.674  36.087  1.00  0.00    -0.203 F 
ATOM     79  F   UNL A   1      37.898  34.055  40.242  1.00  0.00    -0.200 F 
ATOM     80  C   UNL A   1      39.348  35.657  39.289  1.00  0.00     0.200 A 
ATOM     81  F   UNL A   1      40.794  37.231  38.286  1.00  0.00    -0.200 F 
ATOM     82  F   UNL A   1      39.203  36.449  40.361  1.00  0.00    -0.200 F 
ENDBRANCH  48  72
BRANCH  60  83
ATOM     83  C   UNL A   1      43.927  28.773  35.357  1.00  0.00     0.064 A 
ATOM     84  C   UNL A   1      43.759  27.703  36.250  1.00  0.00     0.173 A 
ATOM     85  C   UNL A   1      45.234  29.223  35.115  1.00  0.00     0.173 A 
ATOM     86  F   UNL A   1      42.529  27.244  36.529  1.00  0.00    -0.203 F 
ATOM     87  C   UNL A   1      44.852  27.129  36.894  1.00  0.00     0.198 A 
ATOM     88  C   UNL A   1      46.327  28.624  35.734  1.00  0.00     0.198 A 
ATOM     89  F   UNL A   1      45.454  30.239  34.266  1.00  0.00    -0.203 F 
ATOM     90  F   UNL A   1      44.661  26.144  37.783  1.00  0.00    -0.200 F 
ATOM     91  C   UNL A   1      46.135  27.583  36.629  1.00  0.00     0.200 A 
ATOM     92  F   UNL A   1      47.568  29.053  35.464  1.00  0.00    -0.200 F 
ATOM     93  F   UNL A   1      47.186  27.023  37.244  1.00  0.00    -0.200 F 
ENDBRANCH  60  83
ENDBRANCH  34  35
ENDBRANCH  26  29
ENDBRANCH  24  25
ENDBRANCH  23  24
ENDBRANCH  22  23
ENDBRANCH   1  22
TORSDOF 15
ENDMDL
