MODEL 1
REMARK VINA RESULT:     -11.6      0.000      0.000
REMARK SMILES O=C(/C=C/C(=O)Nc1ccccn1)NCCCCNC(=O)c1ccc(-c2c3nc(c(-c4c(F)c(F)c(F)c(F)c4F)c4ccc([nH]4)c(-c4c(F)c(F)c(F)c(F)c4F)c4nc(c(-c5c(F)c(F)c(F)c(F)c5F)c5ccc2[nH]5)C=C4)C=C3)cc1
REMARK SMILES IDX 16 1 15 2 14 3 1 4 2 5 3 7 4 8 5 9 6 10 7 11 8 13 9 14 13 15
REMARK SMILES IDX 10 16 12 17 11 18 17 19 18 20 19 21 20 22 21 24 22 25 23 26
REMARK SMILES IDX 84 27 24 28 83 29 25 30 26 31 27 32 77 33 28 34 82 35 76 36
REMARK SMILES IDX 78 37 29 38 81 39 75 40 74 41 30 43 62 44 42 45 61 46 43 47
REMARK SMILES IDX 46 48 60 49 79 50 44 51 45 52 59 54 80 55 47 56 31 57 32 58
REMARK SMILES IDX 40 59 33 60 34 61 38 62 41 63 35 64 36 65 39 66 37 67 63 68
REMARK SMILES IDX 64 69 72 70 65 71 66 72 70 73 73 74 67 75 68 76 71 77 69 78
REMARK SMILES IDX 48 79 49 80 57 81 50 82 51 83 55 84 58 85 52 86 53 87 56 88
REMARK SMILES IDX 54 89
REMARK H PARENT 14 6 7 12 19 23 78 42 46 53
REMARK Flexibility Score: inf
ROOT
ATOM      1  C   UNL A   1      36.816  20.430  24.968  1.00  0.00     0.023 C 
ENDROOT
BRANCH   1   2
ATOM      2  C   UNL A   1      36.920  21.734  25.757  1.00  0.00     0.116 C 
BRANCH   2   3
ATOM      3  N   UNL A   1      35.617  22.166  26.219  1.00  0.00    -0.353 N 
ATOM      4  O   UNL A   1      35.619  24.118  25.012  1.00  0.00    -0.270 OA
ATOM      5  C   UNL A   1      35.099  23.369  25.830  1.00  0.00     0.244 C 
ATOM      6  H   UNL A   1      35.097  21.585  26.820  1.00  0.00     0.163 HD
BRANCH   5   7
ATOM      7  C   UNL A   1      33.858  23.787  26.509  1.00  0.00     0.077 C 
ATOM      8  C   UNL A   1      32.653  23.883  25.926  1.00  0.00     0.077 C 
BRANCH   8   9
ATOM      9  C   UNL A   1      31.515  24.485  26.667  1.00  0.00     0.249 C 
ATOM     10  O   UNL A   1      30.734  23.734  27.249  1.00  0.00    -0.270 OA
ATOM     11  N   UNL A   1      31.393  25.842  26.736  1.00  0.00    -0.307 N 
ATOM     12  H   UNL A   1      30.740  26.170  27.396  1.00  0.00     0.171 HD
BRANCH  11  13
ATOM     13  C   UNL A   1      32.054  26.836  26.013  1.00  0.00     0.132 A 
ATOM     14  C   UNL A   1      33.204  27.465  26.484  1.00  0.00     0.047 A 
ATOM     15  N   UNL A   1      31.442  27.200  24.871  1.00  0.00    -0.239 NA
ATOM     16  C   UNL A   1      33.657  28.608  25.835  1.00  0.00     0.005 A 
ATOM     17  C   UNL A   1      31.898  28.319  24.262  1.00  0.00     0.113 A 
ATOM     18  C   UNL A   1      32.974  29.064  24.716  1.00  0.00     0.020 A 
ENDBRANCH  11  13
ENDBRANCH   8   9
ENDBRANCH   5   7
ENDBRANCH   2   3
ENDBRANCH   1   2
BRANCH   1  19
ATOM     19  C   UNL A   1      38.155  19.720  24.749  1.00  0.00     0.023 C 
BRANCH  19  20
ATOM     20  C   UNL A   1      39.245  20.084  25.750  1.00  0.00     0.116 C 
BRANCH  20  21
ATOM     21  N   UNL A   1      40.233  19.029  25.910  1.00  0.00    -0.352 N 
ATOM     22  C   UNL A   1      41.582  19.135  26.139  1.00  0.00     0.251 C 
ATOM     23  H   UNL A   1      39.885  18.110  25.847  1.00  0.00     0.163 HD
ATOM     24  O   UNL A   1      42.299  18.138  26.087  1.00  0.00    -0.269 OA
BRANCH  22  25
ATOM     25  C   UNL A   1      42.181  20.457  26.418  1.00  0.00     0.039 A 
ATOM     26  C   UNL A   1      42.647  21.225  25.347  1.00  0.00     0.014 A 
ATOM     27  C   UNL A   1      42.276  20.945  27.725  1.00  0.00     0.014 A 
ATOM     28  C   UNL A   1      43.147  22.507  25.581  1.00  0.00     0.010 A 
ATOM     29  C   UNL A   1      42.701  22.252  27.947  1.00  0.00     0.010 A 
ATOM     30  C   UNL A   1      43.142  23.047  26.878  1.00  0.00    -0.014 A 
BRANCH  30  31
ATOM     31  C   UNL A   1      43.588  24.442  27.132  1.00  0.00     0.031 A 
ATOM     32  C   UNL A   1      42.612  25.473  27.627  1.00  0.00     0.074 A 
ATOM     33  C   UNL A   1      44.860  24.795  26.861  1.00  0.00     0.049 A 
ATOM     34  N   UNL A   1      42.797  26.751  27.847  1.00  0.00    -0.248 NA
ATOM     35  C   UNL A   1      41.239  25.013  27.885  1.00  0.00     0.031 C 
ATOM     36  C   UNL A   1      45.891  23.899  26.333  1.00  0.00     0.029 A 
ATOM     37  N   UNL A   1      45.500  26.004  26.980  1.00  0.00    -0.354 N 
ATOM     38  C   UNL A   1      41.566  27.245  28.259  1.00  0.00     0.074 A 
ATOM     39  C   UNL A   1      40.628  26.145  28.200  1.00  0.00     0.031 C 
ATOM     40  C   UNL A   1      47.037  24.584  26.194  1.00  0.00     0.029 A 
ATOM     41  C   UNL A   1      46.814  25.973  26.580  1.00  0.00     0.049 A 
ATOM     42  H   UNL A   1      45.059  26.815  27.320  1.00  0.00     0.167 HD
ATOM     43  C   UNL A   1      41.253  28.496  28.675  1.00  0.00     0.037 A 
ATOM     44  C   UNL A   1      47.732  26.957  26.520  1.00  0.00     0.037 A 
ATOM     45  C   UNL A   1      42.192  29.586  28.743  1.00  0.00     0.049 A 
ATOM     46  C   UNL A   1      47.353  28.345  26.963  1.00  0.00     0.074 A 
ATOM     47  C   UNL A   1      41.983  30.877  29.195  1.00  0.00     0.029 A 
ATOM     48  N   UNL A   1      43.517  29.514  28.338  1.00  0.00    -0.354 N 
ATOM     49  N   UNL A   1      46.204  28.784  27.418  1.00  0.00    -0.248 NA
ATOM     50  C   UNL A   1      48.401  29.372  26.892  1.00  0.00     0.031 C 
ATOM     51  C   UNL A   1      43.166  31.602  29.011  1.00  0.00     0.029 A 
ATOM     52  C   UNL A   1      44.131  30.745  28.506  1.00  0.00     0.049 A 
ATOM     53  H   UNL A   1      43.957  28.707  27.985  1.00  0.00     0.167 HD
ATOM     54  C   UNL A   1      46.398  30.126  27.714  1.00  0.00     0.074 A 
ATOM     55  C   UNL A   1      47.780  30.426  27.404  1.00  0.00     0.031 C 
ATOM     56  C   UNL A   1      45.510  31.030  28.199  1.00  0.00     0.037 A 
BRANCH  43  57
ATOM     57  C   UNL A   1      39.832  28.754  29.089  1.00  0.00     0.064 A 
ATOM     58  C   UNL A   1      39.409  28.587  30.417  1.00  0.00     0.173 A 
ATOM     59  C   UNL A   1      38.887  29.206  28.155  1.00  0.00     0.173 A 
ATOM     60  F   UNL A   1      40.267  28.147  31.349  1.00  0.00    -0.203 F 
ATOM     61  C   UNL A   1      38.087  28.827  30.786  1.00  0.00     0.198 A 
ATOM     62  C   UNL A   1      37.575  29.479  28.534  1.00  0.00     0.198 A 
ATOM     63  F   UNL A   1      39.237  29.391  26.874  1.00  0.00    -0.203 F 
ATOM     64  F   UNL A   1      37.694  28.603  32.048  1.00  0.00    -0.200 F 
ATOM     65  C   UNL A   1      37.174  29.280  29.847  1.00  0.00     0.200 A 
ATOM     66  F   UNL A   1      36.698  29.934  27.629  1.00  0.00    -0.200 F 
ATOM     67  F   UNL A   1      35.904  29.518  30.204  1.00  0.00    -0.200 F 
ENDBRANCH  43  57
BRANCH  44  68
ATOM     68  C   UNL A   1      49.105  26.661  26.031  1.00  0.00     0.064 A 
ATOM     69  C   UNL A   1      49.476  26.939  24.708  1.00  0.00     0.173 A 
ATOM     70  C   UNL A   1      50.072  26.090  26.871  1.00  0.00     0.173 A 
ATOM     71  F   UNL A   1      48.582  27.468  23.859  1.00  0.00    -0.203 F 
ATOM     72  C   UNL A   1      50.753  26.636  24.239  1.00  0.00     0.198 A 
ATOM     73  C   UNL A   1      51.358  25.817  26.410  1.00  0.00     0.198 A 
ATOM     74  F   UNL A   1      49.771  25.808  28.148  1.00  0.00    -0.203 F 
ATOM     75  F   UNL A   1      51.064  26.866  22.956  1.00  0.00    -0.200 F 
ATOM     76  C   UNL A   1      51.695  26.081  25.091  1.00  0.00     0.200 A 
ATOM     77  F   UNL A   1      52.270  25.297  27.242  1.00  0.00    -0.200 F 
ATOM     78  F   UNL A   1      52.923  25.794  24.641  1.00  0.00    -0.200 F 
ENDBRANCH  44  68
BRANCH  56  79
ATOM     79  C   UNL A   1      46.015  32.420  28.465  1.00  0.00     0.064 A 
ATOM     80  C   UNL A   1      45.945  33.431  27.496  1.00  0.00     0.173 A 
ATOM     81  C   UNL A   1      46.542  32.753  29.723  1.00  0.00     0.173 A 
ATOM     82  F   UNL A   1      45.464  33.162  26.272  1.00  0.00    -0.203 F 
ATOM     83  C   UNL A   1      46.409  34.716  27.766  1.00  0.00     0.198 A 
ATOM     84  C   UNL A   1      46.971  34.048  30.001  1.00  0.00     0.198 A 
ATOM     85  F   UNL A   1      46.624  31.827  30.690  1.00  0.00    -0.203 F 
ATOM     86  F   UNL A   1      46.382  35.653  26.807  1.00  0.00    -0.200 F 
ATOM     87  C   UNL A   1      46.913  35.025  29.020  1.00  0.00     0.200 A 
ATOM     88  F   UNL A   1      47.443  34.349  31.219  1.00  0.00    -0.200 F 
ATOM     89  F   UNL A   1      47.351  36.265  29.282  1.00  0.00    -0.200 F 
ENDBRANCH  56  79
ENDBRANCH  30  31
ENDBRANCH  22  25
ENDBRANCH  20  21
ENDBRANCH  19  20
ENDBRANCH   1  19
TORSDOF 13
ENDMDL
MODEL 2
REMARK VINA RESULT:     -11.6      5.745     11.442
REMARK SMILES O=C(/C=C/C(=O)Nc1ccccn1)NCCCCNC(=O)c1ccc(-c2c3nc(c(-c4c(F)c(F)c(F)c(F)c4F)c4ccc([nH]4)c(-c4c(F)c(F)c(F)c(F)c4F)c4nc(c(-c5c(F)c(F)c(F)c(F)c5F)c5ccc2[nH]5)C=C4)C=C3)cc1
REMARK SMILES IDX 16 1 15 2 14 3 1 4 2 5 3 7 4 8 5 9 6 10 7 11 8 13 9 14 13 15
REMARK SMILES IDX 10 16 12 17 11 18 17 19 18 20 19 21 20 22 21 24 22 25 23 26
REMARK SMILES IDX 84 27 24 28 83 29 25 30 26 31 27 32 77 33 28 34 82 35 76 36
REMARK SMILES IDX 78 37 29 38 81 39 75 40 74 41 30 43 62 44 42 45 61 46 43 47
REMARK SMILES IDX 46 48 60 49 79 50 44 51 45 52 59 54 80 55 47 56 31 57 32 58
REMARK SMILES IDX 40 59 33 60 34 61 38 62 41 63 35 64 36 65 39 66 37 67 63 68
REMARK SMILES IDX 64 69 72 70 65 71 66 72 70 73 73 74 67 75 68 76 71 77 69 78
REMARK SMILES IDX 48 79 49 80 57 81 50 82 51 83 55 84 58 85 52 86 53 87 56 88
REMARK SMILES IDX 54 89
REMARK H PARENT 14 6 7 12 19 23 78 42 46 53
REMARK Flexibility Score: inf
ROOT
ATOM      1  C   UNL A   1      31.599  30.729  26.197  1.00  0.00     0.023 C 
ENDROOT
BRANCH   1   2
ATOM      2  C   UNL A   1      33.051  30.255  26.240  1.00  0.00     0.116 C 
BRANCH   2   3
ATOM      3  N   UNL A   1      33.323  29.318  25.170  1.00  0.00    -0.353 N 
ATOM      4  O   UNL A   1      33.014  27.447  26.462  1.00  0.00    -0.270 OA
ATOM      5  C   UNL A   1      33.326  27.972  25.399  1.00  0.00     0.244 C 
ATOM      6  H   UNL A   1      33.507  29.656  24.264  1.00  0.00     0.163 HD
BRANCH   5   7
ATOM      7  C   UNL A   1      33.800  27.128  24.286  1.00  0.00     0.077 C 
ATOM      8  C   UNL A   1      33.079  26.172  23.680  1.00  0.00     0.077 C 
BRANCH   8   9
ATOM      9  C   UNL A   1      33.724  25.269  22.691  1.00  0.00     0.249 C 
ATOM     10  O   UNL A   1      33.683  25.579  21.503  1.00  0.00    -0.270 OA
ATOM     11  N   UNL A   1      34.391  24.159  23.123  1.00  0.00    -0.307 N 
ATOM     12  H   UNL A   1      34.953  23.720  22.444  1.00  0.00     0.171 HD
BRANCH  11  13
ATOM     13  C   UNL A   1      34.398  23.554  24.380  1.00  0.00     0.132 A 
ATOM     14  C   UNL A   1      35.334  23.874  25.360  1.00  0.00     0.047 A 
ATOM     15  N   UNL A   1      33.489  22.574  24.536  1.00  0.00    -0.239 NA
ATOM     16  C   UNL A   1      35.436  23.060  26.482  1.00  0.00     0.005 A 
ATOM     17  C   UNL A   1      33.614  21.792  25.632  1.00  0.00     0.113 A 
ATOM     18  C   UNL A   1      34.578  21.977  26.610  1.00  0.00     0.020 A 
ENDBRANCH  11  13
ENDBRANCH   8   9
ENDBRANCH   5   7
ENDBRANCH   2   3
ENDBRANCH   1   2
BRANCH   1  19
ATOM     19  C   UNL A   1      31.411  32.208  26.542  1.00  0.00     0.023 C 
BRANCH  19  20
ATOM     20  C   UNL A   1      32.557  32.834  27.328  1.00  0.00     0.116 C 
BRANCH  20  21
ATOM     21  N   UNL A   1      32.323  34.236  27.638  1.00  0.00    -0.352 N 
ATOM     22  C   UNL A   1      32.946  35.030  28.569  1.00  0.00     0.251 C 
ATOM     23  H   UNL A   1      31.622  34.676  27.106  1.00  0.00     0.163 HD
ATOM     24  O   UNL A   1      32.512  36.154  28.812  1.00  0.00    -0.269 OA
BRANCH  22  25
ATOM     25  C   UNL A   1      34.123  34.522  29.304  1.00  0.00     0.039 A 
ATOM     26  C   UNL A   1      33.932  33.924  30.552  1.00  0.00     0.014 A 
ATOM     27  C   UNL A   1      35.409  34.624  28.764  1.00  0.00     0.014 A 
ATOM     28  C   UNL A   1      35.019  33.371  31.229  1.00  0.00     0.010 A 
ATOM     29  C   UNL A   1      36.479  34.002  29.402  1.00  0.00     0.010 A 
ATOM     30  C   UNL A   1      36.296  33.370  30.643  1.00  0.00    -0.014 A 
BRANCH  30  31
ATOM     31  C   UNL A   1      37.448  32.707  31.308  1.00  0.00     0.031 A 
ATOM     32  C   UNL A   1      38.143  31.549  30.649  1.00  0.00     0.074 A 
ATOM     33  C   UNL A   1      37.831  33.111  32.535  1.00  0.00     0.049 A 
ATOM     34  N   UNL A   1      39.123  30.804  31.099  1.00  0.00    -0.248 NA
ATOM     35  C   UNL A   1      37.656  31.158  29.317  1.00  0.00     0.031 C 
ATOM     36  C   UNL A   1      37.208  34.192  33.302  1.00  0.00     0.029 A 
ATOM     37  N   UNL A   1      38.828  32.652  33.360  1.00  0.00    -0.354 N 
ATOM     38  C   UNL A   1      39.360  29.857  30.111  1.00  0.00     0.074 A 
ATOM     39  C   UNL A   1      38.385  30.081  29.066  1.00  0.00     0.031 C 
ATOM     40  C   UNL A   1      37.850  34.326  34.473  1.00  0.00     0.029 A 
ATOM     41  C   UNL A   1      38.900  33.316  34.561  1.00  0.00     0.049 A 
ATOM     42  H   UNL A   1      39.435  31.917  33.114  1.00  0.00     0.167 HD
ATOM     43  C   UNL A   1      40.323  28.905  30.068  1.00  0.00     0.037 A 
ATOM     44  C   UNL A   1      39.711  33.124  35.619  1.00  0.00     0.037 A 
ATOM     45  C   UNL A   1      41.300  28.692  31.104  1.00  0.00     0.049 A 
ATOM     46  C   UNL A   1      40.756  32.042  35.556  1.00  0.00     0.074 A 
ATOM     47  C   UNL A   1      42.345  27.784  31.132  1.00  0.00     0.029 A 
ATOM     48  N   UNL A   1      41.347  29.391  32.302  1.00  0.00    -0.354 N 
ATOM     49  N   UNL A   1      41.018  31.198  34.588  1.00  0.00    -0.248 NA
ATOM     50  C   UNL A   1      41.624  31.891  36.732  1.00  0.00     0.031 C 
ATOM     51  C   UNL A   1      42.988  27.895  32.369  1.00  0.00     0.029 A 
ATOM     52  C   UNL A   1      42.386  28.917  33.086  1.00  0.00     0.049 A 
ATOM     53  H   UNL A   1      40.732  30.117  32.557  1.00  0.00     0.167 HD
ATOM     54  C   UNL A   1      42.095  30.439  35.023  1.00  0.00     0.074 A 
ATOM     55  C   UNL A   1      42.451  30.933  36.336  1.00  0.00     0.031 C 
ATOM     56  C   UNL A   1      42.733  29.422  34.391  1.00  0.00     0.037 A 
BRANCH  43  57
ATOM     57  C   UNL A   1      40.366  28.016  28.856  1.00  0.00     0.064 A 
ATOM     58  C   UNL A   1      41.111  28.359  27.717  1.00  0.00     0.173 A 
ATOM     59  C   UNL A   1      39.682  26.792  28.843  1.00  0.00     0.173 A 
ATOM     60  F   UNL A   1      41.778  29.523  27.670  1.00  0.00    -0.203 F 
ATOM     61  C   UNL A   1      41.140  27.528  26.599  1.00  0.00     0.198 A 
ATOM     62  C   UNL A   1      39.741  25.946  27.739  1.00  0.00     0.198 A 
ATOM     63  F   UNL A   1      38.960  26.409  29.907  1.00  0.00    -0.203 F 
ATOM     64  F   UNL A   1      41.811  27.905  25.502  1.00  0.00    -0.200 F 
ATOM     65  C   UNL A   1      40.462  26.320  26.614  1.00  0.00     0.200 A 
ATOM     66  F   UNL A   1      39.099  24.770  27.761  1.00  0.00    -0.200 F 
ATOM     67  F   UNL A   1      40.496  25.516  25.542  1.00  0.00    -0.200 F 
ENDBRANCH  43  57
BRANCH  44  68
ATOM     68  C   UNL A   1      39.576  33.985  36.823  1.00  0.00     0.064 A 
ATOM     69  C   UNL A   1      40.219  35.228  36.898  1.00  0.00     0.173 A 
ATOM     70  C   UNL A   1      38.808  33.582  37.925  1.00  0.00     0.173 A 
ATOM     71  F   UNL A   1      40.981  35.650  35.878  1.00  0.00    -0.203 F 
ATOM     72  C   UNL A   1      40.118  36.024  38.038  1.00  0.00     0.198 A 
ATOM     73  C   UNL A   1      38.681  34.394  39.051  1.00  0.00     0.198 A 
ATOM     74  F   UNL A   1      38.167  32.404  37.904  1.00  0.00    -0.203 F 
ATOM     75  F   UNL A   1      40.785  37.185  38.102  1.00  0.00    -0.200 F 
ATOM     76  C   UNL A   1      39.344  35.610  39.111  1.00  0.00     0.200 A 
ATOM     77  F   UNL A   1      37.917  33.997  40.079  1.00  0.00    -0.200 F 
ATOM     78  F   UNL A   1      39.244  36.377  40.203  1.00  0.00    -0.200 F 
ENDBRANCH  44  68
BRANCH  56  79
ATOM     79  C   UNL A   1      43.908  28.801  35.093  1.00  0.00     0.064 A 
ATOM     80  C   UNL A   1      43.765  27.690  35.937  1.00  0.00     0.173 A 
ATOM     81  C   UNL A   1      45.203  29.304  34.886  1.00  0.00     0.173 A 
ATOM     82  F   UNL A   1      42.548  27.180  36.181  1.00  0.00    -0.203 F 
ATOM     83  C   UNL A   1      44.869  27.124  36.570  1.00  0.00     0.198 A 
ATOM     84  C   UNL A   1      46.308  28.713  35.491  1.00  0.00     0.198 A 
ATOM     85  F   UNL A   1      45.399  30.360  34.082  1.00  0.00    -0.203 F 
ATOM     86  F   UNL A   1      44.701  26.096  37.415  1.00  0.00    -0.200 F 
ATOM     87  C   UNL A   1      46.139  27.630  36.340  1.00  0.00     0.200 A 
ATOM     88  F   UNL A   1      47.537  29.193  35.254  1.00  0.00    -0.200 F 
ATOM     89  F   UNL A   1      47.201  27.078  36.942  1.00  0.00    -0.200 F 
ENDBRANCH  56  79
ENDBRANCH  30  31
ENDBRANCH  22  25
ENDBRANCH  20  21
ENDBRANCH  19  20
ENDBRANCH   1  19
TORSDOF 13
ENDMDL
MODEL 3
REMARK VINA RESULT:     -11.5      5.747     11.360
REMARK SMILES O=C(/C=C/C(=O)Nc1ccccn1)NCCCCNC(=O)c1ccc(-c2c3nc(c(-c4c(F)c(F)c(F)c(F)c4F)c4ccc([nH]4)c(-c4c(F)c(F)c(F)c(F)c4F)c4nc(c(-c5c(F)c(F)c(F)c(F)c5F)c5ccc2[nH]5)C=C4)C=C3)cc1
REMARK SMILES IDX 16 1 15 2 14 3 1 4 2 5 3 7 4 8 5 9 6 10 7 11 8 13 9 14 13 15
REMARK SMILES IDX 10 16 12 17 11 18 17 19 18 20 19 21 20 22 21 24 22 25 23 26
REMARK SMILES IDX 84 27 24 28 83 29 25 30 26 31 27 32 77 33 28 34 82 35 76 36
REMARK SMILES IDX 78 37 29 38 81 39 75 40 74 41 30 43 62 44 42 45 61 46 43 47
REMARK SMILES IDX 46 48 60 49 79 50 44 51 45 52 59 54 80 55 47 56 31 57 32 58
REMARK SMILES IDX 40 59 33 60 34 61 38 62 41 63 35 64 36 65 39 66 37 67 63 68
REMARK SMILES IDX 64 69 72 70 65 71 66 72 70 73 73 74 67 75 68 76 71 77 69 78
REMARK SMILES IDX 48 79 49 80 57 81 50 82 51 83 55 84 58 85 52 86 53 87 56 88
REMARK SMILES IDX 54 89
REMARK H PARENT 14 6 7 12 19 23 78 42 46 53
REMARK Flexibility Score: inf
ROOT
ATOM      1  C   UNL A   1      31.776  30.636  26.442  1.00  0.00     0.023 C 
ENDROOT
BRANCH   1   2
ATOM      2  C   UNL A   1      33.223  30.177  26.618  1.00  0.00     0.116 C 
BRANCH   2   3
ATOM      3  N   UNL A   1      33.283  28.773  26.966  1.00  0.00    -0.353 N 
ATOM      4  O   UNL A   1      32.916  28.025  24.828  1.00  0.00    -0.270 OA
ATOM      5  C   UNL A   1      33.071  27.807  26.023  1.00  0.00     0.244 C 
ATOM      6  H   UNL A   1      33.481  28.510  27.894  1.00  0.00     0.163 HD
BRANCH   5   7
ATOM      7  C   UNL A   1      32.969  26.424  26.528  1.00  0.00     0.077 C 
ATOM      8  C   UNL A   1      32.461  25.388  25.842  1.00  0.00     0.077 C 
BRANCH   8   9
ATOM      9  C   UNL A   1      32.248  24.083  26.519  1.00  0.00     0.249 C 
ATOM     10  O   UNL A   1      31.279  23.963  27.265  1.00  0.00    -0.270 OA
ATOM     11  N   UNL A   1      33.087  23.039  26.258  1.00  0.00    -0.307 N 
ATOM     12  H   UNL A   1      32.778  22.162  26.582  1.00  0.00     0.171 HD
BRANCH  11  13
ATOM     13  C   UNL A   1      34.318  23.025  25.599  1.00  0.00     0.132 A 
ATOM     14  C   UNL A   1      35.502  23.417  26.217  1.00  0.00     0.047 A 
ATOM     15  N   UNL A   1      34.253  22.692  24.296  1.00  0.00    -0.239 NA
ATOM     16  C   UNL A   1      36.633  23.618  25.433  1.00  0.00     0.005 A 
ATOM     17  C   UNL A   1      35.364  22.903  23.555  1.00  0.00     0.113 A 
ATOM     18  C   UNL A   1      36.558  23.384  24.068  1.00  0.00     0.020 A 
ENDBRANCH  11  13
ENDBRANCH   8   9
ENDBRANCH   5   7
ENDBRANCH   2   3
ENDBRANCH   1   2
BRANCH   1  19
ATOM     19  C   UNL A   1      31.518  32.079  26.881  1.00  0.00     0.023 C 
BRANCH  19  20
ATOM     20  C   UNL A   1      32.768  32.876  27.236  1.00  0.00     0.116 C 
BRANCH  20  21
ATOM     21  N   UNL A   1      32.467  34.242  27.633  1.00  0.00    -0.352 N 
ATOM     22  C   UNL A   1      33.018  34.990  28.644  1.00  0.00     0.251 C 
ATOM     23  H   UNL A   1      31.773  34.694  27.101  1.00  0.00     0.163 HD
ATOM     24  O   UNL A   1      32.531  36.077  28.945  1.00  0.00    -0.269 OA
BRANCH  22  25
ATOM     25  C   UNL A   1      34.181  34.472  29.396  1.00  0.00     0.039 A 
ATOM     26  C   UNL A   1      33.957  33.760  30.577  1.00  0.00     0.014 A 
ATOM     27  C   UNL A   1      35.485  34.677  28.936  1.00  0.00     0.014 A 
ATOM     28  C   UNL A   1      35.036  33.198  31.261  1.00  0.00     0.010 A 
ATOM     29  C   UNL A   1      36.551  34.050  29.575  1.00  0.00     0.010 A 
ATOM     30  C   UNL A   1      36.338  33.305  30.745  1.00  0.00    -0.014 A 
BRANCH  30  31
ATOM     31  C   UNL A   1      37.487  32.638  31.413  1.00  0.00     0.031 A 
ATOM     32  C   UNL A   1      38.161  31.459  30.768  1.00  0.00     0.074 A 
ATOM     33  C   UNL A   1      37.886  33.058  32.629  1.00  0.00     0.049 A 
ATOM     34  N   UNL A   1      39.134  30.709  31.223  1.00  0.00    -0.248 NA
ATOM     35  C   UNL A   1      37.657  31.052  29.447  1.00  0.00     0.031 C 
ATOM     36  C   UNL A   1      37.284  34.161  33.382  1.00  0.00     0.029 A 
ATOM     37  N   UNL A   1      38.884  32.600  33.454  1.00  0.00    -0.354 N 
ATOM     38  C   UNL A   1      39.351  29.742  30.251  1.00  0.00     0.074 A 
ATOM     39  C   UNL A   1      38.369  29.960  29.210  1.00  0.00     0.031 C 
ATOM     40  C   UNL A   1      37.938  34.307  34.545  1.00  0.00     0.029 A 
ATOM     41  C   UNL A   1      38.975  33.284  34.642  1.00  0.00     0.049 A 
ATOM     42  H   UNL A   1      39.479  31.853  33.216  1.00  0.00     0.167 HD
ATOM     43  C   UNL A   1      40.300  28.776  30.216  1.00  0.00     0.037 A 
ATOM     44  C   UNL A   1      39.793  33.099  35.696  1.00  0.00     0.037 A 
ATOM     45  C   UNL A   1      41.283  28.568  31.247  1.00  0.00     0.049 A 
ATOM     46  C   UNL A   1      40.823  32.003  35.644  1.00  0.00     0.074 A 
ATOM     47  C   UNL A   1      42.316  27.647  31.283  1.00  0.00     0.029 A 
ATOM     48  N   UNL A   1      41.349  29.287  32.432  1.00  0.00    -0.354 N 
ATOM     49  N   UNL A   1      41.064  31.138  34.689  1.00  0.00    -0.248 NA
ATOM     50  C   UNL A   1      41.698  31.861  36.815  1.00  0.00     0.031 C 
ATOM     51  C   UNL A   1      42.971  27.771  32.512  1.00  0.00     0.029 A 
ATOM     52  C   UNL A   1      42.389  28.813  33.216  1.00  0.00     0.049 A 
ATOM     53  H   UNL A   1      40.747  30.026  32.680  1.00  0.00     0.167 HD
ATOM     54  C   UNL A   1      42.135  30.372  35.128  1.00  0.00     0.074 A 
ATOM     55  C   UNL A   1      42.509  30.885  36.430  1.00  0.00     0.031 C 
ATOM     56  C   UNL A   1      42.754  29.336  34.509  1.00  0.00     0.037 A 
BRANCH  43  57
ATOM     57  C   UNL A   1      40.321  27.866  29.019  1.00  0.00     0.064 A 
ATOM     58  C   UNL A   1      39.582  26.673  28.988  1.00  0.00     0.173 A 
ATOM     59  C   UNL A   1      41.061  28.205  27.877  1.00  0.00     0.173 A 
ATOM     60  F   UNL A   1      38.864  26.294  30.056  1.00  0.00    -0.203 F 
ATOM     61  C   UNL A   1      39.612  25.837  27.874  1.00  0.00     0.198 A 
ATOM     62  C   UNL A   1      41.061  27.386  26.751  1.00  0.00     0.198 A 
ATOM     63  F   UNL A   1      41.780  29.337  27.847  1.00  0.00    -0.203 F 
ATOM     64  F   UNL A   1      38.945  24.675  27.891  1.00  0.00    -0.200 F 
ATOM     65  C   UNL A   1      40.345  26.198  26.754  1.00  0.00     0.200 A 
ATOM     66  F   UNL A   1      41.756  27.744  25.663  1.00  0.00    -0.200 F 
ATOM     67  F   UNL A   1      40.368  25.398  25.679  1.00  0.00    -0.200 F 
ENDBRANCH  43  57
BRANCH  44  68
ATOM     68  C   UNL A   1      39.679  33.983  36.887  1.00  0.00     0.064 A 
ATOM     69  C   UNL A   1      38.895  33.613  37.989  1.00  0.00     0.173 A 
ATOM     70  C   UNL A   1      40.345  35.216  36.947  1.00  0.00     0.173 A 
ATOM     71  F   UNL A   1      38.223  32.452  37.972  1.00  0.00    -0.203 F 
ATOM     72  C   UNL A   1      38.763  34.453  39.093  1.00  0.00     0.198 A 
ATOM     73  C   UNL A   1      40.238  36.040  38.066  1.00  0.00     0.198 A 
ATOM     74  F   UNL A   1      41.112  35.616  35.922  1.00  0.00    -0.203 F 
ATOM     75  F   UNL A   1      37.966  34.096  40.110  1.00  0.00    -0.200 F 
ATOM     76  C   UNL A   1      39.439  35.662  39.134  1.00  0.00     0.200 A 
ATOM     77  F   UNL A   1      40.907  37.200  38.108  1.00  0.00    -0.200 F 
ATOM     78  F   UNL A   1      39.315  36.466  40.198  1.00  0.00    -0.200 F 
ENDBRANCH  44  68
BRANCH  56  79
ATOM     79  C   UNL A   1      43.927  28.712  35.212  1.00  0.00     0.064 A 
ATOM     80  C   UNL A   1      45.236  29.181  35.029  1.00  0.00     0.173 A 
ATOM     81  C   UNL A   1      43.730  27.652  36.112  1.00  0.00     0.173 A 
ATOM     82  F   UNL A   1      45.481  30.181  34.168  1.00  0.00    -0.203 F 
ATOM     83  C   UNL A   1      46.308  28.595  35.697  1.00  0.00     0.198 A 
ATOM     84  C   UNL A   1      44.799  27.093  36.806  1.00  0.00     0.198 A 
ATOM     85  F   UNL A   1      42.498  27.170  36.331  1.00  0.00    -0.203 F 
ATOM     86  F   UNL A   1      47.556  29.024  35.466  1.00  0.00    -0.200 F 
ATOM     87  C   UNL A   1      46.087  27.558  36.592  1.00  0.00     0.200 A 
ATOM     88  F   UNL A   1      44.582  26.102  37.682  1.00  0.00    -0.200 F 
ATOM     89  F   UNL A   1      47.118  27.001  37.242  1.00  0.00    -0.200 F 
ENDBRANCH  56  79
ENDBRANCH  30  31
ENDBRANCH  22  25
ENDBRANCH  20  21
ENDBRANCH  19  20
ENDBRANCH   1  19
TORSDOF 13
ENDMDL
