MODEL 1
REMARK VINA RESULT:     -13.0      0.000      0.000
REMARK SMILES COc1ccc(/C=C/C(=O)Nc2cc(Cl)ccc2C(=O)NCCCCNC(=O)c2ccc(-c3c4nc(c(-c5c(F)c(F)c(F)c(F)c5F)c5ccc([nH]5)c(-c5c(F)c(F)c(F)c(F)c5F)c5nc(c(-c6c(F)c(F)c(F)c(F)c6F)c6ccc3[nH]6)C=C5)C=C4)cc2)cc1
REMARK SMILES IDX 22 1 21 2 19 3 20 4 18 6 12 7 13 8 14 9 17 10 15 11 16 12
REMARK SMILES IDX 11 13 9 14 10 15 8 17 7 18 6 19 3 20 4 21 93 22 5 23 92 24
REMARK SMILES IDX 2 25 1 26 23 27 24 28 25 29 26 30 27 31 28 33 29 34 30 35
REMARK SMILES IDX 91 36 31 37 90 38 32 39 33 40 34 41 84 42 35 43 89 44 83 45
REMARK SMILES IDX 85 46 36 47 88 48 82 49 81 50 37 52 69 53 49 54 68 55 50 56
REMARK SMILES IDX 53 57 67 58 86 59 51 60 52 61 66 63 87 64 54 65 38 66 39 67
REMARK SMILES IDX 47 68 40 69 41 70 45 71 48 72 42 73 43 74 46 75 44 76 70 77
REMARK SMILES IDX 71 78 79 79 72 80 73 81 77 82 80 83 74 84 75 85 78 86 76 87
REMARK SMILES IDX 55 88 56 89 64 90 57 91 58 92 62 93 65 94 59 95 60 96 63 97
REMARK SMILES IDX 61 98
REMARK H PARENT 21 5 11 16 26 32 85 51 53 62
REMARK Flexibility Score: inf
ROOT
ATOM      1  C   UNL A   1      32.343  29.702  25.179  1.00  0.00     0.116 C 
ENDROOT
BRANCH   1   2
ATOM      2  N   UNL A   1      31.423  29.644  24.062  1.00  0.00    -0.352 N 
ATOM      3  C   UNL A   1      30.692  28.595  23.559  1.00  0.00     0.253 C 
ATOM      4  O   UNL A   1      29.981  28.817  22.579  1.00  0.00    -0.269 OA
ATOM      5  H   UNL A   1      31.302  30.497  23.584  1.00  0.00     0.163 HD
BRANCH   3   6
ATOM      6  C   UNL A   1      30.790  27.195  24.075  1.00  0.00     0.063 A 
ATOM      7  C   UNL A   1      31.027  26.013  23.345  1.00  0.00     0.055 A 
ATOM      8  C   UNL A   1      30.862  24.771  23.988  1.00  0.00     0.047 A 
ATOM      9  C   UNL A   1      30.635  24.697  25.362  1.00  0.00     0.043 A 
ATOM     10  C   UNL A   1      30.590  27.093  25.471  1.00  0.00     0.017 A 
ATOM     11  Cl  UNL A   1      30.537  23.162  26.130  1.00  0.00    -0.084 Cl
ATOM     12  C   UNL A   1      30.535  25.856  26.115  1.00  0.00     0.021 A 
BRANCH   7  13
ATOM     13  N   UNL A   1      31.500  25.900  22.017  1.00  0.00    -0.322 N 
ATOM     14  C   UNL A   1      32.759  25.726  21.515  1.00  0.00     0.248 C 
ATOM     15  O   UNL A   1      32.960  25.856  20.309  1.00  0.00    -0.270 OA
ATOM     16  H   UNL A   1      30.795  25.956  21.332  1.00  0.00     0.170 HD
BRANCH  14  17
ATOM     17  C   UNL A   1      33.885  25.382  22.402  1.00  0.00     0.072 C 
ATOM     18  C   UNL A   1      34.012  24.141  22.890  1.00  0.00     0.014 C 
BRANCH  18  19
ATOM     19  C   UNL A   1      35.061  23.703  23.813  1.00  0.00    -0.025 A 
ATOM     20  C   UNL A   1      37.265  23.001  25.375  1.00  0.00     0.118 A 
ATOM     21  C   UNL A   1      36.275  23.823  25.907  1.00  0.00     0.047 A 
ATOM     22  C   UNL A   1      37.119  22.450  24.105  1.00  0.00     0.047 A 
ATOM     23  C   UNL A   1      35.179  24.185  25.122  1.00  0.00     0.012 A 
ATOM     24  C   UNL A   1      36.023  22.809  23.324  1.00  0.00     0.012 A 
BRANCH  20  25
ATOM     25  O   UNL A   1      38.374  22.769  26.142  1.00  0.00    -0.497 OA
ATOM     26  C   UNL A   1      38.953  21.504  25.817  1.00  0.00     0.278 C 
ENDBRANCH  20  25
ENDBRANCH  18  19
ENDBRANCH  14  17
ENDBRANCH   7  13
ENDBRANCH   3   6
ENDBRANCH   1   2
BRANCH   1  27
ATOM     27  C   UNL A   1      31.742  30.264  26.462  1.00  0.00     0.023 C 
BRANCH  27  28
ATOM     28  C   UNL A   1      31.640  31.791  26.548  1.00  0.00     0.023 C 
BRANCH  28  29
ATOM     29  C   UNL A   1      32.769  32.526  27.269  1.00  0.00     0.116 C 
BRANCH  29  30
ATOM     30  N   UNL A   1      32.463  33.910  27.598  1.00  0.00    -0.352 N 
ATOM     31  C   UNL A   1      33.028  34.755  28.525  1.00  0.00     0.251 C 
ATOM     32  H   UNL A   1      31.732  34.307  27.071  1.00  0.00     0.163 HD
ATOM     33  O   UNL A   1      32.544  35.866  28.725  1.00  0.00    -0.269 OA
BRANCH  31  34
ATOM     34  C   UNL A   1      34.199  34.322  29.320  1.00  0.00     0.039 A 
ATOM     35  C   UNL A   1      33.988  33.698  30.553  1.00  0.00     0.014 A 
ATOM     36  C   UNL A   1      35.500  34.524  28.856  1.00  0.00     0.014 A 
ATOM     37  C   UNL A   1      35.074  33.188  31.269  1.00  0.00     0.010 A 
ATOM     38  C   UNL A   1      36.573  33.940  29.526  1.00  0.00     0.010 A 
ATOM     39  C   UNL A   1      36.372  33.258  30.737  1.00  0.00    -0.014 A 
BRANCH  39  40
ATOM     40  C   UNL A   1      37.526  32.615  31.421  1.00  0.00     0.031 A 
ATOM     41  C   UNL A   1      38.232  31.449  30.785  1.00  0.00     0.074 A 
ATOM     42  C   UNL A   1      37.890  33.029  32.650  1.00  0.00     0.049 A 
ATOM     43  N   UNL A   1      39.202  30.707  31.261  1.00  0.00    -0.248 NA
ATOM     44  C   UNL A   1      37.765  31.039  29.452  1.00  0.00     0.031 C 
ATOM     45  C   UNL A   1      37.251  34.109  33.405  1.00  0.00     0.029 A 
ATOM     46  N   UNL A   1      38.882  32.582  33.490  1.00  0.00    -0.354 N 
ATOM     47  C   UNL A   1      39.444  29.737  30.296  1.00  0.00     0.074 A 
ATOM     48  C   UNL A   1      38.483  29.948  29.236  1.00  0.00     0.031 C 
ATOM     49  C   UNL A   1      37.880  34.258  34.581  1.00  0.00     0.029 A 
ATOM     50  C   UNL A   1      38.942  33.262  34.683  1.00  0.00     0.049 A 
ATOM     51  H   UNL A   1      39.491  31.844  33.259  1.00  0.00     0.167 HD
ATOM     52  C   UNL A   1      40.397  28.774  30.282  1.00  0.00     0.037 A 
ATOM     53  C   UNL A   1      39.760  33.099  35.741  1.00  0.00     0.037 A 
ATOM     54  C   UNL A   1      41.375  28.586  31.322  1.00  0.00     0.049 A 
ATOM     55  C   UNL A   1      40.821  32.032  35.695  1.00  0.00     0.074 A 
ATOM     56  C   UNL A   1      42.420  27.680  31.370  1.00  0.00     0.029 A 
ATOM     57  N   UNL A   1      41.426  29.319  32.499  1.00  0.00    -0.354 N 
ATOM     58  N   UNL A   1      41.086  31.169  34.745  1.00  0.00    -0.248 NA
ATOM     59  C   UNL A   1      41.703  31.924  36.865  1.00  0.00     0.031 C 
ATOM     60  C   UNL A   1      43.079  27.837  32.594  1.00  0.00     0.029 A 
ATOM     61  C   UNL A   1      42.477  28.875  33.286  1.00  0.00     0.049 A 
ATOM     62  H   UNL A   1      40.808  30.047  32.738  1.00  0.00     0.167 HD
ATOM     63  C   UNL A   1      42.182  30.440  35.186  1.00  0.00     0.074 A 
ATOM     64  C   UNL A   1      42.542  30.971  36.485  1.00  0.00     0.031 C 
ATOM     65  C   UNL A   1      42.832  29.423  34.570  1.00  0.00     0.037 A 
BRANCH  52  66
ATOM     66  C   UNL A   1      40.435  27.855  29.097  1.00  0.00     0.064 A 
ATOM     67  C   UNL A   1      41.257  28.115  27.989  1.00  0.00     0.173 A 
ATOM     68  C   UNL A   1      39.665  26.681  29.078  1.00  0.00     0.173 A 
ATOM     69  F   UNL A   1      42.006  29.228  27.952  1.00  0.00    -0.203 F 
ATOM     70  C   UNL A   1      41.281  27.255  26.894  1.00  0.00     0.198 A 
ATOM     71  C   UNL A   1      39.715  25.807  27.995  1.00  0.00     0.198 A 
ATOM     72  F   UNL A   1      38.867  26.379  30.113  1.00  0.00    -0.203 F 
ATOM     73  F   UNL A   1      42.033  27.554  25.826  1.00  0.00    -0.200 F 
ATOM     74  C   UNL A   1      40.516  26.099  26.902  1.00  0.00     0.200 A 
ATOM     75  F   UNL A   1      38.986  24.682  28.009  1.00  0.00    -0.200 F 
ATOM     76  F   UNL A   1      40.544  25.268  25.850  1.00  0.00    -0.200 F 
ENDBRANCH  52  66
BRANCH  53  77
ATOM     77  C   UNL A   1      39.633  33.990  36.925  1.00  0.00     0.064 A 
ATOM     78  C   UNL A   1      38.853  33.613  38.027  1.00  0.00     0.173 A 
ATOM     79  C   UNL A   1      40.276  35.235  36.977  1.00  0.00     0.173 A 
ATOM     80  F   UNL A   1      38.201  32.441  38.014  1.00  0.00    -0.203 F 
ATOM     81  C   UNL A   1      38.701  34.456  39.125  1.00  0.00     0.198 A 
ATOM     82  C   UNL A   1      40.147  36.066  38.089  1.00  0.00     0.198 A 
ATOM     83  F   UNL A   1      41.039  35.641  35.952  1.00  0.00    -0.203 F 
ATOM     84  F   UNL A   1      37.909  34.091  40.143  1.00  0.00    -0.200 F 
ATOM     85  C   UNL A   1      39.353  35.679  39.158  1.00  0.00     0.200 A 
ATOM     86  F   UNL A   1      40.789  37.241  38.123  1.00  0.00    -0.200 F 
ATOM     87  F   UNL A   1      39.208  36.489  40.215  1.00  0.00    -0.200 F 
ENDBRANCH  53  77
BRANCH  65  88
ATOM     88  C   UNL A   1      44.030  28.845  35.269  1.00  0.00     0.064 A 
ATOM     89  C   UNL A   1      43.916  27.770  36.161  1.00  0.00     0.173 A 
ATOM     90  C   UNL A   1      45.312  29.355  35.012  1.00  0.00     0.173 A 
ATOM     91  F   UNL A   1      42.711  27.258  36.452  1.00  0.00    -0.203 F 
ATOM     92  C   UNL A   1      45.040  27.241  36.790  1.00  0.00     0.198 A 
ATOM     93  C   UNL A   1      46.437  28.803  35.620  1.00  0.00     0.198 A 
ATOM     94  F   UNL A   1      45.475  30.379  34.162  1.00  0.00    -0.203 F 
ATOM     95  F   UNL A   1      44.904  26.244  37.677  1.00  0.00    -0.200 F 
ATOM     96  C   UNL A   1      46.299  27.753  36.514  1.00  0.00     0.200 A 
ATOM     97  F   UNL A   1      47.653  29.291  35.340  1.00  0.00    -0.200 F 
ATOM     98  F   UNL A   1      47.381  27.238  37.115  1.00  0.00    -0.200 F 
ENDBRANCH  65  88
ENDBRANCH  39  40
ENDBRANCH  31  34
ENDBRANCH  29  30
ENDBRANCH  28  29
ENDBRANCH  27  28
ENDBRANCH   1  27
TORSDOF 15
ENDMDL
MODEL 2
REMARK VINA RESULT:     -12.9      1.613      2.084
REMARK SMILES COc1ccc(/C=C/C(=O)Nc2cc(Cl)ccc2C(=O)NCCCCNC(=O)c2ccc(-c3c4nc(c(-c5c(F)c(F)c(F)c(F)c5F)c5ccc([nH]5)c(-c5c(F)c(F)c(F)c(F)c5F)c5nc(c(-c6c(F)c(F)c(F)c(F)c6F)c6ccc3[nH]6)C=C5)C=C4)cc2)cc1
REMARK SMILES IDX 22 1 21 2 19 3 20 4 18 6 12 7 13 8 14 9 17 10 15 11 16 12
REMARK SMILES IDX 11 13 9 14 10 15 8 17 7 18 6 19 3 20 4 21 93 22 5 23 92 24
REMARK SMILES IDX 2 25 1 26 23 27 24 28 25 29 26 30 27 31 28 33 29 34 30 35
REMARK SMILES IDX 91 36 31 37 90 38 32 39 33 40 34 41 84 42 35 43 89 44 83 45
REMARK SMILES IDX 85 46 36 47 88 48 82 49 81 50 37 52 69 53 49 54 68 55 50 56
REMARK SMILES IDX 53 57 67 58 86 59 51 60 52 61 66 63 87 64 54 65 38 66 39 67
REMARK SMILES IDX 47 68 40 69 41 70 45 71 48 72 42 73 43 74 46 75 44 76 70 77
REMARK SMILES IDX 71 78 79 79 72 80 73 81 77 82 80 83 74 84 75 85 78 86 76 87
REMARK SMILES IDX 55 88 56 89 64 90 57 91 58 92 62 93 65 94 59 95 60 96 63 97
REMARK SMILES IDX 61 98
REMARK H PARENT 21 5 11 16 26 32 85 51 53 62
REMARK Flexibility Score: inf
ROOT
ATOM      1  C   UNL A   1      31.591  30.094  25.102  1.00  0.00     0.116 C 
ENDROOT
BRANCH   1   2
ATOM      2  N   UNL A   1      32.815  29.661  24.460  1.00  0.00    -0.352 N 
ATOM      3  C   UNL A   1      33.292  28.398  24.206  1.00  0.00     0.253 C 
ATOM      4  O   UNL A   1      34.384  28.307  23.643  1.00  0.00    -0.269 OA
ATOM      5  H   UNL A   1      33.401  30.391  24.157  1.00  0.00     0.163 HD
BRANCH   3   6
ATOM      6  C   UNL A   1      32.608  27.147  24.657  1.00  0.00     0.063 A 
ATOM      7  C   UNL A   1      32.068  26.115  23.863  1.00  0.00     0.055 A 
ATOM      8  C   UNL A   1      31.270  25.130  24.478  1.00  0.00     0.047 A 
ATOM      9  C   UNL A   1      31.149  25.066  25.865  1.00  0.00     0.043 A 
ATOM     10  C   UNL A   1      32.495  27.043  26.063  1.00  0.00     0.017 A 
ATOM     11  Cl  UNL A   1      30.248  23.792  26.586  1.00  0.00    -0.084 Cl
ATOM     12  C   UNL A   1      31.790  25.999  26.665  1.00  0.00     0.021 A 
BRANCH   7  13
ATOM     13  N   UNL A   1      32.286  25.883  22.486  1.00  0.00    -0.322 N 
ATOM     14  C   UNL A   1      32.932  24.874  21.827  1.00  0.00     0.248 C 
ATOM     15  O   UNL A   1      33.171  24.982  20.626  1.00  0.00    -0.270 OA
ATOM     16  H   UNL A   1      31.903  26.571  21.895  1.00  0.00     0.170 HD
BRANCH  14  17
ATOM     17  C   UNL A   1      33.345  23.652  22.540  1.00  0.00     0.072 C 
ATOM     18  C   UNL A   1      32.551  22.574  22.558  1.00  0.00     0.014 C 
BRANCH  18  19
ATOM     19  C   UNL A   1      32.840  21.327  23.270  1.00  0.00    -0.025 A 
ATOM     20  C   UNL A   1      33.491  18.838  24.352  1.00  0.00     0.118 A 
ATOM     21  C   UNL A   1      34.120  19.985  24.830  1.00  0.00     0.047 A 
ATOM     22  C   UNL A   1      32.473  18.932  23.407  1.00  0.00     0.047 A 
ATOM     23  C   UNL A   1      33.804  21.228  24.280  1.00  0.00     0.012 A 
ATOM     24  C   UNL A   1      32.157  20.174  22.862  1.00  0.00     0.012 A 
BRANCH  20  25
ATOM     25  O   UNL A   1      33.917  17.633  24.841  1.00  0.00    -0.497 OA
ATOM     26  C   UNL A   1      33.800  16.617  23.843  1.00  0.00     0.278 C 
ENDBRANCH  20  25
ENDBRANCH  18  19
ENDBRANCH  14  17
ENDBRANCH   7  13
ENDBRANCH   3   6
ENDBRANCH   1   2
BRANCH   1  27
ATOM     27  C   UNL A   1      31.763  30.548  26.547  1.00  0.00     0.023 C 
BRANCH  27  28
ATOM     28  C   UNL A   1      31.552  32.042  26.815  1.00  0.00     0.023 C 
BRANCH  28  29
ATOM     29  C   UNL A   1      32.761  32.841  27.301  1.00  0.00     0.116 C 
BRANCH  29  30
ATOM     30  N   UNL A   1      32.454  34.213  27.679  1.00  0.00    -0.352 N 
ATOM     31  C   UNL A   1      33.021  35.025  28.634  1.00  0.00     0.251 C 
ATOM     32  H   UNL A   1      31.721  34.627  27.168  1.00  0.00     0.163 HD
ATOM     33  O   UNL A   1      32.536  36.127  28.873  1.00  0.00    -0.269 OA
BRANCH  31  34
ATOM     34  C   UNL A   1      34.194  34.565  29.409  1.00  0.00     0.039 A 
ATOM     35  C   UNL A   1      33.994  34.005  30.675  1.00  0.00     0.014 A 
ATOM     36  C   UNL A   1      35.487  34.681  28.898  1.00  0.00     0.014 A 
ATOM     37  C   UNL A   1      35.076  33.470  31.378  1.00  0.00     0.010 A 
ATOM     38  C   UNL A   1      36.552  34.070  29.558  1.00  0.00     0.010 A 
ATOM     39  C   UNL A   1      36.357  33.450  30.803  1.00  0.00    -0.014 A 
BRANCH  39  40
ATOM     40  C   UNL A   1      37.499  32.778  31.478  1.00  0.00     0.031 A 
ATOM     41  C   UNL A   1      38.193  31.617  30.821  1.00  0.00     0.074 A 
ATOM     42  C   UNL A   1      37.863  33.160  32.718  1.00  0.00     0.049 A 
ATOM     43  N   UNL A   1      39.152  30.852  31.284  1.00  0.00    -0.248 NA
ATOM     44  C   UNL A   1      37.727  31.242  29.477  1.00  0.00     0.031 C 
ATOM     45  C   UNL A   1      37.235  34.232  33.493  1.00  0.00     0.029 A 
ATOM     46  N   UNL A   1      38.845  32.683  33.552  1.00  0.00    -0.354 N 
ATOM     47  C   UNL A   1      39.385  29.900  30.300  1.00  0.00     0.074 A 
ATOM     48  C   UNL A   1      38.432  30.146  29.240  1.00  0.00     0.031 C 
ATOM     49  C   UNL A   1      37.860  34.347  34.675  1.00  0.00     0.029 A 
ATOM     50  C   UNL A   1      38.909  33.336  34.759  1.00  0.00     0.049 A 
ATOM     51  H   UNL A   1      39.446  31.942  33.308  1.00  0.00     0.167 HD
ATOM     52  C   UNL A   1      40.326  28.926  30.269  1.00  0.00     0.037 A 
ATOM     53  C   UNL A   1      39.720  33.139  35.818  1.00  0.00     0.037 A 
ATOM     54  C   UNL A   1      41.296  28.702  31.309  1.00  0.00     0.049 A 
ATOM     55  C   UNL A   1      40.766  32.059  35.753  1.00  0.00     0.074 A 
ATOM     56  C   UNL A   1      42.329  27.782  31.342  1.00  0.00     0.029 A 
ATOM     57  N   UNL A   1      41.352  29.409  32.502  1.00  0.00    -0.354 N 
ATOM     58  N   UNL A   1      41.024  31.214  34.786  1.00  0.00    -0.248 NA
ATOM     59  C   UNL A   1      41.642  31.915  36.924  1.00  0.00     0.031 C 
ATOM     60  C   UNL A   1      42.984  27.903  32.572  1.00  0.00     0.029 A 
ATOM     61  C   UNL A   1      42.392  28.934  33.283  1.00  0.00     0.049 A 
ATOM     62  H   UNL A   1      40.742  30.139  32.754  1.00  0.00     0.167 HD
ATOM     63  C   UNL A   1      42.109  30.461  35.215  1.00  0.00     0.074 A 
ATOM     64  C   UNL A   1      42.470  30.959  36.527  1.00  0.00     0.031 C 
ATOM     65  C   UNL A   1      42.749  29.449  34.581  1.00  0.00     0.037 A 
BRANCH  52  66
ATOM     66  C   UNL A   1      40.357  28.031  29.064  1.00  0.00     0.064 A 
ATOM     67  C   UNL A   1      39.632  26.830  29.019  1.00  0.00     0.173 A 
ATOM     68  C   UNL A   1      41.093  28.393  27.925  1.00  0.00     0.173 A 
ATOM     69  F   UNL A   1      38.918  26.434  30.085  1.00  0.00    -0.203 F 
ATOM     70  C   UNL A   1      39.670  26.009  27.897  1.00  0.00     0.198 A 
ATOM     71  C   UNL A   1      41.104  27.584  26.791  1.00  0.00     0.198 A 
ATOM     72  F   UNL A   1      41.798  29.533  27.909  1.00  0.00    -0.203 F 
ATOM     73  F   UNL A   1      39.012  24.841  27.900  1.00  0.00    -0.200 F 
ATOM     74  C   UNL A   1      40.399  26.390  26.781  1.00  0.00     0.200 A 
ATOM     75  F   UNL A   1      41.798  27.960  25.708  1.00  0.00    -0.200 F 
ATOM     76  F   UNL A   1      40.432  25.601  25.697  1.00  0.00    -0.200 F 
ENDBRANCH  52  66
BRANCH  53  77
ATOM     77  C   UNL A   1      39.599  34.006  37.020  1.00  0.00     0.064 A 
ATOM     78  C   UNL A   1      38.818  33.609  38.115  1.00  0.00     0.173 A 
ATOM     79  C   UNL A   1      40.247  35.247  37.097  1.00  0.00     0.173 A 
ATOM     80  F   UNL A   1      38.162  32.440  38.080  1.00  0.00    -0.203 F 
ATOM     81  C   UNL A   1      38.673  34.430  39.231  1.00  0.00     0.198 A 
ATOM     82  C   UNL A   1      40.123  36.054  38.225  1.00  0.00     0.198 A 
ATOM     83  F   UNL A   1      41.009  35.670  36.078  1.00  0.00    -0.203 F 
ATOM     84  F   UNL A   1      37.881  34.047  40.243  1.00  0.00    -0.200 F 
ATOM     85  C   UNL A   1      39.330  35.649  39.288  1.00  0.00     0.200 A 
ATOM     86  F   UNL A   1      40.771  37.226  38.283  1.00  0.00    -0.200 F 
ATOM     87  F   UNL A   1      39.190  36.438  40.362  1.00  0.00    -0.200 F 
ENDBRANCH  53  77
BRANCH  65  88
ATOM     88  C   UNL A   1      43.935  28.841  35.272  1.00  0.00     0.064 A 
ATOM     89  C   UNL A   1      43.805  27.744  36.135  1.00  0.00     0.173 A 
ATOM     90  C   UNL A   1      45.225  29.343  35.037  1.00  0.00     0.173 A 
ATOM     91  F   UNL A   1      42.593  27.238  36.406  1.00  0.00    -0.203 F 
ATOM     92  C   UNL A   1      44.919  27.188  36.758  1.00  0.00     0.198 A 
ATOM     93  C   UNL A   1      46.340  28.764  35.637  1.00  0.00     0.198 A 
ATOM     94  F   UNL A   1      45.405  30.387  34.214  1.00  0.00    -0.203 F 
ATOM     95  F   UNL A   1      44.766  26.170  37.618  1.00  0.00    -0.200 F 
ATOM     96  C   UNL A   1      46.185  27.693  36.503  1.00  0.00     0.200 A 
ATOM     97  F   UNL A   1      47.563  29.245  35.378  1.00  0.00    -0.200 F 
ATOM     98  F   UNL A   1      47.258  27.151  37.098  1.00  0.00    -0.200 F 
ENDBRANCH  65  88
ENDBRANCH  39  40
ENDBRANCH  31  34
ENDBRANCH  29  30
ENDBRANCH  28  29
ENDBRANCH  27  28
ENDBRANCH   1  27
TORSDOF 15
ENDMDL
MODEL 3
REMARK VINA RESULT:     -12.7      1.585      2.481
REMARK SMILES COc1ccc(/C=C/C(=O)Nc2cc(Cl)ccc2C(=O)NCCCCNC(=O)c2ccc(-c3c4nc(c(-c5c(F)c(F)c(F)c(F)c5F)c5ccc([nH]5)c(-c5c(F)c(F)c(F)c(F)c5F)c5nc(c(-c6c(F)c(F)c(F)c(F)c6F)c6ccc3[nH]6)C=C5)C=C4)cc2)cc1
REMARK SMILES IDX 22 1 21 2 19 3 20 4 18 6 12 7 13 8 14 9 17 10 15 11 16 12
REMARK SMILES IDX 11 13 9 14 10 15 8 17 7 18 6 19 3 20 4 21 93 22 5 23 92 24
REMARK SMILES IDX 2 25 1 26 23 27 24 28 25 29 26 30 27 31 28 33 29 34 30 35
REMARK SMILES IDX 91 36 31 37 90 38 32 39 33 40 34 41 84 42 35 43 89 44 83 45
REMARK SMILES IDX 85 46 36 47 88 48 82 49 81 50 37 52 69 53 49 54 68 55 50 56
REMARK SMILES IDX 53 57 67 58 86 59 51 60 52 61 66 63 87 64 54 65 38 66 39 67
REMARK SMILES IDX 47 68 40 69 41 70 45 71 48 72 42 73 43 74 46 75 44 76 70 77
REMARK SMILES IDX 71 78 79 79 72 80 73 81 77 82 80 83 74 84 75 85 78 86 76 87
REMARK SMILES IDX 55 88 56 89 64 90 57 91 58 92 62 93 65 94 59 95 60 96 63 97
REMARK SMILES IDX 61 98
REMARK H PARENT 21 5 11 16 26 32 85 51 53 62
REMARK Flexibility Score: inf
ROOT
ATOM      1  C   UNL A   1      33.702  29.836  26.922  1.00  0.00     0.116 C 
ENDROOT
BRANCH   1   2
ATOM      2  N   UNL A   1      32.655  29.234  27.721  1.00  0.00    -0.352 N 
ATOM      3  C   UNL A   1      31.707  28.295  27.391  1.00  0.00     0.253 C 
ATOM      4  O   UNL A   1      30.916  27.954  28.272  1.00  0.00    -0.269 OA
ATOM      5  H   UNL A   1      32.615  29.549  28.653  1.00  0.00     0.163 HD
BRANCH   3   6
ATOM      6  C   UNL A   1      31.529  27.746  26.013  1.00  0.00     0.063 A 
ATOM      7  C   UNL A   1      31.290  26.410  25.631  1.00  0.00     0.055 A 
ATOM      8  C   UNL A   1      31.373  26.066  24.268  1.00  0.00     0.047 A 
ATOM      9  C   UNL A   1      31.518  27.045  23.286  1.00  0.00     0.043 A 
ATOM     10  C   UNL A   1      31.645  28.723  24.997  1.00  0.00     0.017 A 
ATOM     11  Cl  UNL A   1      31.516  26.599  21.626  1.00  0.00    -0.084 Cl
ATOM     12  C   UNL A   1      31.618  28.381  23.644  1.00  0.00     0.021 A 
BRANCH   7  13
ATOM     13  N   UNL A   1      30.891  25.336  26.459  1.00  0.00    -0.322 N 
ATOM     14  C   UNL A   1      31.521  24.171  26.800  1.00  0.00     0.248 C 
ATOM     15  O   UNL A   1      30.896  23.285  27.381  1.00  0.00    -0.270 OA
ATOM     16  H   UNL A   1      30.000  25.447  26.862  1.00  0.00     0.170 HD
BRANCH  14  17
ATOM     17  C   UNL A   1      32.945  23.962  26.483  1.00  0.00     0.072 C 
ATOM     18  C   UNL A   1      33.372  22.783  26.015  1.00  0.00     0.014 C 
BRANCH  18  19
ATOM     19  C   UNL A   1      34.766  22.451  25.713  1.00  0.00    -0.025 A 
ATOM     20  C   UNL A   1      37.479  21.854  25.445  1.00  0.00     0.118 A 
ATOM     21  C   UNL A   1      36.524  20.909  25.078  1.00  0.00     0.047 A 
ATOM     22  C   UNL A   1      37.092  23.127  25.854  1.00  0.00     0.047 A 
ATOM     23  C   UNL A   1      35.168  21.202  25.225  1.00  0.00     0.012 A 
ATOM     24  C   UNL A   1      35.739  23.420  25.996  1.00  0.00     0.012 A 
BRANCH  20  25
ATOM     25  O   UNL A   1      38.794  21.478  25.392  1.00  0.00    -0.497 OA
ATOM     26  C   UNL A   1      39.538  22.105  26.437  1.00  0.00     0.278 C 
ENDBRANCH  20  25
ENDBRANCH  18  19
ENDBRANCH  14  17
ENDBRANCH   7  13
ENDBRANCH   3   6
ENDBRANCH   1   2
BRANCH   1  27
ATOM     27  C   UNL A   1      34.473  30.946  27.626  1.00  0.00     0.023 C 
BRANCH  27  28
ATOM     28  C   UNL A   1      34.050  32.380  27.290  1.00  0.00     0.023 C 
BRANCH  28  29
ATOM     29  C   UNL A   1      32.599  32.765  27.579  1.00  0.00     0.116 C 
BRANCH  29  30
ATOM     30  N   UNL A   1      32.399  34.185  27.829  1.00  0.00    -0.352 N 
ATOM     31  C   UNL A   1      33.047  35.040  28.690  1.00  0.00     0.251 C 
ATOM     32  H   UNL A   1      31.685  34.601  27.295  1.00  0.00     0.163 HD
ATOM     33  O   UNL A   1      32.648  36.193  28.832  1.00  0.00    -0.269 OA
BRANCH  31  34
ATOM     34  C   UNL A   1      34.206  34.572  29.483  1.00  0.00     0.039 A 
ATOM     35  C   UNL A   1      33.977  33.941  30.709  1.00  0.00     0.014 A 
ATOM     36  C   UNL A   1      35.512  34.750  29.025  1.00  0.00     0.014 A 
ATOM     37  C   UNL A   1      35.049  33.398  31.423  1.00  0.00     0.010 A 
ATOM     38  C   UNL A   1      36.570  34.134  29.692  1.00  0.00     0.010 A 
ATOM     39  C   UNL A   1      36.349  33.444  30.895  1.00  0.00    -0.014 A 
BRANCH  39  40
ATOM     40  C   UNL A   1      37.487  32.768  31.575  1.00  0.00     0.031 A 
ATOM     41  C   UNL A   1      38.165  31.591  30.931  1.00  0.00     0.074 A 
ATOM     42  C   UNL A   1      37.859  33.163  32.809  1.00  0.00     0.049 A 
ATOM     43  N   UNL A   1      39.117  30.822  31.402  1.00  0.00    -0.248 NA
ATOM     44  C   UNL A   1      37.691  31.203  29.594  1.00  0.00     0.031 C 
ATOM     45  C   UNL A   1      37.245  34.252  33.571  1.00  0.00     0.029 A 
ATOM     46  N   UNL A   1      38.838  32.686  33.646  1.00  0.00    -0.354 N 
ATOM     47  C   UNL A   1      39.337  29.855  30.429  1.00  0.00     0.074 A 
ATOM     48  C   UNL A   1      38.383  30.097  29.369  1.00  0.00     0.031 C 
ATOM     49  C   UNL A   1      37.875  34.375  34.750  1.00  0.00     0.029 A 
ATOM     50  C   UNL A   1      38.913  33.354  34.845  1.00  0.00     0.049 A 
ATOM     51  H   UNL A   1      39.430  31.935  33.410  1.00  0.00     0.167 HD
ATOM     52  C   UNL A   1      40.267  28.869  30.409  1.00  0.00     0.037 A 
ATOM     53  C   UNL A   1      39.725  33.162  35.903  1.00  0.00     0.037 A 
ATOM     54  C   UNL A   1      41.238  28.649  31.448  1.00  0.00     0.049 A 
ATOM     55  C   UNL A   1      40.759  32.070  35.850  1.00  0.00     0.074 A 
ATOM     56  C   UNL A   1      42.261  27.718  31.490  1.00  0.00     0.029 A 
ATOM     57  N   UNL A   1      41.305  29.371  32.631  1.00  0.00    -0.354 N 
ATOM     58  N   UNL A   1      41.005  31.209  34.892  1.00  0.00    -0.248 NA
ATOM     59  C   UNL A   1      41.637  31.932  37.019  1.00  0.00     0.031 C 
ATOM     60  C   UNL A   1      42.922  27.848  32.716  1.00  0.00     0.029 A 
ATOM     61  C   UNL A   1      42.343  28.895  33.416  1.00  0.00     0.049 A 
ATOM     62  H   UNL A   1      40.704  30.111  32.876  1.00  0.00     0.167 HD
ATOM     63  C   UNL A   1      42.083  30.451  35.328  1.00  0.00     0.074 A 
ATOM     64  C   UNL A   1      42.453  30.961  36.632  1.00  0.00     0.031 C 
ATOM     65  C   UNL A   1      42.710  29.423  34.705  1.00  0.00     0.037 A 
BRANCH  52  66
ATOM     66  C   UNL A   1      40.284  27.959  29.215  1.00  0.00     0.064 A 
ATOM     67  C   UNL A   1      39.535  26.773  29.183  1.00  0.00     0.173 A 
ATOM     68  C   UNL A   1      41.033  28.290  28.075  1.00  0.00     0.173 A 
ATOM     69  F   UNL A   1      38.809  26.405  30.251  1.00  0.00    -0.203 F 
ATOM     70  C   UNL A   1      39.560  25.936  28.072  1.00  0.00     0.198 A 
ATOM     71  C   UNL A   1      41.031  27.467  26.952  1.00  0.00     0.198 A 
ATOM     72  F   UNL A   1      41.761  29.416  28.047  1.00  0.00    -0.203 F 
ATOM     73  F   UNL A   1      38.878  24.782  28.087  1.00  0.00    -0.200 F 
ATOM     74  C   UNL A   1      40.302  26.287  26.954  1.00  0.00     0.200 A 
ATOM     75  F   UNL A   1      41.737  27.814  25.867  1.00  0.00    -0.200 F 
ATOM     76  F   UNL A   1      40.322  25.484  25.881  1.00  0.00    -0.200 F 
ENDBRANCH  52  66
BRANCH  53  77
ATOM     77  C   UNL A   1      39.617  34.046  37.093  1.00  0.00     0.064 A 
ATOM     78  C   UNL A   1      40.284  35.279  37.134  1.00  0.00     0.173 A 
ATOM     79  C   UNL A   1      38.859  33.678  38.215  1.00  0.00     0.173 A 
ATOM     80  F   UNL A   1      41.039  35.666  36.095  1.00  0.00    -0.203 F 
ATOM     81  C   UNL A   1      40.216  36.098  38.259  1.00  0.00     0.198 A 
ATOM     82  C   UNL A   1      38.769  34.511  39.327  1.00  0.00     0.198 A 
ATOM     83  F   UNL A   1      38.198  32.511  38.224  1.00  0.00    -0.203 F 
ATOM     84  F   UNL A   1      40.903  37.249  38.290  1.00  0.00    -0.200 F 
ATOM     85  C   UNL A   1      39.454  35.716  39.352  1.00  0.00     0.200 A 
ATOM     86  F   UNL A   1      38.020  34.145  40.377  1.00  0.00    -0.200 F 
ATOM     87  F   UNL A   1      39.388  36.505  40.433  1.00  0.00    -0.200 F 
ENDBRANCH  53  77
BRANCH  65  88
ATOM     88  C   UNL A   1      43.892  28.811  35.401  1.00  0.00     0.064 A 
ATOM     89  C   UNL A   1      43.746  27.762  36.319  1.00  0.00     0.173 A 
ATOM     90  C   UNL A   1      45.191  29.260  35.115  1.00  0.00     0.173 A 
ATOM     91  F   UNL A   1      42.525  27.309  36.639  1.00  0.00    -0.203 F 
ATOM     92  C   UNL A   1      44.856  27.200  36.945  1.00  0.00     0.198 A 
ATOM     93  C   UNL A   1      46.300  28.674  35.719  1.00  0.00     0.198 A 
ATOM     94  F   UNL A   1      45.384  30.256  34.239  1.00  0.00    -0.203 F 
ATOM     95  F   UNL A   1      44.690  26.231  37.857  1.00  0.00    -0.200 F 
ATOM     96  C   UNL A   1      46.131  27.652  36.640  1.00  0.00     0.200 A 
ATOM     97  F   UNL A   1      47.532  29.103  35.412  1.00  0.00    -0.200 F 
ATOM     98  F   UNL A   1      47.199  27.105  37.238  1.00  0.00    -0.200 F 
ENDBRANCH  65  88
ENDBRANCH  39  40
ENDBRANCH  31  34
ENDBRANCH  29  30
ENDBRANCH  28  29
ENDBRANCH  27  28
ENDBRANCH   1  27
TORSDOF 15
ENDMDL
