MODEL 1
REMARK VINA RESULT:     -11.8      0.000      0.000
REMARK SMILES C[C@@H](C(=O)NCCCCNC(=O)c1ccc(-c2c3nc(c(-c4c(F)c(F)c(F)c(F)c4F)c4ccc([nH]4)c(-c4c(F)c(F)c(F)c(F)c4F)c4nc(c(-c5c(F)c(F)c(F)c(F)c5F)c5ccc2[nH]5)C=C4)C=C3)cc1)c1ccc(-c2ccccc2)cc1
REMARK SMILES IDX 7 1 6 2 5 3 3 4 4 5 2 7 1 8 76 9 77 10 87 11 78 12 86 13
REMARK SMILES IDX 79 14 80 15 81 16 85 17 82 18 84 19 83 20 8 21 9 22 10 23
REMARK SMILES IDX 11 24 12 26 13 27 14 28 75 29 15 30 74 31 16 32 17 33 18 34
REMARK SMILES IDX 68 35 19 36 73 37 67 38 69 39 20 40 72 41 66 42 65 43 21 45
REMARK SMILES IDX 53 46 33 47 52 48 34 49 37 50 51 51 70 52 35 53 36 54 50 56
REMARK SMILES IDX 71 57 38 58 22 59 23 60 31 61 24 62 25 63 29 64 32 65 26 66
REMARK SMILES IDX 27 67 30 68 28 69 54 70 55 71 63 72 56 73 57 74 61 75 64 76
REMARK SMILES IDX 58 77 59 78 62 79 60 80 39 81 40 82 48 83 41 84 42 85 46 86
REMARK SMILES IDX 49 87 43 88 44 89 47 90 45 91
REMARK H PARENT 5 6 10 25 69 44 37 55
REMARK Flexibility Score: inf
ROOT
ATOM      1  C   UNL A   1      32.691  29.320  24.963  1.00  0.00     0.023 C 
ENDROOT
BRANCH   1   2
ATOM      2  C   UNL A   1      31.625  28.596  24.131  1.00  0.00     0.116 C 
BRANCH   2   3
ATOM      3  N   UNL A   1      30.870  27.674  24.954  1.00  0.00    -0.356 N 
ATOM      4  C   UNL A   1      30.536  26.368  24.726  1.00  0.00     0.227 C 
ATOM      5  O   UNL A   1      29.582  25.950  25.383  1.00  0.00    -0.274 OA
ATOM      6  H   UNL A   1      30.548  28.045  25.807  1.00  0.00     0.163 HD
BRANCH   4   7
ATOM      7  C   UNL A   1      31.328  25.542  23.694  1.00  0.00     0.105 C 
ATOM      8  C   UNL A   1      30.465  24.350  23.249  1.00  0.00     0.023 C 
BRANCH   7   9
ATOM      9  C   UNL A   1      32.717  25.030  24.105  1.00  0.00    -0.036 A 
ATOM     10  C   UNL A   1      33.570  24.521  23.107  1.00  0.00     0.005 A 
ATOM     11  C   UNL A   1      33.191  24.998  25.421  1.00  0.00     0.005 A 
ATOM     12  C   UNL A   1      34.784  23.903  23.425  1.00  0.00     0.009 A 
ATOM     13  C   UNL A   1      34.409  24.383  25.740  1.00  0.00     0.009 A 
ATOM     14  C   UNL A   1      35.207  23.795  24.754  1.00  0.00    -0.018 A 
BRANCH  14  15
ATOM     15  C   UNL A   1      36.432  23.065  25.107  1.00  0.00    -0.018 A 
ATOM     16  C   UNL A   1      37.452  23.674  25.853  1.00  0.00     0.009 A 
ATOM     17  C   UNL A   1      36.618  21.737  24.685  1.00  0.00     0.009 A 
ATOM     18  C   UNL A   1      38.619  22.976  26.172  1.00  0.00     0.001 A 
ATOM     19  C   UNL A   1      37.785  21.039  25.002  1.00  0.00     0.001 A 
ATOM     20  C   UNL A   1      38.785  21.660  25.746  1.00  0.00     0.000 A 
ENDBRANCH  14  15
ENDBRANCH   7   9
ENDBRANCH   4   7
ENDBRANCH   2   3
ENDBRANCH   1   2
BRANCH   1  21
ATOM     21  C   UNL A   1      33.709  28.403  25.649  1.00  0.00     0.023 C 
BRANCH  21  22
ATOM     22  C   UNL A   1      33.792  28.554  27.159  1.00  0.00     0.116 C 
BRANCH  22  23
ATOM     23  N   UNL A   1      33.721  29.942  27.587  1.00  0.00    -0.352 N 
ATOM     24  C   UNL A   1      34.667  30.694  28.238  1.00  0.00     0.251 C 
ATOM     25  H   UNL A   1      32.879  30.406  27.381  1.00  0.00     0.163 HD
ATOM     26  O   UNL A   1      34.385  31.811  28.659  1.00  0.00    -0.269 OA
BRANCH  24  27
ATOM     27  C   UNL A   1      36.018  30.139  28.461  1.00  0.00     0.039 A 
ATOM     28  C   UNL A   1      36.946  30.188  27.419  1.00  0.00     0.014 A 
ATOM     29  C   UNL A   1      36.372  29.591  29.697  1.00  0.00     0.014 A 
ATOM     30  C   UNL A   1      38.252  29.748  27.637  1.00  0.00     0.010 A 
ATOM     31  C   UNL A   1      37.694  29.225  29.936  1.00  0.00     0.010 A 
ATOM     32  C   UNL A   1      38.647  29.299  28.908  1.00  0.00    -0.014 A 
BRANCH  32  33
ATOM     33  C   UNL A   1      40.053  28.911  29.183  1.00  0.00     0.031 A 
ATOM     34  C   UNL A   1      40.970  29.852  29.909  1.00  0.00     0.074 A 
ATOM     35  C   UNL A   1      40.519  27.732  28.723  1.00  0.00     0.049 A 
ATOM     36  N   UNL A   1      42.242  29.719  30.190  1.00  0.00    -0.248 NA
ATOM     37  C   UNL A   1      40.389  31.129  30.356  1.00  0.00     0.031 C 
ATOM     38  C   UNL A   1      39.739  26.755  27.961  1.00  0.00     0.029 A 
ATOM     39  N   UNL A   1      41.763  27.162  28.818  1.00  0.00    -0.354 N 
ATOM     40  C   UNL A   1      42.612  30.891  30.833  1.00  0.00     0.074 A 
ATOM     41  C   UNL A   1      41.449  31.751  30.851  1.00  0.00     0.031 C 
ATOM     42  C   UNL A   1      40.515  25.697  27.680  1.00  0.00     0.029 A 
ATOM     43  C   UNL A   1      41.856  25.937  28.204  1.00  0.00     0.049 A 
ATOM     44  H   UNL A   1      42.517  27.591  29.284  1.00  0.00     0.167 HD
ATOM     45  C   UNL A   1      43.809  31.213  31.381  1.00  0.00     0.037 A 
ATOM     46  C   UNL A   1      42.907  25.105  28.072  1.00  0.00     0.037 A 
ATOM     47  C   UNL A   1      44.959  30.347  31.378  1.00  0.00     0.049 A 
ATOM     48  C   UNL A   1      44.229  25.493  28.679  1.00  0.00     0.074 A 
ATOM     49  C   UNL A   1      46.198  30.555  31.957  1.00  0.00     0.029 A 
ATOM     50  N   UNL A   1      45.011  29.106  30.758  1.00  0.00    -0.354 N 
ATOM     51  N   UNL A   1      44.547  26.573  29.351  1.00  0.00    -0.248 NA
ATOM     52  C   UNL A   1      45.336  24.542  28.514  1.00  0.00     0.031 C 
ATOM     53  C   UNL A   1      47.017  29.466  31.643  1.00  0.00     0.029 A 
ATOM     54  C   UNL A   1      46.271  28.550  30.919  1.00  0.00     0.049 A 
ATOM     55  H   UNL A   1      44.265  28.683  30.274  1.00  0.00     0.167 HD
ATOM     56  C   UNL A   1      45.878  26.418  29.716  1.00  0.00     0.074 A 
ATOM     57  C   UNL A   1      46.303  25.131  29.203  1.00  0.00     0.031 C 
ATOM     58  C   UNL A   1      46.676  27.264  30.411  1.00  0.00     0.037 A 
BRANCH  45  59
ATOM     59  C   UNL A   1      43.936  32.559  32.034  1.00  0.00     0.064 A 
ATOM     60  C   UNL A   1      43.620  32.754  33.387  1.00  0.00     0.173 A 
ATOM     61  C   UNL A   1      44.419  33.660  31.310  1.00  0.00     0.173 A 
ATOM     62  F   UNL A   1      43.143  31.738  34.124  1.00  0.00    -0.203 F 
ATOM     63  C   UNL A   1      43.753  34.007  33.982  1.00  0.00     0.198 A 
ATOM     64  C   UNL A   1      44.583  34.902  31.917  1.00  0.00     0.198 A 
ATOM     65  F   UNL A   1      44.742  33.529  30.014  1.00  0.00    -0.203 F 
ATOM     66  F   UNL A   1      43.396  34.179  35.262  1.00  0.00    -0.200 F 
ATOM     67  C   UNL A   1      44.242  35.077  33.250  1.00  0.00     0.200 A 
ATOM     68  F   UNL A   1      45.069  35.933  31.211  1.00  0.00    -0.200 F 
ATOM     69  F   UNL A   1      44.379  36.279  33.827  1.00  0.00    -0.200 F 
ENDBRANCH  45  59
BRANCH  46  70
ATOM     70  C   UNL A   1      42.749  23.814  27.353  1.00  0.00     0.064 A 
ATOM     71  C   UNL A   1      42.229  22.686  28.003  1.00  0.00     0.173 A 
ATOM     72  C   UNL A   1      43.124  23.676  26.008  1.00  0.00     0.173 A 
ATOM     73  F   UNL A   1      41.874  22.762  29.294  1.00  0.00    -0.203 F 
ATOM     74  C   UNL A   1      42.111  21.464  27.344  1.00  0.00     0.198 A 
ATOM     75  C   UNL A   1      42.977  22.462  25.340  1.00  0.00     0.198 A 
ATOM     76  F   UNL A   1      43.622  24.726  25.338  1.00  0.00    -0.203 F 
ATOM     77  F   UNL A   1      41.659  20.390  28.005  1.00  0.00    -0.200 F 
ATOM     78  C   UNL A   1      42.481  21.354  26.012  1.00  0.00     0.200 A 
ATOM     79  F   UNL A   1      43.320  22.364  24.049  1.00  0.00    -0.200 F 
ATOM     80  F   UNL A   1      42.365  20.179  25.377  1.00  0.00    -0.200 F 
ENDBRANCH  46  70
BRANCH  58  81
ATOM     81  C   UNL A   1      48.079  26.811  30.695  1.00  0.00     0.064 A 
ATOM     82  C   UNL A   1      48.385  25.995  31.795  1.00  0.00     0.173 A 
ATOM     83  C   UNL A   1      49.127  27.166  29.831  1.00  0.00     0.173 A 
ATOM     84  F   UNL A   1      47.422  25.640  32.659  1.00  0.00    -0.203 F 
ATOM     85  C   UNL A   1      49.692  25.576  32.034  1.00  0.00     0.198 A 
ATOM     86  C   UNL A   1      50.425  26.717  30.054  1.00  0.00     0.198 A 
ATOM     87  F   UNL A   1      48.887  27.938  28.760  1.00  0.00    -0.203 F 
ATOM     88  F   UNL A   1      49.968  24.840  33.120  1.00  0.00    -0.200 F 
ATOM     89  C   UNL A   1      50.708  25.930  31.160  1.00  0.00     0.200 A 
ATOM     90  F   UNL A   1      51.403  27.047  29.199  1.00  0.00    -0.200 F 
ATOM     91  F   UNL A   1      51.962  25.518  31.387  1.00  0.00    -0.200 F 
ENDBRANCH  58  81
ENDBRANCH  32  33
ENDBRANCH  24  27
ENDBRANCH  22  23
ENDBRANCH  21  22
ENDBRANCH   1  21
TORSDOF 13
ENDMDL
MODEL 2
REMARK VINA RESULT:     -11.7      3.381      5.569
REMARK SMILES C[C@@H](C(=O)NCCCCNC(=O)c1ccc(-c2c3nc(c(-c4c(F)c(F)c(F)c(F)c4F)c4ccc([nH]4)c(-c4c(F)c(F)c(F)c(F)c4F)c4nc(c(-c5c(F)c(F)c(F)c(F)c5F)c5ccc2[nH]5)C=C4)C=C3)cc1)c1ccc(-c2ccccc2)cc1
REMARK SMILES IDX 7 1 6 2 5 3 3 4 4 5 2 7 1 8 76 9 77 10 87 11 78 12 86 13
REMARK SMILES IDX 79 14 80 15 81 16 85 17 82 18 84 19 83 20 8 21 9 22 10 23
REMARK SMILES IDX 11 24 12 26 13 27 14 28 75 29 15 30 74 31 16 32 17 33 18 34
REMARK SMILES IDX 68 35 19 36 73 37 67 38 69 39 20 40 72 41 66 42 65 43 21 45
REMARK SMILES IDX 53 46 33 47 52 48 34 49 37 50 51 51 70 52 35 53 36 54 50 56
REMARK SMILES IDX 71 57 38 58 22 59 23 60 31 61 24 62 25 63 29 64 32 65 26 66
REMARK SMILES IDX 27 67 30 68 28 69 54 70 55 71 63 72 56 73 57 74 61 75 64 76
REMARK SMILES IDX 58 77 59 78 62 79 60 80 39 81 40 82 48 83 41 84 42 85 46 86
REMARK SMILES IDX 49 87 43 88 44 89 47 90 45 91
REMARK H PARENT 5 6 10 25 69 44 37 55
REMARK Flexibility Score: inf
ROOT
ATOM      1  C   UNL A   1      31.512  27.881  26.972  1.00  0.00     0.023 C 
ENDROOT
BRANCH   1   2
ATOM      2  C   UNL A   1      32.245  26.638  26.451  1.00  0.00     0.116 C 
BRANCH   2   3
ATOM      3  N   UNL A   1      31.527  25.433  26.806  1.00  0.00    -0.356 N 
ATOM      4  C   UNL A   1      30.654  24.683  26.068  1.00  0.00     0.227 C 
ATOM      5  O   UNL A   1      29.904  23.957  26.722  1.00  0.00    -0.274 OA
ATOM      6  H   UNL A   1      31.692  25.102  27.719  1.00  0.00     0.163 HD
BRANCH   4   7
ATOM      7  C   UNL A   1      30.650  24.802  24.531  1.00  0.00     0.105 C 
ATOM      8  C   UNL A   1      32.083  24.595  24.016  1.00  0.00     0.023 C 
BRANCH   7   9
ATOM      9  C   UNL A   1      30.077  26.088  23.917  1.00  0.00    -0.036 A 
ATOM     10  C   UNL A   1      30.918  26.887  23.118  1.00  0.00     0.005 A 
ATOM     11  C   UNL A   1      28.773  26.552  24.124  1.00  0.00     0.005 A 
ATOM     12  C   UNL A   1      30.512  28.141  22.651  1.00  0.00     0.009 A 
ATOM     13  C   UNL A   1      28.364  27.806  23.653  1.00  0.00     0.009 A 
ATOM     14  C   UNL A   1      29.235  28.635  22.940  1.00  0.00    -0.018 A 
BRANCH  14  15
ATOM     15  C   UNL A   1      28.833  29.989  22.537  1.00  0.00    -0.018 A 
ATOM     16  C   UNL A   1      28.417  30.263  21.225  1.00  0.00     0.009 A 
ATOM     17  C   UNL A   1      28.874  31.051  23.457  1.00  0.00     0.009 A 
ATOM     18  C   UNL A   1      28.049  31.556  20.846  1.00  0.00     0.001 A 
ATOM     19  C   UNL A   1      28.509  32.344  23.079  1.00  0.00     0.001 A 
ATOM     20  C   UNL A   1      28.096  32.596  21.773  1.00  0.00     0.000 A 
ENDBRANCH  14  15
ENDBRANCH   7   9
ENDBRANCH   4   7
ENDBRANCH   2   3
ENDBRANCH   1   2
BRANCH   1  21
ATOM     21  C   UNL A   1      31.520  29.082  26.022  1.00  0.00     0.023 C 
BRANCH  21  22
ATOM     22  C   UNL A   1      32.812  29.884  26.014  1.00  0.00     0.116 C 
BRANCH  22  23
ATOM     23  N   UNL A   1      32.615  31.265  26.422  1.00  0.00    -0.352 N 
ATOM     24  C   UNL A   1      33.337  32.012  27.319  1.00  0.00     0.251 C 
ATOM     25  H   UNL A   1      31.860  31.729  25.995  1.00  0.00     0.163 HD
ATOM     26  O   UNL A   1      32.940  33.123  27.659  1.00  0.00    -0.269 OA
BRANCH  24  27
ATOM     27  C   UNL A   1      34.576  31.459  27.902  1.00  0.00     0.039 A 
ATOM     28  C   UNL A   1      35.689  32.293  28.032  1.00  0.00     0.014 A 
ATOM     29  C   UNL A   1      34.634  30.132  28.337  1.00  0.00     0.014 A 
ATOM     30  C   UNL A   1      36.840  31.814  28.659  1.00  0.00     0.010 A 
ATOM     31  C   UNL A   1      35.753  29.681  29.031  1.00  0.00     0.010 A 
ATOM     32  C   UNL A   1      36.868  30.517  29.198  1.00  0.00    -0.014 A 
BRANCH  32  33
ATOM     33  C   UNL A   1      38.050  30.022  29.945  1.00  0.00     0.031 A 
ATOM     34  C   UNL A   1      38.313  30.496  31.346  1.00  0.00     0.074 A 
ATOM     35  C   UNL A   1      38.920  29.190  29.338  1.00  0.00     0.049 A 
ATOM     36  N   UNL A   1      39.321  30.225  32.138  1.00  0.00    -0.248 NA
ATOM     37  C   UNL A   1      37.329  31.423  31.927  1.00  0.00     0.031 C 
ATOM     38  C   UNL A   1      38.800  28.698  27.964  1.00  0.00     0.029 A 
ATOM     39  N   UNL A   1      40.083  28.621  29.794  1.00  0.00    -0.354 N 
ATOM     40  C   UNL A   1      39.096  30.951  33.298  1.00  0.00     0.074 A 
ATOM     41  C   UNL A   1      37.890  31.722  33.090  1.00  0.00     0.031 C 
ATOM     42  C   UNL A   1      39.832  27.883  27.698  1.00  0.00     0.029 A 
ATOM     43  C   UNL A   1      40.708  27.826  28.864  1.00  0.00     0.049 A 
ATOM     44  H   UNL A   1      40.434  28.767  30.701  1.00  0.00     0.167 HD
ATOM     45  C   UNL A   1      39.818  30.957  34.445  1.00  0.00     0.037 A 
ATOM     46  C   UNL A   1      41.861  27.136  28.941  1.00  0.00     0.037 A 
ATOM     47  C   UNL A   1      41.007  30.174  34.655  1.00  0.00     0.049 A 
ATOM     48  C   UNL A   1      42.651  27.170  30.223  1.00  0.00     0.074 A 
ATOM     49  C   UNL A   1      41.777  30.065  35.800  1.00  0.00     0.029 A 
ATOM     50  N   UNL A   1      41.604  29.370  33.694  1.00  0.00    -0.354 N 
ATOM     51  N   UNL A   1      42.389  27.803  31.341  1.00  0.00    -0.248 NA
ATOM     52  C   UNL A   1      43.895  26.390  30.253  1.00  0.00     0.031 C 
ATOM     53  C   UNL A   1      42.868  29.237  35.516  1.00  0.00     0.029 A 
ATOM     54  C   UNL A   1      42.747  28.782  34.213  1.00  0.00     0.049 A 
ATOM     55  H   UNL A   1      41.266  29.237  32.779  1.00  0.00     0.167 HD
ATOM     56  C   UNL A   1      43.415  27.472  32.217  1.00  0.00     0.074 A 
ATOM     57  C   UNL A   1      44.296  26.570  31.504  1.00  0.00     0.031 C 
ATOM     58  C   UNL A   1      43.609  27.878  33.495  1.00  0.00     0.037 A 
BRANCH  45  59
ATOM     59  C   UNL A   1      39.339  31.836  35.564  1.00  0.00     0.064 A 
ATOM     60  C   UNL A   1      38.496  31.349  36.574  1.00  0.00     0.173 A 
ATOM     61  C   UNL A   1      39.761  33.172  35.652  1.00  0.00     0.173 A 
ATOM     62  F   UNL A   1      38.053  30.083  36.534  1.00  0.00    -0.203 F 
ATOM     63  C   UNL A   1      38.069  32.174  37.613  1.00  0.00     0.198 A 
ATOM     64  C   UNL A   1      39.359  33.983  36.710  1.00  0.00     0.198 A 
ATOM     65  F   UNL A   1      40.573  33.688  34.716  1.00  0.00    -0.203 F 
ATOM     66  F   UNL A   1      37.222  31.699  38.537  1.00  0.00    -0.200 F 
ATOM     67  C   UNL A   1      38.507  33.487  37.685  1.00  0.00     0.200 A 
ATOM     68  F   UNL A   1      39.796  35.249  36.784  1.00  0.00    -0.200 F 
ATOM     69  F   UNL A   1      38.103  34.276  38.689  1.00  0.00    -0.200 F 
ENDBRANCH  45  59
BRANCH  46  70
ATOM     70  C   UNL A   1      42.331  26.337  27.779  1.00  0.00     0.064 A 
ATOM     71  C   UNL A   1      41.874  25.028  27.573  1.00  0.00     0.173 A 
ATOM     72  C   UNL A   1      43.252  26.858  26.858  1.00  0.00     0.173 A 
ATOM     73  F   UNL A   1      41.007  24.478  28.437  1.00  0.00    -0.203 F 
ATOM     74  C   UNL A   1      42.337  24.262  26.505  1.00  0.00     0.198 A 
ATOM     75  C   UNL A   1      43.691  26.103  25.772  1.00  0.00     0.198 A 
ATOM     76  F   UNL A   1      43.717  28.108  27.006  1.00  0.00    -0.203 F 
ATOM     77  F   UNL A   1      41.921  22.996  26.362  1.00  0.00    -0.200 F 
ATOM     78  C   UNL A   1      43.241  24.802  25.603  1.00  0.00     0.200 A 
ATOM     79  F   UNL A   1      44.552  26.633  24.894  1.00  0.00    -0.200 F 
ATOM     80  F   UNL A   1      43.685  24.066  24.574  1.00  0.00    -0.200 F 
ENDBRANCH  46  70
BRANCH  58  81
ATOM     81  C   UNL A   1      44.799  27.321  34.221  1.00  0.00     0.064 A 
ATOM     82  C   UNL A   1      44.738  26.104  34.917  1.00  0.00     0.173 A 
ATOM     83  C   UNL A   1      46.030  27.996  34.187  1.00  0.00     0.173 A 
ATOM     84  F   UNL A   1      43.582  25.428  34.993  1.00  0.00    -0.203 F 
ATOM     85  C   UNL A   1      45.857  25.599  35.575  1.00  0.00     0.198 A 
ATOM     86  C   UNL A   1      47.154  27.471  34.816  1.00  0.00     0.198 A 
ATOM     87  F   UNL A   1      46.145  29.159  33.528  1.00  0.00    -0.203 F 
ATOM     88  F   UNL A   1      45.761  24.461  36.277  1.00  0.00    -0.200 F 
ATOM     89  C   UNL A   1      47.065  26.277  35.517  1.00  0.00     0.200 A 
ATOM     90  F   UNL A   1      48.325  28.119  34.745  1.00  0.00    -0.200 F 
ATOM     91  F   UNL A   1      48.141  25.784  36.143  1.00  0.00    -0.200 F 
ENDBRANCH  58  81
ENDBRANCH  32  33
ENDBRANCH  24  27
ENDBRANCH  22  23
ENDBRANCH  21  22
ENDBRANCH   1  21
TORSDOF 13
ENDMDL
MODEL 3
REMARK VINA RESULT:     -11.7      3.047      6.326
REMARK SMILES C[C@@H](C(=O)NCCCCNC(=O)c1ccc(-c2c3nc(c(-c4c(F)c(F)c(F)c(F)c4F)c4ccc([nH]4)c(-c4c(F)c(F)c(F)c(F)c4F)c4nc(c(-c5c(F)c(F)c(F)c(F)c5F)c5ccc2[nH]5)C=C4)C=C3)cc1)c1ccc(-c2ccccc2)cc1
REMARK SMILES IDX 7 1 6 2 5 3 3 4 4 5 2 7 1 8 76 9 77 10 87 11 78 12 86 13
REMARK SMILES IDX 79 14 80 15 81 16 85 17 82 18 84 19 83 20 8 21 9 22 10 23
REMARK SMILES IDX 11 24 12 26 13 27 14 28 75 29 15 30 74 31 16 32 17 33 18 34
REMARK SMILES IDX 68 35 19 36 73 37 67 38 69 39 20 40 72 41 66 42 65 43 21 45
REMARK SMILES IDX 53 46 33 47 52 48 34 49 37 50 51 51 70 52 35 53 36 54 50 56
REMARK SMILES IDX 71 57 38 58 22 59 23 60 31 61 24 62 25 63 29 64 32 65 26 66
REMARK SMILES IDX 27 67 30 68 28 69 54 70 55 71 63 72 56 73 57 74 61 75 64 76
REMARK SMILES IDX 58 77 59 78 62 79 60 80 39 81 40 82 48 83 41 84 42 85 46 86
REMARK SMILES IDX 49 87 43 88 44 89 47 90 45 91
REMARK H PARENT 5 6 10 25 69 44 37 55
REMARK Flexibility Score: inf
ROOT
ATOM      1  C   UNL A   1      34.626  35.613  28.623  1.00  0.00     0.023 C 
ENDROOT
BRANCH   1   2
ATOM      2  C   UNL A   1      33.368  36.477  28.784  1.00  0.00     0.116 C 
BRANCH   2   3
ATOM      3  N   UNL A   1      33.482  37.337  29.943  1.00  0.00    -0.356 N 
ATOM      4  C   UNL A   1      33.103  37.117  31.238  1.00  0.00     0.227 C 
ATOM      5  O   UNL A   1      32.954  38.133  31.919  1.00  0.00    -0.274 OA
ATOM      6  H   UNL A   1      33.894  38.215  29.772  1.00  0.00     0.163 HD
BRANCH   4   7
ATOM      7  C   UNL A   1      32.877  35.677  31.738  1.00  0.00     0.105 C 
ATOM      8  C   UNL A   1      31.815  35.701  32.848  1.00  0.00     0.023 C 
BRANCH   7   9
ATOM      9  C   UNL A   1      34.102  34.894  32.234  1.00  0.00    -0.036 A 
ATOM     10  C   UNL A   1      34.391  33.649  31.643  1.00  0.00     0.005 A 
ATOM     11  C   UNL A   1      34.946  35.316  33.267  1.00  0.00     0.005 A 
ATOM     12  C   UNL A   1      35.398  32.817  32.142  1.00  0.00     0.009 A 
ATOM     13  C   UNL A   1      35.957  34.485  33.766  1.00  0.00     0.009 A 
ATOM     14  C   UNL A   1      36.177  33.210  33.236  1.00  0.00    -0.018 A 
BRANCH  14  15
ATOM     15  C   UNL A   1      37.171  32.304  33.827  1.00  0.00    -0.018 A 
ATOM     16  C   UNL A   1      38.010  32.726  34.870  1.00  0.00     0.009 A 
ATOM     17  C   UNL A   1      37.317  30.991  33.347  1.00  0.00     0.009 A 
ATOM     18  C   UNL A   1      38.962  31.863  35.417  1.00  0.00     0.001 A 
ATOM     19  C   UNL A   1      38.269  30.128  33.892  1.00  0.00     0.001 A 
ATOM     20  C   UNL A   1      39.091  30.564  34.927  1.00  0.00     0.000 A 
ENDBRANCH  14  15
ENDBRANCH   7   9
ENDBRANCH   4   7
ENDBRANCH   2   3
ENDBRANCH   1   2
BRANCH   1  21
ATOM     21  C   UNL A   1      34.477  34.425  27.669  1.00  0.00     0.023 C 
BRANCH  21  22
ATOM     22  C   UNL A   1      34.957  33.093  28.223  1.00  0.00     0.116 C 
BRANCH  22  23
ATOM     23  N   UNL A   1      34.048  32.001  27.918  1.00  0.00    -0.352 N 
ATOM     24  C   UNL A   1      34.309  30.655  27.840  1.00  0.00     0.251 C 
ATOM     25  H   UNL A   1      33.115  32.262  27.744  1.00  0.00     0.163 HD
ATOM     26  O   UNL A   1      33.453  29.882  27.423  1.00  0.00    -0.269 OA
BRANCH  24  27
ATOM     27  C   UNL A   1      35.640  30.145  28.229  1.00  0.00     0.039 A 
ATOM     28  C   UNL A   1      36.662  30.138  27.278  1.00  0.00     0.014 A 
ATOM     29  C   UNL A   1      35.882  29.694  29.530  1.00  0.00     0.014 A 
ATOM     30  C   UNL A   1      37.947  29.741  27.650  1.00  0.00     0.010 A 
ATOM     31  C   UNL A   1      37.180  29.373  29.918  1.00  0.00     0.010 A 
ATOM     32  C   UNL A   1      38.225  29.392  28.982  1.00  0.00    -0.014 A 
BRANCH  32  33
ATOM     33  C   UNL A   1      39.604  29.053  29.415  1.00  0.00     0.031 A 
ATOM     34  C   UNL A   1      40.370  29.991  30.303  1.00  0.00     0.074 A 
ATOM     35  C   UNL A   1      40.186  27.927  28.957  1.00  0.00     0.049 A 
ATOM     36  N   UNL A   1      41.602  29.899  30.739  1.00  0.00    -0.248 NA
ATOM     37  C   UNL A   1      39.671  31.210  30.739  1.00  0.00     0.031 C 
ATOM     38  C   UNL A   1      39.562  26.962  28.049  1.00  0.00     0.029 A 
ATOM     39  N   UNL A   1      41.437  27.409  29.182  1.00  0.00    -0.354 N 
ATOM     40  C   UNL A   1      41.825  31.046  31.486  1.00  0.00     0.074 A 
ATOM     41  C   UNL A   1      40.625  31.850  31.399  1.00  0.00     0.031 C 
ATOM     42  C   UNL A   1      40.423  25.959  27.815  1.00  0.00     0.029 A 
ATOM     43  C   UNL A   1      41.672  26.229  28.521  1.00  0.00     0.049 A 
ATOM     44  H   UNL A   1      42.102  27.843  29.763  1.00  0.00     0.167 HD
ATOM     45  C   UNL A   1      42.924  31.389  32.201  1.00  0.00     0.037 A 
ATOM     46  C   UNL A   1      42.773  25.455  28.481  1.00  0.00     0.037 A 
ATOM     47  C   UNL A   1      44.109  30.578  32.301  1.00  0.00     0.049 A 
ATOM     48  C   UNL A   1      43.986  25.866  29.275  1.00  0.00     0.074 A 
ATOM     49  C   UNL A   1      45.252  30.808  33.046  1.00  0.00     0.029 A 
ATOM     50  N   UNL A   1      44.305  29.381  31.627  1.00  0.00    -0.354 N 
ATOM     51  N   UNL A   1      44.158  26.917  30.038  1.00  0.00    -0.248 NA
ATOM     52  C   UNL A   1      45.154  24.978  29.203  1.00  0.00     0.031 C 
ATOM     53  C   UNL A   1      46.161  29.778  32.783  1.00  0.00     0.029 A 
ATOM     54  C   UNL A   1      45.562  28.874  31.920  1.00  0.00     0.049 A 
ATOM     55  H   UNL A   1      43.650  28.954  31.029  1.00  0.00     0.167 HD
ATOM     56  C   UNL A   1      45.439  26.802  30.564  1.00  0.00     0.074 A 
ATOM     57  C   UNL A   1      45.992  25.569  30.042  1.00  0.00     0.031 C 
ATOM     58  C   UNL A   1      46.096  27.640  31.401  1.00  0.00     0.037 A 
BRANCH  45  59
ATOM     59  C   UNL A   1      42.895  32.698  32.936  1.00  0.00     0.064 A 
ATOM     60  C   UNL A   1      43.201  33.909  32.296  1.00  0.00     0.173 A 
ATOM     61  C   UNL A   1      42.518  32.749  34.287  1.00  0.00     0.173 A 
ATOM     62  F   UNL A   1      43.578  33.917  31.008  1.00  0.00    -0.203 F 
ATOM     63  C   UNL A   1      43.160  35.117  32.989  1.00  0.00     0.198 A 
ATOM     64  C   UNL A   1      42.445  33.962  34.967  1.00  0.00     0.198 A 
ATOM     65  F   UNL A   1      42.210  31.622  34.947  1.00  0.00    -0.203 F 
ATOM     66  F   UNL A   1      43.505  36.254  32.369  1.00  0.00    -0.200 F 
ATOM     67  C   UNL A   1      42.774  35.144  34.320  1.00  0.00     0.200 A 
ATOM     68  F   UNL A   1      42.059  33.987  36.250  1.00  0.00    -0.200 F 
ATOM     69  F   UNL A   1      42.725  36.308  34.982  1.00  0.00    -0.200 F 
ENDBRANCH  45  59
BRANCH  46  70
ATOM     70  C   UNL A   1      42.776  24.204  27.680  1.00  0.00     0.064 A 
ATOM     71  C   UNL A   1      43.080  24.225  26.312  1.00  0.00     0.173 A 
ATOM     72  C   UNL A   1      42.465  22.964  28.258  1.00  0.00     0.173 A 
ATOM     73  F   UNL A   1      43.365  25.389  25.708  1.00  0.00    -0.203 F 
ATOM     74  C   UNL A   1      43.050  23.060  25.548  1.00  0.00     0.198 A 
ATOM     75  C   UNL A   1      42.465  21.795  27.501  1.00  0.00     0.198 A 
ATOM     76  F   UNL A   1      42.172  22.887  29.565  1.00  0.00    -0.203 F 
ATOM     77  F   UNL A   1      43.295  23.119  24.232  1.00  0.00    -0.200 F 
ATOM     78  C   UNL A   1      42.748  21.845  26.144  1.00  0.00     0.200 A 
ATOM     79  F   UNL A   1      42.188  20.621  28.084  1.00  0.00    -0.200 F 
ATOM     80  F   UNL A   1      42.721  20.724  25.409  1.00  0.00    -0.200 F 
ENDBRANCH  46  70
BRANCH  58  81
ATOM     81  C   UNL A   1      47.474  27.236  31.840  1.00  0.00     0.064 A 
ATOM     82  C   UNL A   1      48.621  27.633  31.136  1.00  0.00     0.173 A 
ATOM     83  C   UNL A   1      47.651  26.472  33.004  1.00  0.00     0.173 A 
ATOM     84  F   UNL A   1      48.506  28.351  30.009  1.00  0.00    -0.203 F 
ATOM     85  C   UNL A   1      49.891  27.257  31.566  1.00  0.00     0.198 A 
ATOM     86  C   UNL A   1      48.923  26.127  33.450  1.00  0.00     0.198 A 
ATOM     87  F   UNL A   1      46.588  26.073  33.719  1.00  0.00    -0.203 F 
ATOM     88  F   UNL A   1      50.969  27.604  30.849  1.00  0.00    -0.200 F 
ATOM     89  C   UNL A   1      50.041  26.512  32.726  1.00  0.00     0.200 A 
ATOM     90  F   UNL A   1      49.067  25.421  34.580  1.00  0.00    -0.200 F 
ATOM     91  F   UNL A   1      51.265  26.159  33.143  1.00  0.00    -0.200 F 
ENDBRANCH  58  81
ENDBRANCH  32  33
ENDBRANCH  24  27
ENDBRANCH  22  23
ENDBRANCH  21  22
ENDBRANCH   1  21
TORSDOF 13
ENDMDL
