MODEL 1
REMARK VINA RESULT:     -12.5      0.000      0.000
REMARK SMILES NC(=O)[C@@H]1CCCCN1C(=O)N[C@H]1C=C[C@@H](C(=O)NCCCCNC(=O)c2ccc(-c3c4nc(c(-c5c(F)c(F)c(F)c(F)c5F)c5ccc([nH]5)c(-c5c(F)c(F)c(F)c(F)c5F)c5nc(c(-c6c(F)c(F)c(F)c(F)c6F)c6ccc3[nH]6)C=C5)C=C4)cc2)C1
REMARK SMILES IDX 21 1 20 2 19 3 17 4 18 5 16 7 13 8 14 9 90 10 15 11 12 12
REMARK SMILES IDX 10 13 11 14 9 16 4 17 5 18 6 19 8 20 7 21 2 22 1 23 3 26
REMARK SMILES IDX 22 27 23 28 24 29 25 30 26 32 27 33 28 34 89 35 29 36 88 37
REMARK SMILES IDX 30 38 31 39 32 40 82 41 33 42 87 43 81 44 83 45 34 46 86 47
REMARK SMILES IDX 80 48 79 49 35 51 67 52 47 53 66 54 48 55 51 56 65 57 84 58
REMARK SMILES IDX 49 59 50 60 64 62 85 63 52 64 36 65 37 66 45 67 38 68 39 69
REMARK SMILES IDX 43 70 46 71 40 72 41 73 44 74 42 75 68 76 69 77 77 78 70 79
REMARK SMILES IDX 71 80 75 81 78 82 72 83 73 84 76 85 74 86 53 87 54 88 62 89
REMARK SMILES IDX 55 90 56 91 60 92 63 93 57 94 58 95 61 96 59 97
REMARK H PARENT 19 6 12 15 1 24 1 25 24 31 83 50 51 61
REMARK Flexibility Score: inf
ROOT
ATOM      1  C   UNL A   1      31.608  30.797  26.122  1.00  0.00     0.023 C 
ENDROOT
BRANCH   1   2
ATOM      2  C   UNL A   1      32.270  29.885  27.151  1.00  0.00     0.116 C 
BRANCH   2   3
ATOM      3  N   UNL A   1      31.605  28.603  27.274  1.00  0.00    -0.356 N 
ATOM      4  C   UNL A   1      31.887  27.405  26.693  1.00  0.00     0.227 C 
ATOM      5  O   UNL A   1      31.203  26.434  27.035  1.00  0.00    -0.274 OA
ATOM      6  H   UNL A   1      30.825  28.597  27.874  1.00  0.00     0.163 HD
BRANCH   4   7
ATOM      7  C   UNL A   1      32.963  27.240  25.614  1.00  0.00     0.103 C 
ATOM      8  C   UNL A   1      33.759  25.324  24.261  1.00  0.00     0.107 C 
ATOM      9  C   UNL A   1      32.949  26.306  23.462  1.00  0.00    -0.006 C 
ATOM     10  C   UNL A   1      33.661  25.881  25.688  1.00  0.00     0.047 C 
ATOM     11  C   UNL A   1      32.510  27.337  24.194  1.00  0.00    -0.016 C 
BRANCH   8  12
ATOM     12  N   UNL A   1      33.164  24.008  24.113  1.00  0.00    -0.332 N 
ATOM     13  C   UNL A   1      33.546  22.723  24.219  1.00  0.00     0.318 C 
ATOM     14  O   UNL A   1      32.630  21.921  24.019  1.00  0.00    -0.249 OA
ATOM     15  H   UNL A   1      32.214  24.075  23.863  1.00  0.00     0.165 HD
BRANCH  13  16
ATOM     16  N   UNL A   1      34.817  22.316  24.508  1.00  0.00    -0.313 N 
ATOM     17  C   UNL A   1      35.195  21.988  25.912  1.00  0.00     0.176 C 
ATOM     18  C   UNL A   1      36.216  23.023  26.424  1.00  0.00     0.035 C 
ATOM     19  C   UNL A   1      37.436  23.101  25.504  1.00  0.00     0.004 C 
ATOM     20  C   UNL A   1      35.976  22.288  23.621  1.00  0.00     0.122 C 
ATOM     21  C   UNL A   1      37.011  23.328  24.057  1.00  0.00     0.022 C 
BRANCH  17  22
ATOM     22  C   UNL A   1      34.136  21.758  27.019  1.00  0.00     0.240 C 
ATOM     23  N   UNL A   1      33.401  20.610  26.900  1.00  0.00    -0.368 N 
ATOM     24  H   UNL A   1      32.709  20.397  27.567  1.00  0.00     0.159 HD
ATOM     25  H   UNL A   1      33.565  19.997  26.147  1.00  0.00     0.159 HD
ATOM     26  O   UNL A   1      33.965  22.508  27.976  1.00  0.00    -0.273 OA
ENDBRANCH  17  22
ENDBRANCH  13  16
ENDBRANCH   8  12
ENDBRANCH   4   7
ENDBRANCH   2   3
ENDBRANCH   1   2
BRANCH   1  27
ATOM     27  C   UNL A   1      31.385  32.235  26.586  1.00  0.00     0.023 C 
BRANCH  27  28
ATOM     28  C   UNL A   1      32.561  32.876  27.314  1.00  0.00     0.116 C 
BRANCH  28  29
ATOM     29  N   UNL A   1      32.321  34.255  27.714  1.00  0.00    -0.352 N 
ATOM     30  C   UNL A   1      33.000  35.005  28.645  1.00  0.00     0.251 C 
ATOM     31  H   UNL A   1      31.576  34.709  27.260  1.00  0.00     0.163 HD
ATOM     32  O   UNL A   1      32.631  36.140  28.928  1.00  0.00    -0.269 OA
BRANCH  30  33
ATOM     33  C   UNL A   1      34.162  34.414  29.337  1.00  0.00     0.039 A 
ATOM     34  C   UNL A   1      33.943  33.642  30.481  1.00  0.00     0.014 A 
ATOM     35  C   UNL A   1      35.454  34.582  28.833  1.00  0.00     0.014 A 
ATOM     36  C   UNL A   1      35.016  32.982  31.082  1.00  0.00     0.010 A 
ATOM     37  C   UNL A   1      36.507  33.863  29.386  1.00  0.00     0.010 A 
ATOM     38  C   UNL A   1      36.300  33.059  30.517  1.00  0.00    -0.014 A 
BRANCH  38  39
ATOM     39  C   UNL A   1      37.445  32.321  31.104  1.00  0.00     0.031 A 
ATOM     40  C   UNL A   1      37.939  32.673  32.479  1.00  0.00     0.074 A 
ATOM     41  C   UNL A   1      38.079  31.382  30.377  1.00  0.00     0.049 A 
ATOM     42  N   UNL A   1      38.958  32.192  33.143  1.00  0.00    -0.248 NA
ATOM     43  C   UNL A   1      37.203  33.731  33.189  1.00  0.00     0.031 C 
ATOM     44  C   UNL A   1      37.721  30.978  29.018  1.00  0.00     0.029 A 
ATOM     45  N   UNL A   1      39.164  30.598  30.682  1.00  0.00    -0.354 N 
ATOM     46  C   UNL A   1      38.995  32.899  34.338  1.00  0.00     0.074 A 
ATOM     47  C   UNL A   1      37.937  33.884  34.279  1.00  0.00     0.031 C 
ATOM     48  C   UNL A   1      38.546  29.996  28.620  1.00  0.00     0.029 A 
ATOM     49  C   UNL A   1      39.515  29.729  29.680  1.00  0.00     0.049 A 
ATOM     50  H   UNL A   1      39.646  30.654  31.540  1.00  0.00     0.167 HD
ATOM     51  C   UNL A   1      39.816  32.723  35.400  1.00  0.00     0.037 A 
ATOM     52  C   UNL A   1      40.504  28.817  29.625  1.00  0.00     0.037 A 
ATOM     53  C   UNL A   1      40.855  31.729  35.461  1.00  0.00     0.049 A 
ATOM     54  C   UNL A   1      41.422  28.659  30.806  1.00  0.00     0.074 A 
ATOM     55  C   UNL A   1      41.709  31.433  36.509  1.00  0.00     0.029 A 
ATOM     56  N   UNL A   1      41.184  30.869  34.422  1.00  0.00    -0.354 N 
ATOM     57  N   UNL A   1      41.408  29.285  31.957  1.00  0.00    -0.248 NA
ATOM     58  C   UNL A   1      42.492  27.661  30.678  1.00  0.00     0.031 C 
ATOM     59  C   UNL A   1      42.585  30.426  36.088  1.00  0.00     0.029 A 
ATOM     60  C   UNL A   1      42.243  30.057  34.797  1.00  0.00     0.049 A 
ATOM     61  H   UNL A   1      40.732  30.840  33.549  1.00  0.00     0.167 HD
ATOM     62  C   UNL A   1      42.441  28.736  32.704  1.00  0.00     0.074 A 
ATOM     63  C   UNL A   1      43.057  27.719  31.877  1.00  0.00     0.031 C 
ATOM     64  C   UNL A   1      42.838  29.042  33.964  1.00  0.00     0.037 A 
BRANCH  51  65
ATOM     65  C   UNL A   1      39.619  33.637  36.576  1.00  0.00     0.064 A 
ATOM     66  C   UNL A   1      38.831  33.263  37.676  1.00  0.00     0.173 A 
ATOM     67  C   UNL A   1      40.216  34.907  36.601  1.00  0.00     0.173 A 
ATOM     68  F   UNL A   1      38.228  32.065  37.697  1.00  0.00    -0.203 F 
ATOM     69  C   UNL A   1      38.607  34.142  38.732  1.00  0.00     0.198 A 
ATOM     70  C   UNL A   1      40.019  35.771  37.677  1.00  0.00     0.198 A 
ATOM     71  F   UNL A   1      40.985  35.315  35.581  1.00  0.00    -0.203 F 
ATOM     72  F   UNL A   1      37.792  33.789  39.735  1.00  0.00    -0.200 F 
ATOM     73  C   UNL A   1      39.204  35.394  38.734  1.00  0.00     0.200 A 
ATOM     74  F   UNL A   1      40.606  36.975  37.683  1.00  0.00    -0.200 F 
ATOM     75  F   UNL A   1      38.983  36.242  39.747  1.00  0.00    -0.200 F 
ENDBRANCH  51  65
BRANCH  52  76
ATOM     76  C   UNL A   1      40.642  27.946  28.431  1.00  0.00     0.064 A 
ATOM     77  C   UNL A   1      41.382  28.375  27.319  1.00  0.00     0.173 A 
ATOM     78  C   UNL A   1      40.054  26.674  28.371  1.00  0.00     0.173 A 
ATOM     79  F   UNL A   1      41.944  29.593  27.321  1.00  0.00    -0.203 F 
ATOM     80  C   UNL A   1      41.517  27.573  26.190  1.00  0.00     0.198 A 
ATOM     81  C   UNL A   1      40.211  25.861  27.251  1.00  0.00     0.198 A 
ATOM     82  F   UNL A   1      39.338  26.217  29.409  1.00  0.00    -0.203 F 
ATOM     83  F   UNL A   1      42.198  28.024  25.127  1.00  0.00    -0.200 F 
ATOM     84  C   UNL A   1      40.938  26.313  26.158  1.00  0.00     0.200 A 
ATOM     85  F   UNL A   1      39.659  24.640  27.228  1.00  0.00    -0.200 F 
ATOM     86  F   UNL A   1      41.073  25.538  25.074  1.00  0.00    -0.200 F 
ENDBRANCH  52  76
BRANCH  64  87
ATOM     87  C   UNL A   1      43.966  28.238  34.543  1.00  0.00     0.064 A 
ATOM     88  C   UNL A   1      45.299  28.670  34.465  1.00  0.00     0.173 A 
ATOM     89  C   UNL A   1      43.704  27.035  35.218  1.00  0.00     0.173 A 
ATOM     90  F   UNL A   1      45.604  29.804  33.818  1.00  0.00    -0.203 F 
ATOM     91  C   UNL A   1      46.329  27.914  35.021  1.00  0.00     0.198 A 
ATOM     92  C   UNL A   1      44.733  26.299  35.799  1.00  0.00     0.198 A 
ATOM     93  F   UNL A   1      42.447  26.582  35.325  1.00  0.00    -0.203 F 
ATOM     94  F   UNL A   1      47.600  28.321  34.893  1.00  0.00    -0.200 F 
ATOM     95  C   UNL A   1      46.044  26.735  35.693  1.00  0.00     0.200 A 
ATOM     96  F   UNL A   1      44.454  25.167  36.459  1.00  0.00    -0.200 F 
ATOM     97  F   UNL A   1      47.036  26.014  36.233  1.00  0.00    -0.200 F 
ENDBRANCH  64  87
ENDBRANCH  38  39
ENDBRANCH  30  33
ENDBRANCH  28  29
ENDBRANCH  27  28
ENDBRANCH   1  27
TORSDOF 14
ENDMDL
MODEL 2
REMARK VINA RESULT:     -12.4      1.244      7.455
REMARK SMILES NC(=O)[C@@H]1CCCCN1C(=O)N[C@H]1C=C[C@@H](C(=O)NCCCCNC(=O)c2ccc(-c3c4nc(c(-c5c(F)c(F)c(F)c(F)c5F)c5ccc([nH]5)c(-c5c(F)c(F)c(F)c(F)c5F)c5nc(c(-c6c(F)c(F)c(F)c(F)c6F)c6ccc3[nH]6)C=C5)C=C4)cc2)C1
REMARK SMILES IDX 21 1 20 2 19 3 17 4 18 5 16 7 13 8 14 9 90 10 15 11 12 12
REMARK SMILES IDX 10 13 11 14 9 16 4 17 5 18 6 19 8 20 7 21 2 22 1 23 3 26
REMARK SMILES IDX 22 27 23 28 24 29 25 30 26 32 27 33 28 34 89 35 29 36 88 37
REMARK SMILES IDX 30 38 31 39 32 40 82 41 33 42 87 43 81 44 83 45 34 46 86 47
REMARK SMILES IDX 80 48 79 49 35 51 67 52 47 53 66 54 48 55 51 56 65 57 84 58
REMARK SMILES IDX 49 59 50 60 64 62 85 63 52 64 36 65 37 66 45 67 38 68 39 69
REMARK SMILES IDX 43 70 46 71 40 72 41 73 44 74 42 75 68 76 69 77 77 78 70 79
REMARK SMILES IDX 71 80 75 81 78 82 72 83 73 84 76 85 74 86 53 87 54 88 62 89
REMARK SMILES IDX 55 90 56 91 60 92 63 93 57 94 58 95 61 96 59 97
REMARK H PARENT 19 6 12 15 1 24 1 25 24 31 83 50 51 61
REMARK Flexibility Score: inf
ROOT
ATOM      1  C   UNL A   1      31.731  30.581  26.527  1.00  0.00     0.023 C 
ENDROOT
BRANCH   1   2
ATOM      2  C   UNL A   1      33.185  30.120  26.502  1.00  0.00     0.116 C 
BRANCH   2   3
ATOM      3  N   UNL A   1      33.649  29.801  25.167  1.00  0.00    -0.356 N 
ATOM      4  C   UNL A   1      33.542  28.649  24.448  1.00  0.00     0.227 C 
ATOM      5  O   UNL A   1      33.958  28.667  23.285  1.00  0.00    -0.274 OA
ATOM      6  H   UNL A   1      34.117  30.533  24.705  1.00  0.00     0.163 HD
BRANCH   4   7
ATOM      7  C   UNL A   1      32.986  27.351  25.043  1.00  0.00     0.103 C 
ATOM      8  C   UNL A   1      33.255  24.953  24.483  1.00  0.00     0.107 C 
ATOM      9  C   UNL A   1      33.986  25.345  25.736  1.00  0.00    -0.006 C 
ATOM     10  C   UNL A   1      32.706  26.293  23.975  1.00  0.00     0.047 C 
ATOM     11  C   UNL A   1      33.850  26.643  26.035  1.00  0.00    -0.016 C 
BRANCH   8  12
ATOM     12  N   UNL A   1      34.201  24.333  23.573  1.00  0.00    -0.332 N 
ATOM     13  C   UNL A   1      34.769  23.127  23.392  1.00  0.00     0.318 C 
ATOM     14  O   UNL A   1      35.521  23.081  22.416  1.00  0.00    -0.249 OA
ATOM     15  H   UNL A   1      34.517  24.977  22.899  1.00  0.00     0.165 HD
BRANCH  13  16
ATOM     16  N   UNL A   1      34.558  22.046  24.199  1.00  0.00    -0.313 N 
ATOM     17  C   UNL A   1      33.248  21.337  24.171  1.00  0.00     0.176 C 
ATOM     18  C   UNL A   1      32.528  21.535  25.520  1.00  0.00     0.035 C 
ATOM     19  C   UNL A   1      33.403  21.079  26.688  1.00  0.00     0.004 C 
ATOM     20  C   UNL A   1      35.424  21.532  25.257  1.00  0.00     0.122 C 
ATOM     21  C   UNL A   1      34.777  21.740  26.628  1.00  0.00     0.022 C 
BRANCH  17  22
ATOM     22  C   UNL A   1      32.220  21.548  23.033  1.00  0.00     0.240 C 
ATOM     23  N   UNL A   1      31.990  20.458  22.238  1.00  0.00    -0.368 N 
ATOM     24  H   UNL A   1      31.349  20.517  21.493  1.00  0.00     0.159 HD
ATOM     25  H   UNL A   1      32.467  19.613  22.411  1.00  0.00     0.159 HD
ATOM     26  O   UNL A   1      31.601  22.592  22.847  1.00  0.00    -0.273 OA
ENDBRANCH  17  22
ENDBRANCH  13  16
ENDBRANCH   8  12
ENDBRANCH   4   7
ENDBRANCH   2   3
ENDBRANCH   1   2
BRANCH   1  27
ATOM     27  C   UNL A   1      31.536  32.089  26.668  1.00  0.00     0.023 C 
BRANCH  27  28
ATOM     28  C   UNL A   1      32.674  32.833  27.358  1.00  0.00     0.116 C 
BRANCH  28  29
ATOM     29  N   UNL A   1      32.362  34.219  27.673  1.00  0.00    -0.352 N 
ATOM     30  C   UNL A   1      32.973  35.047  28.584  1.00  0.00     0.251 C 
ATOM     31  H   UNL A   1      31.616  34.616  27.168  1.00  0.00     0.163 HD
ATOM     32  O   UNL A   1      32.547  36.178  28.791  1.00  0.00    -0.269 OA
BRANCH  30  33
ATOM     33  C   UNL A   1      34.132  34.545  29.349  1.00  0.00     0.039 A 
ATOM     34  C   UNL A   1      33.911  33.952  30.594  1.00  0.00     0.014 A 
ATOM     35  C   UNL A   1      35.422  34.618  28.817  1.00  0.00     0.014 A 
ATOM     36  C   UNL A   1      34.979  33.371  31.279  1.00  0.00     0.010 A 
ATOM     37  C   UNL A   1      36.469  33.970  29.464  1.00  0.00     0.010 A 
ATOM     38  C   UNL A   1      36.259  33.344  30.702  1.00  0.00    -0.014 A 
BRANCH  38  39
ATOM     39  C   UNL A   1      37.398  32.682  31.383  1.00  0.00     0.031 A 
ATOM     40  C   UNL A   1      38.119  31.548  30.708  1.00  0.00     0.074 A 
ATOM     41  C   UNL A   1      37.743  33.056  32.629  1.00  0.00     0.049 A 
ATOM     42  N   UNL A   1      39.094  30.801  31.157  1.00  0.00    -0.248 NA
ATOM     43  C   UNL A   1      37.657  31.189  29.358  1.00  0.00     0.031 C 
ATOM     44  C   UNL A   1      37.096  34.114  33.405  1.00  0.00     0.029 A 
ATOM     45  N   UNL A   1      38.723  32.581  33.465  1.00  0.00    -0.354 N 
ATOM     46  C   UNL A   1      39.350  29.876  30.154  1.00  0.00     0.074 A 
ATOM     47  C   UNL A   1      38.385  30.114  29.102  1.00  0.00     0.031 C 
ATOM     48  C   UNL A   1      37.720  34.235  34.587  1.00  0.00     0.029 A 
ATOM     49  C   UNL A   1      38.784  33.237  34.669  1.00  0.00     0.049 A 
ATOM     50  H   UNL A   1      39.325  31.841  33.224  1.00  0.00     0.167 HD
ATOM     51  C   UNL A   1      40.320  28.932  30.099  1.00  0.00     0.037 A 
ATOM     52  C   UNL A   1      39.609  33.056  35.718  1.00  0.00     0.037 A 
ATOM     53  C   UNL A   1      41.290  28.711  31.140  1.00  0.00     0.049 A 
ATOM     54  C   UNL A   1      40.660  31.983  35.647  1.00  0.00     0.074 A 
ATOM     55  C   UNL A   1      42.345  27.817  31.163  1.00  0.00     0.029 A 
ATOM     56  N   UNL A   1      41.316  29.393  32.349  1.00  0.00    -0.354 N 
ATOM     57  N   UNL A   1      40.938  31.157  34.668  1.00  0.00    -0.248 NA
ATOM     58  C   UNL A   1      41.517  31.822  36.829  1.00  0.00     0.031 C 
ATOM     59  C   UNL A   1      42.983  27.925  32.405  1.00  0.00     0.029 A 
ATOM     60  C   UNL A   1      42.358  28.923  33.134  1.00  0.00     0.049 A 
ATOM     61  H   UNL A   1      40.689  30.105  32.609  1.00  0.00     0.167 HD
ATOM     62  C   UNL A   1      42.021  30.403  35.099  1.00  0.00     0.074 A 
ATOM     63  C   UNL A   1      42.354  30.876  36.428  1.00  0.00     0.031 C 
ATOM     64  C   UNL A   1      42.682  29.412  34.451  1.00  0.00     0.037 A 
BRANCH  51  65
ATOM     65  C   UNL A   1      40.366  28.068  28.871  1.00  0.00     0.064 A 
ATOM     66  C   UNL A   1      39.686  26.842  28.806  1.00  0.00     0.173 A 
ATOM     67  C   UNL A   1      41.108  28.464  27.748  1.00  0.00     0.173 A 
ATOM     68  F   UNL A   1      38.971  26.411  29.857  1.00  0.00    -0.203 F 
ATOM     69  C   UNL A   1      39.785  26.023  27.685  1.00  0.00     0.198 A 
ATOM     70  C   UNL A   1      41.177  27.658  26.613  1.00  0.00     0.198 A 
ATOM     71  F   UNL A   1      41.773  29.628  27.750  1.00  0.00    -0.203 F 
ATOM     72  F   UNL A   1      39.185  24.824  27.677  1.00  0.00    -0.200 F 
ATOM     73  C   UNL A   1      40.528  26.432  26.588  1.00  0.00     0.200 A 
ATOM     74  F   UNL A   1      41.884  28.061  25.549  1.00  0.00    -0.200 F 
ATOM     75  F   UNL A   1      40.628  25.641  25.512  1.00  0.00    -0.200 F 
ENDBRANCH  51  65
BRANCH  52  76
ATOM     76  C   UNL A   1      39.507  33.947  36.901  1.00  0.00     0.064 A 
ATOM     77  C   UNL A   1      38.754  33.561  38.020  1.00  0.00     0.173 A 
ATOM     78  C   UNL A   1      40.160  35.188  36.951  1.00  0.00     0.173 A 
ATOM     79  F   UNL A   1      38.094  32.393  38.010  1.00  0.00    -0.203 F 
ATOM     80  C   UNL A   1      38.645  34.387  39.135  1.00  0.00     0.198 A 
ATOM     81  C   UNL A   1      40.071  36.002  38.078  1.00  0.00     0.198 A 
ATOM     82  F   UNL A   1      40.894  35.601  35.908  1.00  0.00    -0.203 F 
ATOM     83  F   UNL A   1      37.887  34.010  40.174  1.00  0.00    -0.200 F 
ATOM     84  C   UNL A   1      39.310  35.604  39.167  1.00  0.00     0.200 A 
ATOM     85  F   UNL A   1      40.723  37.172  38.110  1.00  0.00    -0.200 F 
ATOM     86  F   UNL A   1      39.210  36.396  40.243  1.00  0.00    -0.200 F 
ENDBRANCH  52  76
BRANCH  64  87
ATOM     87  C   UNL A   1      43.863  28.802  35.150  1.00  0.00     0.064 A 
ATOM     88  C   UNL A   1      45.155  29.333  35.018  1.00  0.00     0.173 A 
ATOM     89  C   UNL A   1      43.691  27.693  35.993  1.00  0.00     0.173 A 
ATOM     90  F   UNL A   1      45.375  30.383  34.213  1.00  0.00    -0.203 F 
ATOM     91  C   UNL A   1      46.235  28.760  35.686  1.00  0.00     0.198 A 
ATOM     92  C   UNL A   1      44.767  27.142  36.682  1.00  0.00     0.198 A 
ATOM     93  F   UNL A   1      42.475  27.152  36.157  1.00  0.00    -0.203 F 
ATOM     94  F   UNL A   1      47.468  29.253  35.508  1.00  0.00    -0.200 F 
ATOM     95  C   UNL A   1      46.038  27.670  36.522  1.00  0.00     0.200 A 
ATOM     96  F   UNL A   1      44.573  26.098  37.500  1.00  0.00    -0.200 F 
ATOM     97  F   UNL A   1      47.078  27.126  37.169  1.00  0.00    -0.200 F 
ENDBRANCH  64  87
ENDBRANCH  38  39
ENDBRANCH  30  33
ENDBRANCH  28  29
ENDBRANCH  27  28
ENDBRANCH   1  27
TORSDOF 14
ENDMDL
MODEL 3
REMARK VINA RESULT:     -12.4      1.770      2.495
REMARK SMILES NC(=O)[C@@H]1CCCCN1C(=O)N[C@H]1C=C[C@@H](C(=O)NCCCCNC(=O)c2ccc(-c3c4nc(c(-c5c(F)c(F)c(F)c(F)c5F)c5ccc([nH]5)c(-c5c(F)c(F)c(F)c(F)c5F)c5nc(c(-c6c(F)c(F)c(F)c(F)c6F)c6ccc3[nH]6)C=C5)C=C4)cc2)C1
REMARK SMILES IDX 21 1 20 2 19 3 17 4 18 5 16 7 13 8 14 9 90 10 15 11 12 12
REMARK SMILES IDX 10 13 11 14 9 16 4 17 5 18 6 19 8 20 7 21 2 22 1 23 3 26
REMARK SMILES IDX 22 27 23 28 24 29 25 30 26 32 27 33 28 34 89 35 29 36 88 37
REMARK SMILES IDX 30 38 31 39 32 40 82 41 33 42 87 43 81 44 83 45 34 46 86 47
REMARK SMILES IDX 80 48 79 49 35 51 67 52 47 53 66 54 48 55 51 56 65 57 84 58
REMARK SMILES IDX 49 59 50 60 64 62 85 63 52 64 36 65 37 66 45 67 38 68 39 69
REMARK SMILES IDX 43 70 46 71 40 72 41 73 44 74 42 75 68 76 69 77 77 78 70 79
REMARK SMILES IDX 71 80 75 81 78 82 72 83 73 84 76 85 74 86 53 87 54 88 62 89
REMARK SMILES IDX 55 90 56 91 60 92 63 93 57 94 58 95 61 96 59 97
REMARK H PARENT 19 6 12 15 1 24 1 25 24 31 83 50 51 61
REMARK Flexibility Score: inf
ROOT
ATOM      1  C   UNL A   1      34.461  33.258  29.105  1.00  0.00     0.023 C 
ENDROOT
BRANCH   1   2
ATOM      2  C   UNL A   1      34.376  31.885  28.446  1.00  0.00     0.116 C 
BRANCH   2   3
ATOM      3  N   UNL A   1      33.258  31.770  27.531  1.00  0.00    -0.356 N 
ATOM      4  C   UNL A   1      32.661  30.667  27.003  1.00  0.00     0.227 C 
ATOM      5  O   UNL A   1      31.659  30.846  26.302  1.00  0.00    -0.274 OA
ATOM      6  H   UNL A   1      32.866  32.627  27.246  1.00  0.00     0.163 HD
BRANCH   4   7
ATOM      7  C   UNL A   1      33.214  29.251  27.200  1.00  0.00     0.103 C 
ATOM      8  C   UNL A   1      32.454  26.999  26.505  1.00  0.00     0.107 C 
ATOM      9  C   UNL A   1      33.649  27.477  25.729  1.00  0.00    -0.006 C 
ATOM     10  C   UNL A   1      32.106  28.212  27.379  1.00  0.00     0.047 C 
ATOM     11  C   UNL A   1      34.054  28.699  26.096  1.00  0.00    -0.016 C 
BRANCH   8  12
ATOM     12  N   UNL A   1      31.407  26.643  25.565  1.00  0.00    -0.332 N 
ATOM     13  C   UNL A   1      31.163  25.679  24.660  1.00  0.00     0.318 C 
ATOM     14  O   UNL A   1      30.068  25.793  24.105  1.00  0.00    -0.249 OA
ATOM     15  H   UNL A   1      30.666  27.291  25.600  1.00  0.00     0.165 HD
BRANCH  13  16
ATOM     16  N   UNL A   1      32.028  24.666  24.358  1.00  0.00    -0.313 N 
ATOM     17  C   UNL A   1      32.221  23.539  25.313  1.00  0.00     0.176 C 
ATOM     18  C   UNL A   1      33.654  23.583  25.878  1.00  0.00     0.035 C 
ATOM     19  C   UNL A   1      34.693  23.569  24.756  1.00  0.00     0.004 C 
ATOM     20  C   UNL A   1      32.961  24.585  23.238  1.00  0.00     0.122 C 
ATOM     21  C   UNL A   1      34.406  24.666  23.736  1.00  0.00     0.022 C 
BRANCH  17  22
ATOM     22  C   UNL A   1      31.242  23.273  26.485  1.00  0.00     0.240 C 
ATOM     23  N   UNL A   1      30.174  22.471  26.188  1.00  0.00    -0.368 N 
ATOM     24  H   UNL A   1      29.509  22.259  26.883  1.00  0.00     0.159 HD
ATOM     25  H   UNL A   1      30.070  22.107  25.279  1.00  0.00     0.159 HD
ATOM     26  O   UNL A   1      31.400  23.700  27.625  1.00  0.00    -0.273 OA
ENDBRANCH  17  22
ENDBRANCH  13  16
ENDBRANCH   8  12
ENDBRANCH   4   7
ENDBRANCH   2   3
ENDBRANCH   1   2
BRANCH   1  27
ATOM     27  C   UNL A   1      33.300  34.198  28.788  1.00  0.00     0.023 C 
BRANCH  27  28
ATOM     28  C   UNL A   1      33.463  35.628  29.289  1.00  0.00     0.116 C 
BRANCH  28  29
ATOM     29  N   UNL A   1      32.521  35.993  30.337  1.00  0.00    -0.352 N 
ATOM     30  C   UNL A   1      32.607  35.744  31.687  1.00  0.00     0.251 C 
ATOM     31  H   UNL A   1      31.719  36.479  30.042  1.00  0.00     0.163 HD
ATOM     32  O   UNL A   1      31.691  36.052  32.442  1.00  0.00    -0.269 OA
BRANCH  30  33
ATOM     33  C   UNL A   1      33.803  35.062  32.219  1.00  0.00     0.039 A 
ATOM     34  C   UNL A   1      33.669  33.767  32.726  1.00  0.00     0.014 A 
ATOM     35  C   UNL A   1      35.055  35.679  32.174  1.00  0.00     0.014 A 
ATOM     36  C   UNL A   1      34.805  33.064  33.128  1.00  0.00     0.010 A 
ATOM     37  C   UNL A   1      36.193  34.950  32.501  1.00  0.00     0.010 A 
ATOM     38  C   UNL A   1      36.079  33.638  32.984  1.00  0.00    -0.014 A 
BRANCH  38  39
ATOM     39  C   UNL A   1      37.307  32.890  33.350  1.00  0.00     0.031 A 
ATOM     40  C   UNL A   1      38.002  33.180  34.651  1.00  0.00     0.074 A 
ATOM     41  C   UNL A   1      37.831  31.999  32.487  1.00  0.00     0.049 A 
ATOM     42  N   UNL A   1      39.115  32.683  35.125  1.00  0.00    -0.248 NA
ATOM     43  C   UNL A   1      37.375  34.189  35.519  1.00  0.00     0.031 C 
ATOM     44  C   UNL A   1      37.273  31.659  31.179  1.00  0.00     0.029 A 
ATOM     45  N   UNL A   1      38.956  31.219  32.582  1.00  0.00    -0.354 N 
ATOM     46  C   UNL A   1      39.328  33.329  36.336  1.00  0.00     0.074 A 
ATOM     47  C   UNL A   1      38.265  34.298  36.491  1.00  0.00     0.031 C 
ATOM     48  C   UNL A   1      38.035  30.712  30.609  1.00  0.00     0.029 A 
ATOM     49  C   UNL A   1      39.157  30.407  31.494  1.00  0.00     0.049 A 
ATOM     50  H   UNL A   1      39.563  31.239  33.358  1.00  0.00     0.167 HD
ATOM     51  C   UNL A   1      40.304  33.114  37.250  1.00  0.00     0.037 A 
ATOM     52  C   UNL A   1      40.133  29.515  31.242  1.00  0.00     0.037 A 
ATOM     53  C   UNL A   1      41.348  32.135  37.101  1.00  0.00     0.049 A 
ATOM     54  C   UNL A   1      41.223  29.313  32.259  1.00  0.00     0.074 A 
ATOM     55  C   UNL A   1      42.355  31.800  37.989  1.00  0.00     0.029 A 
ATOM     56  N   UNL A   1      41.522  31.334  35.980  1.00  0.00    -0.354 N 
ATOM     57  N   UNL A   1      41.380  29.880  33.430  1.00  0.00    -0.248 NA
ATOM     58  C   UNL A   1      42.269  28.341  31.918  1.00  0.00     0.031 C 
ATOM     59  C   UNL A   1      43.165  30.830  37.387  1.00  0.00     0.029 A 
ATOM     60  C   UNL A   1      42.633  30.521  36.146  1.00  0.00     0.049 A 
ATOM     61  H   UNL A   1      40.941  31.341  35.185  1.00  0.00     0.167 HD
ATOM     62  C   UNL A   1      42.519  29.310  33.982  1.00  0.00     0.074 A 
ATOM     63  C   UNL A   1      43.010  28.347  33.018  1.00  0.00     0.031 C 
ATOM     64  C   UNL A   1      43.102  29.560  35.180  1.00  0.00     0.037 A 
BRANCH  51  65
ATOM     65  C   UNL A   1      40.281  33.964  38.489  1.00  0.00     0.064 A 
ATOM     66  C   UNL A   1      39.502  33.619  39.605  1.00  0.00     0.173 A 
ATOM     67  C   UNL A   1      41.037  35.144  38.559  1.00  0.00     0.173 A 
ATOM     68  F   UNL A   1      38.751  32.507  39.586  1.00  0.00    -0.203 F 
ATOM     69  C   UNL A   1      39.444  34.446  40.724  1.00  0.00     0.198 A 
ATOM     70  C   UNL A   1      41.003  35.951  39.694  1.00  0.00     0.198 A 
ATOM     71  F   UNL A   1      41.804  35.519  37.525  1.00  0.00    -0.203 F 
ATOM     72  F   UNL A   1      38.636  34.131  41.746  1.00  0.00    -0.200 F 
ATOM     73  C   UNL A   1      40.196  35.609  40.769  1.00  0.00     0.200 A 
ATOM     74  F   UNL A   1      41.741  37.068  39.741  1.00  0.00    -0.200 F 
ATOM     75  F   UNL A   1      40.134  36.408  41.843  1.00  0.00    -0.200 F 
ENDBRANCH  51  65
BRANCH  52  76
ATOM     76  C   UNL A   1      40.095  28.708  29.996  1.00  0.00     0.064 A 
ATOM     77  C   UNL A   1      40.693  29.185  28.821  1.00  0.00     0.173 A 
ATOM     78  C   UNL A   1      39.475  27.451  29.949  1.00  0.00     0.173 A 
ATOM     79  F   UNL A   1      41.279  30.392  28.811  1.00  0.00    -0.203 F 
ATOM     80  C   UNL A   1      40.661  28.442  27.644  1.00  0.00     0.198 A 
ATOM     81  C   UNL A   1      39.466  26.697  28.778  1.00  0.00     0.198 A 
ATOM     82  F   UNL A   1      38.890  26.950  31.047  1.00  0.00    -0.203 F 
ATOM     83  F   UNL A   1      41.208  28.939  26.525  1.00  0.00    -0.200 F 
ATOM     84  C   UNL A   1      40.054  27.195  27.624  1.00  0.00     0.200 A 
ATOM     85  F   UNL A   1      38.888  25.488  28.764  1.00  0.00    -0.200 F 
ATOM     86  F   UNL A   1      40.029  26.478  26.492  1.00  0.00    -0.200 F 
ENDBRANCH  52  76
BRANCH  64  87
ATOM     87  C   UNL A   1      44.312  28.745  35.538  1.00  0.00     0.064 A 
ATOM     88  C   UNL A   1      45.607  29.148  35.179  1.00  0.00     0.173 A 
ATOM     89  C   UNL A   1      44.174  27.564  36.284  1.00  0.00     0.173 A 
ATOM     90  F   UNL A   1      45.791  30.261  34.454  1.00  0.00    -0.203 F 
ATOM     91  C   UNL A   1      46.717  28.385  35.533  1.00  0.00     0.198 A 
ATOM     92  C   UNL A   1      45.289  26.820  36.661  1.00  0.00     0.198 A 
ATOM     93  F   UNL A   1      42.959  27.138  36.656  1.00  0.00    -0.203 F 
ATOM     94  F   UNL A   1      47.941  28.763  35.138  1.00  0.00    -0.200 F 
ATOM     95  C   UNL A   1      46.557  27.227  36.279  1.00  0.00     0.200 A 
ATOM     96  F   UNL A   1      45.133  25.709  37.393  1.00  0.00    -0.200 F 
ATOM     97  F   UNL A   1      47.628  26.498  36.624  1.00  0.00    -0.200 F 
ENDBRANCH  64  87
ENDBRANCH  38  39
ENDBRANCH  30  33
ENDBRANCH  28  29
ENDBRANCH  27  28
ENDBRANCH   1  27
TORSDOF 14
ENDMDL
