MODEL 1
REMARK VINA RESULT:     -13.3      0.000      0.000
REMARK SMILES COc1cccc([C@H](CC(=O)NCCCCNC(=O)c2ccc(-c3c4nc(c(-c5c(F)c(F)c(F)c(F)c5F)c5ccc([nH]5)c(-c5c(F)c(F)c(F)c(F)c5F)c5nc(c(-c6c(F)c(F)c(F)c(F)c6F)c6ccc3[nH]6)C=C5)C=C4)cc2)NS(=O)(=O)c2ccc3c(c2)C[C@@H](C)N3C(C)=O)c1
REMARK SMILES IDX 13 1 12 2 10 3 11 4 9 6 8 7 7 8 3 9 4 10 100 11 5 12 6 13
REMARK SMILES IDX 2 14 1 15 83 16 84 18 85 19 86 20 87 21 88 22 92 23 89 24
REMARK SMILES IDX 91 25 90 26 93 27 96 28 94 29 95 30 97 31 98 32 99 33 14 34
REMARK SMILES IDX 15 35 16 36 17 37 18 38 19 40 20 41 21 42 82 43 22 44 81 45
REMARK SMILES IDX 23 46 24 47 25 48 75 49 26 50 80 51 74 52 76 53 27 54 79 55
REMARK SMILES IDX 73 56 72 57 28 59 60 60 40 61 59 62 41 63 44 64 58 65 77 66
REMARK SMILES IDX 42 67 43 68 57 70 78 71 45 72 29 73 30 74 38 75 31 76 32 77
REMARK SMILES IDX 36 78 39 79 33 80 34 81 37 82 35 83 61 84 62 85 70 86 63 87
REMARK SMILES IDX 64 88 68 89 71 90 65 91 66 92 69 93 67 94 46 95 47 96 55 97
REMARK SMILES IDX 48 98 49 99 53 100 56 101 50 102 51 103 54 104 52 105
REMARK H PARENT 12 5 83 17 17 39 76 58 44 69
REMARK Flexibility Score: inf
ROOT
ATOM      1  C   UNL A   1      36.795  21.830  24.215  1.00  0.00     0.116 C 
ENDROOT
BRANCH   1   2
ATOM      2  N   UNL A   1      36.018  22.879  24.839  1.00  0.00    -0.356 N 
ATOM      3  C   UNL A   1      34.764  23.315  24.550  1.00  0.00     0.221 C 
ATOM      4  O   UNL A   1      34.393  24.369  25.070  1.00  0.00    -0.275 OA
ATOM      5  H   UNL A   1      36.464  23.347  25.581  1.00  0.00     0.163 HD
BRANCH   3   6
ATOM      6  C   UNL A   1      33.848  22.550  23.621  1.00  0.00     0.124 C 
BRANCH   6   7
ATOM      7  C   UNL A   1      32.613  21.867  24.250  1.00  0.00     0.109 C 
BRANCH   7   8
ATOM      8  C   UNL A   1      32.679  20.378  23.922  1.00  0.00    -0.026 A 
ATOM      9  C   UNL A   1      33.202  18.095  24.601  1.00  0.00     0.119 A 
ATOM     10  C   UNL A   1      32.837  17.623  23.344  1.00  0.00     0.046 A 
ATOM     11  C   UNL A   1      33.151  19.464  24.884  1.00  0.00     0.051 A 
ATOM     12  C   UNL A   1      32.343  18.509  22.393  1.00  0.00     0.004 A 
ATOM     13  C   UNL A   1      32.235  19.868  22.692  1.00  0.00     0.005 A 
BRANCH   9  14
ATOM     14  O   UNL A   1      33.669  17.174  25.500  1.00  0.00    -0.497 OA
ATOM     15  C   UNL A   1      32.739  16.114  25.718  1.00  0.00     0.278 C 
ENDBRANCH   9  14
ENDBRANCH   7   8
BRANCH   7  16
ATOM     16  N   UNL A   1      32.479  22.195  25.676  1.00  0.00    -0.203 NA
ATOM     17  H   UNL A   1      33.283  22.786  25.890  1.00  0.00     0.142 HD
BRANCH  16  18
ATOM     18  S   UNL A   1      31.173  22.955  26.391  1.00  0.00     0.241 S 
ATOM     19  O   UNL A   1      29.997  22.124  26.219  1.00  0.00    -0.207 OA
ATOM     20  O   UNL A   1      31.627  23.309  27.713  1.00  0.00    -0.207 OA
BRANCH  18  21
ATOM     21  C   UNL A   1      30.880  24.472  25.506  1.00  0.00     0.082 A 
ATOM     22  C   UNL A   1      30.574  24.457  24.125  1.00  0.00     0.024 A 
ATOM     23  C   UNL A   1      31.164  25.670  26.163  1.00  0.00     0.027 A 
ATOM     24  C   UNL A   1      30.458  25.651  23.400  1.00  0.00     0.028 A 
ATOM     25  C   UNL A   1      31.170  26.821  25.408  1.00  0.00    -0.021 A 
ATOM     26  C   UNL A   1      30.799  26.815  24.054  1.00  0.00     0.047 A 
ATOM     27  C   UNL A   1      31.556  28.206  25.839  1.00  0.00     0.063 C 
ATOM     28  N   UNL A   1      30.901  28.131  23.562  1.00  0.00    -0.309 N 
ATOM     29  C   UNL A   1      31.860  28.823  24.465  1.00  0.00     0.092 C 
ATOM     30  C   UNL A   1      33.307  28.501  24.023  1.00  0.00     0.032 C 
BRANCH  28  31
ATOM     31  C   UNL A   1      29.922  28.682  22.759  1.00  0.00     0.224 C 
ATOM     32  C   UNL A   1      28.509  28.381  23.205  1.00  0.00     0.115 C 
ATOM     33  O   UNL A   1      30.132  29.219  21.673  1.00  0.00    -0.275 OA
ENDBRANCH  28  31
ENDBRANCH  18  21
ENDBRANCH  16  18
ENDBRANCH   7  16
ENDBRANCH   6   7
ENDBRANCH   3   6
ENDBRANCH   1   2
BRANCH   1  34
ATOM     34  C   UNL A   1      36.645  20.526  24.987  1.00  0.00     0.023 C 
BRANCH  34  35
ATOM     35  C   UNL A   1      37.854  19.590  24.971  1.00  0.00     0.023 C 
BRANCH  35  36
ATOM     36  C   UNL A   1      39.052  20.080  25.766  1.00  0.00     0.116 C 
BRANCH  36  37
ATOM     37  N   UNL A   1      40.138  19.116  25.819  1.00  0.00    -0.352 N 
ATOM     38  C   UNL A   1      41.469  19.304  26.092  1.00  0.00     0.251 C 
ATOM     39  H   UNL A   1      39.878  18.185  25.630  1.00  0.00     0.163 HD
ATOM     40  O   UNL A   1      42.245  18.356  26.019  1.00  0.00    -0.269 OA
BRANCH  38  41
ATOM     41  C   UNL A   1      41.991  20.645  26.437  1.00  0.00     0.039 A 
ATOM     42  C   UNL A   1      42.237  21.546  25.398  1.00  0.00     0.014 A 
ATOM     43  C   UNL A   1      42.246  21.019  27.759  1.00  0.00     0.014 A 
ATOM     44  C   UNL A   1      42.678  22.837  25.687  1.00  0.00     0.010 A 
ATOM     45  C   UNL A   1      42.599  22.332  28.053  1.00  0.00     0.010 A 
ATOM     46  C   UNL A   1      42.826  23.253  27.021  1.00  0.00    -0.014 A 
BRANCH  46  47
ATOM     47  C   UNL A   1      43.211  24.649  27.342  1.00  0.00     0.031 A 
ATOM     48  C   UNL A   1      44.606  25.138  27.070  1.00  0.00     0.074 A 
ATOM     49  C   UNL A   1      42.307  25.462  27.923  1.00  0.00     0.049 A 
ATOM     50  N   UNL A   1      45.122  26.323  27.281  1.00  0.00    -0.248 NA
ATOM     51  C   UNL A   1      45.557  24.163  26.513  1.00  0.00     0.031 C 
ATOM     52  C   UNL A   1      40.944  25.081  28.298  1.00  0.00     0.029 A 
ATOM     53  N   UNL A   1      42.398  26.779  28.299  1.00  0.00    -0.354 N 
ATOM     54  C   UNL A   1      46.455  26.229  26.902  1.00  0.00     0.074 A 
ATOM     55  C   UNL A   1      46.684  24.861  26.496  1.00  0.00     0.031 C 
ATOM     56  C   UNL A   1      40.314  26.149  28.811  1.00  0.00     0.029 A 
ATOM     57  C   UNL A   1      41.235  27.281  28.830  1.00  0.00     0.049 A 
ATOM     58  H   UNL A   1      43.219  27.313  28.197  1.00  0.00     0.167 HD
ATOM     59  C   UNL A   1      47.393  27.204  26.870  1.00  0.00     0.037 A 
ATOM     60  C   UNL A   1      40.945  28.517  29.274  1.00  0.00     0.037 A 
ATOM     61  C   UNL A   1      47.148  28.574  27.236  1.00  0.00     0.049 A 
ATOM     62  C   UNL A   1      42.003  29.585  29.204  1.00  0.00     0.074 A 
ATOM     63  C   UNL A   1      48.006  29.657  27.154  1.00  0.00     0.029 A 
ATOM     64  N   UNL A   1      45.954  29.050  27.757  1.00  0.00    -0.354 N 
ATOM     65  N   UNL A   1      43.230  29.508  28.751  1.00  0.00    -0.248 NA
ATOM     66  C   UNL A   1      41.627  30.916  29.699  1.00  0.00     0.031 C 
ATOM     67  C   UNL A   1      47.348  30.778  27.670  1.00  0.00     0.029 A 
ATOM     68  C   UNL A   1      46.062  30.405  28.026  1.00  0.00     0.049 A 
ATOM     69  H   UNL A   1      45.149  28.506  27.912  1.00  0.00     0.167 HD
ATOM     70  C   UNL A   1      43.764  30.782  28.880  1.00  0.00     0.074 A 
ATOM     71  C   UNL A   1      42.719  31.618  29.433  1.00  0.00     0.031 C 
ATOM     72  C   UNL A   1      45.009  31.221  28.574  1.00  0.00     0.037 A 
BRANCH  59  73
ATOM     73  C   UNL A   1      48.774  26.831  26.415  1.00  0.00     0.064 A 
ATOM     74  C   UNL A   1      49.168  26.956  25.074  1.00  0.00     0.173 A 
ATOM     75  C   UNL A   1      49.732  26.389  27.340  1.00  0.00     0.173 A 
ATOM     76  F   UNL A   1      48.287  27.363  24.146  1.00  0.00    -0.203 F 
ATOM     77  C   UNL A   1      50.461  26.632  24.673  1.00  0.00     0.198 A 
ATOM     78  C   UNL A   1      51.033  26.093  26.941  1.00  0.00     0.198 A 
ATOM     79  F   UNL A   1      49.410  26.255  28.635  1.00  0.00    -0.203 F 
ATOM     80  F   UNL A   1      50.802  26.719  23.379  1.00  0.00    -0.200 F 
ATOM     81  C   UNL A   1      51.395  26.210  25.607  1.00  0.00     0.200 A 
ATOM     82  F   UNL A   1      51.937  25.697  27.846  1.00  0.00    -0.200 F 
ATOM     83  F   UNL A   1      52.643  25.909  25.222  1.00  0.00    -0.200 F 
ENDBRANCH  59  73
BRANCH  60  84
ATOM     84  C   UNL A   1      39.585  28.829  29.785  1.00  0.00     0.064 A 
ATOM     85  C   UNL A   1      38.620  29.409  28.949  1.00  0.00     0.173 A 
ATOM     86  C   UNL A   1      39.226  28.575  31.117  1.00  0.00     0.173 A 
ATOM     87  F   UNL A   1      38.923  29.690  27.673  1.00  0.00    -0.203 F 
ATOM     88  C   UNL A   1      37.359  29.750  29.432  1.00  0.00     0.198 A 
ATOM     89  C   UNL A   1      37.954  28.890  31.590  1.00  0.00     0.198 A 
ATOM     90  F   UNL A   1      40.110  28.017  31.956  1.00  0.00    -0.203 F 
ATOM     91  F   UNL A   1      36.476  30.354  28.624  1.00  0.00    -0.200 F 
ATOM     92  C   UNL A   1      37.025  29.486  30.751  1.00  0.00     0.200 A 
ATOM     93  F   UNL A   1      37.630  28.623  32.863  1.00  0.00    -0.200 F 
ATOM     94  F   UNL A   1      35.813  29.817  31.216  1.00  0.00    -0.200 F 
ENDBRANCH  60  84
BRANCH  72  95
ATOM     95  C   UNL A   1      45.295  32.677  28.806  1.00  0.00     0.064 A 
ATOM     96  C   UNL A   1      45.852  33.134  30.009  1.00  0.00     0.173 A 
ATOM     97  C   UNL A   1      45.021  33.623  27.806  1.00  0.00     0.173 A 
ATOM     98  F   UNL A   1      46.118  32.270  31.001  1.00  0.00    -0.203 F 
ATOM     99  C   UNL A   1      46.090  34.489  30.218  1.00  0.00     0.198 A 
ATOM    100  C   UNL A   1      45.291  34.974  28.006  1.00  0.00     0.198 A 
ATOM    101  F   UNL A   1      44.495  33.237  26.634  1.00  0.00    -0.203 F 
ATOM    102  F   UNL A   1      46.568  34.910  31.397  1.00  0.00    -0.200 F 
ATOM    103  C   UNL A   1      45.815  35.406  29.215  1.00  0.00     0.200 A 
ATOM    104  F   UNL A   1      45.037  35.857  27.031  1.00  0.00    -0.200 F 
ATOM    105  F   UNL A   1      46.046  36.711  29.418  1.00  0.00    -0.200 F 
ENDBRANCH  72  95
ENDBRANCH  46  47
ENDBRANCH  38  41
ENDBRANCH  36  37
ENDBRANCH  35  36
ENDBRANCH  34  35
ENDBRANCH   1  34
TORSDOF 18
ENDMDL
MODEL 2
REMARK VINA RESULT:     -13.3      0.510      7.076
REMARK SMILES COc1cccc([C@H](CC(=O)NCCCCNC(=O)c2ccc(-c3c4nc(c(-c5c(F)c(F)c(F)c(F)c5F)c5ccc([nH]5)c(-c5c(F)c(F)c(F)c(F)c5F)c5nc(c(-c6c(F)c(F)c(F)c(F)c6F)c6ccc3[nH]6)C=C5)C=C4)cc2)NS(=O)(=O)c2ccc3c(c2)C[C@@H](C)N3C(C)=O)c1
REMARK SMILES IDX 13 1 12 2 10 3 11 4 9 6 8 7 7 8 3 9 4 10 100 11 5 12 6 13
REMARK SMILES IDX 2 14 1 15 83 16 84 18 85 19 86 20 87 21 88 22 92 23 89 24
REMARK SMILES IDX 91 25 90 26 93 27 96 28 94 29 95 30 97 31 98 32 99 33 14 34
REMARK SMILES IDX 15 35 16 36 17 37 18 38 19 40 20 41 21 42 82 43 22 44 81 45
REMARK SMILES IDX 23 46 24 47 25 48 75 49 26 50 80 51 74 52 76 53 27 54 79 55
REMARK SMILES IDX 73 56 72 57 28 59 60 60 40 61 59 62 41 63 44 64 58 65 77 66
REMARK SMILES IDX 42 67 43 68 57 70 78 71 45 72 29 73 30 74 38 75 31 76 32 77
REMARK SMILES IDX 36 78 39 79 33 80 34 81 37 82 35 83 61 84 62 85 70 86 63 87
REMARK SMILES IDX 64 88 68 89 71 90 65 91 66 92 69 93 67 94 46 95 47 96 55 97
REMARK SMILES IDX 48 98 49 99 53 100 56 101 50 102 51 103 54 104 52 105
REMARK H PARENT 12 5 83 17 17 39 76 58 44 69
REMARK Flexibility Score: inf
ROOT
ATOM      1  C   UNL A   1      36.719  21.815  24.118  1.00  0.00     0.116 C 
ENDROOT
BRANCH   1   2
ATOM      2  N   UNL A   1      35.950  22.904  24.681  1.00  0.00    -0.356 N 
ATOM      3  C   UNL A   1      34.695  23.326  24.375  1.00  0.00     0.221 C 
ATOM      4  O   UNL A   1      34.331  24.411  24.832  1.00  0.00    -0.275 OA
ATOM      5  H   UNL A   1      36.402  23.414  25.391  1.00  0.00     0.163 HD
BRANCH   3   6
ATOM      6  C   UNL A   1      33.769  22.509  23.501  1.00  0.00     0.124 C 
BRANCH   6   7
ATOM      7  C   UNL A   1      32.543  21.860  24.182  1.00  0.00     0.109 C 
BRANCH   7   8
ATOM      8  C   UNL A   1      32.594  20.358  23.913  1.00  0.00    -0.026 A 
ATOM      9  C   UNL A   1      32.999  18.090  24.711  1.00  0.00     0.119 A 
ATOM     10  C   UNL A   1      32.720  17.581  23.447  1.00  0.00     0.046 A 
ATOM     11  C   UNL A   1      32.965  19.470  24.941  1.00  0.00     0.051 A 
ATOM     12  C   UNL A   1      32.325  18.442  22.430  1.00  0.00     0.004 A 
ATOM     13  C   UNL A   1      32.232  19.814  22.671  1.00  0.00     0.005 A 
BRANCH   9  14
ATOM     14  O   UNL A   1      33.370  17.193  25.676  1.00  0.00    -0.497 OA
ATOM     15  C   UNL A   1      32.929  15.868  25.378  1.00  0.00     0.278 C 
ENDBRANCH   9  14
ENDBRANCH   7   8
BRANCH   7  16
ATOM     16  N   UNL A   1      32.440  22.246  25.596  1.00  0.00    -0.203 NA
ATOM     17  H   UNL A   1      33.243  22.854  25.765  1.00  0.00     0.142 HD
BRANCH  16  18
ATOM     18  S   UNL A   1      31.143  23.022  26.311  1.00  0.00     0.241 S 
ATOM     19  O   UNL A   1      29.954  22.212  26.125  1.00  0.00    -0.207 OA
ATOM     20  O   UNL A   1      31.596  23.357  27.638  1.00  0.00    -0.207 OA
BRANCH  18  21
ATOM     21  C   UNL A   1      30.880  24.550  25.437  1.00  0.00     0.082 A 
ATOM     22  C   UNL A   1      30.638  24.556  24.044  1.00  0.00     0.024 A 
ATOM     23  C   UNL A   1      31.126  25.740  26.125  1.00  0.00     0.027 A 
ATOM     24  C   UNL A   1      30.547  25.761  23.333  1.00  0.00     0.028 A 
ATOM     25  C   UNL A   1      31.158  26.903  25.389  1.00  0.00    -0.021 A 
ATOM     26  C   UNL A   1      30.850  26.916  24.020  1.00  0.00     0.047 A 
ATOM     27  C   UNL A   1      31.515  28.284  25.859  1.00  0.00     0.063 C 
ATOM     28  N   UNL A   1      30.965  28.241  23.555  1.00  0.00    -0.309 N 
ATOM     29  C   UNL A   1      31.876  28.924  24.510  1.00  0.00     0.092 C 
ATOM     30  C   UNL A   1      33.344  28.619  24.131  1.00  0.00     0.032 C 
BRANCH  28  31
ATOM     31  C   UNL A   1      30.020  28.798  22.716  1.00  0.00     0.224 C 
ATOM     32  C   UNL A   1      28.589  28.518  23.117  1.00  0.00     0.115 C 
ATOM     33  O   UNL A   1      30.272  29.325  21.634  1.00  0.00    -0.275 OA
ENDBRANCH  28  31
ENDBRANCH  18  21
ENDBRANCH  16  18
ENDBRANCH   7  16
ENDBRANCH   6   7
ENDBRANCH   3   6
ENDBRANCH   1   2
BRANCH   1  34
ATOM     34  C   UNL A   1      36.618  20.579  25.001  1.00  0.00     0.023 C 
BRANCH  34  35
ATOM     35  C   UNL A   1      37.819  19.633  24.976  1.00  0.00     0.023 C 
BRANCH  35  36
ATOM     36  C   UNL A   1      39.030  20.118  25.754  1.00  0.00     0.116 C 
BRANCH  36  37
ATOM     37  N   UNL A   1      40.080  19.119  25.862  1.00  0.00    -0.352 N 
ATOM     38  C   UNL A   1      41.418  19.272  26.124  1.00  0.00     0.251 C 
ATOM     39  H   UNL A   1      39.785  18.189  25.727  1.00  0.00     0.163 HD
ATOM     40  O   UNL A   1      42.158  18.293  26.105  1.00  0.00    -0.269 OA
BRANCH  38  41
ATOM     41  C   UNL A   1      41.989  20.610  26.392  1.00  0.00     0.039 A 
ATOM     42  C   UNL A   1      42.263  21.443  25.304  1.00  0.00     0.014 A 
ATOM     43  C   UNL A   1      42.264  21.047  27.691  1.00  0.00     0.014 A 
ATOM     44  C   UNL A   1      42.752  22.731  25.520  1.00  0.00     0.010 A 
ATOM     45  C   UNL A   1      42.666  22.361  27.911  1.00  0.00     0.010 A 
ATOM     46  C   UNL A   1      42.922  23.214  26.828  1.00  0.00    -0.014 A 
BRANCH  46  47
ATOM     47  C   UNL A   1      43.358  24.611  27.070  1.00  0.00     0.031 A 
ATOM     48  C   UNL A   1      42.399  25.624  27.629  1.00  0.00     0.074 A 
ATOM     49  C   UNL A   1      44.612  24.974  26.739  1.00  0.00     0.049 A 
ATOM     50  N   UNL A   1      42.601  26.888  27.909  1.00  0.00    -0.248 NA
ATOM     51  C   UNL A   1      41.023  25.170  27.883  1.00  0.00     0.031 C 
ATOM     52  C   UNL A   1      45.613  24.098  26.126  1.00  0.00     0.029 A 
ATOM     53  N   UNL A   1      45.263  26.175  26.874  1.00  0.00    -0.354 N 
ATOM     54  C   UNL A   1      41.380  27.378  28.352  1.00  0.00     0.074 A 
ATOM     55  C   UNL A   1      40.428  26.294  28.256  1.00  0.00     0.031 C 
ATOM     56  C   UNL A   1      46.760  24.777  25.977  1.00  0.00     0.029 A 
ATOM     57  C   UNL A   1      46.570  26.143  26.453  1.00  0.00     0.049 A 
ATOM     58  H   UNL A   1      44.833  26.983  27.238  1.00  0.00     0.167 HD
ATOM     59  C   UNL A   1      41.087  28.614  28.821  1.00  0.00     0.037 A 
ATOM     60  C   UNL A   1      47.509  27.106  26.460  1.00  0.00     0.037 A 
ATOM     61  C   UNL A   1      42.049  29.677  28.953  1.00  0.00     0.049 A 
ATOM     62  C   UNL A   1      47.160  28.463  27.010  1.00  0.00     0.074 A 
ATOM     63  C   UNL A   1      41.874  30.936  29.499  1.00  0.00     0.029 A 
ATOM     64  N   UNL A   1      43.367  29.605  28.529  1.00  0.00    -0.354 N 
ATOM     65  N   UNL A   1      46.028  28.886  27.517  1.00  0.00    -0.248 NA
ATOM     66  C   UNL A   1      48.226  29.473  26.995  1.00  0.00     0.031 C 
ATOM     67  C   UNL A   1      43.073  31.643  29.364  1.00  0.00     0.029 A 
ATOM     68  C   UNL A   1      44.010  30.807  28.778  1.00  0.00     0.049 A 
ATOM     69  H   UNL A   1      43.785  28.816  28.114  1.00  0.00     0.167 HD
ATOM     70  C   UNL A   1      46.251  30.198  27.907  1.00  0.00     0.074 A 
ATOM     71  C   UNL A   1      47.634  30.495  27.597  1.00  0.00     0.031 C 
ATOM     72  C   UNL A   1      45.389  31.082  28.465  1.00  0.00     0.037 A 
BRANCH  59  73
ATOM     73  C   UNL A   1      39.671  28.887  29.237  1.00  0.00     0.064 A 
ATOM     74  C   UNL A   1      39.234  28.665  30.552  1.00  0.00     0.173 A 
ATOM     75  C   UNL A   1      38.752  29.423  28.323  1.00  0.00     0.173 A 
ATOM     76  F   UNL A   1      40.069  28.143  31.463  1.00  0.00    -0.203 F 
ATOM     77  C   UNL A   1      37.924  28.950  30.929  1.00  0.00     0.198 A 
ATOM     78  C   UNL A   1      37.451  29.733  28.711  1.00  0.00     0.198 A 
ATOM     79  F   UNL A   1      39.118  29.658  27.054  1.00  0.00    -0.203 F 
ATOM     80  F   UNL A   1      37.517  28.690  32.180  1.00  0.00    -0.200 F 
ATOM     81  C   UNL A   1      37.036  29.492  30.012  1.00  0.00     0.200 A 
ATOM     82  F   UNL A   1      36.598  30.267  27.826  1.00  0.00    -0.200 F 
ATOM     83  F   UNL A   1      35.779  29.775  30.379  1.00  0.00    -0.200 F 
ENDBRANCH  59  73
BRANCH  60  84
ATOM     84  C   UNL A   1      48.882  26.817  25.971  1.00  0.00     0.064 A 
ATOM     85  C   UNL A   1      49.858  26.303  26.838  1.00  0.00     0.173 A 
ATOM     86  C   UNL A   1      49.255  27.064  24.642  1.00  0.00     0.173 A 
ATOM     87  F   UNL A   1      49.556  26.071  28.124  1.00  0.00    -0.203 F 
ATOM     88  C   UNL A   1      51.161  26.075  26.401  1.00  0.00     0.198 A 
ATOM     89  C   UNL A   1      50.551  26.807  24.200  1.00  0.00     0.198 A 
ATOM     90  F   UNL A   1      48.358  27.550  23.772  1.00  0.00    -0.203 F 
ATOM     91  F   UNL A   1      52.087  25.636  27.264  1.00  0.00    -0.200 F 
ATOM     92  C   UNL A   1      51.505  26.323  25.081  1.00  0.00     0.200 A 
ATOM     93  F   UNL A   1      50.877  27.036  22.920  1.00  0.00    -0.200 F 
ATOM     94  F   UNL A   1      52.760  26.106  24.662  1.00  0.00    -0.200 F 
ENDBRANCH  60  84
BRANCH  72  95
ATOM     95  C   UNL A   1      45.929  32.442  28.802  1.00  0.00     0.064 A 
ATOM     96  C   UNL A   1      45.875  33.502  27.886  1.00  0.00     0.173 A 
ATOM     97  C   UNL A   1      46.496  32.689  30.062  1.00  0.00     0.173 A 
ATOM     98  F   UNL A   1      45.357  33.311  26.663  1.00  0.00    -0.203 F 
ATOM     99  C   UNL A   1      46.401  34.751  28.204  1.00  0.00     0.198 A 
ATOM    100  C   UNL A   1      46.991  33.948  30.389  1.00  0.00     0.198 A 
ATOM    101  F   UNL A   1      46.565  31.711  30.978  1.00  0.00    -0.203 F 
ATOM    102  F   UNL A   1      46.391  35.732  27.292  1.00  0.00    -0.200 F 
ATOM    103  C   UNL A   1      46.952  34.974  29.457  1.00  0.00     0.200 A 
ATOM    104  F   UNL A   1      47.511  34.167  31.605  1.00  0.00    -0.200 F 
ATOM    105  F   UNL A   1      47.457  36.178  29.762  1.00  0.00    -0.200 F 
ENDBRANCH  72  95
ENDBRANCH  46  47
ENDBRANCH  38  41
ENDBRANCH  36  37
ENDBRANCH  35  36
ENDBRANCH  34  35
ENDBRANCH   1  34
TORSDOF 18
ENDMDL
MODEL 3
REMARK VINA RESULT:     -12.8      4.966     10.896
REMARK SMILES COc1cccc([C@H](CC(=O)NCCCCNC(=O)c2ccc(-c3c4nc(c(-c5c(F)c(F)c(F)c(F)c5F)c5ccc([nH]5)c(-c5c(F)c(F)c(F)c(F)c5F)c5nc(c(-c6c(F)c(F)c(F)c(F)c6F)c6ccc3[nH]6)C=C5)C=C4)cc2)NS(=O)(=O)c2ccc3c(c2)C[C@@H](C)N3C(C)=O)c1
REMARK SMILES IDX 13 1 12 2 10 3 11 4 9 6 8 7 7 8 3 9 4 10 100 11 5 12 6 13
REMARK SMILES IDX 2 14 1 15 83 16 84 18 85 19 86 20 87 21 88 22 92 23 89 24
REMARK SMILES IDX 91 25 90 26 93 27 96 28 94 29 95 30 97 31 98 32 99 33 14 34
REMARK SMILES IDX 15 35 16 36 17 37 18 38 19 40 20 41 21 42 82 43 22 44 81 45
REMARK SMILES IDX 23 46 24 47 25 48 75 49 26 50 80 51 74 52 76 53 27 54 79 55
REMARK SMILES IDX 73 56 72 57 28 59 60 60 40 61 59 62 41 63 44 64 58 65 77 66
REMARK SMILES IDX 42 67 43 68 57 70 78 71 45 72 29 73 30 74 38 75 31 76 32 77
REMARK SMILES IDX 36 78 39 79 33 80 34 81 37 82 35 83 61 84 62 85 70 86 63 87
REMARK SMILES IDX 64 88 68 89 71 90 65 91 66 92 69 93 67 94 46 95 47 96 55 97
REMARK SMILES IDX 48 98 49 99 53 100 56 101 50 102 51 103 54 104 52 105
REMARK H PARENT 12 5 83 17 17 39 76 58 44 69
REMARK Flexibility Score: inf
ROOT
ATOM      1  C   UNL A   1      34.377  29.906  27.210  1.00  0.00     0.116 C 
ENDROOT
BRANCH   1   2
ATOM      2  N   UNL A   1      33.379  28.946  27.628  1.00  0.00    -0.356 N 
ATOM      3  C   UNL A   1      32.287  28.487  26.964  1.00  0.00     0.221 C 
ATOM      4  O   UNL A   1      31.459  27.838  27.606  1.00  0.00    -0.275 OA
ATOM      5  H   UNL A   1      33.511  28.570  28.529  1.00  0.00     0.163 HD
BRANCH   3   6
ATOM      6  C   UNL A   1      32.076  28.761  25.490  1.00  0.00     0.124 C 
BRANCH   6   7
ATOM      7  C   UNL A   1      31.760  27.550  24.584  1.00  0.00     0.109 C 
BRANCH   7   8
ATOM      8  C   UNL A   1      30.317  27.682  24.106  1.00  0.00    -0.026 A 
ATOM      9  C   UNL A   1      28.584  28.978  22.982  1.00  0.00     0.119 A 
ATOM     10  C   UNL A   1      27.653  27.973  23.228  1.00  0.00     0.046 A 
ATOM     11  C   UNL A   1      29.899  28.851  23.439  1.00  0.00     0.051 A 
ATOM     12  C   UNL A   1      28.057  26.801  23.860  1.00  0.00     0.004 A 
ATOM     13  C   UNL A   1      29.384  26.646  24.265  1.00  0.00     0.005 A 
BRANCH   9  14
ATOM     14  O   UNL A   1      28.131  30.102  22.345  1.00  0.00    -0.497 OA
ATOM     15  C   UNL A   1      27.677  31.095  23.264  1.00  0.00     0.278 C 
ENDBRANCH   9  14
ENDBRANCH   7   8
BRANCH   7  16
ATOM     16  N   UNL A   1      32.765  27.388  23.525  1.00  0.00    -0.203 NA
ATOM     17  H   UNL A   1      33.654  27.282  24.015  1.00  0.00     0.142 HD
BRANCH  16  18
ATOM     18  S   UNL A   1      32.770  26.200  22.348  1.00  0.00     0.241 S 
ATOM     19  O   UNL A   1      31.491  26.215  21.664  1.00  0.00    -0.207 OA
ATOM     20  O   UNL A   1      33.992  26.411  21.612  1.00  0.00    -0.207 OA
BRANCH  18  21
ATOM     21  C   UNL A   1      32.908  24.626  23.169  1.00  0.00     0.082 A 
ATOM     22  C   UNL A   1      31.953  23.607  22.947  1.00  0.00     0.024 A 
ATOM     23  C   UNL A   1      33.857  24.508  24.185  1.00  0.00     0.027 A 
ATOM     24  C   UNL A   1      31.992  22.411  23.678  1.00  0.00     0.028 A 
ATOM     25  C   UNL A   1      33.801  23.383  24.977  1.00  0.00    -0.021 A 
ATOM     26  C   UNL A   1      32.899  22.341  24.712  1.00  0.00     0.047 A 
ATOM     27  C   UNL A   1      34.619  23.071  26.197  1.00  0.00     0.063 C 
ATOM     28  N   UNL A   1      33.085  21.339  25.685  1.00  0.00    -0.309 N 
ATOM     29  C   UNL A   1      33.707  22.021  26.850  1.00  0.00     0.092 C 
ATOM     30  C   UNL A   1      32.605  22.698  27.699  1.00  0.00     0.032 C 
BRANCH  28  31
ATOM     31  C   UNL A   1      33.126  20.000  25.346  1.00  0.00     0.224 C 
ATOM     32  C   UNL A   1      34.388  19.579  24.625  1.00  0.00     0.115 C 
ATOM     33  O   UNL A   1      32.174  19.228  25.439  1.00  0.00    -0.275 OA
ENDBRANCH  28  31
ENDBRANCH  18  21
ENDBRANCH  16  18
ENDBRANCH   7  16
ENDBRANCH   6   7
ENDBRANCH   3   6
ENDBRANCH   1   2
BRANCH   1  34
ATOM     34  C   UNL A   1      34.206  31.216  27.967  1.00  0.00     0.023 C 
BRANCH  34  35
ATOM     35  C   UNL A   1      32.864  31.927  27.789  1.00  0.00     0.023 C 
BRANCH  35  36
ATOM     36  C   UNL A   1      32.915  33.188  26.944  1.00  0.00     0.116 C 
BRANCH  36  37
ATOM     37  N   UNL A   1      32.516  34.382  27.671  1.00  0.00    -0.352 N 
ATOM     38  C   UNL A   1      33.059  34.950  28.796  1.00  0.00     0.251 C 
ATOM     39  H   UNL A   1      31.737  34.855  27.299  1.00  0.00     0.163 HD
ATOM     40  O   UNL A   1      32.525  35.934  29.299  1.00  0.00    -0.269 OA
BRANCH  38  41
ATOM     41  C   UNL A   1      34.260  34.369  29.434  1.00  0.00     0.039 A 
ATOM     42  C   UNL A   1      34.104  33.700  30.651  1.00  0.00     0.014 A 
ATOM     43  C   UNL A   1      35.528  34.481  28.859  1.00  0.00     0.014 A 
ATOM     44  C   UNL A   1      35.205  33.093  31.257  1.00  0.00     0.010 A 
ATOM     45  C   UNL A   1      36.607  33.802  29.415  1.00  0.00     0.010 A 
ATOM     46  C   UNL A   1      36.458  33.107  30.624  1.00  0.00    -0.014 A 
BRANCH  46  47
ATOM     47  C   UNL A   1      37.614  32.391  31.216  1.00  0.00     0.031 A 
ATOM     48  C   UNL A   1      38.106  32.742  32.592  1.00  0.00     0.074 A 
ATOM     49  C   UNL A   1      38.249  31.452  30.488  1.00  0.00     0.049 A 
ATOM     50  N   UNL A   1      39.098  32.224  33.273  1.00  0.00    -0.248 NA
ATOM     51  C   UNL A   1      37.412  33.837  33.288  1.00  0.00     0.031 C 
ATOM     52  C   UNL A   1      37.908  31.072  29.115  1.00  0.00     0.029 A 
ATOM     53  N   UNL A   1      39.314  30.644  30.800  1.00  0.00    -0.354 N 
ATOM     54  C   UNL A   1      39.156  32.939  34.462  1.00  0.00     0.074 A 
ATOM     55  C   UNL A   1      38.136  33.962  34.392  1.00  0.00     0.031 C 
ATOM     56  C   UNL A   1      38.718  30.079  28.719  1.00  0.00     0.029 A 
ATOM     57  C   UNL A   1      39.655  29.772  29.795  1.00  0.00     0.049 A 
ATOM     58  H   UNL A   1      39.788  30.686  31.662  1.00  0.00     0.167 HD
ATOM     59  C   UNL A   1      39.970  32.743  35.525  1.00  0.00     0.037 A 
ATOM     60  C   UNL A   1      40.611  28.826  29.752  1.00  0.00     0.037 A 
ATOM     61  C   UNL A   1      40.956  31.697  35.606  1.00  0.00     0.049 A 
ATOM     62  C   UNL A   1      41.484  28.615  30.960  1.00  0.00     0.074 A 
ATOM     63  C   UNL A   1      41.769  31.358  36.674  1.00  0.00     0.029 A 
ATOM     64  N   UNL A   1      41.266  30.823  34.575  1.00  0.00    -0.354 N 
ATOM     65  N   UNL A   1      41.464  29.233  32.115  1.00  0.00    -0.248 NA
ATOM     66  C   UNL A   1      42.507  27.566  30.856  1.00  0.00     0.031 C 
ATOM     67  C   UNL A   1      42.603  30.309  36.273  1.00  0.00     0.029 A 
ATOM     68  C   UNL A   1      42.275  29.961  34.972  1.00  0.00     0.049 A 
ATOM     69  H   UNL A   1      40.831  30.815  33.692  1.00  0.00     0.167 HD
ATOM     70  C   UNL A   1      42.450  28.633  32.885  1.00  0.00     0.074 A 
ATOM     71  C   UNL A   1      43.033  27.586  32.073  1.00  0.00     0.031 C 
ATOM     72  C   UNL A   1      42.841  28.923  34.150  1.00  0.00     0.037 A 
BRANCH  59  73
ATOM     73  C   UNL A   1      39.827  33.670  36.697  1.00  0.00     0.064 A 
ATOM     74  C   UNL A   1      40.492  34.905  36.746  1.00  0.00     0.173 A 
ATOM     75  C   UNL A   1      38.975  33.343  37.763  1.00  0.00     0.173 A 
ATOM     76  F   UNL A   1      41.327  35.262  35.758  1.00  0.00    -0.203 F 
ATOM     77  C   UNL A   1      40.326  35.767  37.827  1.00  0.00     0.198 A 
ATOM     78  C   UNL A   1      38.790  34.219  38.830  1.00  0.00     0.198 A 
ATOM     79  F   UNL A   1      38.313  32.177  37.766  1.00  0.00    -0.203 F 
ATOM     80  F   UNL A   1      41.005  36.922  37.872  1.00  0.00    -0.200 F 
ATOM     81  C   UNL A   1      39.470  35.427  38.864  1.00  0.00     0.200 A 
ATOM     82  F   UNL A   1      37.953  33.895  39.824  1.00  0.00    -0.200 F 
ATOM     83  F   UNL A   1      39.303  36.262  39.898  1.00  0.00    -0.200 F 
ENDBRANCH  59  73
BRANCH  60  84
ATOM     84  C   UNL A   1      40.769  27.974  28.545  1.00  0.00     0.064 A 
ATOM     85  C   UNL A   1      41.612  28.368  27.495  1.00  0.00     0.173 A 
ATOM     86  C   UNL A   1      40.072  26.766  28.403  1.00  0.00     0.173 A 
ATOM     87  F   UNL A   1      42.283  29.527  27.575  1.00  0.00    -0.203 F 
ATOM     88  C   UNL A   1      41.729  27.601  26.339  1.00  0.00     0.198 A 
ATOM     89  C   UNL A   1      40.213  25.985  27.257  1.00  0.00     0.198 A 
ATOM     90  F   UNL A   1      39.258  26.342  29.380  1.00  0.00    -0.203 F 
ATOM     91  F   UNL A   1      42.499  28.030  25.329  1.00  0.00    -0.200 F 
ATOM     92  C   UNL A   1      41.033  26.408  26.222  1.00  0.00     0.200 A 
ATOM     93  F   UNL A   1      39.548  24.827  27.153  1.00  0.00    -0.200 F 
ATOM     94  F   UNL A   1      41.143  25.672  25.108  1.00  0.00    -0.200 F 
ENDBRANCH  60  84
BRANCH  72  95
ATOM     95  C   UNL A   1      43.933  28.077  34.737  1.00  0.00     0.064 A 
ATOM     96  C   UNL A   1      43.652  26.885  35.420  1.00  0.00     0.173 A 
ATOM     97  C   UNL A   1      45.277  28.457  34.603  1.00  0.00     0.173 A 
ATOM     98  F   UNL A   1      42.381  26.486  35.588  1.00  0.00    -0.203 F 
ATOM     99  C   UNL A   1      44.674  26.122  35.979  1.00  0.00     0.198 A 
ATOM    100  C   UNL A   1      46.299  27.675  35.134  1.00  0.00     0.198 A 
ATOM    101  F   UNL A   1      45.601  29.585  33.952  1.00  0.00    -0.203 F 
ATOM    102  F   UNL A   1      44.378  25.018  36.678  1.00  0.00    -0.200 F 
ATOM    103  C   UNL A   1      45.996  26.515  35.830  1.00  0.00     0.200 A 
ATOM    104  F   UNL A   1      47.577  28.048  34.978  1.00  0.00    -0.200 F 
ATOM    105  F   UNL A   1      46.978  25.779  36.369  1.00  0.00    -0.200 F 
ENDBRANCH  72  95
ENDBRANCH  46  47
ENDBRANCH  38  41
ENDBRANCH  36  37
ENDBRANCH  35  36
ENDBRANCH  34  35
ENDBRANCH   1  34
TORSDOF 18
ENDMDL
