MODEL 1
REMARK VINA RESULT:     -12.0      0.000      0.000
REMARK SMILES COC(=O)[C@@H]1CCN(C(=O)N[C@H](C)CC(=O)NCCCCNC(=O)c2ccc(-c3c4nc(c(-c5c(F)c(F)c(F)c(F)c5F)c5ccc([nH]5)c(-c5c(F)c(F)c(F)c(F)c5F)c5nc(c(-c6c(F)c(F)c(F)c(F)c6F)c6ccc3[nH]6)C=C5)C=C4)cc2)C1
REMARK SMILES IDX 18 1 17 2 15 3 16 4 14 6 12 7 13 8 11 9 9 10 10 11 8 13 5 14
REMARK SMILES IDX 6 15 88 16 7 17 3 18 4 19 2 20 1 21 19 22 20 23 21 24 22 25
REMARK SMILES IDX 23 26 24 28 25 29 26 30 87 31 27 32 86 33 28 34 29 35 30 36
REMARK SMILES IDX 80 37 31 38 85 39 79 40 81 41 32 42 84 43 78 44 77 45 33 47
REMARK SMILES IDX 65 48 45 49 64 50 46 51 49 52 63 53 82 54 47 55 48 56 62 58
REMARK SMILES IDX 83 59 50 60 34 61 35 62 43 63 36 64 37 65 41 66 44 67 38 68
REMARK SMILES IDX 39 69 42 70 40 71 66 72 67 73 75 74 68 75 69 76 73 77 76 78
REMARK SMILES IDX 70 79 71 80 74 81 72 82 51 83 52 84 60 85 53 86 54 87 58 88
REMARK SMILES IDX 61 89 55 90 56 91 59 92 57 93
REMARK H PARENT 17 5 11 12 22 27 81 46 49 57
REMARK Flexibility Score: inf
ROOT
ATOM      1  C   UNL A   1      32.874  29.856  27.127  1.00  0.00     0.116 C 
ENDROOT
BRANCH   1   2
ATOM      2  N   UNL A   1      32.089  28.743  27.635  1.00  0.00    -0.356 N 
ATOM      3  C   UNL A   1      31.897  27.542  26.999  1.00  0.00     0.222 C 
ATOM      4  O   UNL A   1      30.863  26.908  27.176  1.00  0.00    -0.275 OA
ATOM      5  H   UNL A   1      31.656  28.862  28.512  1.00  0.00     0.163 HD
BRANCH   3   6
ATOM      6  C   UNL A   1      33.083  26.985  26.268  1.00  0.00     0.124 C 
BRANCH   6   7
ATOM      7  C   UNL A   1      33.101  25.657  25.582  1.00  0.00     0.090 C 
ATOM      8  C   UNL A   1      34.511  25.192  25.199  1.00  0.00     0.031 C 
BRANCH   7   9
ATOM      9  N   UNL A   1      32.493  24.586  26.414  1.00  0.00    -0.335 N 
ATOM     10  C   UNL A   1      32.487  23.274  26.673  1.00  0.00     0.317 C 
ATOM     11  O   UNL A   1      31.753  22.987  27.632  1.00  0.00    -0.249 OA
ATOM     12  H   UNL A   1      31.834  25.010  27.010  1.00  0.00     0.165 HD
BRANCH  10  13
ATOM     13  N   UNL A   1      33.155  22.283  26.028  1.00  0.00    -0.324 N 
ATOM     14  C   UNL A   1      33.386  20.596  24.317  1.00  0.00     0.120 C 
ATOM     15  C   UNL A   1      34.754  21.014  24.813  1.00  0.00     0.039 C 
ATOM     16  C   UNL A   1      32.464  21.670  24.888  1.00  0.00     0.136 C 
ATOM     17  C   UNL A   1      34.447  21.630  26.167  1.00  0.00     0.122 C 
BRANCH  14  18
ATOM     18  C   UNL A   1      33.084  19.198  24.808  1.00  0.00     0.310 C 
ATOM     19  O   UNL A   1      32.038  18.824  25.322  1.00  0.00    -0.252 OA
BRANCH  18  20
ATOM     20  O   UNL A   1      34.195  18.423  24.637  1.00  0.00    -0.469 OA
ATOM     21  C   UNL A   1      33.958  17.182  23.972  1.00  0.00     0.282 C 
ENDBRANCH  18  20
ENDBRANCH  14  18
ENDBRANCH  10  13
ENDBRANCH   7   9
ENDBRANCH   6   7
ENDBRANCH   3   6
ENDBRANCH   1   2
BRANCH   1  22
ATOM     22  C   UNL A   1      31.983  30.702  26.225  1.00  0.00     0.023 C 
BRANCH  22  23
ATOM     23  C   UNL A   1      31.574  32.015  26.878  1.00  0.00     0.023 C 
BRANCH  23  24
ATOM     24  C   UNL A   1      32.745  32.772  27.476  1.00  0.00     0.116 C 
BRANCH  24  25
ATOM     25  N   UNL A   1      32.440  34.181  27.686  1.00  0.00    -0.352 N 
ATOM     26  C   UNL A   1      32.968  35.026  28.628  1.00  0.00     0.251 C 
ATOM     27  H   UNL A   1      31.774  34.574  27.077  1.00  0.00     0.163 HD
ATOM     28  O   UNL A   1      32.489  36.136  28.824  1.00  0.00    -0.269 OA
BRANCH  26  29
ATOM     29  C   UNL A   1      34.112  34.545  29.421  1.00  0.00     0.039 A 
ATOM     30  C   UNL A   1      33.880  33.960  30.664  1.00  0.00     0.014 A 
ATOM     31  C   UNL A   1      35.400  34.595  28.876  1.00  0.00     0.014 A 
ATOM     32  C   UNL A   1      34.944  33.369  31.342  1.00  0.00     0.010 A 
ATOM     33  C   UNL A   1      36.429  33.910  29.500  1.00  0.00     0.010 A 
ATOM     34  C   UNL A   1      36.217  33.307  30.749  1.00  0.00    -0.014 A 
BRANCH  34  35
ATOM     35  C   UNL A   1      37.351  32.644  31.434  1.00  0.00     0.031 A 
ATOM     36  C   UNL A   1      38.062  31.505  30.759  1.00  0.00     0.074 A 
ATOM     37  C   UNL A   1      37.701  33.029  32.676  1.00  0.00     0.049 A 
ATOM     38  N   UNL A   1      39.045  30.764  31.202  1.00  0.00    -0.248 NA
ATOM     39  C   UNL A   1      37.581  31.121  29.421  1.00  0.00     0.031 C 
ATOM     40  C   UNL A   1      37.041  34.080  33.454  1.00  0.00     0.029 A 
ATOM     41  N   UNL A   1      38.696  32.577  33.503  1.00  0.00    -0.354 N 
ATOM     42  C   UNL A   1      39.285  29.825  30.208  1.00  0.00     0.074 A 
ATOM     43  C   UNL A   1      38.300  30.039  29.172  1.00  0.00     0.031 C 
ATOM     44  C   UNL A   1      37.674  34.216  34.632  1.00  0.00     0.029 A 
ATOM     45  C   UNL A   1      38.755  33.239  34.706  1.00  0.00     0.049 A 
ATOM     46  H   UNL A   1      39.312  31.849  33.259  1.00  0.00     0.167 HD
ATOM     47  C   UNL A   1      40.263  28.890  30.147  1.00  0.00     0.037 A 
ATOM     48  C   UNL A   1      39.588  33.071  35.750  1.00  0.00     0.037 A 
ATOM     49  C   UNL A   1      41.258  28.705  31.169  1.00  0.00     0.049 A 
ATOM     50  C   UNL A   1      40.668  32.026  35.657  1.00  0.00     0.074 A 
ATOM     51  C   UNL A   1      42.330  27.831  31.181  1.00  0.00     0.029 A 
ATOM     52  N   UNL A   1      41.297  29.407  32.366  1.00  0.00    -0.354 N 
ATOM     53  N   UNL A   1      40.938  31.198  34.676  1.00  0.00    -0.248 NA
ATOM     54  C   UNL A   1      41.567  31.900  36.812  1.00  0.00     0.031 C 
ATOM     55  C   UNL A   1      42.986  27.965  32.407  1.00  0.00     0.029 A 
ATOM     56  C   UNL A   1      42.363  28.967  33.135  1.00  0.00     0.049 A 
ATOM     57  H   UNL A   1      40.664  30.112  32.629  1.00  0.00     0.167 HD
ATOM     58  C   UNL A   1      42.053  30.476  35.083  1.00  0.00     0.074 A 
ATOM     59  C   UNL A   1      42.419  30.978  36.391  1.00  0.00     0.031 C 
ATOM     60  C   UNL A   1      42.714  29.485  34.433  1.00  0.00     0.037 A 
BRANCH  47  61
ATOM     61  C   UNL A   1      40.302  28.006  28.935  1.00  0.00     0.064 A 
ATOM     62  C   UNL A   1      41.029  28.358  27.786  1.00  0.00     0.173 A 
ATOM     63  C   UNL A   1      39.625  26.777  28.928  1.00  0.00     0.173 A 
ATOM     64  F   UNL A   1      41.682  29.529  27.732  1.00  0.00    -0.203 F 
ATOM     65  C   UNL A   1      41.047  27.531  26.666  1.00  0.00     0.198 A 
ATOM     66  C   UNL A   1      39.676  25.936  27.819  1.00  0.00     0.198 A 
ATOM     67  F   UNL A   1      38.917  26.389  29.999  1.00  0.00    -0.203 F 
ATOM     68  F   UNL A   1      41.699  27.918  25.561  1.00  0.00    -0.200 F 
ATOM     69  C   UNL A   1      40.379  26.317  26.686  1.00  0.00     0.200 A 
ATOM     70  F   UNL A   1      39.038  24.756  27.846  1.00  0.00    -0.200 F 
ATOM     71  F   UNL A   1      40.402  25.518  25.611  1.00  0.00    -0.200 F 
ENDBRANCH  47  61
BRANCH  48  72
ATOM     72  C   UNL A   1      39.455  33.928  36.957  1.00  0.00     0.064 A 
ATOM     73  C   UNL A   1      38.748  33.483  38.083  1.00  0.00     0.173 A 
ATOM     74  C   UNL A   1      40.021  35.210  37.009  1.00  0.00     0.173 A 
ATOM     75  F   UNL A   1      38.173  32.272  38.077  1.00  0.00    -0.203 F 
ATOM     76  C   UNL A   1      38.591  34.297  39.204  1.00  0.00     0.198 A 
ATOM     77  C   UNL A   1      39.890  36.010  38.142  1.00  0.00     0.198 A 
ATOM     78  F   UNL A   1      40.714  35.682  35.961  1.00  0.00    -0.203 F 
ATOM     79  F   UNL A   1      37.866  33.866  40.246  1.00  0.00    -0.200 F 
ATOM     80  C   UNL A   1      39.167  35.558  39.234  1.00  0.00     0.200 A 
ATOM     81  F   UNL A   1      40.463  37.222  38.174  1.00  0.00    -0.200 F 
ATOM     82  F   UNL A   1      39.017  36.339  40.313  1.00  0.00    -0.200 F 
ENDBRANCH  48  72
BRANCH  60  83
ATOM     83  C   UNL A   1      43.924  28.908  35.109  1.00  0.00     0.064 A 
ATOM     84  C   UNL A   1      43.838  27.784  35.944  1.00  0.00     0.173 A 
ATOM     85  C   UNL A   1      45.192  29.466  34.889  1.00  0.00     0.173 A 
ATOM     86  F   UNL A   1      42.647  27.220  36.198  1.00  0.00    -0.203 F 
ATOM     87  C   UNL A   1      44.972  27.262  36.560  1.00  0.00     0.198 A 
ATOM     88  C   UNL A   1      46.329  28.920  35.476  1.00  0.00     0.198 A 
ATOM     89  F   UNL A   1      45.331  30.536  34.090  1.00  0.00    -0.203 F 
ATOM     90  F   UNL A   1      44.858  26.224  37.400  1.00  0.00    -0.200 F 
ATOM     91  C   UNL A   1      46.217  27.825  36.320  1.00  0.00     0.200 A 
ATOM     92  F   UNL A   1      47.533  29.454  35.228  1.00  0.00    -0.200 F 
ATOM     93  F   UNL A   1      47.309  27.316  36.907  1.00  0.00    -0.200 F 
ENDBRANCH  60  83
ENDBRANCH  34  35
ENDBRANCH  26  29
ENDBRANCH  24  25
ENDBRANCH  23  24
ENDBRANCH  22  23
ENDBRANCH   1  22
TORSDOF 16
ENDMDL
MODEL 2
REMARK VINA RESULT:     -11.8      1.998      8.301
REMARK SMILES COC(=O)[C@@H]1CCN(C(=O)N[C@H](C)CC(=O)NCCCCNC(=O)c2ccc(-c3c4nc(c(-c5c(F)c(F)c(F)c(F)c5F)c5ccc([nH]5)c(-c5c(F)c(F)c(F)c(F)c5F)c5nc(c(-c6c(F)c(F)c(F)c(F)c6F)c6ccc3[nH]6)C=C5)C=C4)cc2)C1
REMARK SMILES IDX 18 1 17 2 15 3 16 4 14 6 12 7 13 8 11 9 9 10 10 11 8 13 5 14
REMARK SMILES IDX 6 15 88 16 7 17 3 18 4 19 2 20 1 21 19 22 20 23 21 24 22 25
REMARK SMILES IDX 23 26 24 28 25 29 26 30 87 31 27 32 86 33 28 34 29 35 30 36
REMARK SMILES IDX 80 37 31 38 85 39 79 40 81 41 32 42 84 43 78 44 77 45 33 47
REMARK SMILES IDX 65 48 45 49 64 50 46 51 49 52 63 53 82 54 47 55 48 56 62 58
REMARK SMILES IDX 83 59 50 60 34 61 35 62 43 63 36 64 37 65 41 66 44 67 38 68
REMARK SMILES IDX 39 69 42 70 40 71 66 72 67 73 75 74 68 75 69 76 73 77 76 78
REMARK SMILES IDX 70 79 71 80 74 81 72 82 51 83 52 84 60 85 53 86 54 87 58 88
REMARK SMILES IDX 61 89 55 90 56 91 59 92 57 93
REMARK H PARENT 17 5 11 12 22 27 81 46 49 57
REMARK Flexibility Score: inf
ROOT
ATOM      1  C   UNL A   1      32.841  30.057  26.852  1.00  0.00     0.116 C 
ENDROOT
BRANCH   1   2
ATOM      2  N   UNL A   1      32.244  28.922  27.535  1.00  0.00    -0.356 N 
ATOM      3  C   UNL A   1      32.246  27.625  27.086  1.00  0.00     0.222 C 
ATOM      4  O   UNL A   1      31.327  26.868  27.378  1.00  0.00    -0.275 OA
ATOM      5  H   UNL A   1      31.797  29.099  28.395  1.00  0.00     0.163 HD
BRANCH   3   6
ATOM      6  C   UNL A   1      33.507  27.161  26.417  1.00  0.00     0.124 C 
BRANCH   6   7
ATOM      7  C   UNL A   1      33.543  26.286  25.205  1.00  0.00     0.090 C 
ATOM      8  C   UNL A   1      34.468  25.073  25.361  1.00  0.00     0.031 C 
BRANCH   7   9
ATOM      9  N   UNL A   1      32.197  25.773  24.842  1.00  0.00    -0.335 N 
ATOM     10  C   UNL A   1      31.082  26.024  24.147  1.00  0.00     0.317 C 
ATOM     11  O   UNL A   1      30.283  25.075  24.179  1.00  0.00    -0.249 OA
ATOM     12  H   UNL A   1      32.078  24.905  25.291  1.00  0.00     0.165 HD
BRANCH  10  13
ATOM     13  N   UNL A   1      30.753  27.147  23.457  1.00  0.00    -0.324 N 
ATOM     14  C   UNL A   1      29.699  29.307  23.228  1.00  0.00     0.120 C 
ATOM     15  C   UNL A   1      30.811  29.168  22.210  1.00  0.00     0.039 C 
ATOM     16  C   UNL A   1      29.949  28.140  24.179  1.00  0.00     0.136 C 
ATOM     17  C   UNL A   1      30.999  27.663  22.120  1.00  0.00     0.122 C 
BRANCH  14  18
ATOM     18  C   UNL A   1      28.365  29.252  22.520  1.00  0.00     0.310 C 
ATOM     19  O   UNL A   1      27.345  28.726  22.943  1.00  0.00    -0.252 OA
BRANCH  18  20
ATOM     20  O   UNL A   1      28.494  29.841  21.295  1.00  0.00    -0.469 OA
ATOM     21  C   UNL A   1      28.009  31.182  21.224  1.00  0.00     0.282 C 
ENDBRANCH  18  20
ENDBRANCH  14  18
ENDBRANCH  10  13
ENDBRANCH   7   9
ENDBRANCH   6   7
ENDBRANCH   3   6
ENDBRANCH   1   2
BRANCH   1  22
ATOM     22  C   UNL A   1      31.747  30.788  26.085  1.00  0.00     0.023 C 
BRANCH  22  23
ATOM     23  C   UNL A   1      31.427  32.151  26.683  1.00  0.00     0.023 C 
BRANCH  23  24
ATOM     24  C   UNL A   1      32.620  32.797  27.363  1.00  0.00     0.116 C 
BRANCH  24  25
ATOM     25  N   UNL A   1      32.402  34.212  27.628  1.00  0.00    -0.352 N 
ATOM     26  C   UNL A   1      33.014  34.996  28.572  1.00  0.00     0.251 C 
ATOM     27  H   UNL A   1      31.735  34.661  27.060  1.00  0.00     0.163 HD
ATOM     28  O   UNL A   1      32.607  36.123  28.822  1.00  0.00    -0.269 OA
BRANCH  26  29
ATOM     29  C   UNL A   1      34.162  34.429  29.301  1.00  0.00     0.039 A 
ATOM     30  C   UNL A   1      33.928  33.613  30.406  1.00  0.00     0.014 A 
ATOM     31  C   UNL A   1      35.458  34.637  28.818  1.00  0.00     0.014 A 
ATOM     32  C   UNL A   1      35.003  32.954  30.999  1.00  0.00     0.010 A 
ATOM     33  C   UNL A   1      36.505  33.894  29.340  1.00  0.00     0.010 A 
ATOM     34  C   UNL A   1      36.292  33.061  30.448  1.00  0.00    -0.014 A 
BRANCH  34  35
ATOM     35  C   UNL A   1      37.441  32.334  31.037  1.00  0.00     0.031 A 
ATOM     36  C   UNL A   1      37.927  32.702  32.410  1.00  0.00     0.074 A 
ATOM     37  C   UNL A   1      38.073  31.387  30.318  1.00  0.00     0.049 A 
ATOM     38  N   UNL A   1      38.940  32.221  33.087  1.00  0.00    -0.248 NA
ATOM     39  C   UNL A   1      37.205  33.782  33.104  1.00  0.00     0.031 C 
ATOM     40  C   UNL A   1      37.729  30.990  28.952  1.00  0.00     0.029 A 
ATOM     41  N   UNL A   1      39.141  30.589  30.638  1.00  0.00    -0.354 N 
ATOM     42  C   UNL A   1      38.979  32.948  34.270  1.00  0.00     0.074 A 
ATOM     43  C   UNL A   1      37.941  33.950  34.190  1.00  0.00     0.031 C 
ATOM     44  C   UNL A   1      38.548  29.998  28.563  1.00  0.00     0.029 A 
ATOM     45  C   UNL A   1      39.496  29.718  29.636  1.00  0.00     0.049 A 
ATOM     46  H   UNL A   1      39.610  30.634  31.502  1.00  0.00     0.167 HD
ATOM     47  C   UNL A   1      39.786  32.771  35.342  1.00  0.00     0.037 A 
ATOM     48  C   UNL A   1      40.478  28.798  29.593  1.00  0.00     0.037 A 
ATOM     49  C   UNL A   1      40.797  31.751  35.425  1.00  0.00     0.049 A 
ATOM     50  C   UNL A   1      41.361  28.620  30.799  1.00  0.00     0.074 A 
ATOM     51  C   UNL A   1      41.627  31.443  36.487  1.00  0.00     0.029 A 
ATOM     52  N   UNL A   1      41.115  30.873  34.397  1.00  0.00    -0.354 N 
ATOM     53  N   UNL A   1      41.338  29.257  31.945  1.00  0.00    -0.248 NA
ATOM     54  C   UNL A   1      42.401  27.587  30.709  1.00  0.00     0.031 C 
ATOM     55  C   UNL A   1      42.485  30.416  36.084  1.00  0.00     0.029 A 
ATOM     56  C   UNL A   1      42.148  30.039  34.794  1.00  0.00     0.049 A 
ATOM     57  H   UNL A   1      40.672  30.847  33.519  1.00  0.00     0.167 HD
ATOM     58  C   UNL A   1      42.335  28.683  32.722  1.00  0.00     0.074 A 
ATOM     59  C   UNL A   1      42.932  27.634  31.922  1.00  0.00     0.031 C 
ATOM     60  C   UNL A   1      42.724  28.996  33.983  1.00  0.00     0.037 A 
BRANCH  47  61
ATOM     61  C   UNL A   1      39.602  33.698  36.509  1.00  0.00     0.064 A 
ATOM     62  C   UNL A   1      38.801  33.352  37.609  1.00  0.00     0.173 A 
ATOM     63  C   UNL A   1      40.255  34.940  36.540  1.00  0.00     0.173 A 
ATOM     64  F   UNL A   1      38.142  32.183  37.624  1.00  0.00    -0.203 F 
ATOM     65  C   UNL A   1      38.632  34.227  38.678  1.00  0.00     0.198 A 
ATOM     66  C   UNL A   1      40.113  35.798  37.629  1.00  0.00     0.198 A 
ATOM     67  F   UNL A   1      41.034  35.321  35.517  1.00  0.00    -0.203 F 
ATOM     68  F   UNL A   1      37.815  33.899  39.688  1.00  0.00    -0.200 F 
ATOM     69  C   UNL A   1      39.295  35.445  38.692  1.00  0.00     0.200 A 
ATOM     70  F   UNL A   1      40.764  36.969  37.645  1.00  0.00    -0.200 F 
ATOM     71  F   UNL A   1      39.139  36.284  39.725  1.00  0.00    -0.200 F 
ENDBRANCH  47  61
BRANCH  48  72
ATOM     72  C   UNL A   1      40.661  27.958  28.380  1.00  0.00     0.064 A 
ATOM     73  C   UNL A   1      41.408  28.419  27.288  1.00  0.00     0.173 A 
ATOM     74  C   UNL A   1      40.087  26.681  28.283  1.00  0.00     0.173 A 
ATOM     75  F   UNL A   1      41.962  29.640  27.324  1.00  0.00    -0.203 F 
ATOM     76  C   UNL A   1      41.553  27.649  26.135  1.00  0.00     0.198 A 
ATOM     77  C   UNL A   1      40.259  25.899  27.143  1.00  0.00     0.198 A 
ATOM     78  F   UNL A   1      39.368  26.188  29.302  1.00  0.00    -0.203 F 
ATOM     79  F   UNL A   1      42.228  28.138  25.086  1.00  0.00    -0.200 F 
ATOM     80  C   UNL A   1      40.982  26.388  26.066  1.00  0.00     0.200 A 
ATOM     81  F   UNL A   1      39.720  24.673  27.086  1.00  0.00    -0.200 F 
ATOM     82  F   UNL A   1      41.123  25.646  24.958  1.00  0.00    -0.200 F 
ENDBRANCH  48  72
BRANCH  60  83
ATOM     83  C   UNL A   1      43.819  28.168  34.590  1.00  0.00     0.064 A 
ATOM     84  C   UNL A   1      45.164  28.565  34.534  1.00  0.00     0.173 A 
ATOM     85  C   UNL A   1      43.514  26.978  35.269  1.00  0.00     0.173 A 
ATOM     86  F   UNL A   1      45.510  29.688  33.886  1.00  0.00    -0.203 F 
ATOM     87  C   UNL A   1      46.164  27.784  35.106  1.00  0.00     0.198 A 
ATOM     88  C   UNL A   1      44.513  26.219  35.871  1.00  0.00     0.198 A 
ATOM     89  F   UNL A   1      42.242  26.558  35.361  1.00  0.00    -0.203 F 
ATOM     90  F   UNL A   1      47.448  28.153  34.989  1.00  0.00    -0.200 F 
ATOM     91  C   UNL A   1      45.838  26.617  35.780  1.00  0.00     0.200 A 
ATOM     92  F   UNL A   1      44.193  25.101  36.538  1.00  0.00    -0.200 F 
ATOM     93  F   UNL A   1      46.802  25.870  36.336  1.00  0.00    -0.200 F 
ENDBRANCH  60  83
ENDBRANCH  34  35
ENDBRANCH  26  29
ENDBRANCH  24  25
ENDBRANCH  23  24
ENDBRANCH  22  23
ENDBRANCH   1  22
TORSDOF 16
ENDMDL
MODEL 3
REMARK VINA RESULT:     -11.8      1.831      7.682
REMARK SMILES COC(=O)[C@@H]1CCN(C(=O)N[C@H](C)CC(=O)NCCCCNC(=O)c2ccc(-c3c4nc(c(-c5c(F)c(F)c(F)c(F)c5F)c5ccc([nH]5)c(-c5c(F)c(F)c(F)c(F)c5F)c5nc(c(-c6c(F)c(F)c(F)c(F)c6F)c6ccc3[nH]6)C=C5)C=C4)cc2)C1
REMARK SMILES IDX 18 1 17 2 15 3 16 4 14 6 12 7 13 8 11 9 9 10 10 11 8 13 5 14
REMARK SMILES IDX 6 15 88 16 7 17 3 18 4 19 2 20 1 21 19 22 20 23 21 24 22 25
REMARK SMILES IDX 23 26 24 28 25 29 26 30 87 31 27 32 86 33 28 34 29 35 30 36
REMARK SMILES IDX 80 37 31 38 85 39 79 40 81 41 32 42 84 43 78 44 77 45 33 47
REMARK SMILES IDX 65 48 45 49 64 50 46 51 49 52 63 53 82 54 47 55 48 56 62 58
REMARK SMILES IDX 83 59 50 60 34 61 35 62 43 63 36 64 37 65 41 66 44 67 38 68
REMARK SMILES IDX 39 69 42 70 40 71 66 72 67 73 75 74 68 75 69 76 73 77 76 78
REMARK SMILES IDX 70 79 71 80 74 81 72 82 51 83 52 84 60 85 53 86 54 87 58 88
REMARK SMILES IDX 61 89 55 90 56 91 59 92 57 93
REMARK H PARENT 17 5 11 12 22 27 81 46 49 57
REMARK Flexibility Score: inf
ROOT
ATOM      1  C   UNL A   1      31.291  30.263  25.364  1.00  0.00     0.116 C 
ENDROOT
BRANCH   1   2
ATOM      2  N   UNL A   1      32.389  29.707  24.592  1.00  0.00    -0.356 N 
ATOM      3  C   UNL A   1      32.836  28.411  24.655  1.00  0.00     0.222 C 
ATOM      4  O   UNL A   1      34.014  28.153  24.434  1.00  0.00    -0.275 OA
ATOM      5  H   UNL A   1      32.853  30.313  23.970  1.00  0.00     0.163 HD
BRANCH   3   6
ATOM      6  C   UNL A   1      31.781  27.355  24.799  1.00  0.00     0.124 C 
BRANCH   6   7
ATOM      7  C   UNL A   1      31.077  26.705  23.650  1.00  0.00     0.090 C 
ATOM      8  C   UNL A   1      29.886  27.518  23.131  1.00  0.00     0.031 C 
BRANCH   7   9
ATOM      9  N   UNL A   1      31.985  26.465  22.498  1.00  0.00    -0.335 N 
ATOM     10  C   UNL A   1      32.918  25.650  21.993  1.00  0.00     0.317 C 
ATOM     11  O   UNL A   1      33.255  25.976  20.843  1.00  0.00    -0.249 OA
ATOM     12  H   UNL A   1      31.846  27.195  21.853  1.00  0.00     0.165 HD
BRANCH  10  13
ATOM     13  N   UNL A   1      33.503  24.572  22.577  1.00  0.00    -0.324 N 
ATOM     14  C   UNL A   1      34.891  23.508  24.240  1.00  0.00     0.120 C 
ATOM     15  C   UNL A   1      33.919  22.501  23.663  1.00  0.00     0.039 C 
ATOM     16  C   UNL A   1      34.342  24.845  23.749  1.00  0.00     0.136 C 
ATOM     17  C   UNL A   1      33.520  23.137  22.343  1.00  0.00     0.122 C 
BRANCH  14  18
ATOM     18  C   UNL A   1      36.284  23.194  23.748  1.00  0.00     0.310 C 
ATOM     19  O   UNL A   1      36.594  22.892  22.602  1.00  0.00    -0.252 OA
BRANCH  18  20
ATOM     20  O   UNL A   1      37.147  23.246  24.805  1.00  0.00    -0.469 OA
ATOM     21  C   UNL A   1      37.349  22.000  25.471  1.00  0.00     0.282 C 
ENDBRANCH  18  20
ENDBRANCH  14  18
ENDBRANCH  10  13
ENDBRANCH   7   9
ENDBRANCH   6   7
ENDBRANCH   3   6
ENDBRANCH   1   2
BRANCH   1  22
ATOM     22  C   UNL A   1      31.848  30.796  26.679  1.00  0.00     0.023 C 
BRANCH  22  23
ATOM     23  C   UNL A   1      31.581  32.284  26.864  1.00  0.00     0.023 C 
BRANCH  23  24
ATOM     24  C   UNL A   1      32.809  33.060  27.300  1.00  0.00     0.116 C 
BRANCH  24  25
ATOM     25  N   UNL A   1      32.484  34.418  27.713  1.00  0.00    -0.352 N 
ATOM     26  C   UNL A   1      33.015  35.131  28.757  1.00  0.00     0.251 C 
ATOM     27  H   UNL A   1      31.801  34.881  27.177  1.00  0.00     0.163 HD
ATOM     28  O   UNL A   1      32.522  36.192  29.117  1.00  0.00    -0.269 OA
BRANCH  26  29
ATOM     29  C   UNL A   1      34.182  34.565  29.456  1.00  0.00     0.039 A 
ATOM     30  C   UNL A   1      33.989  33.878  30.653  1.00  0.00     0.014 A 
ATOM     31  C   UNL A   1      35.446  34.640  28.862  1.00  0.00     0.014 A 
ATOM     32  C   UNL A   1      35.069  33.213  31.231  1.00  0.00     0.010 A 
ATOM     33  C   UNL A   1      36.486  33.886  29.380  1.00  0.00     0.010 A 
ATOM     34  C   UNL A   1      36.314  33.182  30.580  1.00  0.00    -0.014 A 
BRANCH  34  35
ATOM     35  C   UNL A   1      37.462  32.443  31.157  1.00  0.00     0.031 A 
ATOM     36  C   UNL A   1      37.963  32.801  32.527  1.00  0.00     0.074 A 
ATOM     37  C   UNL A   1      38.081  31.494  30.428  1.00  0.00     0.049 A 
ATOM     38  N   UNL A   1      38.977  32.310  33.193  1.00  0.00    -0.248 NA
ATOM     39  C   UNL A   1      37.255  33.884  33.231  1.00  0.00     0.031 C 
ATOM     40  C   UNL A   1      37.722  31.106  29.063  1.00  0.00     0.029 A 
ATOM     41  N   UNL A   1      39.146  30.686  30.735  1.00  0.00    -0.354 N 
ATOM     42  C   UNL A   1      39.031  33.031  34.379  1.00  0.00     0.074 A 
ATOM     43  C   UNL A   1      38.001  34.041  34.312  1.00  0.00     0.031 C 
ATOM     44  C   UNL A   1      38.530  30.110  28.663  1.00  0.00     0.029 A 
ATOM     45  C   UNL A   1      39.486  29.817  29.727  1.00  0.00     0.049 A 
ATOM     46  H   UNL A   1      39.621  30.724  31.596  1.00  0.00     0.167 HD
ATOM     47  C   UNL A   1      39.846  32.843  35.444  1.00  0.00     0.037 A 
ATOM     48  C   UNL A   1      40.460  28.890  29.671  1.00  0.00     0.037 A 
ATOM     49  C   UNL A   1      40.850  31.815  35.513  1.00  0.00     0.049 A 
ATOM     50  C   UNL A   1      41.352  28.700  30.869  1.00  0.00     0.074 A 
ATOM     51  C   UNL A   1      41.687  31.496  36.567  1.00  0.00     0.029 A 
ATOM     52  N   UNL A   1      41.153  30.939  34.480  1.00  0.00    -0.354 N 
ATOM     53  N   UNL A   1      41.342  29.332  32.019  1.00  0.00    -0.248 NA
ATOM     54  C   UNL A   1      42.383  27.659  30.767  1.00  0.00     0.031 C 
ATOM     55  C   UNL A   1      42.534  30.464  36.153  1.00  0.00     0.029 A 
ATOM     56  C   UNL A   1      42.183  30.096  34.863  1.00  0.00     0.049 A 
ATOM     57  H   UNL A   1      40.702  30.920  33.605  1.00  0.00     0.167 HD
ATOM     58  C   UNL A   1      42.342  28.747  32.785  1.00  0.00     0.074 A 
ATOM     59  C   UNL A   1      42.924  27.697  31.975  1.00  0.00     0.031 C 
ATOM     60  C   UNL A   1      42.743  29.051  34.044  1.00  0.00     0.037 A 
BRANCH  47  61
ATOM     61  C   UNL A   1      39.679  33.766  36.616  1.00  0.00     0.064 A 
ATOM     62  C   UNL A   1      40.320  35.015  36.670  1.00  0.00     0.173 A 
ATOM     63  C   UNL A   1      38.849  33.410  37.689  1.00  0.00     0.173 A 
ATOM     64  F   UNL A   1      41.138  35.399  35.678  1.00  0.00    -0.203 F 
ATOM     65  C   UNL A   1      40.163  35.855  37.769  1.00  0.00     0.198 A 
ATOM     66  C   UNL A   1      38.666  34.269  38.770  1.00  0.00     0.198 A 
ATOM     67  F   UNL A   1      38.210  32.231  37.689  1.00  0.00    -0.203 F 
ATOM     68  F   UNL A   1      40.832  37.015  37.825  1.00  0.00    -0.200 F 
ATOM     69  C   UNL A   1      39.329  35.486  38.814  1.00  0.00     0.200 A 
ATOM     70  F   UNL A   1      37.849  33.916  39.773  1.00  0.00    -0.200 F 
ATOM     71  F   UNL A   1      39.173  36.298  39.868  1.00  0.00    -0.200 F 
ENDBRANCH  47  61
BRANCH  48  72
ATOM     72  C   UNL A   1      40.626  28.054  28.454  1.00  0.00     0.064 A 
ATOM     73  C   UNL A   1      40.010  26.798  28.352  1.00  0.00     0.173 A 
ATOM     74  C   UNL A   1      41.408  28.484  27.372  1.00  0.00     0.173 A 
ATOM     75  F   UNL A   1      39.266  26.333  29.366  1.00  0.00    -0.203 F 
ATOM     76  C   UNL A   1      40.190  25.995  27.226  1.00  0.00     0.198 A 
ATOM     77  C   UNL A   1      41.562  27.694  26.235  1.00  0.00     0.198 A 
ATOM     78  F   UNL A   1      42.013  29.680  27.414  1.00  0.00    -0.203 F 
ATOM     79  F   UNL A   1      39.632  24.777  27.179  1.00  0.00    -0.200 F 
ATOM     80  C   UNL A   1      40.962  26.446  26.167  1.00  0.00     0.200 A 
ATOM     81  F   UNL A   1      42.294  28.141  25.205  1.00  0.00    -0.200 F 
ATOM     82  F   UNL A   1      41.134  25.675  25.085  1.00  0.00    -0.200 F 
ENDBRANCH  48  72
BRANCH  60  83
ATOM     83  C   UNL A   1      43.838  28.212  34.638  1.00  0.00     0.064 A 
ATOM     84  C   UNL A   1      45.185  28.596  34.567  1.00  0.00     0.173 A 
ATOM     85  C   UNL A   1      43.528  27.025  35.320  1.00  0.00     0.173 A 
ATOM     86  F   UNL A   1      45.535  29.716  33.916  1.00  0.00    -0.203 F 
ATOM     87  C   UNL A   1      46.184  27.805  35.127  1.00  0.00     0.198 A 
ATOM     88  C   UNL A   1      44.527  26.255  35.910  1.00  0.00     0.198 A 
ATOM     89  F   UNL A   1      42.254  26.617  35.426  1.00  0.00    -0.203 F 
ATOM     90  F   UNL A   1      47.470  28.161  34.996  1.00  0.00    -0.200 F 
ATOM     91  C   UNL A   1      45.854  26.640  35.804  1.00  0.00     0.200 A 
ATOM     92  F   UNL A   1      44.203  25.140  36.580  1.00  0.00    -0.200 F 
ATOM     93  F   UNL A   1      46.817  25.884  36.349  1.00  0.00    -0.200 F 
ENDBRANCH  60  83
ENDBRANCH  34  35
ENDBRANCH  26  29
ENDBRANCH  24  25
ENDBRANCH  23  24
ENDBRANCH  22  23
ENDBRANCH   1  22
TORSDOF 16
ENDMDL
