MODEL 1
REMARK VINA RESULT:     -13.3      0.000      0.000
REMARK SMILES O=C(NCCCCNC(=O)c1ccc(-c2c3nc(c(-c4c(F)c(F)c(F)c(F)c4F)c4ccc([nH]4)c(-c4c(F)c(F)c(F)c(F)c4F)c4nc(c(-c5c(F)c(F)c(F)c(F)c5F)c5ccc2[nH]5)C=C4)C=C3)cc1)c1ccc(-c2ccc(=O)[nH]c2)cc1
REMARK SMILES IDX 6 1 5 2 4 3 3 4 1 5 2 6 74 8 75 9 86 10 76 11 85 12 77 13
REMARK SMILES IDX 78 14 79 15 84 16 80 17 83 18 81 19 82 21 7 22 8 23 9 24
REMARK SMILES IDX 10 26 11 27 12 28 73 29 13 30 72 31 14 32 15 33 16 34 66 35
REMARK SMILES IDX 17 36 71 37 65 38 67 39 18 40 70 41 64 42 63 43 19 45 51 46
REMARK SMILES IDX 31 47 50 48 32 49 35 50 49 51 68 52 33 53 34 54 48 56 69 57
REMARK SMILES IDX 36 58 20 59 21 60 29 61 22 62 23 63 27 64 30 65 24 66 25 67
REMARK SMILES IDX 28 68 26 69 52 70 53 71 61 72 54 73 55 74 59 75 62 76 56 77
REMARK SMILES IDX 57 78 60 79 58 80 37 81 38 82 46 83 39 84 40 85 44 86 47 87
REMARK SMILES IDX 41 88 42 89 45 90 43 91
REMARK H PARENT 3 7 83 20 8 25 67 44 35 55
REMARK Flexibility Score: inf
ROOT
ATOM      1  C   UNL A   1      32.045  28.008  26.140  1.00  0.00     0.023 C 
ENDROOT
BRANCH   1   2
ATOM      2  C   UNL A   1      32.570  26.579  26.011  1.00  0.00     0.023 C 
BRANCH   2   3
ATOM      3  C   UNL A   1      31.535  25.486  26.249  1.00  0.00     0.116 C 
BRANCH   3   4
ATOM      4  N   UNL A   1      31.471  24.536  25.149  1.00  0.00    -0.352 N 
ATOM      5  O   UNL A   1      30.768  23.736  23.157  1.00  0.00    -0.269 OA
ATOM      6  C   UNL A   1      30.886  24.691  23.917  1.00  0.00     0.251 C 
ATOM      7  H   UNL A   1      31.903  23.667  25.310  1.00  0.00     0.163 HD
BRANCH   6   8
ATOM      8  C   UNL A   1      30.384  26.020  23.517  1.00  0.00     0.039 A 
ATOM      9  C   UNL A   1      31.195  26.892  22.783  1.00  0.00     0.014 A 
ATOM     10  C   UNL A   1      29.089  26.393  23.878  1.00  0.00     0.014 A 
ATOM     11  C   UNL A   1      30.733  28.170  22.474  1.00  0.00     0.009 A 
ATOM     12  C   UNL A   1      28.620  27.668  23.550  1.00  0.00     0.009 A 
ATOM     13  C   UNL A   1      29.440  28.567  22.851  1.00  0.00    -0.017 A 
BRANCH  13  14
ATOM     14  C   UNL A   1      28.944  29.909  22.493  1.00  0.00    -0.002 A 
ATOM     15  C   UNL A   1      28.158  30.743  23.391  1.00  0.00     0.016 A 
ATOM     16  C   UNL A   1      29.221  30.383  21.265  1.00  0.00     0.094 A 
ATOM     17  C   UNL A   1      27.719  31.953  23.015  1.00  0.00     0.072 A 
ATOM     18  N   UNL A   1      28.784  31.622  20.868  1.00  0.00    -0.328 N 
ATOM     19  C   UNL A   1      28.037  32.461  21.657  1.00  0.00     0.247 A 
ATOM     20  H   UNL A   1      29.020  31.928  19.963  1.00  0.00     0.169 HD
ATOM     21  O   UNL A   1      27.652  33.561  21.280  1.00  0.00    -0.270 OA
ENDBRANCH  13  14
ENDBRANCH   6   8
ENDBRANCH   3   4
ENDBRANCH   2   3
ENDBRANCH   1   2
BRANCH   1  22
ATOM     22  C   UNL A   1      32.944  29.090  25.553  1.00  0.00     0.116 C 
BRANCH  22  23
ATOM     23  N   UNL A   1      32.601  30.426  26.012  1.00  0.00    -0.352 N 
ATOM     24  C   UNL A   1      33.219  31.229  26.938  1.00  0.00     0.251 C 
ATOM     25  H   UNL A   1      31.798  30.815  25.594  1.00  0.00     0.163 HD
ATOM     26  O   UNL A   1      32.683  32.278  27.284  1.00  0.00    -0.269 OA
BRANCH  24  27
ATOM     27  C   UNL A   1      34.506  30.828  27.549  1.00  0.00     0.039 A 
ATOM     28  C   UNL A   1      35.463  31.818  27.788  1.00  0.00     0.014 A 
ATOM     29  C   UNL A   1      34.785  29.498  27.875  1.00  0.00     0.014 A 
ATOM     30  C   UNL A   1      36.668  31.482  28.410  1.00  0.00     0.010 A 
ATOM     31  C   UNL A   1      35.948  29.180  28.575  1.00  0.00     0.010 A 
ATOM     32  C   UNL A   1      36.905  30.167  28.847  1.00  0.00    -0.014 A 
BRANCH  32  33
ATOM     33  C   UNL A   1      38.139  29.843  29.610  1.00  0.00     0.031 A 
ATOM     34  C   UNL A   1      38.356  30.374  30.999  1.00  0.00     0.074 A 
ATOM     35  C   UNL A   1      39.084  29.075  29.031  1.00  0.00     0.049 A 
ATOM     36  N   UNL A   1      39.340  30.136  31.832  1.00  0.00    -0.248 NA
ATOM     37  C   UNL A   1      37.353  31.317  31.515  1.00  0.00     0.031 C 
ATOM     38  C   UNL A   1      39.025  28.554  27.664  1.00  0.00     0.029 A 
ATOM     39  N   UNL A   1      40.270  28.588  29.521  1.00  0.00    -0.354 N 
ATOM     40  C   UNL A   1      39.077  30.901  32.961  1.00  0.00     0.074 A 
ATOM     41  C   UNL A   1      37.875  31.658  32.683  1.00  0.00     0.031 C 
ATOM     42  C   UNL A   1      40.095  27.774  27.444  1.00  0.00     0.029 A 
ATOM     43  C   UNL A   1      40.933  27.770  28.639  1.00  0.00     0.049 A 
ATOM     44  H   UNL A   1      40.613  28.805  30.417  1.00  0.00     0.167 HD
ATOM     45  C   UNL A   1      39.762  30.951  34.130  1.00  0.00     0.037 A 
ATOM     46  C   UNL A   1      42.080  27.080  28.783  1.00  0.00     0.037 A 
ATOM     47  C   UNL A   1      40.952  30.187  34.404  1.00  0.00     0.049 A 
ATOM     48  C   UNL A   1      42.817  27.148  30.092  1.00  0.00     0.074 A 
ATOM     49  C   UNL A   1      41.678  30.110  35.580  1.00  0.00     0.029 A 
ATOM     50  N   UNL A   1      41.602  29.374  33.484  1.00  0.00    -0.354 N 
ATOM     51  N   UNL A   1      42.504  27.796  31.189  1.00  0.00    -0.248 NA
ATOM     52  C   UNL A   1      44.061  26.374  30.186  1.00  0.00     0.031 C 
ATOM     53  C   UNL A   1      42.801  29.306  35.352  1.00  0.00     0.029 A 
ATOM     54  C   UNL A   1      42.737  28.822  34.056  1.00  0.00     0.049 A 
ATOM     55  H   UNL A   1      41.299  29.214  32.561  1.00  0.00     0.167 HD
ATOM     56  C   UNL A   1      43.495  27.484  32.111  1.00  0.00     0.074 A 
ATOM     57  C   UNL A   1      44.402  26.567  31.450  1.00  0.00     0.031 C 
ATOM     58  C   UNL A   1      43.641  27.917  33.388  1.00  0.00     0.037 A 
BRANCH  45  59
ATOM     59  C   UNL A   1      39.245  31.875  35.199  1.00  0.00     0.064 A 
ATOM     60  C   UNL A   1      39.527  33.250  35.191  1.00  0.00     0.173 A 
ATOM     61  C   UNL A   1      38.434  31.381  36.233  1.00  0.00     0.173 A 
ATOM     62  F   UNL A   1      40.304  33.775  34.232  1.00  0.00    -0.203 F 
ATOM     63  C   UNL A   1      39.048  34.087  36.196  1.00  0.00     0.198 A 
ATOM     64  C   UNL A   1      37.927  32.228  37.216  1.00  0.00     0.198 A 
ATOM     65  F   UNL A   1      38.126  30.077  36.288  1.00  0.00    -0.203 F 
ATOM     66  F   UNL A   1      39.381  35.386  36.199  1.00  0.00    -0.200 F 
ATOM     67  C   UNL A   1      38.243  33.578  37.203  1.00  0.00     0.200 A 
ATOM     68  F   UNL A   1      37.136  31.735  38.179  1.00  0.00    -0.200 F 
ATOM     69  F   UNL A   1      37.779  34.386  38.167  1.00  0.00    -0.200 F 
ENDBRANCH  45  59
BRANCH  46  70
ATOM     70  C   UNL A   1      42.576  26.223  27.674  1.00  0.00     0.064 A 
ATOM     71  C   UNL A   1      43.533  26.705  26.767  1.00  0.00     0.173 A 
ATOM     72  C   UNL A   1      42.106  24.915  27.491  1.00  0.00     0.173 A 
ATOM     73  F   UNL A   1      43.999  27.956  26.888  1.00  0.00    -0.203 F 
ATOM     74  C   UNL A   1      43.981  25.919  25.708  1.00  0.00     0.198 A 
ATOM     75  C   UNL A   1      42.579  24.119  26.450  1.00  0.00     0.198 A 
ATOM     76  F   UNL A   1      41.196  24.405  28.334  1.00  0.00    -0.203 F 
ATOM     77  F   UNL A   1      44.856  26.422  24.827  1.00  0.00    -0.200 F 
ATOM     78  C   UNL A   1      43.509  24.624  25.554  1.00  0.00     0.200 A 
ATOM     79  F   UNL A   1      42.134  22.862  26.315  1.00  0.00    -0.200 F 
ATOM     80  F   UNL A   1      43.944  23.867  24.538  1.00  0.00    -0.200 F 
ENDBRANCH  46  70
BRANCH  58  81
ATOM     81  C   UNL A   1      44.809  27.372  34.163  1.00  0.00     0.064 A 
ATOM     82  C   UNL A   1      46.040  28.045  34.221  1.00  0.00     0.173 A 
ATOM     83  C   UNL A   1      44.700  26.152  34.848  1.00  0.00     0.173 A 
ATOM     84  F   UNL A   1      46.203  29.210  33.576  1.00  0.00    -0.203 F 
ATOM     85  C   UNL A   1      47.130  27.490  34.887  1.00  0.00     0.198 A 
ATOM     86  C   UNL A   1      45.780  25.619  35.546  1.00  0.00     0.198 A 
ATOM     87  F   UNL A   1      43.545  25.469  34.836  1.00  0.00    -0.203 F 
ATOM     88  F   UNL A   1      48.317  28.113  34.859  1.00  0.00    -0.200 F 
ATOM     89  C   UNL A   1      46.999  26.281  35.552  1.00  0.00     0.200 A 
ATOM     90  F   UNL A   1      45.646  24.459  36.203  1.00  0.00    -0.200 F 
ATOM     91  F   UNL A   1      48.050  25.745  36.186  1.00  0.00    -0.200 F 
ENDBRANCH  58  81
ENDBRANCH  32  33
ENDBRANCH  24  27
ENDBRANCH  22  23
ENDBRANCH   1  22
TORSDOF 12
ENDMDL
MODEL 2
REMARK VINA RESULT:     -13.3      0.125      1.987
REMARK SMILES O=C(NCCCCNC(=O)c1ccc(-c2c3nc(c(-c4c(F)c(F)c(F)c(F)c4F)c4ccc([nH]4)c(-c4c(F)c(F)c(F)c(F)c4F)c4nc(c(-c5c(F)c(F)c(F)c(F)c5F)c5ccc2[nH]5)C=C4)C=C3)cc1)c1ccc(-c2ccc(=O)[nH]c2)cc1
REMARK SMILES IDX 6 1 5 2 4 3 3 4 1 5 2 6 74 8 75 9 86 10 76 11 85 12 77 13
REMARK SMILES IDX 78 14 79 15 84 16 80 17 83 18 81 19 82 21 7 22 8 23 9 24
REMARK SMILES IDX 10 26 11 27 12 28 73 29 13 30 72 31 14 32 15 33 16 34 66 35
REMARK SMILES IDX 17 36 71 37 65 38 67 39 18 40 70 41 64 42 63 43 19 45 51 46
REMARK SMILES IDX 31 47 50 48 32 49 35 50 49 51 68 52 33 53 34 54 48 56 69 57
REMARK SMILES IDX 36 58 20 59 21 60 29 61 22 62 23 63 27 64 30 65 24 66 25 67
REMARK SMILES IDX 28 68 26 69 52 70 53 71 61 72 54 73 55 74 59 75 62 76 56 77
REMARK SMILES IDX 57 78 60 79 58 80 37 81 38 82 46 83 39 84 40 85 44 86 47 87
REMARK SMILES IDX 41 88 42 89 45 90 43 91
REMARK H PARENT 3 7 83 20 8 25 67 44 35 55
REMARK Flexibility Score: inf
ROOT
ATOM      1  C   UNL A   1      32.016  28.039  26.243  1.00  0.00     0.023 C 
ENDROOT
BRANCH   1   2
ATOM      2  C   UNL A   1      32.536  26.608  26.123  1.00  0.00     0.023 C 
BRANCH   2   3
ATOM      3  C   UNL A   1      31.487  25.520  26.320  1.00  0.00     0.116 C 
BRANCH   3   4
ATOM      4  N   UNL A   1      31.462  24.570  25.219  1.00  0.00    -0.352 N 
ATOM      5  O   UNL A   1      30.821  23.764  23.208  1.00  0.00    -0.269 OA
ATOM      6  C   UNL A   1      30.909  24.720  23.971  1.00  0.00     0.251 C 
ATOM      7  H   UNL A   1      31.900  23.705  25.391  1.00  0.00     0.163 HD
BRANCH   6   8
ATOM      8  C   UNL A   1      30.403  26.044  23.558  1.00  0.00     0.039 A 
ATOM      9  C   UNL A   1      31.223  26.922  22.842  1.00  0.00     0.014 A 
ATOM     10  C   UNL A   1      29.097  26.405  23.890  1.00  0.00     0.014 A 
ATOM     11  C   UNL A   1      30.756  28.196  22.522  1.00  0.00     0.009 A 
ATOM     12  C   UNL A   1      28.624  27.676  23.550  1.00  0.00     0.009 A 
ATOM     13  C   UNL A   1      29.451  28.581  22.869  1.00  0.00    -0.017 A 
BRANCH  13  14
ATOM     14  C   UNL A   1      28.951  29.918  22.498  1.00  0.00    -0.002 A 
ATOM     15  C   UNL A   1      28.136  30.745  23.377  1.00  0.00     0.016 A 
ATOM     16  C   UNL A   1      29.252  30.394  21.276  1.00  0.00     0.094 A 
ATOM     17  C   UNL A   1      27.694  31.951  22.989  1.00  0.00     0.072 A 
ATOM     18  N   UNL A   1      28.813  31.628  20.869  1.00  0.00    -0.328 N 
ATOM     19  C   UNL A   1      28.039  32.461  21.639  1.00  0.00     0.247 A 
ATOM     20  H   UNL A   1      29.067  31.936  19.969  1.00  0.00     0.169 HD
ATOM     21  O   UNL A   1      27.653  33.557  21.252  1.00  0.00    -0.270 OA
ENDBRANCH  13  14
ENDBRANCH   6   8
ENDBRANCH   3   4
ENDBRANCH   2   3
ENDBRANCH   1   2
BRANCH   1  22
ATOM     22  C   UNL A   1      32.918  29.115  25.649  1.00  0.00     0.116 C 
BRANCH  22  23
ATOM     23  N   UNL A   1      32.592  30.453  26.115  1.00  0.00    -0.352 N 
ATOM     24  C   UNL A   1      33.230  31.250  27.033  1.00  0.00     0.251 C 
ATOM     25  H   UNL A   1      31.786  30.848  25.710  1.00  0.00     0.163 HD
ATOM     26  O   UNL A   1      32.708  32.303  27.388  1.00  0.00    -0.269 OA
BRANCH  24  27
ATOM     27  C   UNL A   1      34.524  30.839  27.623  1.00  0.00     0.039 A 
ATOM     28  C   UNL A   1      35.496  31.818  27.837  1.00  0.00     0.014 A 
ATOM     29  C   UNL A   1      34.794  29.508  27.953  1.00  0.00     0.014 A 
ATOM     30  C   UNL A   1      36.708  31.474  28.439  1.00  0.00     0.010 A 
ATOM     31  C   UNL A   1      35.966  29.181  28.634  1.00  0.00     0.010 A 
ATOM     32  C   UNL A   1      36.939  30.159  28.882  1.00  0.00    -0.014 A 
BRANCH  32  33
ATOM     33  C   UNL A   1      38.182  29.826  29.624  1.00  0.00     0.031 A 
ATOM     34  C   UNL A   1      38.421  30.346  31.014  1.00  0.00     0.074 A 
ATOM     35  C   UNL A   1      39.117  29.060  29.027  1.00  0.00     0.049 A 
ATOM     36  N   UNL A   1      39.416  30.100  31.831  1.00  0.00    -0.248 NA
ATOM     37  C   UNL A   1      37.428  31.287  31.551  1.00  0.00     0.031 C 
ATOM     38  C   UNL A   1      39.038  28.550  27.657  1.00  0.00     0.029 A 
ATOM     39  N   UNL A   1      40.309  28.567  29.495  1.00  0.00    -0.354 N 
ATOM     40  C   UNL A   1      39.171  30.856  32.969  1.00  0.00     0.074 A 
ATOM     41  C   UNL A   1      37.968  31.619  32.715  1.00  0.00     0.031 C 
ATOM     42  C   UNL A   1      40.103  27.769  27.416  1.00  0.00     0.029 A 
ATOM     43  C   UNL A   1      40.957  27.754  28.598  1.00  0.00     0.049 A 
ATOM     44  H   UNL A   1      40.665  28.777  30.389  1.00  0.00     0.167 HD
ATOM     45  C   UNL A   1      39.873  30.896  34.129  1.00  0.00     0.037 A 
ATOM     46  C   UNL A   1      42.105  27.060  28.721  1.00  0.00     0.037 A 
ATOM     47  C   UNL A   1      41.065  30.127  34.380  1.00  0.00     0.049 A 
ATOM     48  C   UNL A   1      42.860  27.117  30.019  1.00  0.00     0.074 A 
ATOM     49  C   UNL A   1      41.808  30.039  35.545  1.00  0.00     0.029 A 
ATOM     50  N   UNL A   1      41.699  29.320  33.445  1.00  0.00    -0.354 N 
ATOM     51  N   UNL A   1      42.565  27.757  31.125  1.00  0.00    -0.248 NA
ATOM     52  C   UNL A   1      44.104  26.338  30.089  1.00  0.00     0.031 C 
ATOM     53  C   UNL A   1      42.925  29.235  35.295  1.00  0.00     0.029 A 
ATOM     54  C   UNL A   1      42.842  28.760  33.997  1.00  0.00     0.049 A 
ATOM     55  H   UNL A   1      41.383  29.168  32.525  1.00  0.00     0.167 HD
ATOM     56  C   UNL A   1      43.568  27.435  32.031  1.00  0.00     0.074 A 
ATOM     57  C   UNL A   1      44.463  26.522  31.350  1.00  0.00     0.031 C 
ATOM     58  C   UNL A   1      43.733  27.858  33.309  1.00  0.00     0.037 A 
BRANCH  45  59
ATOM     59  C   UNL A   1      39.374  31.813  35.212  1.00  0.00     0.064 A 
ATOM     60  C   UNL A   1      38.540  31.357  36.245  1.00  0.00     0.173 A 
ATOM     61  C   UNL A   1      39.758  33.163  35.232  1.00  0.00     0.173 A 
ATOM     62  F   UNL A   1      38.134  30.078  36.271  1.00  0.00    -0.203 F 
ATOM     63  C   UNL A   1      38.080  32.225  37.233  1.00  0.00     0.198 A 
ATOM     64  C   UNL A   1      39.325  34.020  36.243  1.00  0.00     0.198 A 
ATOM     65  F   UNL A   1      40.559  33.654  34.275  1.00  0.00    -0.203 F 
ATOM     66  F   UNL A   1      37.236  31.777  38.174  1.00  0.00    -0.200 F 
ATOM     67  C   UNL A   1      38.478  33.552  37.236  1.00  0.00     0.200 A 
ATOM     68  F   UNL A   1      39.724  35.298  36.251  1.00  0.00    -0.200 F 
ATOM     69  F   UNL A   1      38.038  34.384  38.190  1.00  0.00    -0.200 F 
ENDBRANCH  45  59
BRANCH  46  70
ATOM     70  C   UNL A   1      42.583  26.210  27.598  1.00  0.00     0.064 A 
ATOM     71  C   UNL A   1      42.073  24.916  27.410  1.00  0.00     0.173 A 
ATOM     72  C   UNL A   1      43.556  26.665  26.697  1.00  0.00     0.173 A 
ATOM     73  F   UNL A   1      41.155  24.429  28.257  1.00  0.00    -0.203 F 
ATOM     74  C   UNL A   1      42.536  24.103  26.378  1.00  0.00     0.198 A 
ATOM     75  C   UNL A   1      43.995  25.862  25.646  1.00  0.00     0.198 A 
ATOM     76  F   UNL A   1      44.070  27.896  26.828  1.00  0.00    -0.203 F 
ATOM     77  F   UNL A   1      42.070  22.853  26.254  1.00  0.00    -0.200 F 
ATOM     78  C   UNL A   1      43.492  24.578  25.493  1.00  0.00     0.200 A 
ATOM     79  F   UNL A   1      44.905  26.331  24.782  1.00  0.00    -0.200 F 
ATOM     80  F   UNL A   1      43.933  23.797  24.498  1.00  0.00    -0.200 F 
ENDBRANCH  46  70
BRANCH  58  81
ATOM     81  C   UNL A   1      44.911  27.305  34.063  1.00  0.00     0.064 A 
ATOM     82  C   UNL A   1      44.825  26.115  34.804  1.00  0.00     0.173 A 
ATOM     83  C   UNL A   1      46.141  27.981  34.055  1.00  0.00     0.173 A 
ATOM     84  F   UNL A   1      43.670  25.434  34.856  1.00  0.00    -0.203 F 
ATOM     85  C   UNL A   1      45.906  25.656  35.552  1.00  0.00     0.198 A 
ATOM     86  C   UNL A   1      47.232  27.497  34.771  1.00  0.00     0.198 A 
ATOM     87  F   UNL A   1      46.285  29.117  33.357  1.00  0.00    -0.203 F 
ATOM     88  F   UNL A   1      45.774  24.563  36.316  1.00  0.00    -0.200 F 
ATOM     89  C   UNL A   1      47.110  26.344  35.531  1.00  0.00     0.200 A 
ATOM     90  F   UNL A   1      48.400  28.154  34.736  1.00  0.00    -0.200 F 
ATOM     91  F   UNL A   1      48.147  25.905  36.256  1.00  0.00    -0.200 F 
ENDBRANCH  58  81
ENDBRANCH  32  33
ENDBRANCH  24  27
ENDBRANCH  22  23
ENDBRANCH   1  22
TORSDOF 12
ENDMDL
MODEL 3
REMARK VINA RESULT:     -13.2      4.988     10.493
REMARK SMILES O=C(NCCCCNC(=O)c1ccc(-c2c3nc(c(-c4c(F)c(F)c(F)c(F)c4F)c4ccc([nH]4)c(-c4c(F)c(F)c(F)c(F)c4F)c4nc(c(-c5c(F)c(F)c(F)c(F)c5F)c5ccc2[nH]5)C=C4)C=C3)cc1)c1ccc(-c2ccc(=O)[nH]c2)cc1
REMARK SMILES IDX 6 1 5 2 4 3 3 4 1 5 2 6 74 8 75 9 86 10 76 11 85 12 77 13
REMARK SMILES IDX 78 14 79 15 84 16 80 17 83 18 81 19 82 21 7 22 8 23 9 24
REMARK SMILES IDX 10 26 11 27 12 28 73 29 13 30 72 31 14 32 15 33 16 34 66 35
REMARK SMILES IDX 17 36 71 37 65 38 67 39 18 40 70 41 64 42 63 43 19 45 51 46
REMARK SMILES IDX 31 47 50 48 32 49 35 50 49 51 68 52 33 53 34 54 48 56 69 57
REMARK SMILES IDX 36 58 20 59 21 60 29 61 22 62 23 63 27 64 30 65 24 66 25 67
REMARK SMILES IDX 28 68 26 69 52 70 53 71 61 72 54 73 55 74 59 75 62 76 56 77
REMARK SMILES IDX 57 78 60 79 58 80 37 81 38 82 46 83 39 84 40 85 44 86 47 87
REMARK SMILES IDX 41 88 42 89 45 90 43 91
REMARK H PARENT 3 7 83 20 8 25 67 44 35 55
REMARK Flexibility Score: inf
ROOT
ATOM      1  C   UNL A   1      35.708  22.806  24.492  1.00  0.00     0.023 C 
ENDROOT
BRANCH   1   2
ATOM      2  C   UNL A   1      34.981  24.149  24.446  1.00  0.00     0.023 C 
BRANCH   2   3
ATOM      3  C   UNL A   1      34.229  24.433  23.150  1.00  0.00     0.116 C 
BRANCH   3   4
ATOM      4  N   UNL A   1      32.833  24.767  23.384  1.00  0.00    -0.352 N 
ATOM      5  O   UNL A   1      30.629  24.343  23.641  1.00  0.00    -0.269 OA
ATOM      6  C   UNL A   1      31.780  23.921  23.633  1.00  0.00     0.251 C 
ATOM      7  H   UNL A   1      32.613  25.726  23.359  1.00  0.00     0.163 HD
BRANCH   6   8
ATOM      8  C   UNL A   1      32.044  22.490  23.878  1.00  0.00     0.039 A 
ATOM      9  C   UNL A   1      32.183  22.009  25.184  1.00  0.00     0.014 A 
ATOM     10  C   UNL A   1      32.152  21.624  22.789  1.00  0.00     0.014 A 
ATOM     11  C   UNL A   1      32.503  20.670  25.396  1.00  0.00     0.009 A 
ATOM     12  C   UNL A   1      32.454  20.276  23.006  1.00  0.00     0.009 A 
ATOM     13  C   UNL A   1      32.636  19.791  24.309  1.00  0.00    -0.017 A 
BRANCH  13  14
ATOM     14  C   UNL A   1      32.942  18.367  24.541  1.00  0.00    -0.002 A 
ATOM     15  C   UNL A   1      33.654  17.530  23.584  1.00  0.00     0.016 A 
ATOM     16  C   UNL A   1      32.532  17.807  25.693  1.00  0.00     0.094 A 
ATOM     17  C   UNL A   1      33.898  16.236  23.836  1.00  0.00     0.072 A 
ATOM     18  N   UNL A   1      32.780  16.486  25.967  1.00  0.00    -0.328 N 
ATOM     19  C   UNL A   1      33.440  15.636  25.114  1.00  0.00     0.247 A 
ATOM     20  H   UNL A   1      32.467  16.125  26.827  1.00  0.00     0.169 HD
ATOM     21  O   UNL A   1      33.645  14.457  25.377  1.00  0.00    -0.270 OA
ENDBRANCH  13  14
ENDBRANCH   6   8
ENDBRANCH   3   4
ENDBRANCH   2   3
ENDBRANCH   1   2
BRANCH   1  22
ATOM     22  C   UNL A   1      36.238  22.396  25.861  1.00  0.00     0.116 C 
BRANCH  22  23
ATOM     23  N   UNL A   1      37.292  21.398  25.788  1.00  0.00    -0.352 N 
ATOM     24  C   UNL A   1      38.643  21.521  26.002  1.00  0.00     0.251 C 
ATOM     25  H   UNL A   1      36.991  20.492  25.547  1.00  0.00     0.163 HD
ATOM     26  O   UNL A   1      39.385  20.576  25.752  1.00  0.00    -0.269 OA
BRANCH  24  27
ATOM     27  C   UNL A   1      39.218  22.792  26.498  1.00  0.00     0.039 A 
ATOM     28  C   UNL A   1      40.264  22.730  27.422  1.00  0.00     0.014 A 
ATOM     29  C   UNL A   1      38.736  24.034  26.076  1.00  0.00     0.014 A 
ATOM     30  C   UNL A   1      40.863  23.908  27.872  1.00  0.00     0.010 A 
ATOM     31  C   UNL A   1      39.393  25.204  26.456  1.00  0.00     0.010 A 
ATOM     32  C   UNL A   1      40.462  25.155  27.362  1.00  0.00    -0.014 A 
BRANCH  32  33
ATOM     33  C   UNL A   1      41.181  26.394  27.757  1.00  0.00     0.031 A 
ATOM     34  C   UNL A   1      42.601  26.638  27.330  1.00  0.00     0.074 A 
ATOM     35  C   UNL A   1      40.550  27.300  28.531  1.00  0.00     0.049 A 
ATOM     36  N   UNL A   1      43.356  27.691  27.528  1.00  0.00    -0.248 NA
ATOM     37  C   UNL A   1      43.275  25.549  26.608  1.00  0.00     0.031 C 
ATOM     38  C   UNL A   1      39.196  27.150  29.070  1.00  0.00     0.029 A 
ATOM     39  N   UNL A   1      40.954  28.529  28.988  1.00  0.00    -0.354 N 
ATOM     40  C   UNL A   1      44.588  27.389  26.962  1.00  0.00     0.074 A 
ATOM     41  C   UNL A   1      44.501  26.032  26.469  1.00  0.00     0.031 C 
ATOM     42  C   UNL A   1      38.861  28.267  29.734  1.00  0.00     0.029 A 
ATOM     43  C   UNL A   1      39.986  29.195  29.700  1.00  0.00     0.049 A 
ATOM     44  H   UNL A   1      41.851  28.897  28.821  1.00  0.00     0.167 HD
ATOM     45  C   UNL A   1      45.684  28.179  26.846  1.00  0.00     0.037 A 
ATOM     46  C   UNL A   1      39.999  30.424  30.250  1.00  0.00     0.037 A 
ATOM     47  C   UNL A   1      45.761  29.533  27.331  1.00  0.00     0.049 A 
ATOM     48  C   UNL A   1      41.225  31.281  30.100  1.00  0.00     0.074 A 
ATOM     49  C   UNL A   1      46.798  30.441  27.197  1.00  0.00     0.029 A 
ATOM     50  N   UNL A   1      44.765  30.174  28.055  1.00  0.00    -0.354 N 
ATOM     51  N   UNL A   1      42.349  31.023  29.475  1.00  0.00    -0.248 NA
ATOM     52  C   UNL A   1      41.176  32.611  30.723  1.00  0.00     0.031 C 
ATOM     53  C   UNL A   1      46.457  31.604  27.897  1.00  0.00     0.029 A 
ATOM     54  C   UNL A   1      45.178  31.451  28.405  1.00  0.00     0.049 A 
ATOM     55  H   UNL A   1      43.893  29.778  28.286  1.00  0.00     0.167 HD
ATOM     56  C   UNL A   1      43.128  32.166  29.603  1.00  0.00     0.074 A 
ATOM     57  C   UNL A   1      42.334  33.127  30.342  1.00  0.00     0.031 C 
ATOM     58  C   UNL A   1      44.385  32.398  29.150  1.00  0.00     0.037 A 
BRANCH  45  59
ATOM     59  C   UNL A   1      46.896  27.590  26.177  1.00  0.00     0.064 A 
ATOM     60  C   UNL A   1      47.912  26.953  26.907  1.00  0.00     0.173 A 
ATOM     61  C   UNL A   1      47.031  27.641  24.780  1.00  0.00     0.173 A 
ATOM     62  F   UNL A   1      47.839  26.883  28.245  1.00  0.00    -0.203 F 
ATOM     63  C   UNL A   1      49.032  26.424  26.270  1.00  0.00     0.198 A 
ATOM     64  C   UNL A   1      48.135  27.079  24.143  1.00  0.00     0.198 A 
ATOM     65  F   UNL A   1      46.089  28.231  24.030  1.00  0.00    -0.203 F 
ATOM     66  F   UNL A   1      50.016  25.875  26.996  1.00  0.00    -0.200 F 
ATOM     67  C   UNL A   1      49.139  26.481  24.889  1.00  0.00     0.200 A 
ATOM     68  F   UNL A   1      48.229  27.121  22.807  1.00  0.00    -0.200 F 
ATOM     69  F   UNL A   1      50.215  25.967  24.277  1.00  0.00    -0.200 F 
ENDBRANCH  45  59
BRANCH  46  70
ATOM     70  C   UNL A   1      38.791  30.938  30.949  1.00  0.00     0.064 A 
ATOM     71  C   UNL A   1      37.749  31.543  30.230  1.00  0.00     0.173 A 
ATOM     72  C   UNL A   1      38.653  30.843  32.341  1.00  0.00     0.173 A 
ATOM     73  F   UNL A   1      37.843  31.675  28.899  1.00  0.00    -0.203 F 
ATOM     74  C   UNL A   1      36.627  32.052  30.880  1.00  0.00     0.198 A 
ATOM     75  C   UNL A   1      37.516  31.324  32.986  1.00  0.00     0.198 A 
ATOM     76  F   UNL A   1      39.618  30.268  33.073  1.00  0.00    -0.203 F 
ATOM     77  F   UNL A   1      35.671  32.672  30.174  1.00  0.00    -0.200 F 
ATOM     78  C   UNL A   1      36.508  31.937  32.256  1.00  0.00     0.200 A 
ATOM     79  F   UNL A   1      37.397  31.195  34.314  1.00  0.00    -0.200 F 
ATOM     80  F   UNL A   1      35.427  32.424  32.880  1.00  0.00    -0.200 F 
ENDBRANCH  46  70
BRANCH  58  81
ATOM     81  C   UNL A   1      44.963  33.761  29.414  1.00  0.00     0.064 A 
ATOM     82  C   UNL A   1      45.710  34.040  30.570  1.00  0.00     0.173 A 
ATOM     83  C   UNL A   1      44.755  34.810  28.504  1.00  0.00     0.173 A 
ATOM     84  F   UNL A   1      45.930  33.078  31.479  1.00  0.00    -0.203 F 
ATOM     85  C   UNL A   1      46.178  35.325  30.830  1.00  0.00     0.198 A 
ATOM     86  C   UNL A   1      45.259  36.084  28.747  1.00  0.00     0.198 A 
ATOM     87  F   UNL A   1      44.057  34.600  27.378  1.00  0.00    -0.203 F 
ATOM     88  F   UNL A   1      46.818  35.584  31.979  1.00  0.00    -0.200 F 
ATOM     89  C   UNL A   1      45.956  36.345  29.917  1.00  0.00     0.200 A 
ATOM     90  F   UNL A   1      45.059  37.064  27.855  1.00  0.00    -0.200 F 
ATOM     91  F   UNL A   1      46.401  37.583  30.171  1.00  0.00    -0.200 F 
ENDBRANCH  58  81
ENDBRANCH  32  33
ENDBRANCH  24  27
ENDBRANCH  22  23
ENDBRANCH   1  22
TORSDOF 12
ENDMDL
