MODEL 1
REMARK VINA RESULT:     -12.0      0.000      0.000
REMARK SMILES O=C(NCCCCNC(=O)[C@H](CO)NC(=O)[C@H](CS)NC(=O)[C@H](Cc1ccccc1)NC(=O)c1ccc(F)cc1)c1ccc(-c2c3nc(c(-c4c(F)c(F)c(F)c(F)c4F)c4ccc([nH]4)c(-c4c(F)c(F)c(F)c(F)c4F)c4nc(c(-c5c(F)c(F)c(F)c(F)c5F)c5ccc2[nH]5)C=C4)C=C3)cc1
REMARK SMILES IDX 8 1 9 2 10 3 7 5 6 6 5 7 4 8 3 9 1 10 2 11 41 13 42 14
REMARK SMILES IDX 103 15 43 16 102 17 44 18 45 19 46 20 96 21 47 22 101 23
REMARK SMILES IDX 95 24 97 25 48 26 100 27 94 28 93 29 49 31 81 32 61 33 80 34
REMARK SMILES IDX 62 35 65 36 79 37 98 38 63 39 64 40 78 42 99 43 66 44 50 45
REMARK SMILES IDX 51 46 59 47 52 48 53 49 57 50 60 51 54 52 55 53 58 54 56 55
REMARK SMILES IDX 82 56 83 57 91 58 84 59 85 60 89 61 92 62 86 63 87 64 90 65
REMARK SMILES IDX 88 66 67 67 68 68 76 69 69 70 70 71 74 72 77 73 71 74 72 75
REMARK SMILES IDX 75 76 73 77 11 78 14 79 15 80 16 82 17 83 20 84 21 85 22 87
REMARK SMILES IDX 23 88 31 89 32 90 33 92 34 93 35 94 40 95 36 96 39 97 37 98
REMARK SMILES IDX 38 99 24 100 25 101 26 102 30 103 27 104 29 105 28 106
REMARK SMILES IDX 18 107 19 108 12 110 13 111
REMARK H PARENT 8 4 3 12 97 30 65 41 14 81 20 86 31 91 19 109 13 112
REMARK Flexibility Score: inf
ROOT
ATOM      1  N   UNL A   1      38.612  22.909  25.370  1.00  0.00    -0.354 N 
ATOM      2  C   UNL A   1      37.279  22.798  25.081  1.00  0.00     0.244 C 
ATOM      3  O   UNL A   1      36.909  23.411  24.075  1.00  0.00    -0.273 OA
ATOM      4  H   UNL A   1      39.180  23.426  24.755  1.00  0.00     0.163 HD
ENDROOT
BRANCH   1   5
ATOM      5  C   UNL A   1      39.217  22.318  26.508  1.00  0.00     0.116 C 
BRANCH   5   6
ATOM      6  C   UNL A   1      40.678  21.920  26.461  1.00  0.00     0.023 C 
BRANCH   6   7
ATOM      7  C   UNL A   1      40.956  20.466  26.141  1.00  0.00     0.023 C 
BRANCH   7   8
ATOM      8  C   UNL A   1      42.320  19.945  26.573  1.00  0.00     0.116 C 
BRANCH   8   9
ATOM      9  N   UNL A   1      43.065  19.225  25.540  1.00  0.00    -0.352 N 
ATOM     10  O   UNL A   1      44.611  18.919  23.905  1.00  0.00    -0.269 OA
ATOM     11  C   UNL A   1      44.119  19.651  24.755  1.00  0.00     0.251 C 
ATOM     12  H   UNL A   1      42.772  18.298  25.381  1.00  0.00     0.163 HD
BRANCH  11  13
ATOM     13  C   UNL A   1      44.601  21.036  24.917  1.00  0.00     0.039 A 
ATOM     14  C   UNL A   1      45.487  21.323  25.948  1.00  0.00     0.014 A 
ATOM     15  C   UNL A   1      44.039  22.061  24.154  1.00  0.00     0.014 A 
ATOM     16  C   UNL A   1      45.553  22.620  26.422  1.00  0.00     0.010 A 
ATOM     17  C   UNL A   1      44.273  23.390  24.520  1.00  0.00     0.010 A 
ATOM     18  C   UNL A   1      44.982  23.678  25.696  1.00  0.00    -0.014 A 
BRANCH  18  19
ATOM     19  C   UNL A   1      45.219  25.068  26.165  1.00  0.00     0.031 A 
ATOM     20  C   UNL A   1      44.131  25.894  26.793  1.00  0.00     0.074 A 
ATOM     21  C   UNL A   1      46.469  25.560  26.052  1.00  0.00     0.049 A 
ATOM     22  N   UNL A   1      44.189  27.128  27.234  1.00  0.00    -0.248 NA
ATOM     23  C   UNL A   1      42.808  25.272  26.939  1.00  0.00     0.031 C 
ATOM     24  C   UNL A   1      47.605  24.845  25.459  1.00  0.00     0.029 A 
ATOM     25  N   UNL A   1      47.007  26.756  26.445  1.00  0.00    -0.354 N 
ATOM     26  C   UNL A   1      42.913  27.434  27.690  1.00  0.00     0.074 A 
ATOM     27  C   UNL A   1      42.090  26.269  27.442  1.00  0.00     0.031 C 
ATOM     28  C   UNL A   1      48.712  25.582  25.590  1.00  0.00     0.029 A 
ATOM     29  C   UNL A   1      48.347  26.868  26.163  1.00  0.00     0.049 A 
ATOM     30  H   UNL A   1      46.486  27.466  26.886  1.00  0.00     0.167 HD
ATOM     31  C   UNL A   1      42.476  28.580  28.270  1.00  0.00     0.037 A 
ATOM     32  C   UNL A   1      49.187  27.907  26.301  1.00  0.00     0.037 A 
ATOM     33  C   UNL A   1      43.310  29.734  28.505  1.00  0.00     0.049 A 
ATOM     34  C   UNL A   1      48.652  29.184  26.875  1.00  0.00     0.074 A 
ATOM     35  C   UNL A   1      42.970  30.941  29.091  1.00  0.00     0.029 A 
ATOM     36  N   UNL A   1      44.652  29.827  28.159  1.00  0.00    -0.354 N 
ATOM     37  N   UNL A   1      47.449  29.454  27.318  1.00  0.00    -0.248 NA
ATOM     38  C   UNL A   1      49.594  30.306  26.964  1.00  0.00     0.031 C 
ATOM     39  C   UNL A   1      44.083  31.785  29.039  1.00  0.00     0.029 A 
ATOM     40  C   UNL A   1      45.144  31.080  28.493  1.00  0.00     0.049 A 
ATOM     41  H   UNL A   1      45.178  29.109  27.738  1.00  0.00     0.167 HD
ATOM     42  C   UNL A   1      47.495  30.765  27.767  1.00  0.00     0.074 A 
ATOM     43  C   UNL A   1      48.854  31.225  27.565  1.00  0.00     0.031 C 
ATOM     44  C   UNL A   1      46.502  31.521  28.294  1.00  0.00     0.037 A 
BRANCH  31  45
ATOM     45  C   UNL A   1      41.028  28.660  28.671  1.00  0.00     0.064 A 
ATOM     46  C   UNL A   1      40.031  29.065  27.769  1.00  0.00     0.173 A 
ATOM     47  C   UNL A   1      40.622  28.275  29.959  1.00  0.00     0.173 A 
ATOM     48  F   UNL A   1      40.359  29.449  26.526  1.00  0.00    -0.203 F 
ATOM     49  C   UNL A   1      38.691  29.111  28.151  1.00  0.00     0.198 A 
ATOM     50  C   UNL A   1      39.278  28.286  30.325  1.00  0.00     0.198 A 
ATOM     51  F   UNL A   1      41.528  27.867  30.860  1.00  0.00    -0.203 F 
ATOM     52  F   UNL A   1      37.765  29.550  27.286  1.00  0.00    -0.200 F 
ATOM     53  C   UNL A   1      38.315  28.714  29.425  1.00  0.00     0.200 A 
ATOM     54  F   UNL A   1      38.915  27.884  31.551  1.00  0.00    -0.200 F 
ATOM     55  F   UNL A   1      37.025  28.749  29.786  1.00  0.00    -0.200 F 
ENDBRANCH  31  45
BRANCH  32  56
ATOM     56  C   UNL A   1      50.598  27.788  25.851  1.00  0.00     0.064 A 
ATOM     57  C   UNL A   1      50.936  27.905  24.497  1.00  0.00     0.173 A 
ATOM     58  C   UNL A   1      51.636  27.541  26.764  1.00  0.00     0.173 A 
ATOM     59  F   UNL A   1      49.980  28.134  23.584  1.00  0.00    -0.203 F 
ATOM     60  C   UNL A   1      52.251  27.741  24.068  1.00  0.00     0.198 A 
ATOM     61  C   UNL A   1      52.956  27.422  26.339  1.00  0.00     0.198 A 
ATOM     62  F   UNL A   1      51.370  27.436  28.074  1.00  0.00    -0.203 F 
ATOM     63  F   UNL A   1      52.537  27.790  22.760  1.00  0.00    -0.200 F 
ATOM     64  C   UNL A   1      53.261  27.505  24.991  1.00  0.00     0.200 A 
ATOM     65  F   UNL A   1      53.930  27.223  27.238  1.00  0.00    -0.200 F 
ATOM     66  F   UNL A   1      54.525  27.348  24.577  1.00  0.00    -0.200 F 
ENDBRANCH  32  56
BRANCH  44  67
ATOM     67  C   UNL A   1      46.868  32.908  28.741  1.00  0.00     0.064 A 
ATOM     68  C   UNL A   1      46.745  34.019  27.893  1.00  0.00     0.173 A 
ATOM     69  C   UNL A   1      47.341  33.127  30.044  1.00  0.00     0.173 A 
ATOM     70  F   UNL A   1      46.315  33.863  26.631  1.00  0.00    -0.203 F 
ATOM     71  C   UNL A   1      47.119  35.291  28.320  1.00  0.00     0.198 A 
ATOM     72  C   UNL A   1      47.675  34.406  30.481  1.00  0.00     0.198 A 
ATOM     73  F   UNL A   1      47.474  32.101  30.898  1.00  0.00    -0.203 F 
ATOM     74  F   UNL A   1      47.061  36.324  27.469  1.00  0.00    -0.200 F 
ATOM     75  C   UNL A   1      47.575  35.484  29.615  1.00  0.00     0.200 A 
ATOM     76  F   UNL A   1      48.097  34.593  31.739  1.00  0.00    -0.200 F 
ATOM     77  F   UNL A   1      47.930  36.709  30.027  1.00  0.00    -0.200 F 
ENDBRANCH  44  67
ENDBRANCH  18  19
ENDBRANCH  11  13
ENDBRANCH   8   9
ENDBRANCH   7   8
ENDBRANCH   6   7
ENDBRANCH   5   6
ENDBRANCH   1   5
BRANCH   2  78
ATOM     78  C   UNL A   1      36.337  21.772  25.859  1.00  0.00     0.197 C 
BRANCH  78  79
ATOM     79  N   UNL A   1      34.680  22.313  26.147  1.00  0.00    -0.340 N 
ATOM     80  C   UNL A   1      33.356  23.691  25.684  1.00  0.00     0.244 C 
ATOM     81  H   UNL A   1      34.261  21.687  26.780  1.00  0.00     0.164 HD
ATOM     82  O   UNL A   1      32.419  24.221  26.387  1.00  0.00    -0.273 OA
BRANCH  80  83
ATOM     83  C   UNL A   1      33.030  24.443  24.080  1.00  0.00     0.181 C 
BRANCH  83  84
ATOM     84  N   UNL A   1      33.921  25.626  24.054  1.00  0.00    -0.342 N 
ATOM     85  C   UNL A   1      33.563  26.939  24.156  1.00  0.00     0.243 C 
ATOM     86  H   UNL A   1      34.883  25.444  23.949  1.00  0.00     0.164 HD
ATOM     87  O   UNL A   1      34.451  27.787  24.262  1.00  0.00    -0.273 OA
BRANCH  85  88
ATOM     88  C   UNL A   1      32.078  27.365  24.123  1.00  0.00     0.176 C 
BRANCH  88  89
ATOM     89  N   UNL A   1      31.380  27.104  25.392  1.00  0.00    -0.340 N 
ATOM     90  C   UNL A   1      31.609  27.596  26.651  1.00  0.00     0.251 C 
ATOM     91  H   UNL A   1      30.624  26.476  25.327  1.00  0.00     0.164 HD
ATOM     92  O   UNL A   1      31.087  27.027  27.607  1.00  0.00    -0.269 OA
BRANCH  90  93
ATOM     93  C   UNL A   1      32.492  28.761  26.894  1.00  0.00     0.040 A 
ATOM     94  C   UNL A   1      33.827  28.516  27.249  1.00  0.00     0.017 A 
ATOM     95  C   UNL A   1      32.012  30.076  26.862  1.00  0.00     0.017 A 
ATOM     96  C   UNL A   1      34.691  29.584  27.503  1.00  0.00     0.040 A 
ATOM     97  C   UNL A   1      32.885  31.142  27.094  1.00  0.00     0.040 A 
ATOM     98  C   UNL A   1      34.216  30.886  27.407  1.00  0.00     0.123 A 
ATOM     99  F   UNL A   1      35.049  31.910  27.632  1.00  0.00    -0.207 F 
ENDBRANCH  90  93
ENDBRANCH  88  89
BRANCH  88 100
ATOM    100  C   UNL A   1      31.796  28.783  23.590  1.00  0.00     0.070 C 
BRANCH 100 101
ATOM    101  C   UNL A   1      30.399  29.357  23.696  1.00  0.00    -0.045 A 
ATOM    102  C   UNL A   1      30.089  31.110  24.154  1.00  0.00     0.004 A 
ATOM    103  C   UNL A   1      29.034  28.320  23.074  1.00  0.00     0.004 A 
ATOM    104  C   UNL A   1      28.437  31.835  23.795  1.00  0.00     0.000 A 
ATOM    105  C   UNL A   1      27.362  29.003  22.865  1.00  0.00     0.000 A 
ATOM    106  C   UNL A   1      27.081  30.768  23.201  1.00  0.00     0.000 A 
ENDBRANCH 100 101
ENDBRANCH  88 100
ENDBRANCH  85  88
ENDBRANCH  83  84
BRANCH  83 107
ATOM    107  C   UNL A   1      33.340  23.509  22.894  1.00  0.00     0.101 C 
BRANCH 107 108
ATOM    108  S   UNL A   1      32.201  22.061  22.825  1.00  0.00    -0.177 SA
ATOM    109  H   UNL A   1      32.814  20.976  23.373  1.00  0.00     0.102 HD
ENDBRANCH 107 108
ENDBRANCH  83 107
ENDBRANCH  80  83
ENDBRANCH  78  79
BRANCH  78 110
ATOM    110  C   UNL A   1      36.393  20.394  25.063  1.00  0.00     0.191 C 
BRANCH 110 111
ATOM    111  O   UNL A   1      35.221  19.584  25.023  1.00  0.00    -0.394 OA
ATOM    112  H   UNL A   1      35.348  18.866  24.382  1.00  0.00     0.210 HD
ENDBRANCH 110 111
ENDBRANCH  78 110
ENDBRANCH   2  78
TORSDOF 23
ENDMDL
MODEL 2
REMARK VINA RESULT:     -11.9      0.401      6.771
REMARK SMILES O=C(NCCCCNC(=O)[C@H](CO)NC(=O)[C@H](CS)NC(=O)[C@H](Cc1ccccc1)NC(=O)c1ccc(F)cc1)c1ccc(-c2c3nc(c(-c4c(F)c(F)c(F)c(F)c4F)c4ccc([nH]4)c(-c4c(F)c(F)c(F)c(F)c4F)c4nc(c(-c5c(F)c(F)c(F)c(F)c5F)c5ccc2[nH]5)C=C4)C=C3)cc1
REMARK SMILES IDX 8 1 9 2 10 3 7 5 6 6 5 7 4 8 3 9 1 10 2 11 41 13 42 14
REMARK SMILES IDX 103 15 43 16 102 17 44 18 45 19 46 20 96 21 47 22 101 23
REMARK SMILES IDX 95 24 97 25 48 26 100 27 94 28 93 29 49 31 81 32 61 33 80 34
REMARK SMILES IDX 62 35 65 36 79 37 98 38 63 39 64 40 78 42 99 43 66 44 50 45
REMARK SMILES IDX 51 46 59 47 52 48 53 49 57 50 60 51 54 52 55 53 58 54 56 55
REMARK SMILES IDX 82 56 83 57 91 58 84 59 85 60 89 61 92 62 86 63 87 64 90 65
REMARK SMILES IDX 88 66 67 67 68 68 76 69 69 70 70 71 74 72 77 73 71 74 72 75
REMARK SMILES IDX 75 76 73 77 11 78 14 79 15 80 16 82 17 83 20 84 21 85 22 87
REMARK SMILES IDX 23 88 31 89 32 90 33 92 34 93 35 94 40 95 36 96 39 97 37 98
REMARK SMILES IDX 38 99 24 100 25 101 26 102 30 103 27 104 29 105 28 106
REMARK SMILES IDX 18 107 19 108 12 110 13 111
REMARK H PARENT 8 4 3 12 97 30 65 41 14 81 20 86 31 91 19 109 13 112
REMARK Flexibility Score: inf
ROOT
ATOM      1  N   UNL A   1      38.206  22.455  24.994  1.00  0.00    -0.354 N 
ATOM      2  C   UNL A   1      36.860  22.377  24.759  1.00  0.00     0.244 C 
ATOM      3  O   UNL A   1      36.478  22.925  23.719  1.00  0.00    -0.273 OA
ATOM      4  H   UNL A   1      38.772  22.897  24.320  1.00  0.00     0.163 HD
ENDROOT
BRANCH   1   5
ATOM      5  C   UNL A   1      38.828  21.930  26.155  1.00  0.00     0.116 C 
BRANCH   5   6
ATOM      6  C   UNL A   1      40.324  21.693  26.164  1.00  0.00     0.023 C 
BRANCH   6   7
ATOM      7  C   UNL A   1      40.763  20.244  26.100  1.00  0.00     0.023 C 
BRANCH   7   8
ATOM      8  C   UNL A   1      42.220  19.981  26.457  1.00  0.00     0.116 C 
BRANCH   8   9
ATOM      9  N   UNL A   1      42.983  19.246  25.449  1.00  0.00    -0.352 N 
ATOM     10  O   UNL A   1      44.578  18.905  23.869  1.00  0.00    -0.269 OA
ATOM     11  C   UNL A   1      44.075  19.647  24.703  1.00  0.00     0.251 C 
ATOM     12  H   UNL A   1      42.673  18.327  25.277  1.00  0.00     0.163 HD
BRANCH  11  13
ATOM     13  C   UNL A   1      44.585  21.019  24.887  1.00  0.00     0.039 A 
ATOM     14  C   UNL A   1      45.417  21.288  25.967  1.00  0.00     0.014 A 
ATOM     15  C   UNL A   1      44.096  22.055  24.089  1.00  0.00     0.014 A 
ATOM     16  C   UNL A   1      45.492  22.586  26.438  1.00  0.00     0.010 A 
ATOM     17  C   UNL A   1      44.346  23.379  24.462  1.00  0.00     0.010 A 
ATOM     18  C   UNL A   1      44.993  23.655  25.676  1.00  0.00    -0.014 A 
BRANCH  18  19
ATOM     19  C   UNL A   1      45.241  25.040  26.152  1.00  0.00     0.031 A 
ATOM     20  C   UNL A   1      46.592  25.690  26.045  1.00  0.00     0.074 A 
ATOM     21  C   UNL A   1      44.192  25.727  26.648  1.00  0.00     0.049 A 
ATOM     22  N   UNL A   1      46.961  26.887  26.435  1.00  0.00    -0.248 NA
ATOM     23  C   UNL A   1      47.675  24.903  25.439  1.00  0.00     0.031 C 
ATOM     24  C   UNL A   1      42.832  25.196  26.798  1.00  0.00     0.029 A 
ATOM     25  N   UNL A   1      44.088  27.016  27.097  1.00  0.00    -0.354 N 
ATOM     26  C   UNL A   1      48.314  26.989  26.138  1.00  0.00     0.074 A 
ATOM     27  C   UNL A   1      48.713  25.719  25.567  1.00  0.00     0.031 C 
ATOM     28  C   UNL A   1      42.021  26.165  27.232  1.00  0.00     0.029 A 
ATOM     29  C   UNL A   1      42.821  27.348  27.509  1.00  0.00     0.049 A 
ATOM     30  H   UNL A   1      44.847  27.644  27.121  1.00  0.00     0.167 HD
ATOM     31  C   UNL A   1      49.140  28.049  26.320  1.00  0.00     0.037 A 
ATOM     32  C   UNL A   1      42.355  28.464  28.093  1.00  0.00     0.037 A 
ATOM     33  C   UNL A   1      48.725  29.306  26.895  1.00  0.00     0.049 A 
ATOM     34  C   UNL A   1      43.312  29.589  28.349  1.00  0.00     0.074 A 
ATOM     35  C   UNL A   1      49.479  30.446  27.117  1.00  0.00     0.029 A 
ATOM     36  N   UNL A   1      47.442  29.586  27.347  1.00  0.00    -0.354 N 
ATOM     37  N   UNL A   1      44.584  29.678  28.048  1.00  0.00    -0.248 NA
ATOM     38  C   UNL A   1      42.768  30.768  29.032  1.00  0.00     0.031 C 
ATOM     39  C   UNL A   1      48.673  31.388  27.762  1.00  0.00     0.029 A 
ATOM     40  C   UNL A   1      47.393  30.870  27.872  1.00  0.00     0.049 A 
ATOM     41  H   UNL A   1      46.679  28.966  27.303  1.00  0.00     0.167 HD
ATOM     42  C   UNL A   1      44.987  30.934  28.476  1.00  0.00     0.074 A 
ATOM     43  C   UNL A   1      43.815  31.578  29.033  1.00  0.00     0.031 C 
ATOM     44  C   UNL A   1      46.217  31.501  28.416  1.00  0.00     0.037 A 
BRANCH  31  45
ATOM     45  C   UNL A   1      50.582  27.897  25.917  1.00  0.00     0.064 A 
ATOM     46  C   UNL A   1      50.999  28.056  24.586  1.00  0.00     0.173 A 
ATOM     47  C   UNL A   1      51.570  27.643  26.881  1.00  0.00     0.173 A 
ATOM     48  F   UNL A   1      50.100  28.295  23.619  1.00  0.00    -0.203 F 
ATOM     49  C   UNL A   1      52.343  27.934  24.234  1.00  0.00     0.198 A 
ATOM     50  C   UNL A   1      52.916  27.559  26.532  1.00  0.00     0.198 A 
ATOM     51  F   UNL A   1      51.233  27.494  28.172  1.00  0.00    -0.203 F 
ATOM     52  F   UNL A   1      52.708  28.039  22.948  1.00  0.00    -0.200 F 
ATOM     53  C   UNL A   1      53.300  27.695  25.207  1.00  0.00     0.200 A 
ATOM     54  F   UNL A   1      53.841  27.347  27.478  1.00  0.00    -0.200 F 
ATOM     55  F   UNL A   1      54.592  27.589  24.868  1.00  0.00    -0.200 F 
ENDBRANCH  31  45
BRANCH  32  56
ATOM     56  C   UNL A   1      40.930  28.546  28.509  1.00  0.00     0.064 A 
ATOM     57  C   UNL A   1      39.945  29.003  27.624  1.00  0.00     0.173 A 
ATOM     58  C   UNL A   1      40.526  28.183  29.804  1.00  0.00     0.173 A 
ATOM     59  F   UNL A   1      40.281  29.369  26.378  1.00  0.00    -0.203 F 
ATOM     60  C   UNL A   1      38.619  29.131  28.030  1.00  0.00     0.198 A 
ATOM     61  C   UNL A   1      39.193  28.268  30.194  1.00  0.00     0.198 A 
ATOM     62  F   UNL A   1      41.426  27.725  30.686  1.00  0.00    -0.203 F 
ATOM     63  F   UNL A   1      37.709  29.634  27.185  1.00  0.00    -0.200 F 
ATOM     64  C   UNL A   1      38.243  28.758  29.313  1.00  0.00     0.200 A 
ATOM     65  F   UNL A   1      38.832  27.880  31.424  1.00  0.00    -0.200 F 
ATOM     66  F   UNL A   1      36.967  28.881  29.701  1.00  0.00    -0.200 F 
ENDBRANCH  32  56
BRANCH  44  67
ATOM     67  C   UNL A   1      46.340  32.911  28.920  1.00  0.00     0.064 A 
ATOM     68  C   UNL A   1      46.131  34.020  28.085  1.00  0.00     0.173 A 
ATOM     69  C   UNL A   1      46.664  33.154  30.264  1.00  0.00     0.173 A 
ATOM     70  F   UNL A   1      45.839  33.843  26.787  1.00  0.00    -0.203 F 
ATOM     71  C   UNL A   1      46.281  35.317  28.567  1.00  0.00     0.198 A 
ATOM     72  C   UNL A   1      46.771  34.453  30.752  1.00  0.00     0.198 A 
ATOM     73  F   UNL A   1      46.869  32.132  31.107  1.00  0.00    -0.203 F 
ATOM     74  F   UNL A   1      46.148  36.358  27.734  1.00  0.00    -0.200 F 
ATOM     75  C   UNL A   1      46.592  35.532  29.901  1.00  0.00     0.200 A 
ATOM     76  F   UNL A   1      47.052  34.659  32.046  1.00  0.00    -0.200 F 
ATOM     77  F   UNL A   1      46.730  36.782  30.365  1.00  0.00    -0.200 F 
ENDBRANCH  44  67
ENDBRANCH  18  19
ENDBRANCH  11  13
ENDBRANCH   8   9
ENDBRANCH   7   8
ENDBRANCH   6   7
ENDBRANCH   5   6
ENDBRANCH   1   5
BRANCH   2  78
ATOM     78  C   UNL A   1      35.907  21.457  25.647  1.00  0.00     0.197 C 
BRANCH  78  79
ATOM     79  N   UNL A   1      34.268  22.066  25.905  1.00  0.00    -0.340 N 
ATOM     80  C   UNL A   1      33.019  23.511  25.439  1.00  0.00     0.244 C 
ATOM     81  H   UNL A   1      33.806  21.447  26.514  1.00  0.00     0.164 HD
ATOM     82  O   UNL A   1      32.089  24.069  26.129  1.00  0.00    -0.273 OA
BRANCH  80  83
ATOM     83  C   UNL A   1      32.769  24.308  23.843  1.00  0.00     0.181 C 
BRANCH  83  84
ATOM     84  N   UNL A   1      33.728  25.437  23.855  1.00  0.00    -0.342 N 
ATOM     85  C   UNL A   1      33.447  26.766  23.989  1.00  0.00     0.243 C 
ATOM     86  H   UNL A   1      34.679  25.201  23.752  1.00  0.00     0.164 HD
ATOM     87  O   UNL A   1      34.383  27.557  24.123  1.00  0.00    -0.273 OA
BRANCH  85  88
ATOM     88  C   UNL A   1      31.990  27.279  23.957  1.00  0.00     0.176 C 
BRANCH  88  89
ATOM     89  N   UNL A   1      31.259  27.007  25.204  1.00  0.00    -0.340 N 
ATOM     90  C   UNL A   1      31.453  27.491  26.473  1.00  0.00     0.251 C 
ATOM     91  H   UNL A   1      30.509  26.376  25.114  1.00  0.00     0.164 HD
ATOM     92  O   UNL A   1      30.908  26.913  27.410  1.00  0.00    -0.269 OA
BRANCH  90  93
ATOM     93  C   UNL A   1      32.324  28.658  26.747  1.00  0.00     0.040 A 
ATOM     94  C   UNL A   1      33.646  28.416  27.150  1.00  0.00     0.017 A 
ATOM     95  C   UNL A   1      31.842  29.972  26.699  1.00  0.00     0.017 A 
ATOM     96  C   UNL A   1      34.498  29.486  27.434  1.00  0.00     0.040 A 
ATOM     97  C   UNL A   1      32.704  31.040  26.962  1.00  0.00     0.040 A 
ATOM     98  C   UNL A   1      34.023  30.787  27.321  1.00  0.00     0.123 A 
ATOM     99  F   UNL A   1      34.845  31.813  27.577  1.00  0.00    -0.207 F 
ENDBRANCH  90  93
ENDBRANCH  88  89
BRANCH  88 100
ATOM    100  C   UNL A   1      31.799  28.734  23.481  1.00  0.00     0.070 C 
BRANCH 100 101
ATOM    101  C   UNL A   1      30.400  29.275  23.277  1.00  0.00    -0.045 A 
ATOM    102  C   UNL A   1      28.978  28.188  22.857  1.00  0.00     0.004 A 
ATOM    103  C   UNL A   1      30.115  31.014  23.744  1.00  0.00     0.004 A 
ATOM    104  C   UNL A   1      27.274  28.835  23.101  1.00  0.00     0.000 A 
ATOM    105  C   UNL A   1      28.429  31.693  23.835  1.00  0.00     0.000 A 
ATOM    106  C   UNL A   1      27.016  30.588  23.539  1.00  0.00     0.000 A 
ENDBRANCH 100 101
ENDBRANCH  88 100
ENDBRANCH  85  88
ENDBRANCH  83  84
BRANCH  83 107
ATOM    107  C   UNL A   1      33.045  23.378  22.646  1.00  0.00     0.101 C 
BRANCH 107 108
ATOM    108  S   UNL A   1      32.144  21.776  22.780  1.00  0.00    -0.177 SA
ATOM    109  H   UNL A   1      31.997  21.447  24.092  1.00  0.00     0.102 HD
ENDBRANCH 107 108
ENDBRANCH  83 107
ENDBRANCH  80  83
ENDBRANCH  78  79
BRANCH  78 110
ATOM    110  C   UNL A   1      35.915  20.007  24.989  1.00  0.00     0.191 C 
BRANCH 110 111
ATOM    111  O   UNL A   1      34.712  19.244  25.008  1.00  0.00    -0.394 OA
ATOM    112  H   UNL A   1      34.312  19.248  24.125  1.00  0.00     0.210 HD
ENDBRANCH 110 111
ENDBRANCH  78 110
ENDBRANCH   2  78
TORSDOF 23
ENDMDL
MODEL 3
REMARK VINA RESULT:     -10.7      4.962     10.287
REMARK SMILES O=C(NCCCCNC(=O)[C@H](CO)NC(=O)[C@H](CS)NC(=O)[C@H](Cc1ccccc1)NC(=O)c1ccc(F)cc1)c1ccc(-c2c3nc(c(-c4c(F)c(F)c(F)c(F)c4F)c4ccc([nH]4)c(-c4c(F)c(F)c(F)c(F)c4F)c4nc(c(-c5c(F)c(F)c(F)c(F)c5F)c5ccc2[nH]5)C=C4)C=C3)cc1
REMARK SMILES IDX 8 1 9 2 10 3 7 5 6 6 5 7 4 8 3 9 1 10 2 11 41 13 42 14
REMARK SMILES IDX 103 15 43 16 102 17 44 18 45 19 46 20 96 21 47 22 101 23
REMARK SMILES IDX 95 24 97 25 48 26 100 27 94 28 93 29 49 31 81 32 61 33 80 34
REMARK SMILES IDX 62 35 65 36 79 37 98 38 63 39 64 40 78 42 99 43 66 44 50 45
REMARK SMILES IDX 51 46 59 47 52 48 53 49 57 50 60 51 54 52 55 53 58 54 56 55
REMARK SMILES IDX 82 56 83 57 91 58 84 59 85 60 89 61 92 62 86 63 87 64 90 65
REMARK SMILES IDX 88 66 67 67 68 68 76 69 69 70 70 71 74 72 77 73 71 74 72 75
REMARK SMILES IDX 75 76 73 77 11 78 14 79 15 80 16 82 17 83 20 84 21 85 22 87
REMARK SMILES IDX 23 88 31 89 32 90 33 92 34 93 35 94 40 95 36 96 39 97 37 98
REMARK SMILES IDX 38 99 24 100 25 101 26 102 30 103 27 104 29 105 28 106
REMARK SMILES IDX 18 107 19 108 12 110 13 111
REMARK H PARENT 8 4 3 12 97 30 65 41 14 81 20 86 31 91 19 109 13 112
REMARK Flexibility Score: inf
ROOT
ATOM      1  N   UNL A   1      43.483  21.142  25.256  1.00  0.00    -0.354 N 
ATOM      2  C   UNL A   1      42.485  20.356  25.764  1.00  0.00     0.244 C 
ATOM      3  O   UNL A   1      42.822  19.202  26.049  1.00  0.00    -0.273 OA
ATOM      4  H   UNL A   1      44.388  20.760  25.185  1.00  0.00     0.163 HD
ENDROOT
BRANCH   1   5
ATOM      5  C   UNL A   1      43.284  22.479  24.826  1.00  0.00     0.116 C 
BRANCH   5   6
ATOM      6  C   UNL A   1      43.587  23.625  25.768  1.00  0.00     0.023 C 
BRANCH   6   7
ATOM      7  C   UNL A   1      42.760  24.879  25.569  1.00  0.00     0.023 C 
BRANCH   7   8
ATOM      8  C   UNL A   1      42.560  25.739  26.809  1.00  0.00     0.116 C 
BRANCH   8   9
ATOM      9  N   UNL A   1      41.321  25.487  27.547  1.00  0.00    -0.352 N 
ATOM     10  O   UNL A   1      39.617  25.918  28.983  1.00  0.00    -0.269 OA
ATOM     11  C   UNL A   1      40.634  26.306  28.422  1.00  0.00     0.251 C 
ATOM     12  H   UNL A   1      40.917  24.602  27.396  1.00  0.00     0.163 HD
BRANCH  11  13
ATOM     13  C   UNL A   1      41.188  27.640  28.718  1.00  0.00     0.039 A 
ATOM     14  C   UNL A   1      42.235  27.747  29.625  1.00  0.00     0.014 A 
ATOM     15  C   UNL A   1      40.552  28.781  28.226  1.00  0.00     0.014 A 
ATOM     16  C   UNL A   1      42.425  28.951  30.278  1.00  0.00     0.010 A 
ATOM     17  C   UNL A   1      40.891  30.031  28.753  1.00  0.00     0.010 A 
ATOM     18  C   UNL A   1      41.786  30.119  29.829  1.00  0.00    -0.014 A 
BRANCH  18  19
ATOM     19  C   UNL A   1      42.147  31.412  30.465  1.00  0.00     0.031 A 
ATOM     20  C   UNL A   1      43.250  32.283  29.930  1.00  0.00     0.074 A 
ATOM     21  C   UNL A   1      41.416  31.812  31.524  1.00  0.00     0.049 A 
ATOM     22  N   UNL A   1      43.687  33.430  30.392  1.00  0.00    -0.248 NA
ATOM     23  C   UNL A   1      43.965  31.812  28.736  1.00  0.00     0.031 C 
ATOM     24  C   UNL A   1      40.319  31.047  32.128  1.00  0.00     0.029 A 
ATOM     25  N   UNL A   1      41.459  32.960  32.269  1.00  0.00    -0.354 N 
ATOM     26  C   UNL A   1      44.733  33.807  29.560  1.00  0.00     0.074 A 
ATOM     27  C   UNL A   1      44.892  32.750  28.583  1.00  0.00     0.031 C 
ATOM     28  C   UNL A   1      39.752  31.771  33.097  1.00  0.00     0.029 A 
ATOM     29  C   UNL A   1      40.517  32.996  33.267  1.00  0.00     0.049 A 
ATOM     30  H   UNL A   1      42.102  33.689  32.105  1.00  0.00     0.167 HD
ATOM     31  C   UNL A   1      45.485  34.936  29.607  1.00  0.00     0.037 A 
ATOM     32  C   UNL A   1      40.315  33.891  34.249  1.00  0.00     0.037 A 
ATOM     33  C   UNL A   1      45.315  35.977  30.592  1.00  0.00     0.049 A 
ATOM     34  C   UNL A   1      41.212  35.090  34.317  1.00  0.00     0.074 A 
ATOM     35  C   UNL A   1      46.017  37.163  30.724  1.00  0.00     0.029 A 
ATOM     36  N   UNL A   1      44.381  35.953  31.619  1.00  0.00    -0.354 N 
ATOM     37  N   UNL A   1      42.186  35.442  33.514  1.00  0.00    -0.248 NA
ATOM     38  C   UNL A   1      40.985  36.015  35.432  1.00  0.00     0.031 C 
ATOM     39  C   UNL A   1      45.554  37.823  31.867  1.00  0.00     0.029 A 
ATOM     40  C   UNL A   1      44.509  37.090  32.404  1.00  0.00     0.049 A 
ATOM     41  H   UNL A   1      43.724  35.235  31.769  1.00  0.00     0.167 HD
ATOM     42  C   UNL A   1      42.669  36.645  34.008  1.00  0.00     0.074 A 
ATOM     43  C   UNL A   1      41.860  36.971  35.165  1.00  0.00     0.031 C 
ATOM     44  C   UNL A   1      43.691  37.406  33.548  1.00  0.00     0.037 A 
BRANCH  31  45
ATOM     45  C   UNL A   1      46.575  35.100  28.583  1.00  0.00     0.064 A 
ATOM     46  C   UNL A   1      46.389  35.865  27.420  1.00  0.00     0.173 A 
ATOM     47  C   UNL A   1      47.841  34.532  28.790  1.00  0.00     0.173 A 
ATOM     48  F   UNL A   1      45.198  36.429  27.165  1.00  0.00    -0.203 F 
ATOM     49  C   UNL A   1      47.417  36.026  26.493  1.00  0.00     0.198 A 
ATOM     50  C   UNL A   1      48.878  34.726  27.881  1.00  0.00     0.198 A 
ATOM     51  F   UNL A   1      48.083  33.800  29.890  1.00  0.00    -0.203 F 
ATOM     52  F   UNL A   1      47.197  36.719  25.366  1.00  0.00    -0.200 F 
ATOM     53  C   UNL A   1      48.662  35.464  26.728  1.00  0.00     0.200 A 
ATOM     54  F   UNL A   1      50.086  34.197  28.120  1.00  0.00    -0.200 F 
ATOM     55  F   UNL A   1      49.652  35.630  25.840  1.00  0.00    -0.200 F 
ENDBRANCH  31  45
BRANCH  32  56
ATOM     56  C   UNL A   1      39.250  33.660  35.259  1.00  0.00     0.064 A 
ATOM     57  C   UNL A   1      37.913  33.970  34.984  1.00  0.00     0.173 A 
ATOM     58  C   UNL A   1      39.550  33.134  36.527  1.00  0.00     0.173 A 
ATOM     59  F   UNL A   1      37.576  34.481  33.790  1.00  0.00    -0.203 F 
ATOM     60  C   UNL A   1      36.923  33.803  35.949  1.00  0.00     0.198 A 
ATOM     61  C   UNL A   1      38.553  32.925  37.474  1.00  0.00     0.198 A 
ATOM     62  F   UNL A   1      40.812  32.805  36.838  1.00  0.00    -0.203 F 
ATOM     63  F   UNL A   1      35.663  34.172  35.682  1.00  0.00    -0.200 F 
ATOM     64  C   UNL A   1      37.243  33.276  37.192  1.00  0.00     0.200 A 
ATOM     65  F   UNL A   1      38.864  32.389  38.662  1.00  0.00    -0.200 F 
ATOM     66  F   UNL A   1      36.289  33.115  38.119  1.00  0.00    -0.200 F 
ENDBRANCH  32  56
BRANCH  44  67
ATOM     67  C   UNL A   1      43.953  38.698  34.269  1.00  0.00     0.064 A 
ATOM     68  C   UNL A   1      43.432  39.921  33.818  1.00  0.00     0.173 A 
ATOM     69  C   UNL A   1      44.732  38.708  35.437  1.00  0.00     0.173 A 
ATOM     70  F   UNL A   1      42.698  39.970  32.696  1.00  0.00    -0.203 F 
ATOM     71  C   UNL A   1      43.714  41.109  34.486  1.00  0.00     0.198 A 
ATOM     72  C   UNL A   1      44.976  39.893  36.126  1.00  0.00     0.198 A 
ATOM     73  F   UNL A   1      45.250  37.568  35.916  1.00  0.00    -0.203 F 
ATOM     74  F   UNL A   1      43.266  42.273  33.995  1.00  0.00    -0.200 F 
ATOM     75  C   UNL A   1      44.478  41.093  35.643  1.00  0.00     0.200 A 
ATOM     76  F   UNL A   1      45.698  39.872  37.254  1.00  0.00    -0.200 F 
ATOM     77  F   UNL A   1      44.744  42.237  36.288  1.00  0.00    -0.200 F 
ENDBRANCH  44  67
ENDBRANCH  18  19
ENDBRANCH  11  13
ENDBRANCH   8   9
ENDBRANCH   7   8
ENDBRANCH   6   7
ENDBRANCH   5   6
ENDBRANCH   1   5
BRANCH   2  78
ATOM     78  C   UNL A   1      41.065  20.962  26.163  1.00  0.00     0.197 C 
BRANCH  78  79
ATOM     79  N   UNL A   1      39.667  20.252  25.347  1.00  0.00    -0.340 N 
ATOM     80  C   UNL A   1      37.713  20.358  25.162  1.00  0.00     0.244 C 
ATOM     81  H   UNL A   1      39.991  19.528  24.764  1.00  0.00     0.164 HD
ATOM     82  O   UNL A   1      36.841  19.437  24.956  1.00  0.00    -0.273 OA
BRANCH  80  83
ATOM     83  C   UNL A   1      36.670  21.825  25.079  1.00  0.00     0.181 C 
BRANCH  83  84
ATOM     84  N   UNL A   1      36.081  21.920  26.435  1.00  0.00    -0.342 N 
ATOM     85  C   UNL A   1      34.830  22.351  26.769  1.00  0.00     0.243 C 
ATOM     86  H   UNL A   1      36.659  21.642  27.181  1.00  0.00     0.164 HD
ATOM     87  O   UNL A   1      34.455  22.227  27.937  1.00  0.00    -0.273 OA
BRANCH  85  88
ATOM     88  C   UNL A   1      33.903  22.999  25.717  1.00  0.00     0.176 C 
BRANCH  88  89
ATOM     89  N   UNL A   1      32.479  22.713  25.955  1.00  0.00    -0.340 N 
ATOM     90  C   UNL A   1      31.687  21.693  25.495  1.00  0.00     0.251 C 
ATOM     91  H   UNL A   1      32.020  23.359  26.541  1.00  0.00     0.164 HD
ATOM     92  O   UNL A   1      30.467  21.810  25.589  1.00  0.00    -0.269 OA
BRANCH  90  93
ATOM     93  C   UNL A   1      32.253  20.481  24.858  1.00  0.00     0.040 A 
ATOM     94  C   UNL A   1      32.137  20.349  23.466  1.00  0.00     0.017 A 
ATOM     95  C   UNL A   1      32.816  19.442  25.609  1.00  0.00     0.017 A 
ATOM     96  C   UNL A   1      32.642  19.215  22.826  1.00  0.00     0.040 A 
ATOM     97  C   UNL A   1      33.341  18.320  24.963  1.00  0.00     0.040 A 
ATOM     98  C   UNL A   1      33.253  18.220  23.578  1.00  0.00     0.123 A 
ATOM     99  F   UNL A   1      33.754  17.142  22.962  1.00  0.00    -0.207 F 
ENDBRANCH  90  93
ENDBRANCH  88  89
BRANCH  88 100
ATOM    100  C   UNL A   1      34.151  24.493  25.429  1.00  0.00     0.070 C 
BRANCH 100 101
ATOM    101  C   UNL A   1      33.097  25.298  24.698  1.00  0.00    -0.045 A 
ATOM    102  C   UNL A   1      32.333  26.804  25.425  1.00  0.00     0.004 A 
ATOM    103  C   UNL A   1      32.814  24.884  22.946  1.00  0.00     0.004 A 
ATOM    104  C   UNL A   1      31.447  27.967  24.308  1.00  0.00     0.000 A 
ATOM    105  C   UNL A   1      31.806  25.961  21.882  1.00  0.00     0.000 A 
ATOM    106  C   UNL A   1      31.151  27.514  22.565  1.00  0.00     0.000 A 
ENDBRANCH 100 101
ENDBRANCH  88 100
ENDBRANCH  85  88
ENDBRANCH  83  84
BRANCH  83 107
ATOM    107  C   UNL A   1      37.450  23.110  24.739  1.00  0.00     0.101 C 
BRANCH 107 108
ATOM    108  S   UNL A   1      38.241  23.864  26.223  1.00  0.00    -0.177 SA
ATOM    109  H   UNL A   1      37.763  23.263  27.346  1.00  0.00     0.102 HD
ENDBRANCH 107 108
ENDBRANCH  83 107
ENDBRANCH  80  83
ENDBRANCH  78  79
BRANCH  78 110
ATOM    110  C   UNL A   1      40.949  20.871  27.749  1.00  0.00     0.191 C 
BRANCH 110 111
ATOM    111  O   UNL A   1      40.879  19.583  28.353  1.00  0.00    -0.394 OA
ATOM    112  H   UNL A   1      40.439  19.655  29.215  1.00  0.00     0.210 HD
ENDBRANCH 110 111
ENDBRANCH  78 110
ENDBRANCH   2  78
TORSDOF 23
ENDMDL
