MODEL 1
REMARK VINA RESULT:     -15.6      0.000      0.000
REMARK SMILES Cc1c(C(=O)NCCCCNC(=O)c2ccc(-c3c4nc(c(-c5c(F)c(F)c(F)c(F)c5F)c5ccc([nH]5)c(-c5c(F)c(F)c(F)c(F)c5F)c5nc(c(-c6c(F)c(F)c(F)c(F)c6F)c6ccc3[nH]6)C=C5)C=C4)cc2)cccc1-n1c(C)cc(/C=C2/C(=O)NC(=S)N=C2O)c1C
REMARK SMILES IDX 8 1 7 2 6 3 4 4 5 5 3 7 1 8 2 9 80 10 77 11 79 12 78 13
REMARK SMILES IDX 81 14 82 15 96 16 83 17 84 18 85 19 97 20 86 21 87 22 88 23
REMARK SMILES IDX 94 24 89 25 90 26 93 27 91 28 92 30 95 31 9 33 10 34 11 35
REMARK SMILES IDX 12 36 13 38 14 39 15 40 76 41 16 42 75 43 17 44 18 45 19 46
REMARK SMILES IDX 69 47 20 48 74 49 68 50 70 51 21 52 73 53 67 54 66 55 22 57
REMARK SMILES IDX 54 58 34 59 53 60 35 61 38 62 52 63 71 64 36 65 37 66 51 68
REMARK SMILES IDX 72 69 39 70 23 71 24 72 32 73 25 74 26 75 30 76 33 77 27 78
REMARK SMILES IDX 28 79 31 80 29 81 55 82 56 83 64 84 57 85 58 86 62 87 65 88
REMARK SMILES IDX 59 89 60 90 63 91 61 92 40 93 41 94 49 95 42 96 43 97 47 98
REMARK SMILES IDX 50 99 44 100 45 101 48 102 46 103
REMARK H PARENT 6 6 90 29 95 32 11 37 70 56 38 67
REMARK Flexibility Score: inf
ROOT
ATOM      1  C   UNL A   1      32.088  30.974  26.302  1.00  0.00     0.023 C 
ENDROOT
BRANCH   1   2
ATOM      2  C   UNL A   1      31.143  30.109  25.441  1.00  0.00     0.116 C 
BRANCH   2   3
ATOM      3  N   UNL A   1      31.734  29.783  24.160  1.00  0.00    -0.352 N 
ATOM      4  C   UNL A   1      32.396  28.737  23.580  1.00  0.00     0.251 C 
ATOM      5  O   UNL A   1      32.646  28.945  22.383  1.00  0.00    -0.269 OA
ATOM      6  H   UNL A   1      31.628  30.528  23.524  1.00  0.00     0.163 HD
BRANCH   4   7
ATOM      7  C   UNL A   1      32.834  27.410  24.162  1.00  0.00     0.044 A 
ATOM      8  C   UNL A   1      31.285  25.750  22.956  1.00  0.00     0.047 C 
ATOM      9  C   UNL A   1      32.365  26.096  23.929  1.00  0.00    -0.014 A 
ATOM     10  C   UNL A   1      32.890  25.037  24.725  1.00  0.00     0.049 A 
ATOM     11  C   UNL A   1      33.788  27.575  25.206  1.00  0.00     0.014 A 
ATOM     12  C   UNL A   1      33.811  25.240  25.753  1.00  0.00     0.027 A 
ATOM     13  C   UNL A   1      34.262  26.522  25.994  1.00  0.00     0.003 A 
BRANCH  10  14
ATOM     14  N   UNL A   1      32.367  23.726  24.606  1.00  0.00    -0.318 N 
ATOM     15  C   UNL A   1      31.373  23.189  25.401  1.00  0.00     0.020 A 
ATOM     16  C   UNL A   1      32.957  22.710  23.856  1.00  0.00     0.027 A 
ATOM     17  C   UNL A   1      30.704  23.934  26.503  1.00  0.00     0.065 C 
ATOM     18  C   UNL A   1      31.192  21.882  24.996  1.00  0.00     0.031 A 
ATOM     19  C   UNL A   1      32.171  21.579  24.011  1.00  0.00    -0.003 A 
ATOM     20  C   UNL A   1      34.252  22.942  23.141  1.00  0.00     0.065 C 
BRANCH  19  21
ATOM     21  C   UNL A   1      32.365  20.260  23.497  1.00  0.00     0.029 C 
ATOM     22  C   UNL A   1      32.653  19.086  24.089  1.00  0.00     0.102 C 
ATOM     23  C   UNL A   1      32.622  17.891  23.204  1.00  0.00     0.262 C 
ATOM     24  C   UNL A   1      32.921  18.765  25.491  1.00  0.00     0.226 C 
ATOM     25  O   UNL A   1      32.639  17.933  21.980  1.00  0.00    -0.269 OA
ATOM     26  N   UNL A   1      32.529  16.703  23.880  1.00  0.00    -0.297 N 
ATOM     27  N   UNL A   1      32.869  17.606  26.037  1.00  0.00    -0.184 NA
ATOM     28  C   UNL A   1      32.568  16.533  25.242  1.00  0.00     0.203 C 
ATOM     29  H   UNL A   1      32.424  15.891  23.334  1.00  0.00     0.172 HD
ATOM     30  S   UNL A   1      32.299  14.990  25.838  1.00  0.00    -0.038 S 
BRANCH  24  31
ATOM     31  O   UNL A   1      33.324  19.772  26.267  1.00  0.00    -0.493 OA
ATOM     32  H   UNL A   1      32.818  20.558  26.316  1.00  0.00     0.295 HD
ENDBRANCH  24  31
ENDBRANCH  19  21
ENDBRANCH  10  14
ENDBRANCH   4   7
ENDBRANCH   2   3
ENDBRANCH   1   2
BRANCH   1  33
ATOM     33  C   UNL A   1      32.825  30.243  27.422  1.00  0.00     0.023 C 
BRANCH  33  34
ATOM     34  C   UNL A   1      34.317  30.518  27.413  1.00  0.00     0.116 C 
BRANCH  34  35
ATOM     35  N   UNL A   1      34.832  31.322  28.511  1.00  0.00    -0.352 N 
ATOM     36  C   UNL A   1      35.811  30.994  29.444  1.00  0.00     0.251 C 
ATOM     37  H   UNL A   1      34.435  32.218  28.606  1.00  0.00     0.163 HD
ATOM     38  O   UNL A   1      36.039  31.738  30.381  1.00  0.00    -0.269 OA
BRANCH  36  39
ATOM     39  C   UNL A   1      36.676  29.803  29.212  1.00  0.00     0.039 A 
ATOM     40  C   UNL A   1      37.021  29.009  30.313  1.00  0.00     0.014 A 
ATOM     41  C   UNL A   1      37.315  29.600  27.995  1.00  0.00     0.014 A 
ATOM     42  C   UNL A   1      38.173  28.224  30.258  1.00  0.00     0.010 A 
ATOM     43  C   UNL A   1      38.532  28.952  27.983  1.00  0.00     0.010 A 
ATOM     44  C   UNL A   1      38.992  28.309  29.134  1.00  0.00    -0.014 A 
BRANCH  44  45
ATOM     45  C   UNL A   1      40.360  27.807  29.071  1.00  0.00     0.031 A 
ATOM     46  C   UNL A   1      40.606  26.398  28.698  1.00  0.00     0.074 A 
ATOM     47  C   UNL A   1      41.392  28.664  29.234  1.00  0.00     0.049 A 
ATOM     48  N   UNL A   1      41.717  25.772  28.886  1.00  0.00    -0.248 NA
ATOM     49  C   UNL A   1      39.575  25.563  28.092  1.00  0.00     0.031 C 
ATOM     50  C   UNL A   1      42.806  28.420  28.960  1.00  0.00     0.029 A 
ATOM     51  N   UNL A   1      41.380  29.895  29.911  1.00  0.00    -0.354 N 
ATOM     52  C   UNL A   1      41.637  24.552  28.252  1.00  0.00     0.074 A 
ATOM     53  C   UNL A   1      40.274  24.467  27.785  1.00  0.00     0.031 C 
ATOM     54  C   UNL A   1      43.539  29.245  29.727  1.00  0.00     0.029 A 
ATOM     55  C   UNL A   1      42.618  29.943  30.604  1.00  0.00     0.049 A 
ATOM     56  H   UNL A   1      40.669  30.576  29.906  1.00  0.00     0.167 HD
ATOM     57  C   UNL A   1      42.764  23.793  28.128  1.00  0.00     0.037 A 
ATOM     58  C   UNL A   1      42.638  29.899  31.969  1.00  0.00     0.037 A 
ATOM     59  C   UNL A   1      43.877  24.384  28.868  1.00  0.00     0.049 A 
ATOM     60  C   UNL A   1      43.318  28.674  32.547  1.00  0.00     0.074 A 
ATOM     61  C   UNL A   1      44.934  25.214  28.534  1.00  0.00     0.029 A 
ATOM     62  N   UNL A   1      43.808  24.390  30.249  1.00  0.00    -0.354 N 
ATOM     63  N   UNL A   1      43.772  27.678  31.836  1.00  0.00    -0.248 NA
ATOM     64  C   UNL A   1      43.450  28.436  33.985  1.00  0.00     0.031 C 
ATOM     65  C   UNL A   1      45.456  25.771  29.740  1.00  0.00     0.029 A 
ATOM     66  C   UNL A   1      44.723  25.265  30.799  1.00  0.00     0.049 A 
ATOM     67  H   UNL A   1      43.185  23.838  30.775  1.00  0.00     0.167 HD
ATOM     68  C   UNL A   1      44.209  26.689  32.673  1.00  0.00     0.074 A 
ATOM     69  C   UNL A   1      43.986  27.204  34.010  1.00  0.00     0.031 C 
ATOM     70  C   UNL A   1      44.698  25.498  32.230  1.00  0.00     0.037 A 
BRANCH  57  71
ATOM     71  C   UNL A   1      42.916  22.615  27.193  1.00  0.00     0.064 A 
ATOM     72  C   UNL A   1      42.168  21.436  27.405  1.00  0.00     0.173 A 
ATOM     73  C   UNL A   1      43.804  22.556  26.103  1.00  0.00     0.173 A 
ATOM     74  F   UNL A   1      41.217  21.372  28.347  1.00  0.00    -0.203 F 
ATOM     75  C   UNL A   1      42.371  20.270  26.658  1.00  0.00     0.198 A 
ATOM     76  C   UNL A   1      44.054  21.374  25.397  1.00  0.00     0.198 A 
ATOM     77  F   UNL A   1      44.409  23.651  25.632  1.00  0.00    -0.203 F 
ATOM     78  F   UNL A   1      41.626  19.185  26.905  1.00  0.00    -0.200 F 
ATOM     79  C   UNL A   1      43.342  20.228  25.680  1.00  0.00     0.200 A 
ATOM     80  F   UNL A   1      44.985  21.361  24.433  1.00  0.00    -0.200 F 
ATOM     81  F   UNL A   1      43.570  19.099  24.995  1.00  0.00    -0.200 F 
ENDBRANCH  57  71
BRANCH  58  82
ATOM     82  C   UNL A   1      41.474  30.606  32.573  1.00  0.00     0.064 A 
ATOM     83  C   UNL A   1      41.428  32.011  32.475  1.00  0.00     0.173 A 
ATOM     84  C   UNL A   1      40.280  29.939  32.865  1.00  0.00     0.173 A 
ATOM     85  F   UNL A   1      42.547  32.703  32.201  1.00  0.00    -0.203 F 
ATOM     86  C   UNL A   1      40.219  32.701  32.515  1.00  0.00     0.198 A 
ATOM     87  C   UNL A   1      39.073  30.639  32.937  1.00  0.00     0.198 A 
ATOM     88  F   UNL A   1      40.250  28.602  32.955  1.00  0.00    -0.203 F 
ATOM     89  F   UNL A   1      40.193  34.019  32.270  1.00  0.00    -0.200 F 
ATOM     90  C   UNL A   1      39.038  32.008  32.715  1.00  0.00     0.200 A 
ATOM     91  F   UNL A   1      37.927  29.965  33.111  1.00  0.00    -0.200 F 
ATOM     92  F   UNL A   1      37.864  32.650  32.651  1.00  0.00    -0.200 F 
ENDBRANCH  58  82
BRANCH  70  93
ATOM     93  C   UNL A   1      45.209  24.454  33.165  1.00  0.00     0.064 A 
ATOM     94  C   UNL A   1      46.539  24.462  33.612  1.00  0.00     0.173 A 
ATOM     95  C   UNL A   1      44.416  23.356  33.546  1.00  0.00     0.173 A 
ATOM     96  F   UNL A   1      47.368  25.458  33.267  1.00  0.00    -0.203 F 
ATOM     97  C   UNL A   1      47.040  23.439  34.417  1.00  0.00     0.198 A 
ATOM     98  C   UNL A   1      44.932  22.314  34.312  1.00  0.00     0.198 A 
ATOM     99  F   UNL A   1      43.121  23.284  33.199  1.00  0.00    -0.203 F 
ATOM    100  F   UNL A   1      48.302  23.500  34.861  1.00  0.00    -0.200 F 
ATOM    101  C   UNL A   1      46.241  22.360  34.754  1.00  0.00     0.200 A 
ATOM    102  F   UNL A   1      44.153  21.267  34.621  1.00  0.00    -0.200 F 
ATOM    103  F   UNL A   1      46.730  21.367  35.510  1.00  0.00    -0.200 F 
ENDBRANCH  70  93
ENDBRANCH  44  45
ENDBRANCH  36  39
ENDBRANCH  34  35
ENDBRANCH  33  34
ENDBRANCH   1  33
TORSDOF 14
ENDMDL
MODEL 2
REMARK VINA RESULT:     -15.4      4.062     10.456
REMARK SMILES Cc1c(C(=O)NCCCCNC(=O)c2ccc(-c3c4nc(c(-c5c(F)c(F)c(F)c(F)c5F)c5ccc([nH]5)c(-c5c(F)c(F)c(F)c(F)c5F)c5nc(c(-c6c(F)c(F)c(F)c(F)c6F)c6ccc3[nH]6)C=C5)C=C4)cc2)cccc1-n1c(C)cc(/C=C2/C(=O)NC(=S)N=C2O)c1C
REMARK SMILES IDX 8 1 7 2 6 3 4 4 5 5 3 7 1 8 2 9 80 10 77 11 79 12 78 13
REMARK SMILES IDX 81 14 82 15 96 16 83 17 84 18 85 19 97 20 86 21 87 22 88 23
REMARK SMILES IDX 94 24 89 25 90 26 93 27 91 28 92 30 95 31 9 33 10 34 11 35
REMARK SMILES IDX 12 36 13 38 14 39 15 40 76 41 16 42 75 43 17 44 18 45 19 46
REMARK SMILES IDX 69 47 20 48 74 49 68 50 70 51 21 52 73 53 67 54 66 55 22 57
REMARK SMILES IDX 54 58 34 59 53 60 35 61 38 62 52 63 71 64 36 65 37 66 51 68
REMARK SMILES IDX 72 69 39 70 23 71 24 72 32 73 25 74 26 75 30 76 33 77 27 78
REMARK SMILES IDX 28 79 31 80 29 81 55 82 56 83 64 84 57 85 58 86 62 87 65 88
REMARK SMILES IDX 59 89 60 90 63 91 61 92 40 93 41 94 49 95 42 96 43 97 47 98
REMARK SMILES IDX 50 99 44 100 45 101 48 102 46 103
REMARK H PARENT 6 6 90 29 95 32 11 37 70 56 38 67
REMARK Flexibility Score: inf
ROOT
ATOM      1  C   UNL A   1      37.106  21.568  24.673  1.00  0.00     0.023 C 
ENDROOT
BRANCH   1   2
ATOM      2  C   UNL A   1      36.072  20.424  24.725  1.00  0.00     0.116 C 
BRANCH   2   3
ATOM      3  N   UNL A   1      35.178  20.561  25.856  1.00  0.00    -0.352 N 
ATOM      4  C   UNL A   1      34.341  21.504  26.384  1.00  0.00     0.251 C 
ATOM      5  O   UNL A   1      33.727  21.084  27.377  1.00  0.00    -0.269 OA
ATOM      6  H   UNL A   1      35.171  19.740  26.401  1.00  0.00     0.163 HD
BRANCH   4   7
ATOM      7  C   UNL A   1      34.056  22.923  25.938  1.00  0.00     0.044 A 
ATOM      8  C   UNL A   1      31.765  22.684  24.798  1.00  0.00     0.047 C 
ATOM      9  C   UNL A   1      32.959  23.470  25.234  1.00  0.00    -0.014 A 
ATOM     10  C   UNL A   1      33.021  24.837  24.837  1.00  0.00     0.049 A 
ATOM     11  C   UNL A   1      35.163  23.788  26.175  1.00  0.00     0.014 A 
ATOM     12  C   UNL A   1      34.131  25.650  25.070  1.00  0.00     0.027 A 
ATOM     13  C   UNL A   1      35.210  25.117  25.745  1.00  0.00     0.003 A 
BRANCH  10  14
ATOM     14  N   UNL A   1      31.998  25.395  24.031  1.00  0.00    -0.318 N 
ATOM     15  C   UNL A   1      31.995  25.419  22.650  1.00  0.00     0.020 A 
ATOM     16  C   UNL A   1      30.988  26.229  24.510  1.00  0.00     0.027 A 
ATOM     17  C   UNL A   1      33.084  24.845  21.812  1.00  0.00     0.065 C 
ATOM     18  C   UNL A   1      30.855  26.093  22.259  1.00  0.00     0.031 A 
ATOM     19  C   UNL A   1      30.206  26.587  23.423  1.00  0.00    -0.003 A 
ATOM     20  C   UNL A   1      30.951  26.635  25.950  1.00  0.00     0.065 C 
BRANCH  19  21
ATOM     21  C   UNL A   1      29.081  27.467  23.363  1.00  0.00     0.029 C 
ATOM     22  C   UNL A   1      28.932  28.724  22.907  1.00  0.00     0.102 C 
ATOM     23  C   UNL A   1      27.539  29.242  22.885  1.00  0.00     0.262 C 
ATOM     24  C   UNL A   1      29.910  29.658  22.349  1.00  0.00     0.226 C 
ATOM     25  O   UNL A   1      26.601  28.740  23.492  1.00  0.00    -0.269 OA
ATOM     26  N   UNL A   1      27.367  30.335  22.076  1.00  0.00    -0.297 N 
ATOM     27  N   UNL A   1      29.661  30.701  21.644  1.00  0.00    -0.184 NA
ATOM     28  C   UNL A   1      28.351  31.016  21.404  1.00  0.00     0.203 C 
ATOM     29  H   UNL A   1      26.446  30.663  21.966  1.00  0.00     0.172 HD
ATOM     30  S   UNL A   1      27.874  32.243  20.366  1.00  0.00    -0.038 S 
BRANCH  24  31
ATOM     31  O   UNL A   1      31.189  29.440  22.659  1.00  0.00    -0.493 OA
ATOM     32  H   UNL A   1      31.865  29.912  22.216  1.00  0.00     0.295 HD
ENDBRANCH  24  31
ENDBRANCH  19  21
ENDBRANCH  10  14
ENDBRANCH   4   7
ENDBRANCH   2   3
ENDBRANCH   1   2
BRANCH   1  33
ATOM     33  C   UNL A   1      38.292  21.437  25.626  1.00  0.00     0.023 C 
BRANCH  33  34
ATOM     34  C   UNL A   1      38.822  22.783  26.084  1.00  0.00     0.116 C 
BRANCH  34  35
ATOM     35  N   UNL A   1      40.262  22.882  26.268  1.00  0.00    -0.352 N 
ATOM     36  C   UNL A   1      41.033  24.015  26.509  1.00  0.00     0.251 C 
ATOM     37  H   UNL A   1      40.758  22.032  26.216  1.00  0.00     0.163 HD
ATOM     38  O   UNL A   1      42.248  23.941  26.515  1.00  0.00    -0.269 OA
BRANCH  36  39
ATOM     39  C   UNL A   1      40.363  25.288  26.901  1.00  0.00     0.039 A 
ATOM     40  C   UNL A   1      40.759  26.469  26.263  1.00  0.00     0.014 A 
ATOM     41  C   UNL A   1      39.537  25.355  28.017  1.00  0.00     0.014 A 
ATOM     42  C   UNL A   1      40.554  27.694  26.900  1.00  0.00     0.010 A 
ATOM     43  C   UNL A   1      39.468  26.538  28.722  1.00  0.00     0.010 A 
ATOM     44  C   UNL A   1      40.028  27.701  28.190  1.00  0.00    -0.014 A 
BRANCH  44  45
ATOM     45  C   UNL A   1      40.057  28.852  29.085  1.00  0.00     0.031 A 
ATOM     46  C   UNL A   1      39.020  29.899  28.966  1.00  0.00     0.074 A 
ATOM     47  C   UNL A   1      40.958  28.890  30.092  1.00  0.00     0.049 A 
ATOM     48  N   UNL A   1      39.102  31.076  29.486  1.00  0.00    -0.248 NA
ATOM     49  C   UNL A   1      37.793  29.693  28.207  1.00  0.00     0.031 C 
ATOM     50  C   UNL A   1      40.987  29.807  31.229  1.00  0.00     0.029 A 
ATOM     51  N   UNL A   1      42.189  28.217  30.162  1.00  0.00    -0.354 N 
ATOM     52  C   UNL A   1      37.885  31.701  29.328  1.00  0.00     0.074 A 
ATOM     53  C   UNL A   1      37.109  30.800  28.510  1.00  0.00     0.031 C 
ATOM     54  C   UNL A   1      42.252  29.900  31.672  1.00  0.00     0.029 A 
ATOM     55  C   UNL A   1      43.084  29.149  30.748  1.00  0.00     0.049 A 
ATOM     56  H   UNL A   1      42.388  27.298  29.868  1.00  0.00     0.167 HD
ATOM     57  C   UNL A   1      37.653  32.877  29.980  1.00  0.00     0.037 A 
ATOM     58  C   UNL A   1      44.113  29.664  30.013  1.00  0.00     0.037 A 
ATOM     59  C   UNL A   1      38.865  33.356  30.642  1.00  0.00     0.049 A 
ATOM     60  C   UNL A   1      44.030  31.159  29.779  1.00  0.00     0.074 A 
ATOM     61  C   UNL A   1      39.375  33.257  31.926  1.00  0.00     0.029 A 
ATOM     62  N   UNL A   1      39.912  33.788  29.847  1.00  0.00    -0.354 N 
ATOM     63  N   UNL A   1      43.028  31.909  30.149  1.00  0.00    -0.248 NA
ATOM     64  C   UNL A   1      45.034  31.907  29.019  1.00  0.00     0.031 C 
ATOM     65  C   UNL A   1      40.765  33.572  31.874  1.00  0.00     0.029 A 
ATOM     66  C   UNL A   1      41.088  33.876  30.563  1.00  0.00     0.049 A 
ATOM     67  H   UNL A   1      39.828  34.005  28.891  1.00  0.00     0.167 HD
ATOM     68  C   UNL A   1      43.217  33.178  29.675  1.00  0.00     0.074 A 
ATOM     69  C   UNL A   1      44.483  33.131  28.970  1.00  0.00     0.031 C 
ATOM     70  C   UNL A   1      42.317  34.184  29.857  1.00  0.00     0.037 A 
BRANCH  57  71
ATOM     71  C   UNL A   1      36.293  33.506  30.175  1.00  0.00     0.064 A 
ATOM     72  C   UNL A   1      35.566  33.992  29.065  1.00  0.00     0.173 A 
ATOM     73  C   UNL A   1      35.663  33.705  31.418  1.00  0.00     0.173 A 
ATOM     74  F   UNL A   1      35.993  33.794  27.811  1.00  0.00    -0.203 F 
ATOM     75  C   UNL A   1      34.371  34.706  29.202  1.00  0.00     0.198 A 
ATOM     76  C   UNL A   1      34.502  34.473  31.561  1.00  0.00     0.198 A 
ATOM     77  F   UNL A   1      36.104  33.107  32.529  1.00  0.00    -0.203 F 
ATOM     78  F   UNL A   1      33.726  35.136  28.109  1.00  0.00    -0.200 F 
ATOM     79  C   UNL A   1      33.860  34.980  30.452  1.00  0.00     0.200 A 
ATOM     80  F   UNL A   1      34.008  34.706  32.786  1.00  0.00    -0.200 F 
ATOM     81  F   UNL A   1      32.740  35.703  30.587  1.00  0.00    -0.200 F 
ENDBRANCH  57  71
BRANCH  58  82
ATOM     82  C   UNL A   1      44.673  28.670  29.055  1.00  0.00     0.064 A 
ATOM     83  C   UNL A   1      45.450  27.614  29.574  1.00  0.00     0.173 A 
ATOM     84  C   UNL A   1      44.152  28.516  27.766  1.00  0.00     0.173 A 
ATOM     85  F   UNL A   1      45.979  27.712  30.806  1.00  0.00    -0.203 F 
ATOM     86  C   UNL A   1      45.569  26.403  28.898  1.00  0.00     0.198 A 
ATOM     87  C   UNL A   1      44.302  27.310  27.078  1.00  0.00     0.198 A 
ATOM     88  F   UNL A   1      43.390  29.474  27.220  1.00  0.00    -0.203 F 
ATOM     89  F   UNL A   1      46.189  25.369  29.485  1.00  0.00    -0.200 F 
ATOM     90  C   UNL A   1      44.968  26.242  27.663  1.00  0.00     0.200 A 
ATOM     91  F   UNL A   1      43.702  27.148  25.890  1.00  0.00    -0.200 F 
ATOM     92  F   UNL A   1      44.991  25.048  27.055  1.00  0.00    -0.200 F 
ENDBRANCH  58  82
BRANCH  70  93
ATOM     93  C   UNL A   1      42.569  35.571  29.367  1.00  0.00     0.064 A 
ATOM     94  C   UNL A   1      43.311  36.490  30.124  1.00  0.00     0.173 A 
ATOM     95  C   UNL A   1      41.978  36.051  28.184  1.00  0.00     0.173 A 
ATOM     96  F   UNL A   1      43.881  36.118  31.280  1.00  0.00    -0.203 F 
ATOM     97  C   UNL A   1      43.474  37.810  29.707  1.00  0.00     0.198 A 
ATOM     98  C   UNL A   1      42.104  37.381  27.793  1.00  0.00     0.198 A 
ATOM     99  F   UNL A   1      41.284  35.234  27.376  1.00  0.00    -0.203 F 
ATOM    100  F   UNL A   1      44.224  38.649  30.433  1.00  0.00    -0.200 F 
ATOM    101  C   UNL A   1      42.859  38.258  28.550  1.00  0.00     0.200 A 
ATOM    102  F   UNL A   1      41.493  37.807  26.678  1.00  0.00    -0.200 F 
ATOM    103  F   UNL A   1      42.998  39.533  28.161  1.00  0.00    -0.200 F 
ENDBRANCH  70  93
ENDBRANCH  44  45
ENDBRANCH  36  39
ENDBRANCH  34  35
ENDBRANCH  33  34
ENDBRANCH   1  33
TORSDOF 14
ENDMDL
MODEL 3
REMARK VINA RESULT:     -14.8      1.338      2.276
REMARK SMILES Cc1c(C(=O)NCCCCNC(=O)c2ccc(-c3c4nc(c(-c5c(F)c(F)c(F)c(F)c5F)c5ccc([nH]5)c(-c5c(F)c(F)c(F)c(F)c5F)c5nc(c(-c6c(F)c(F)c(F)c(F)c6F)c6ccc3[nH]6)C=C5)C=C4)cc2)cccc1-n1c(C)cc(/C=C2/C(=O)NC(=S)N=C2O)c1C
REMARK SMILES IDX 8 1 7 2 6 3 4 4 5 5 3 7 1 8 2 9 80 10 77 11 79 12 78 13
REMARK SMILES IDX 81 14 82 15 96 16 83 17 84 18 85 19 97 20 86 21 87 22 88 23
REMARK SMILES IDX 94 24 89 25 90 26 93 27 91 28 92 30 95 31 9 33 10 34 11 35
REMARK SMILES IDX 12 36 13 38 14 39 15 40 76 41 16 42 75 43 17 44 18 45 19 46
REMARK SMILES IDX 69 47 20 48 74 49 68 50 70 51 21 52 73 53 67 54 66 55 22 57
REMARK SMILES IDX 54 58 34 59 53 60 35 61 38 62 52 63 71 64 36 65 37 66 51 68
REMARK SMILES IDX 72 69 39 70 23 71 24 72 32 73 25 74 26 75 30 76 33 77 27 78
REMARK SMILES IDX 28 79 31 80 29 81 55 82 56 83 64 84 57 85 58 86 62 87 65 88
REMARK SMILES IDX 59 89 60 90 63 91 61 92 40 93 41 94 49 95 42 96 43 97 47 98
REMARK SMILES IDX 50 99 44 100 45 101 48 102 46 103
REMARK H PARENT 6 6 90 29 95 32 11 37 70 56 38 67
REMARK Flexibility Score: inf
ROOT
ATOM      1  C   UNL A   1      31.864  29.266  26.869  1.00  0.00     0.023 C 
ENDROOT
BRANCH   1   2
ATOM      2  C   UNL A   1      31.622  30.704  26.362  1.00  0.00     0.116 C 
BRANCH   2   3
ATOM      3  N   UNL A   1      31.078  30.714  25.020  1.00  0.00    -0.352 N 
ATOM      4  C   UNL A   1      30.680  29.810  24.075  1.00  0.00     0.251 C 
ATOM      5  O   UNL A   1      30.208  30.359  23.068  1.00  0.00    -0.269 OA
ATOM      6  H   UNL A   1      30.959  31.637  24.696  1.00  0.00     0.163 HD
BRANCH   4   7
ATOM      7  C   UNL A   1      30.718  28.296  24.089  1.00  0.00     0.044 A 
ATOM      8  C   UNL A   1      33.224  27.811  23.791  1.00  0.00     0.047 C 
ATOM      9  C   UNL A   1      31.798  27.395  23.951  1.00  0.00    -0.014 A 
ATOM     10  C   UNL A   1      31.513  26.000  23.877  1.00  0.00     0.049 A 
ATOM     11  C   UNL A   1      29.410  27.731  24.116  1.00  0.00     0.014 A 
ATOM     12  C   UNL A   1      30.217  25.484  23.889  1.00  0.00     0.027 A 
ATOM     13  C   UNL A   1      29.157  26.361  24.009  1.00  0.00     0.003 A 
BRANCH  10  14
ATOM     14  N   UNL A   1      32.552  25.070  23.624  1.00  0.00    -0.318 N 
ATOM     15  C   UNL A   1      33.036  24.737  22.374  1.00  0.00     0.020 A 
ATOM     16  C   UNL A   1      33.047  24.170  24.566  1.00  0.00     0.027 A 
ATOM     17  C   UNL A   1      32.524  25.326  21.106  1.00  0.00     0.065 C 
ATOM     18  C   UNL A   1      33.999  23.766  22.559  1.00  0.00     0.031 A 
ATOM     19  C   UNL A   1      34.026  23.418  23.937  1.00  0.00    -0.003 A 
ATOM     20  C   UNL A   1      32.456  24.100  25.940  1.00  0.00     0.065 C 
BRANCH  19  21
ATOM     21  C   UNL A   1      34.802  22.329  24.442  1.00  0.00     0.029 C 
ATOM     22  C   UNL A   1      34.522  21.028  24.640  1.00  0.00     0.102 C 
ATOM     23  C   UNL A   1      35.669  20.175  25.049  1.00  0.00     0.262 C 
ATOM     24  C   UNL A   1      33.280  20.279  24.445  1.00  0.00     0.226 C 
ATOM     25  O   UNL A   1      36.733  20.603  25.479  1.00  0.00    -0.269 OA
ATOM     26  N   UNL A   1      35.456  18.834  24.865  1.00  0.00    -0.297 N 
ATOM     27  N   UNL A   1      33.159  19.006  24.341  1.00  0.00    -0.184 NA
ATOM     28  C   UNL A   1      34.289  18.241  24.453  1.00  0.00     0.203 C 
ATOM     29  H   UNL A   1      36.217  18.237  25.044  1.00  0.00     0.172 HD
ATOM     30  S   UNL A   1      34.315  16.590  24.172  1.00  0.00    -0.038 S 
BRANCH  24  31
ATOM     31  O   UNL A   1      32.150  20.988  24.443  1.00  0.00    -0.493 OA
ATOM     32  H   UNL A   1      32.002  21.631  23.779  1.00  0.00     0.295 HD
ENDBRANCH  24  31
ENDBRANCH  19  21
ENDBRANCH  10  14
ENDBRANCH   4   7
ENDBRANCH   2   3
ENDBRANCH   1   2
BRANCH   1  33
ATOM     33  C   UNL A   1      33.259  28.979  27.418  1.00  0.00     0.023 C 
BRANCH  33  34
ATOM     34  C   UNL A   1      34.246  30.090  27.109  1.00  0.00     0.116 C 
BRANCH  34  35
ATOM     35  N   UNL A   1      34.619  30.951  28.221  1.00  0.00    -0.352 N 
ATOM     36  C   UNL A   1      35.605  30.752  29.182  1.00  0.00     0.251 C 
ATOM     37  H   UNL A   1      34.105  31.787  28.303  1.00  0.00     0.163 HD
ATOM     38  O   UNL A   1      35.705  31.516  30.124  1.00  0.00    -0.269 OA
BRANCH  36  39
ATOM     39  C   UNL A   1      36.625  29.685  28.977  1.00  0.00     0.039 A 
ATOM     40  C   UNL A   1      36.992  28.899  30.076  1.00  0.00     0.014 A 
ATOM     41  C   UNL A   1      37.364  29.608  27.802  1.00  0.00     0.014 A 
ATOM     42  C   UNL A   1      38.234  28.263  30.079  1.00  0.00     0.010 A 
ATOM     43  C   UNL A   1      38.650  29.114  27.857  1.00  0.00     0.010 A 
ATOM     44  C   UNL A   1      39.108  28.490  29.018  1.00  0.00    -0.014 A 
BRANCH  44  45
ATOM     45  C   UNL A   1      40.530  28.161  29.037  1.00  0.00     0.031 A 
ATOM     46  C   UNL A   1      40.992  26.879  28.464  1.00  0.00     0.074 A 
ATOM     47  C   UNL A   1      41.420  29.083  29.466  1.00  0.00     0.049 A 
ATOM     48  N   UNL A   1      42.151  26.356  28.677  1.00  0.00    -0.248 NA
ATOM     49  C   UNL A   1      40.144  26.061  27.606  1.00  0.00     0.031 C 
ATOM     50  C   UNL A   1      42.874  29.051  29.328  1.00  0.00     0.029 A 
ATOM     51  N   UNL A   1      41.182  30.161  30.335  1.00  0.00    -0.354 N 
ATOM     52  C   UNL A   1      42.293  25.272  27.841  1.00  0.00     0.074 A 
ATOM     53  C   UNL A   1      41.006  25.123  27.205  1.00  0.00     0.031 C 
ATOM     54  C   UNL A   1      43.414  29.797  30.305  1.00  0.00     0.029 A 
ATOM     55  C   UNL A   1      42.327  30.218  31.171  1.00  0.00     0.049 A 
ATOM     56  H   UNL A   1      40.392  30.748  30.359  1.00  0.00     0.167 HD
ATOM     57  C   UNL A   1      43.517  24.677  27.728  1.00  0.00     0.037 A 
ATOM     58  C   UNL A   1      42.218  29.929  32.501  1.00  0.00     0.037 A 
ATOM     59  C   UNL A   1      44.464  25.241  28.686  1.00  0.00     0.049 A 
ATOM     60  C   UNL A   1      42.990  28.701  32.941  1.00  0.00     0.074 A 
ATOM     61  C   UNL A   1      45.432  26.230  28.627  1.00  0.00     0.029 A 
ATOM     62  N   UNL A   1      44.258  24.988  30.030  1.00  0.00    -0.354 N 
ATOM     63  N   UNL A   1      43.637  27.907  32.133  1.00  0.00    -0.248 NA
ATOM     64  C   UNL A   1      43.008  28.221  34.324  1.00  0.00     0.031 C 
ATOM     65  C   UNL A   1      45.755  26.612  29.963  1.00  0.00     0.029 A 
ATOM     66  C   UNL A   1      44.993  25.843  30.826  1.00  0.00     0.049 A 
ATOM     67  H   UNL A   1      43.663  24.285  30.376  1.00  0.00     0.167 HD
ATOM     68  C   UNL A   1      44.114  26.837  32.837  1.00  0.00     0.074 A 
ATOM     69  C   UNL A   1      43.694  27.072  34.205  1.00  0.00     0.031 C 
ATOM     70  C   UNL A   1      44.795  25.808  32.262  1.00  0.00     0.037 A 
BRANCH  57  71
ATOM     71  C   UNL A   1      43.913  23.712  26.633  1.00  0.00     0.064 A 
ATOM     72  C   UNL A   1      43.399  22.396  26.622  1.00  0.00     0.173 A 
ATOM     73  C   UNL A   1      44.820  23.994  25.595  1.00  0.00     0.173 A 
ATOM     74  F   UNL A   1      42.456  22.008  27.491  1.00  0.00    -0.203 F 
ATOM     75  C   UNL A   1      43.838  21.424  25.717  1.00  0.00     0.198 A 
ATOM     76  C   UNL A   1      45.308  23.008  24.730  1.00  0.00     0.198 A 
ATOM     77  F   UNL A   1      45.215  25.244  25.331  1.00  0.00    -0.203 F 
ATOM     78  F   UNL A   1      43.308  20.195  25.755  1.00  0.00    -0.200 F 
ATOM     79  C   UNL A   1      44.821  21.719  24.797  1.00  0.00     0.200 A 
ATOM     80  F   UNL A   1      46.246  23.323  23.826  1.00  0.00    -0.200 F 
ATOM     81  F   UNL A   1      45.277  20.778  23.960  1.00  0.00    -0.200 F 
ENDBRANCH  57  71
BRANCH  58  82
ATOM     82  C   UNL A   1      40.917  30.381  33.070  1.00  0.00     0.064 A 
ATOM     83  C   UNL A   1      40.665  31.766  33.130  1.00  0.00     0.173 A 
ATOM     84  C   UNL A   1      39.820  29.519  33.171  1.00  0.00     0.173 A 
ATOM     85  F   UNL A   1      41.684  32.639  33.042  1.00  0.00    -0.203 F 
ATOM     86  C   UNL A   1      39.366  32.267  33.135  1.00  0.00     0.198 A 
ATOM     87  C   UNL A   1      38.518  30.026  33.209  1.00  0.00     0.198 A 
ATOM     88  F   UNL A   1      39.986  28.191  33.105  1.00  0.00    -0.203 F 
ATOM     89  F   UNL A   1      39.158  33.588  33.041  1.00  0.00    -0.200 F 
ATOM     90  C   UNL A   1      38.293  31.394  33.143  1.00  0.00     0.200 A 
ATOM     91  F   UNL A   1      37.479  29.180  33.197  1.00  0.00    -0.200 F 
ATOM     92  F   UNL A   1      37.042  31.866  33.043  1.00  0.00    -0.200 F 
ENDBRANCH  58  82
BRANCH  70  93
ATOM     93  C   UNL A   1      45.342  24.674  33.063  1.00  0.00     0.064 A 
ATOM     94  C   UNL A   1      44.560  23.549  33.365  1.00  0.00     0.173 A 
ATOM     95  C   UNL A   1      46.621  24.735  33.645  1.00  0.00     0.173 A 
ATOM     96  F   UNL A   1      43.318  23.430  32.873  1.00  0.00    -0.203 F 
ATOM     97  C   UNL A   1      45.043  22.529  34.185  1.00  0.00     0.198 A 
ATOM     98  C   UNL A   1      47.083  23.738  34.500  1.00  0.00     0.198 A 
ATOM     99  F   UNL A   1      47.454  25.754  33.379  1.00  0.00    -0.203 F 
ATOM    100  F   UNL A   1      44.285  21.449  34.418  1.00  0.00    -0.200 F 
ATOM    101  C   UNL A   1      46.296  22.631  34.762  1.00  0.00     0.200 A 
ATOM    102  F   UNL A   1      48.293  23.853  35.064  1.00  0.00    -0.200 F 
ATOM    103  F   UNL A   1      46.751  21.660  35.567  1.00  0.00    -0.200 F 
ENDBRANCH  70  93
ENDBRANCH  44  45
ENDBRANCH  36  39
ENDBRANCH  34  35
ENDBRANCH  33  34
ENDBRANCH   1  33
TORSDOF 14
ENDMDL
