MODEL 1
REMARK VINA RESULT:     -12.0      0.000      0.000
REMARK SMILES Cc1nnc(SCC[C@H]2CCC[C@]2([NH3+])C(=O)NCCCCNC(=O)c2ccc(-c3c4nc(c(-c5c(F)c(F)c(F)c(F)c5F)c5ccc([nH]5)c(-c5c(F)c(F)c(F)c(F)c5F)c5nc(c(-c6c(F)c(F)c(F)c(F)c6F)c6ccc3[nH]6)C=C5)C=C4)cc2)o1
REMARK SMILES IDX 18 1 17 2 15 3 16 4 13 6 9 7 10 8 11 9 12 10 8 11 7 12 6 13
REMARK SMILES IDX 5 14 1 15 2 16 3 17 88 18 4 19 14 20 19 24 20 25 21 26 22 27
REMARK SMILES IDX 23 28 24 30 25 31 26 32 87 33 27 34 86 35 28 36 29 37 30 38
REMARK SMILES IDX 80 39 31 40 85 41 79 42 81 43 32 44 84 45 78 46 77 47 33 49
REMARK SMILES IDX 65 50 45 51 64 52 46 53 49 54 63 55 82 56 47 57 48 58 62 60
REMARK SMILES IDX 83 61 50 62 34 63 35 64 43 65 36 66 37 67 41 68 44 69 38 70
REMARK SMILES IDX 39 71 42 72 40 73 66 74 67 75 75 76 68 77 69 78 73 79 76 80
REMARK SMILES IDX 70 81 71 82 74 83 72 84 51 85 52 86 60 87 53 88 54 89 58 90
REMARK SMILES IDX 61 91 55 92 56 93 59 94 57 95
REMARK H PARENT 17 5 14 21 14 22 14 23 22 29 81 48 49 59
REMARK Flexibility Score: inf
ROOT
ATOM      1  C   UNL A   1      31.739  30.042  25.237  1.00  0.00     0.116 C 
ENDROOT
BRANCH   1   2
ATOM      2  N   UNL A   1      32.972  29.672  24.570  1.00  0.00    -0.351 N 
ATOM      3  C   UNL A   1      33.279  28.660  23.704  1.00  0.00     0.281 C 
ATOM      4  O   UNL A   1      34.336  28.809  23.073  1.00  0.00    -0.268 OA
ATOM      5  H   UNL A   1      33.731  30.263  24.779  1.00  0.00     0.163 HD
BRANCH   3   6
ATOM      6  C   UNL A   1      32.346  27.424  23.399  1.00  0.00     0.176 C 
ATOM      7  C   UNL A   1      30.942  27.499  24.036  1.00  0.00     0.061 C 
ATOM      8  C   UNL A   1      31.024  26.550  25.266  1.00  0.00     0.011 C 
ATOM      9  C   UNL A   1      32.458  26.040  25.362  1.00  0.00     0.008 C 
ATOM     10  C   UNL A   1      32.955  26.116  23.944  1.00  0.00     0.079 C 
BRANCH   7  11
ATOM     11  C   UNL A   1      29.728  27.193  23.098  1.00  0.00     0.022 C 
BRANCH  11  12
ATOM     12  C   UNL A   1      28.271  27.108  23.674  1.00  0.00     0.080 C 
BRANCH  12  13
ATOM     13  S   UNL A   1      27.037  28.456  23.443  1.00  0.00    -0.065 SA
BRANCH  13  14
ATOM     14  C   UNL A   1      27.892  29.794  22.706  1.00  0.00     0.276 A 
ATOM     15  C   UNL A   1      28.818  33.190  22.839  1.00  0.00     0.113 C 
ATOM     16  C   UNL A   1      28.689  31.766  22.455  1.00  0.00     0.214 A 
ATOM     17  N   UNL A   1      28.758  31.191  21.273  1.00  0.00    -0.112 NA
ATOM     18  O   UNL A   1      28.297  30.895  23.432  1.00  0.00    -0.416 OA
ATOM     19  N   UNL A   1      28.251  29.901  21.441  1.00  0.00    -0.101 NA
ENDBRANCH  13  14
ENDBRANCH  12  13
ENDBRANCH  11  12
ENDBRANCH   7  11
BRANCH   6  20
ATOM     20  N   UNL A   1      32.352  27.203  21.962  1.00  0.00    -0.345 N 
ATOM     21  H   UNL A   1      32.767  28.009  21.495  1.00  0.00     0.345 HD
ATOM     22  H   UNL A   1      31.394  27.076  21.634  1.00  0.00     0.345 HD
ATOM     23  H   UNL A   1      32.898  26.367  21.748  1.00  0.00     0.345 HD
ENDBRANCH   6  20
ENDBRANCH   3   6
ENDBRANCH   1   2
BRANCH   1  24
ATOM     24  C   UNL A   1      31.903  30.493  26.686  1.00  0.00     0.023 C 
BRANCH  24  25
ATOM     25  C   UNL A   1      31.607  31.979  26.893  1.00  0.00     0.023 C 
BRANCH  25  26
ATOM     26  C   UNL A   1      32.803  32.840  27.309  1.00  0.00     0.116 C 
BRANCH  26  27
ATOM     27  N   UNL A   1      32.444  34.201  27.680  1.00  0.00    -0.352 N 
ATOM     28  C   UNL A   1      32.999  35.014  28.639  1.00  0.00     0.251 C 
ATOM     29  H   UNL A   1      31.699  34.595  27.170  1.00  0.00     0.163 HD
ATOM     30  O   UNL A   1      32.495  36.107  28.899  1.00  0.00    -0.269 OA
BRANCH  28  31
ATOM     31  C   UNL A   1      34.183  34.556  29.398  1.00  0.00     0.039 A 
ATOM     32  C   UNL A   1      34.000  33.988  30.661  1.00  0.00     0.014 A 
ATOM     33  C   UNL A   1      35.468  34.656  28.856  1.00  0.00     0.014 A 
ATOM     34  C   UNL A   1      35.090  33.438  31.338  1.00  0.00     0.010 A 
ATOM     35  C   UNL A   1      36.538  34.034  29.494  1.00  0.00     0.010 A 
ATOM     36  C   UNL A   1      36.361  33.411  30.740  1.00  0.00    -0.014 A 
BRANCH  36  37
ATOM     37  C   UNL A   1      37.510  32.730  31.396  1.00  0.00     0.031 A 
ATOM     38  C   UNL A   1      38.195  31.576  30.716  1.00  0.00     0.074 A 
ATOM     39  C   UNL A   1      37.904  33.115  32.626  1.00  0.00     0.049 A 
ATOM     40  N   UNL A   1      39.166  30.813  31.154  1.00  0.00    -0.248 NA
ATOM     41  C   UNL A   1      37.713  31.218  29.372  1.00  0.00     0.031 C 
ATOM     42  C   UNL A   1      37.302  34.195  33.409  1.00  0.00     0.029 A 
ATOM     43  N   UNL A   1      38.903  32.636  33.439  1.00  0.00    -0.354 N 
ATOM     44  C   UNL A   1      39.408  29.891  30.144  1.00  0.00     0.074 A 
ATOM     45  C   UNL A   1      38.441  30.145  29.099  1.00  0.00     0.031 C 
ATOM     46  C   UNL A   1      37.957  34.313  34.576  1.00  0.00     0.029 A 
ATOM     47  C   UNL A   1      38.996  33.291  34.644  1.00  0.00     0.049 A 
ATOM     48  H   UNL A   1      39.497  31.894  33.183  1.00  0.00     0.167 HD
ATOM     49  C   UNL A   1      40.371  28.942  30.078  1.00  0.00     0.037 A 
ATOM     50  C   UNL A   1      39.819  33.082  35.691  1.00  0.00     0.037 A 
ATOM     51  C   UNL A   1      41.339  28.690  31.114  1.00  0.00     0.049 A 
ATOM     52  C   UNL A   1      40.844  31.980  35.610  1.00  0.00     0.074 A 
ATOM     53  C   UNL A   1      42.363  27.759  31.132  1.00  0.00     0.029 A 
ATOM     54  N   UNL A   1      41.400  29.375  32.319  1.00  0.00    -0.354 N 
ATOM     55  N   UNL A   1      41.100  31.153  34.625  1.00  0.00    -0.248 NA
ATOM     56  C   UNL A   1      41.701  31.787  36.788  1.00  0.00     0.031 C 
ATOM     57  C   UNL A   1      43.017  27.851  32.365  1.00  0.00     0.029 A 
ATOM     58  C   UNL A   1      42.436  28.877  33.092  1.00  0.00     0.049 A 
ATOM     59  H   UNL A   1      40.797  30.106  32.584  1.00  0.00     0.167 HD
ATOM     60  C   UNL A   1      42.169  30.375  35.048  1.00  0.00     0.074 A 
ATOM     61  C   UNL A   1      42.526  30.837  36.371  1.00  0.00     0.031 C 
ATOM     62  C   UNL A   1      42.798  29.364  34.398  1.00  0.00     0.037 A 
BRANCH  49  63
ATOM     63  C   UNL A   1      40.440  28.109  28.829  1.00  0.00     0.064 A 
ATOM     64  C   UNL A   1      41.211  28.512  27.726  1.00  0.00     0.173 A 
ATOM     65  C   UNL A   1      39.777  26.875  28.750  1.00  0.00     0.173 A 
ATOM     66  F   UNL A   1      41.857  29.687  27.747  1.00  0.00    -0.203 F 
ATOM     67  C   UNL A   1      41.293  27.722  26.583  1.00  0.00     0.198 A 
ATOM     68  C   UNL A   1      39.889  26.074  27.617  1.00  0.00     0.198 A 
ATOM     69  F   UNL A   1      39.034  26.438  29.777  1.00  0.00    -0.203 F 
ATOM     70  F   UNL A   1      42.000  28.148  25.526  1.00  0.00    -0.200 F 
ATOM     71  C   UNL A   1      40.641  26.500  26.533  1.00  0.00     0.200 A 
ATOM     72  F   UNL A   1      39.271  24.884  27.576  1.00  0.00    -0.200 F 
ATOM     73  F   UNL A   1      40.734  25.733  25.436  1.00  0.00    -0.200 F 
ENDBRANCH  49  63
BRANCH  50  74
ATOM     74  C   UNL A   1      39.724  33.931  36.909  1.00  0.00     0.064 A 
ATOM     75  C   UNL A   1      38.918  33.549  37.993  1.00  0.00     0.173 A 
ATOM     76  C   UNL A   1      40.388  35.164  36.998  1.00  0.00     0.173 A 
ATOM     77  F   UNL A   1      38.245  32.389  37.949  1.00  0.00    -0.203 F 
ATOM     78  C   UNL A   1      38.748  34.381  39.096  1.00  0.00     0.198 A 
ATOM     79  C   UNL A   1      40.246  35.980  38.119  1.00  0.00     0.198 A 
ATOM     80  F   UNL A   1      41.174  35.578  35.994  1.00  0.00    -0.203 F 
ATOM     81  F   UNL A   1      37.916  34.022  40.083  1.00  0.00    -0.200 F 
ATOM     82  C   UNL A   1      39.415  35.595  39.160  1.00  0.00     0.200 A 
ATOM     83  F   UNL A   1      40.903  37.146  38.183  1.00  0.00    -0.200 F 
ATOM     84  F   UNL A   1      39.244  36.401  40.217  1.00  0.00    -0.200 F 
ENDBRANCH  50  74
BRANCH  62  85
ATOM     85  C   UNL A   1      43.974  28.729  35.084  1.00  0.00     0.064 A 
ATOM     86  C   UNL A   1      43.832  27.604  35.910  1.00  0.00     0.173 A 
ATOM     87  C   UNL A   1      45.267  29.236  34.882  1.00  0.00     0.173 A 
ATOM     88  F   UNL A   1      42.616  27.089  36.148  1.00  0.00    -0.203 F 
ATOM     89  C   UNL A   1      44.937  27.031  36.534  1.00  0.00     0.198 A 
ATOM     90  C   UNL A   1      46.374  28.638  35.480  1.00  0.00     0.198 A 
ATOM     91  F   UNL A   1      45.460  30.305  34.095  1.00  0.00    -0.203 F 
ATOM     92  F   UNL A   1      44.771  25.992  37.364  1.00  0.00    -0.200 F 
ATOM     93  C   UNL A   1      46.207  27.543  36.312  1.00  0.00     0.200 A 
ATOM     94  F   UNL A   1      47.601  29.124  35.250  1.00  0.00    -0.200 F 
ATOM     95  F   UNL A   1      47.269  26.984  36.908  1.00  0.00    -0.200 F 
ENDBRANCH  62  85
ENDBRANCH  36  37
ENDBRANCH  28  31
ENDBRANCH  26  27
ENDBRANCH  25  26
ENDBRANCH  24  25
ENDBRANCH   1  24
TORSDOF 16
ENDMDL
MODEL 2
REMARK VINA RESULT:     -11.9      1.894      3.725
REMARK SMILES Cc1nnc(SCC[C@H]2CCC[C@]2([NH3+])C(=O)NCCCCNC(=O)c2ccc(-c3c4nc(c(-c5c(F)c(F)c(F)c(F)c5F)c5ccc([nH]5)c(-c5c(F)c(F)c(F)c(F)c5F)c5nc(c(-c6c(F)c(F)c(F)c(F)c6F)c6ccc3[nH]6)C=C5)C=C4)cc2)o1
REMARK SMILES IDX 18 1 17 2 15 3 16 4 13 6 9 7 10 8 11 9 12 10 8 11 7 12 6 13
REMARK SMILES IDX 5 14 1 15 2 16 3 17 88 18 4 19 14 20 19 24 20 25 21 26 22 27
REMARK SMILES IDX 23 28 24 30 25 31 26 32 87 33 27 34 86 35 28 36 29 37 30 38
REMARK SMILES IDX 80 39 31 40 85 41 79 42 81 43 32 44 84 45 78 46 77 47 33 49
REMARK SMILES IDX 65 50 45 51 64 52 46 53 49 54 63 55 82 56 47 57 48 58 62 60
REMARK SMILES IDX 83 61 50 62 34 63 35 64 43 65 36 66 37 67 41 68 44 69 38 70
REMARK SMILES IDX 39 71 42 72 40 73 66 74 67 75 75 76 68 77 69 78 73 79 76 80
REMARK SMILES IDX 70 81 71 82 74 83 72 84 51 85 52 86 60 87 53 88 54 89 58 90
REMARK SMILES IDX 61 91 55 92 56 93 59 94 57 95
REMARK H PARENT 17 5 14 21 14 22 14 23 22 29 81 48 49 59
REMARK Flexibility Score: inf
ROOT
ATOM      1  C   UNL A   1      33.081  29.747  26.334  1.00  0.00     0.116 C 
ENDROOT
BRANCH   1   2
ATOM      2  N   UNL A   1      33.239  29.723  24.893  1.00  0.00    -0.351 N 
ATOM      3  C   UNL A   1      32.844  28.826  23.940  1.00  0.00     0.281 C 
ATOM      4  O   UNL A   1      32.857  29.254  22.776  1.00  0.00    -0.268 OA
ATOM      5  H   UNL A   1      33.723  30.502  24.533  1.00  0.00     0.163 HD
BRANCH   3   6
ATOM      6  C   UNL A   1      32.291  27.379  24.243  1.00  0.00     0.176 C 
ATOM      7  C   UNL A   1      33.185  26.523  25.166  1.00  0.00     0.061 C 
ATOM      8  C   UNL A   1      33.914  25.545  24.200  1.00  0.00     0.011 C 
ATOM      9  C   UNL A   1      33.508  25.912  22.777  1.00  0.00     0.008 C 
ATOM     10  C   UNL A   1      32.157  26.550  22.948  1.00  0.00     0.079 C 
BRANCH   7  11
ATOM     11  C   UNL A   1      32.476  25.802  26.358  1.00  0.00     0.022 C 
BRANCH  11  12
ATOM     12  C   UNL A   1      31.898  24.353  26.191  1.00  0.00     0.080 C 
BRANCH  12  13
ATOM     13  S   UNL A   1      32.518  22.923  27.173  1.00  0.00    -0.065 SA
BRANCH  13  14
ATOM     14  C   UNL A   1      34.094  22.518  26.526  1.00  0.00     0.276 A 
ATOM     15  C   UNL A   1      37.218  23.631  25.342  1.00  0.00     0.113 C 
ATOM     16  C   UNL A   1      36.089  22.789  25.797  1.00  0.00     0.214 A 
ATOM     17  N   UNL A   1      35.731  21.574  25.440  1.00  0.00    -0.112 NA
ATOM     18  O   UNL A   1      35.167  23.380  26.614  1.00  0.00    -0.416 OA
ATOM     19  N   UNL A   1      34.435  21.393  25.927  1.00  0.00    -0.101 NA
ENDBRANCH  13  14
ENDBRANCH  12  13
ENDBRANCH  11  12
ENDBRANCH   7  11
BRANCH   6  20
ATOM     20  N   UNL A   1      30.911  27.510  24.681  1.00  0.00    -0.345 N 
ATOM     21  H   UNL A   1      30.681  26.745  25.315  1.00  0.00     0.345 HD
ATOM     22  H   UNL A   1      30.293  27.477  23.870  1.00  0.00     0.345 HD
ATOM     23  H   UNL A   1      30.790  28.401  25.163  1.00  0.00     0.345 HD
ENDBRANCH   6  20
ENDBRANCH   3   6
ENDBRANCH   1   2
BRANCH   1  24
ATOM     24  C   UNL A   1      31.762  30.335  26.826  1.00  0.00     0.023 C 
BRANCH  24  25
ATOM     25  C   UNL A   1      31.670  31.850  26.643  1.00  0.00     0.023 C 
BRANCH  25  26
ATOM     26  C   UNL A   1      32.807  32.662  27.269  1.00  0.00     0.116 C 
BRANCH  26  27
ATOM     27  N   UNL A   1      32.439  34.034  27.590  1.00  0.00    -0.352 N 
ATOM     28  C   UNL A   1      32.973  34.877  28.534  1.00  0.00     0.251 C 
ATOM     29  H   UNL A   1      31.704  34.411  27.053  1.00  0.00     0.163 HD
ATOM     30  O   UNL A   1      32.462  35.977  28.750  1.00  0.00    -0.269 OA
BRANCH  28  31
ATOM     31  C   UNL A   1      34.142  34.445  29.332  1.00  0.00     0.039 A 
ATOM     32  C   UNL A   1      33.930  33.881  30.591  1.00  0.00     0.014 A 
ATOM     33  C   UNL A   1      35.440  34.565  28.828  1.00  0.00     0.014 A 
ATOM     34  C   UNL A   1      35.010  33.355  31.305  1.00  0.00     0.010 A 
ATOM     35  C   UNL A   1      36.502  33.966  29.501  1.00  0.00     0.010 A 
ATOM     36  C   UNL A   1      36.298  33.348  30.745  1.00  0.00    -0.014 A 
BRANCH  36  37
ATOM     37  C   UNL A   1      37.439  32.691  31.439  1.00  0.00     0.031 A 
ATOM     38  C   UNL A   1      38.115  31.497  30.823  1.00  0.00     0.074 A 
ATOM     39  C   UNL A   1      37.833  33.136  32.649  1.00  0.00     0.049 A 
ATOM     40  N   UNL A   1      39.077  30.749  31.304  1.00  0.00    -0.248 NA
ATOM     41  C   UNL A   1      37.633  31.074  29.498  1.00  0.00     0.031 C 
ATOM     42  C   UNL A   1      37.238  34.261  33.373  1.00  0.00     0.029 A 
ATOM     43  N   UNL A   1      38.825  32.691  33.489  1.00  0.00    -0.354 N 
ATOM     44  C   UNL A   1      39.314  29.774  30.344  1.00  0.00     0.074 A 
ATOM     45  C   UNL A   1      38.352  29.982  29.283  1.00  0.00     0.031 C 
ATOM     46  C   UNL A   1      37.892  34.434  34.534  1.00  0.00     0.029 A 
ATOM     47  C   UNL A   1      38.921  33.407  34.659  1.00  0.00     0.049 A 
ATOM     48  H   UNL A   1      39.412  31.931  33.274  1.00  0.00     0.167 HD
ATOM     49  C   UNL A   1      40.269  28.813  30.331  1.00  0.00     0.037 A 
ATOM     50  C   UNL A   1      39.739  33.245  35.718  1.00  0.00     0.037 A 
ATOM     51  C   UNL A   1      41.231  28.607  31.381  1.00  0.00     0.049 A 
ATOM     52  C   UNL A   1      40.754  32.131  35.698  1.00  0.00     0.074 A 
ATOM     53  C   UNL A   1      42.246  27.669  31.451  1.00  0.00     0.029 A 
ATOM     54  N   UNL A   1      41.295  29.354  32.549  1.00  0.00    -0.354 N 
ATOM     55  N   UNL A   1      41.005  31.252  34.758  1.00  0.00    -0.248 NA
ATOM     56  C   UNL A   1      41.606  31.992  36.888  1.00  0.00     0.031 C 
ATOM     57  C   UNL A   1      42.897  27.819  32.680  1.00  0.00     0.029 A 
ATOM     58  C   UNL A   1      42.324  28.887  33.351  1.00  0.00     0.049 A 
ATOM     59  H   UNL A   1      40.698  30.103  32.774  1.00  0.00     0.167 HD
ATOM     60  C   UNL A   1      42.065  30.487  35.225  1.00  0.00     0.074 A 
ATOM     61  C   UNL A   1      42.422  31.014  36.523  1.00  0.00     0.031 C 
ATOM     62  C   UNL A   1      42.686  29.438  34.631  1.00  0.00     0.037 A 
BRANCH  49  63
ATOM     63  C   UNL A   1      40.334  27.916  29.127  1.00  0.00     0.064 A 
ATOM     64  C   UNL A   1      39.592  26.725  29.064  1.00  0.00     0.173 A 
ATOM     65  C   UNL A   1      41.098  28.271  28.006  1.00  0.00     0.173 A 
ATOM     66  F   UNL A   1      38.852  26.334  30.113  1.00  0.00    -0.203 F 
ATOM     67  C   UNL A   1      39.634  25.914  27.934  1.00  0.00     0.198 A 
ATOM     68  C   UNL A   1      41.112  27.473  26.865  1.00  0.00     0.198 A 
ATOM     69  F   UNL A   1      41.820  29.403  28.009  1.00  0.00    -0.203 F 
ATOM     70  F   UNL A   1      38.952  24.759  27.915  1.00  0.00    -0.200 F 
ATOM     71  C   UNL A   1      40.386  26.292  26.833  1.00  0.00     0.200 A 
ATOM     72  F   UNL A   1      41.827  27.848  25.795  1.00  0.00    -0.200 F 
ATOM     73  F   UNL A   1      40.414  25.516  25.740  1.00  0.00    -0.200 F 
ENDBRANCH  49  63
BRANCH  50  74
ATOM     74  C   UNL A   1      39.648  34.158  36.890  1.00  0.00     0.064 A 
ATOM     75  C   UNL A   1      40.397  35.344  36.939  1.00  0.00     0.173 A 
ATOM     76  C   UNL A   1      38.861  33.842  38.007  1.00  0.00     0.173 A 
ATOM     77  F   UNL A   1      41.183  35.681  35.906  1.00  0.00    -0.203 F 
ATOM     78  C   UNL A   1      40.392  36.155  38.071  1.00  0.00     0.198 A 
ATOM     79  C   UNL A   1      38.828  34.673  39.126  1.00  0.00     0.198 A 
ATOM     80  F   UNL A   1      38.123  32.722  38.014  1.00  0.00    -0.203 F 
ATOM     81  F   UNL A   1      41.172  37.244  38.117  1.00  0.00    -0.200 F 
ATOM     82  C   UNL A   1      39.605  35.821  39.163  1.00  0.00     0.200 A 
ATOM     83  F   UNL A   1      38.056  34.353  40.173  1.00  0.00    -0.200 F 
ATOM     84  F   UNL A   1      39.608  36.595  40.256  1.00  0.00    -0.200 F 
ENDBRANCH  50  74
BRANCH  62  85
ATOM     85  C   UNL A   1      43.855  28.829  35.352  1.00  0.00     0.064 A 
ATOM     86  C   UNL A   1      43.691  27.804  36.296  1.00  0.00     0.173 A 
ATOM     87  C   UNL A   1      45.161  29.256  35.070  1.00  0.00     0.173 A 
ATOM     88  F   UNL A   1      42.462  27.368  36.615  1.00  0.00    -0.203 F 
ATOM     89  C   UNL A   1      44.789  27.252  36.951  1.00  0.00     0.198 A 
ATOM     90  C   UNL A   1      46.259  28.678  35.701  1.00  0.00     0.198 A 
ATOM     91  F   UNL A   1      45.375  30.229  34.169  1.00  0.00    -0.203 F 
ATOM     92  F   UNL A   1      44.604  26.314  37.890  1.00  0.00    -0.200 F 
ATOM     93  C   UNL A   1      46.072  27.684  36.648  1.00  0.00     0.200 A 
ATOM     94  F   UNL A   1      47.498  29.085  35.393  1.00  0.00    -0.200 F 
ATOM     95  F   UNL A   1      47.127  27.146  37.275  1.00  0.00    -0.200 F 
ENDBRANCH  62  85
ENDBRANCH  36  37
ENDBRANCH  28  31
ENDBRANCH  26  27
ENDBRANCH  25  26
ENDBRANCH  24  25
ENDBRANCH   1  24
TORSDOF 16
ENDMDL
MODEL 3
REMARK VINA RESULT:     -11.9      2.056      8.095
REMARK SMILES Cc1nnc(SCC[C@H]2CCC[C@]2([NH3+])C(=O)NCCCCNC(=O)c2ccc(-c3c4nc(c(-c5c(F)c(F)c(F)c(F)c5F)c5ccc([nH]5)c(-c5c(F)c(F)c(F)c(F)c5F)c5nc(c(-c6c(F)c(F)c(F)c(F)c6F)c6ccc3[nH]6)C=C5)C=C4)cc2)o1
REMARK SMILES IDX 18 1 17 2 15 3 16 4 13 6 9 7 10 8 11 9 12 10 8 11 7 12 6 13
REMARK SMILES IDX 5 14 1 15 2 16 3 17 88 18 4 19 14 20 19 24 20 25 21 26 22 27
REMARK SMILES IDX 23 28 24 30 25 31 26 32 87 33 27 34 86 35 28 36 29 37 30 38
REMARK SMILES IDX 80 39 31 40 85 41 79 42 81 43 32 44 84 45 78 46 77 47 33 49
REMARK SMILES IDX 65 50 45 51 64 52 46 53 49 54 63 55 82 56 47 57 48 58 62 60
REMARK SMILES IDX 83 61 50 62 34 63 35 64 43 65 36 66 37 67 41 68 44 69 38 70
REMARK SMILES IDX 39 71 42 72 40 73 66 74 67 75 75 76 68 77 69 78 73 79 76 80
REMARK SMILES IDX 70 81 71 82 74 83 72 84 51 85 52 86 60 87 53 88 54 89 58 90
REMARK SMILES IDX 61 91 55 92 56 93 59 94 57 95
REMARK H PARENT 17 5 14 21 14 22 14 23 22 29 81 48 49 59
REMARK Flexibility Score: inf
ROOT
ATOM      1  C   UNL A   1      33.017  29.782  26.065  1.00  0.00     0.116 C 
ENDROOT
BRANCH   1   2
ATOM      2  N   UNL A   1      33.226  29.670  24.634  1.00  0.00    -0.351 N 
ATOM      3  C   UNL A   1      32.866  28.714  23.725  1.00  0.00     0.281 C 
ATOM      4  O   UNL A   1      32.920  29.069  22.538  1.00  0.00    -0.268 OA
ATOM      5  H   UNL A   1      33.721  30.426  24.243  1.00  0.00     0.163 HD
BRANCH   3   6
ATOM      6  C   UNL A   1      32.305  27.286  24.097  1.00  0.00     0.176 C 
ATOM      7  C   UNL A   1      33.122  26.527  25.165  1.00  0.00     0.061 C 
ATOM      8  C   UNL A   1      33.947  25.487  24.353  1.00  0.00     0.011 C 
ATOM      9  C   UNL A   1      33.668  25.728  22.874  1.00  0.00     0.008 C 
ATOM     10  C   UNL A   1      32.299  26.351  22.870  1.00  0.00     0.079 C 
BRANCH   7  11
ATOM     11  C   UNL A   1      32.317  25.892  26.345  1.00  0.00     0.022 C 
BRANCH  11  12
ATOM     12  C   UNL A   1      32.187  24.335  26.483  1.00  0.00     0.080 C 
BRANCH  12  13
ATOM     13  S   UNL A   1      31.172  23.322  25.327  1.00  0.00    -0.065 SA
BRANCH  13  14
ATOM     14  C   UNL A   1      32.118  21.900  24.946  1.00  0.00     0.276 A 
ATOM     15  C   UNL A   1      32.774  18.492  25.548  1.00  0.00     0.113 C 
ATOM     16  C   UNL A   1      32.778  19.862  24.989  1.00  0.00     0.214 A 
ATOM     17  N   UNL A   1      33.743  20.547  24.413  1.00  0.00    -0.112 NA
ATOM     18  O   UNL A   1      31.665  20.624  25.210  1.00  0.00    -0.416 OA
ATOM     19  N   UNL A   1      33.307  21.873  24.373  1.00  0.00    -0.101 NA
ENDBRANCH  13  14
ENDBRANCH  12  13
ENDBRANCH  11  12
ENDBRANCH   7  11
BRANCH   6  20
ATOM     20  N   UNL A   1      30.890  27.426  24.398  1.00  0.00    -0.345 N 
ATOM     21  H   UNL A   1      30.610  28.399  24.276  1.00  0.00     0.345 HD
ATOM     22  H   UNL A   1      30.718  27.142  25.363  1.00  0.00     0.345 HD
ATOM     23  H   UNL A   1      30.348  26.834  23.769  1.00  0.00     0.345 HD
ENDBRANCH   6  20
ENDBRANCH   3   6
ENDBRANCH   1   2
BRANCH   1  24
ATOM     24  C   UNL A   1      31.634  30.280  26.475  1.00  0.00     0.023 C 
BRANCH  24  25
ATOM     25  C   UNL A   1      31.541  31.805  26.554  1.00  0.00     0.023 C 
BRANCH  25  26
ATOM     26  C   UNL A   1      32.713  32.504  27.247  1.00  0.00     0.116 C 
BRANCH  26  27
ATOM     27  N   UNL A   1      32.447  33.894  27.587  1.00  0.00    -0.352 N 
ATOM     28  C   UNL A   1      33.071  34.696  28.513  1.00  0.00     0.251 C 
ATOM     29  H   UNL A   1      31.718  34.321  27.082  1.00  0.00     0.163 HD
ATOM     30  O   UNL A   1      32.641  35.824  28.753  1.00  0.00    -0.269 OA
BRANCH  28  31
ATOM     31  C   UNL A   1      34.241  34.184  29.261  1.00  0.00     0.039 A 
ATOM     32  C   UNL A   1      34.028  33.393  30.392  1.00  0.00     0.014 A 
ATOM     33  C   UNL A   1      35.544  34.456  28.833  1.00  0.00     0.014 A 
ATOM     34  C   UNL A   1      35.115  32.800  31.038  1.00  0.00     0.010 A 
ATOM     35  C   UNL A   1      36.618  33.798  29.426  1.00  0.00     0.010 A 
ATOM     36  C   UNL A   1      36.416  32.957  30.531  1.00  0.00    -0.014 A 
BRANCH  36  37
ATOM     37  C   UNL A   1      37.572  32.242  31.138  1.00  0.00     0.031 A 
ATOM     38  C   UNL A   1      38.076  32.634  32.499  1.00  0.00     0.074 A 
ATOM     39  C   UNL A   1      38.201  31.274  30.441  1.00  0.00     0.049 A 
ATOM     40  N   UNL A   1      39.108  32.178  33.165  1.00  0.00    -0.248 NA
ATOM     41  C   UNL A   1      37.333  33.694  33.200  1.00  0.00     0.031 C 
ATOM     42  C   UNL A   1      37.837  30.823  29.098  1.00  0.00     0.029 A 
ATOM     43  N   UNL A   1      39.288  30.498  30.766  1.00  0.00    -0.354 N 
ATOM     44  C   UNL A   1      39.136  32.892  34.356  1.00  0.00     0.074 A 
ATOM     45  C   UNL A   1      38.060  33.857  34.296  1.00  0.00     0.031 C 
ATOM     46  C   UNL A   1      38.666  29.835  28.723  1.00  0.00     0.029 A 
ATOM     47  C   UNL A   1      39.648  29.612  29.778  1.00  0.00     0.049 A 
ATOM     48  H   UNL A   1      39.764  30.569  31.624  1.00  0.00     0.167 HD
ATOM     49  C   UNL A   1      39.961  32.734  35.418  1.00  0.00     0.037 A 
ATOM     50  C   UNL A   1      40.664  28.728  29.726  1.00  0.00     0.037 A 
ATOM     51  C   UNL A   1      41.028  31.771  35.483  1.00  0.00     0.049 A 
ATOM     52  C   UNL A   1      41.600  28.615  30.901  1.00  0.00     0.074 A 
ATOM     53  C   UNL A   1      41.909  31.527  36.523  1.00  0.00     0.029 A 
ATOM     54  N   UNL A   1      41.361  30.891  34.463  1.00  0.00    -0.354 N 
ATOM     55  N   UNL A   1      41.580  29.256  32.045  1.00  0.00    -0.248 NA
ATOM     56  C   UNL A   1      42.700  27.647  30.780  1.00  0.00     0.031 C 
ATOM     57  C   UNL A   1      42.802  30.530  36.116  1.00  0.00     0.029 A 
ATOM     58  C   UNL A   1      42.442  30.113  34.844  1.00  0.00     0.049 A 
ATOM     59  H   UNL A   1      40.897  30.830  33.597  1.00  0.00     0.167 HD
ATOM     60  C   UNL A   1      42.633  28.742  32.790  1.00  0.00     0.074 A 
ATOM     61  C   UNL A   1      43.262  27.724  31.977  1.00  0.00     0.031 C 
ATOM     62  C   UNL A   1      43.044  29.085  34.036  1.00  0.00     0.037 A 
BRANCH  49  63
ATOM     63  C   UNL A   1      39.731  33.616  36.613  1.00  0.00     0.064 A 
ATOM     64  C   UNL A   1      40.333  34.881  36.713  1.00  0.00     0.173 A 
ATOM     65  C   UNL A   1      38.861  33.222  37.640  1.00  0.00     0.173 A 
ATOM     66  F   UNL A   1      41.181  35.302  35.762  1.00  0.00    -0.203 F 
ATOM     67  C   UNL A   1      40.093  35.704  37.809  1.00  0.00     0.198 A 
ATOM     68  C   UNL A   1      38.598  34.062  38.719  1.00  0.00     0.198 A 
ATOM     69  F   UNL A   1      38.253  32.027  37.592  1.00  0.00    -0.203 F 
ATOM     70  F   UNL A   1      40.714  36.889  37.903  1.00  0.00    -0.200 F 
ATOM     71  C   UNL A   1      39.218  35.299  38.805  1.00  0.00     0.200 A 
ATOM     72  F   UNL A   1      37.740  33.676  39.674  1.00  0.00    -0.200 F 
ATOM     73  F   UNL A   1      38.977  36.100  39.853  1.00  0.00    -0.200 F 
ENDBRANCH  49  63
BRANCH  50  74
ATOM     74  C   UNL A   1      40.857  27.867  28.527  1.00  0.00     0.064 A 
ATOM     75  C   UNL A   1      41.634  28.305  27.444  1.00  0.00     0.173 A 
ATOM     76  C   UNL A   1      40.229  26.618  28.411  1.00  0.00     0.173 A 
ATOM     77  F   UNL A   1      42.238  29.502  27.495  1.00  0.00    -0.203 F 
ATOM     78  C   UNL A   1      41.743  27.548  26.279  1.00  0.00     0.198 A 
ATOM     79  C   UNL A   1      40.367  25.845  27.260  1.00  0.00     0.198 A 
ATOM     80  F   UNL A   1      39.477  26.148  29.417  1.00  0.00    -0.203 F 
ATOM     81  F   UNL A   1      42.432  28.025  25.234  1.00  0.00    -0.200 F 
ATOM     82  C   UNL A   1      41.111  26.317  26.189  1.00  0.00     0.200 A 
ATOM     83  F   UNL A   1      39.768  24.649  27.183  1.00  0.00    -0.200 F 
ATOM     84  F   UNL A   1      41.207  25.593  25.066  1.00  0.00    -0.200 F 
ENDBRANCH  50  74
BRANCH  62  85
ATOM     85  C   UNL A   1      44.191  28.312  34.621  1.00  0.00     0.064 A 
ATOM     86  C   UNL A   1      43.995  27.118  35.331  1.00  0.00     0.173 A 
ATOM     87  C   UNL A   1      45.509  28.757  34.439  1.00  0.00     0.173 A 
ATOM     88  F   UNL A   1      42.753  26.656  35.547  1.00  0.00    -0.203 F 
ATOM     89  C   UNL A   1      45.074  26.416  35.863  1.00  0.00     0.198 A 
ATOM     90  C   UNL A   1      46.588  28.034  34.942  1.00  0.00     0.198 A 
ATOM     91  F   UNL A   1      45.754  29.889  33.761  1.00  0.00    -0.203 F 
ATOM     92  F   UNL A   1      44.858  25.309  36.586  1.00  0.00    -0.200 F 
ATOM     93  C   UNL A   1      46.368  26.870  35.662  1.00  0.00     0.200 A 
ATOM     94  F   UNL A   1      47.838  28.466  34.732  1.00  0.00    -0.200 F 
ATOM     95  F   UNL A   1      47.405  26.189  36.169  1.00  0.00    -0.200 F 
ENDBRANCH  62  85
ENDBRANCH  36  37
ENDBRANCH  28  31
ENDBRANCH  26  27
ENDBRANCH  25  26
ENDBRANCH  24  25
ENDBRANCH   1  24
TORSDOF 16
ENDMDL
