MODEL 1
REMARK VINA RESULT:     -12.8      0.000      0.000
REMARK SMILES C[C@@H]1[NH2+]CC[C@@H]1C(=O)Nc1cc(F)ccc1C(=O)NCCCCNC(=O)c1ccc(-c2c3nc(c(-c4c(F)c(F)c(F)c(F)c4F)c4ccc([nH]4)c(-c4c(F)c(F)c(F)c(F)c4F)c4nc(c(-c5c(F)c(F)c(F)c(F)c5F)c5ccc2[nH]5)C=C4)C=C3)cc1
REMARK SMILES IDX 21 1 20 2 19 3 17 4 18 5 16 7 10 8 11 9 12 10 15 11 13 12
REMARK SMILES IDX 14 13 9 14 7 15 8 16 6 18 1 19 2 20 3 21 4 22 5 25 22 26
REMARK SMILES IDX 23 27 24 28 25 29 26 31 27 32 28 33 89 34 29 35 88 36 30 37
REMARK SMILES IDX 31 38 32 39 82 40 33 41 87 42 81 43 83 44 34 45 86 46 80 47
REMARK SMILES IDX 79 48 35 50 67 51 47 52 66 53 48 54 51 55 65 56 84 57 49 58
REMARK SMILES IDX 50 59 64 61 85 62 52 63 36 64 37 65 45 66 38 67 39 68 43 69
REMARK SMILES IDX 46 70 40 71 41 72 44 73 42 74 68 75 69 76 77 77 70 78 71 79
REMARK SMILES IDX 75 80 78 81 72 82 73 83 76 84 74 85 53 86 54 87 62 88 55 89
REMARK SMILES IDX 56 90 60 91 63 92 57 93 58 94 61 95 59 96
REMARK H PARENT 19 6 9 17 3 23 3 24 24 30 83 49 51 60
REMARK Flexibility Score: inf
ROOT
ATOM      1  C   UNL A   1      33.284  29.032  24.264  1.00  0.00     0.023 C 
ENDROOT
BRANCH   1   2
ATOM      2  C   UNL A   1      33.185  28.960  22.744  1.00  0.00     0.116 C 
BRANCH   2   3
ATOM      3  N   UNL A   1      33.601  27.703  22.158  1.00  0.00    -0.352 N 
ATOM      4  C   UNL A   1      33.207  26.411  22.400  1.00  0.00     0.253 C 
ATOM      5  O   UNL A   1      33.682  25.532  21.678  1.00  0.00    -0.269 OA
ATOM      6  H   UNL A   1      34.290  27.790  21.460  1.00  0.00     0.163 HD
BRANCH   4   7
ATOM      7  C   UNL A   1      32.306  25.996  23.515  1.00  0.00     0.063 A 
ATOM      8  C   UNL A   1      32.690  25.411  24.740  1.00  0.00     0.056 A 
ATOM      9  C   UNL A   1      31.698  25.131  25.688  1.00  0.00     0.066 A 
ATOM     10  C   UNL A   1      30.359  25.413  25.435  1.00  0.00     0.125 A 
ATOM     11  C   UNL A   1      30.940  26.282  23.287  1.00  0.00     0.019 A 
ATOM     12  F   UNL A   1      29.448  25.171  26.385  1.00  0.00    -0.207 F 
ATOM     13  C   UNL A   1      29.968  25.990  24.241  1.00  0.00     0.040 A 
BRANCH   8  14
ATOM     14  N   UNL A   1      34.044  25.287  25.099  1.00  0.00    -0.325 N 
ATOM     15  C   UNL A   1      34.858  24.194  25.254  1.00  0.00     0.233 C 
ATOM     16  O   UNL A   1      36.015  24.414  25.627  1.00  0.00    -0.274 OA
ATOM     17  H   UNL A   1      34.492  26.147  25.272  1.00  0.00     0.169 HD
BRANCH  15  18
ATOM     18  C   UNL A   1      34.409  22.794  24.833  1.00  0.00     0.142 C 
ATOM     19  C   UNL A   1      34.099  22.380  27.376  1.00  0.00     0.076 C 
ATOM     20  C   UNL A   1      33.795  21.934  25.946  1.00  0.00     0.192 C 
ATOM     21  N   UNL A   1      34.310  20.569  25.727  1.00  0.00    -0.343 N 
ATOM     22  C   UNL A   1      35.683  20.760  25.256  1.00  0.00     0.261 C 
ATOM     23  H   UNL A   1      33.754  20.083  25.024  1.00  0.00     0.346 HD
ATOM     24  H   UNL A   1      34.268  20.001  26.573  1.00  0.00     0.346 HD
ATOM     25  C   UNL A   1      35.584  21.941  24.308  1.00  0.00     0.081 C 
ENDBRANCH  15  18
ENDBRANCH   8  14
ENDBRANCH   4   7
ENDBRANCH   2   3
ENDBRANCH   1   2
BRANCH   1  26
ATOM     26  C   UNL A   1      32.027  29.482  25.011  1.00  0.00     0.023 C 
BRANCH  26  27
ATOM     27  C   UNL A   1      32.191  29.854  26.483  1.00  0.00     0.116 C 
BRANCH  27  28
ATOM     28  N   UNL A   1      32.184  31.284  26.744  1.00  0.00    -0.352 N 
ATOM     29  C   UNL A   1      33.116  32.103  27.347  1.00  0.00     0.251 C 
ATOM     30  H   UNL A   1      31.372  31.750  26.438  1.00  0.00     0.163 HD
ATOM     31  O   UNL A   1      32.852  33.280  27.541  1.00  0.00    -0.269 OA
BRANCH  29  32
ATOM     32  C   UNL A   1      34.417  31.565  27.816  1.00  0.00     0.039 A 
ATOM     33  C   UNL A   1      35.456  32.468  28.064  1.00  0.00     0.014 A 
ATOM     34  C   UNL A   1      34.632  30.201  28.012  1.00  0.00     0.014 A 
ATOM     35  C   UNL A   1      36.658  32.016  28.617  1.00  0.00     0.010 A 
ATOM     36  C   UNL A   1      35.792  29.761  28.650  1.00  0.00     0.010 A 
ATOM     37  C   UNL A   1      36.811  30.667  28.979  1.00  0.00    -0.014 A 
BRANCH  37  38
ATOM     38  C   UNL A   1      37.999  30.210  29.751  1.00  0.00     0.031 A 
ATOM     39  C   UNL A   1      38.234  30.676  31.161  1.00  0.00     0.074 A 
ATOM     40  C   UNL A   1      38.911  29.422  29.149  1.00  0.00     0.049 A 
ATOM     41  N   UNL A   1      39.240  30.415  31.959  1.00  0.00    -0.248 NA
ATOM     42  C   UNL A   1      37.225  31.573  31.744  1.00  0.00     0.031 C 
ATOM     43  C   UNL A   1      38.839  28.952  27.764  1.00  0.00     0.029 A 
ATOM     44  N   UNL A   1      40.081  28.877  29.620  1.00  0.00    -0.354 N 
ATOM     45  C   UNL A   1      38.992  31.124  33.126  1.00  0.00     0.074 A 
ATOM     46  C   UNL A   1      37.767  31.867  32.917  1.00  0.00     0.031 C 
ATOM     47  C   UNL A   1      39.890  28.158  27.511  1.00  0.00     0.029 A 
ATOM     48  C   UNL A   1      40.735  28.093  28.700  1.00  0.00     0.049 A 
ATOM     49  H   UNL A   1      40.419  29.033  30.532  1.00  0.00     0.167 HD
ATOM     50  C   UNL A   1      39.703  31.133  34.278  1.00  0.00     0.037 A 
ATOM     51  C   UNL A   1      41.884  27.398  28.799  1.00  0.00     0.037 A 
ATOM     52  C   UNL A   1      40.902  30.366  34.502  1.00  0.00     0.049 A 
ATOM     53  C   UNL A   1      42.650  27.414  30.091  1.00  0.00     0.074 A 
ATOM     54  C   UNL A   1      41.647  30.252  35.663  1.00  0.00     0.029 A 
ATOM     55  N   UNL A   1      41.528  29.581  33.546  1.00  0.00    -0.354 N 
ATOM     56  N   UNL A   1      42.367  28.035  31.208  1.00  0.00    -0.248 NA
ATOM     57  C   UNL A   1      43.894  26.632  30.136  1.00  0.00     0.031 C 
ATOM     58  C   UNL A   1      42.749  29.434  35.398  1.00  0.00     0.029 A 
ATOM     59  C   UNL A   1      42.666  28.999  34.085  1.00  0.00     0.049 A 
ATOM     60  H   UNL A   1      41.214  29.455  32.622  1.00  0.00     0.167 HD
ATOM     61  C   UNL A   1      43.385  27.712  32.093  1.00  0.00     0.074 A 
ATOM     62  C   UNL A   1      44.285  26.822  31.389  1.00  0.00     0.031 C 
ATOM     63  C   UNL A   1      43.558  28.121  33.374  1.00  0.00     0.037 A 
BRANCH  50  64
ATOM     64  C   UNL A   1      39.198  31.984  35.406  1.00  0.00     0.064 A 
ATOM     65  C   UNL A   1      39.582  33.329  35.514  1.00  0.00     0.173 A 
ATOM     66  C   UNL A   1      38.387  31.450  36.419  1.00  0.00     0.173 A 
ATOM     67  F   UNL A   1      40.362  33.887  34.576  1.00  0.00    -0.203 F 
ATOM     68  C   UNL A   1      39.179  34.104  36.599  1.00  0.00     0.198 A 
ATOM     69  C   UNL A   1      37.963  32.235  37.487  1.00  0.00     0.198 A 
ATOM     70  F   UNL A   1      37.986  30.171  36.357  1.00  0.00    -0.203 F 
ATOM     71  F   UNL A   1      39.581  35.378  36.696  1.00  0.00    -0.200 F 
ATOM     72  C   UNL A   1      38.367  33.558  37.582  1.00  0.00     0.200 A 
ATOM     73  F   UNL A   1      37.160  31.712  38.424  1.00  0.00    -0.200 F 
ATOM     74  F   UNL A   1      37.971  34.309  38.619  1.00  0.00    -0.200 F 
ENDBRANCH  50  64
BRANCH  51  75
ATOM     75  C   UNL A   1      42.352  26.590  27.642  1.00  0.00     0.064 A 
ATOM     76  C   UNL A   1      41.898  25.281  27.431  1.00  0.00     0.173 A 
ATOM     77  C   UNL A   1      43.296  27.108  26.745  1.00  0.00     0.173 A 
ATOM     78  F   UNL A   1      40.998  24.739  28.265  1.00  0.00    -0.203 F 
ATOM     79  C   UNL A   1      42.387  24.511  26.378  1.00  0.00     0.198 A 
ATOM     80  C   UNL A   1      43.768  26.346  25.678  1.00  0.00     0.198 A 
ATOM     81  F   UNL A   1      43.744  28.362  26.895  1.00  0.00    -0.203 F 
ATOM     82  F   UNL A   1      41.964  23.250  26.218  1.00  0.00    -0.200 F 
ATOM     83  C   UNL A   1      43.319  25.046  25.500  1.00  0.00     0.200 A 
ATOM     84  F   UNL A   1      44.651  26.873  24.820  1.00  0.00    -0.200 F 
ATOM     85  F   UNL A   1      43.784  24.308  24.482  1.00  0.00    -0.200 F 
ENDBRANCH  51  75
BRANCH  63  86
ATOM     86  C   UNL A   1      44.764  27.612  34.107  1.00  0.00     0.064 A 
ATOM     87  C   UNL A   1      44.698  26.421  34.848  1.00  0.00     0.173 A 
ATOM     88  C   UNL A   1      45.962  28.338  34.136  1.00  0.00     0.173 A 
ATOM     89  F   UNL A   1      43.572  25.693  34.859  1.00  0.00    -0.203 F 
ATOM     90  C   UNL A   1      45.785  25.986  35.601  1.00  0.00     0.198 A 
ATOM     91  C   UNL A   1      47.056  27.886  34.868  1.00  0.00     0.198 A 
ATOM     92  F   UNL A   1      46.078  29.476  33.432  1.00  0.00    -0.203 F 
ATOM     93  F   UNL A   1      45.689  24.863  36.326  1.00  0.00    -0.200 F 
ATOM     94  C   UNL A   1      46.963  26.716  35.608  1.00  0.00     0.200 A 
ATOM     95  F   UNL A   1      48.202  28.581  34.855  1.00  0.00    -0.200 F 
ATOM     96  F   UNL A   1      48.012  26.292  36.325  1.00  0.00    -0.200 F 
ENDBRANCH  63  86
ENDBRANCH  37  38
ENDBRANCH  29  32
ENDBRANCH  27  28
ENDBRANCH  26  27
ENDBRANCH   1  26
TORSDOF 13
ENDMDL
MODEL 2
REMARK VINA RESULT:     -12.8      2.101      7.761
REMARK SMILES C[C@@H]1[NH2+]CC[C@@H]1C(=O)Nc1cc(F)ccc1C(=O)NCCCCNC(=O)c1ccc(-c2c3nc(c(-c4c(F)c(F)c(F)c(F)c4F)c4ccc([nH]4)c(-c4c(F)c(F)c(F)c(F)c4F)c4nc(c(-c5c(F)c(F)c(F)c(F)c5F)c5ccc2[nH]5)C=C4)C=C3)cc1
REMARK SMILES IDX 21 1 20 2 19 3 17 4 18 5 16 7 10 8 11 9 12 10 15 11 13 12
REMARK SMILES IDX 14 13 9 14 7 15 8 16 6 18 1 19 2 20 3 21 4 22 5 25 22 26
REMARK SMILES IDX 23 27 24 28 25 29 26 31 27 32 28 33 89 34 29 35 88 36 30 37
REMARK SMILES IDX 31 38 32 39 82 40 33 41 87 42 81 43 83 44 34 45 86 46 80 47
REMARK SMILES IDX 79 48 35 50 67 51 47 52 66 53 48 54 51 55 65 56 84 57 49 58
REMARK SMILES IDX 50 59 64 61 85 62 52 63 36 64 37 65 45 66 38 67 39 68 43 69
REMARK SMILES IDX 46 70 40 71 41 72 44 73 42 74 68 75 69 76 77 77 70 78 71 79
REMARK SMILES IDX 75 80 78 81 72 82 73 83 76 84 74 85 53 86 54 87 62 88 55 89
REMARK SMILES IDX 56 90 60 91 63 92 57 93 58 94 61 95 59 96
REMARK H PARENT 19 6 9 17 3 23 3 24 24 30 83 49 51 60
REMARK Flexibility Score: inf
ROOT
ATOM      1  C   UNL A   1      31.555  30.496  26.552  1.00  0.00     0.023 C 
ENDROOT
BRANCH   1   2
ATOM      2  C   UNL A   1      32.904  29.785  26.538  1.00  0.00     0.116 C 
BRANCH   2   3
ATOM      3  N   UNL A   1      33.492  29.605  25.227  1.00  0.00    -0.352 N 
ATOM      4  C   UNL A   1      32.957  29.168  24.041  1.00  0.00     0.253 C 
ATOM      5  O   UNL A   1      33.687  29.194  23.049  1.00  0.00    -0.269 OA
ATOM      6  H   UNL A   1      34.447  29.837  25.177  1.00  0.00     0.163 HD
BRANCH   4   7
ATOM      7  C   UNL A   1      31.585  28.600  23.891  1.00  0.00     0.063 A 
ATOM      8  C   UNL A   1      31.125  27.360  24.381  1.00  0.00     0.056 A 
ATOM      9  C   UNL A   1      29.782  27.017  24.178  1.00  0.00     0.066 A 
ATOM     10  C   UNL A   1      28.914  27.870  23.504  1.00  0.00     0.125 A 
ATOM     11  C   UNL A   1      30.680  29.453  23.218  1.00  0.00     0.019 A 
ATOM     12  F   UNL A   1      27.628  27.525  23.371  1.00  0.00    -0.207 F 
ATOM     13  C   UNL A   1      29.349  29.090  23.022  1.00  0.00     0.040 A 
BRANCH   8  14
ATOM     14  N   UNL A   1      31.921  26.563  25.222  1.00  0.00    -0.325 N 
ATOM     15  C   UNL A   1      32.776  25.522  24.965  1.00  0.00     0.233 C 
ATOM     16  O   UNL A   1      33.309  24.988  25.942  1.00  0.00    -0.274 OA
ATOM     17  H   UNL A   1      31.853  26.797  26.176  1.00  0.00     0.169 HD
BRANCH  15  18
ATOM     18  C   UNL A   1      33.175  25.146  23.537  1.00  0.00     0.142 C 
ATOM     19  C   UNL A   1      31.064  23.637  23.591  1.00  0.00     0.076 C 
ATOM     20  C   UNL A   1      32.135  24.334  22.752  1.00  0.00     0.192 C 
ATOM     21  N   UNL A   1      32.904  23.332  21.989  1.00  0.00    -0.343 N 
ATOM     22  C   UNL A   1      34.004  22.952  22.876  1.00  0.00     0.261 C 
ATOM     23  H   UNL A   1      33.262  23.736  21.124  1.00  0.00     0.346 HD
ATOM     24  H   UNL A   1      32.332  22.532  21.719  1.00  0.00     0.346 HD
ATOM     25  C   UNL A   1      34.441  24.265  23.500  1.00  0.00     0.081 C 
ENDBRANCH  15  18
ENDBRANCH   8  14
ENDBRANCH   4   7
ENDBRANCH   2   3
ENDBRANCH   1   2
BRANCH   1  26
ATOM     26  C   UNL A   1      31.586  32.024  26.501  1.00  0.00     0.023 C 
BRANCH  26  27
ATOM     27  C   UNL A   1      32.698  32.722  27.281  1.00  0.00     0.116 C 
BRANCH  27  28
ATOM     28  N   UNL A   1      32.407  34.102  27.636  1.00  0.00    -0.352 N 
ATOM     29  C   UNL A   1      33.008  34.956  28.536  1.00  0.00     0.251 C 
ATOM     30  H   UNL A   1      31.646  34.495  27.149  1.00  0.00     0.163 HD
ATOM     31  O   UNL A   1      32.528  36.063  28.734  1.00  0.00    -0.269 OA
BRANCH  29  32
ATOM     32  C   UNL A   1      34.201  34.534  29.311  1.00  0.00     0.039 A 
ATOM     33  C   UNL A   1      34.012  34.083  30.623  1.00  0.00     0.014 A 
ATOM     34  C   UNL A   1      35.489  34.576  28.779  1.00  0.00     0.014 A 
ATOM     35  C   UNL A   1      35.092  33.567  31.346  1.00  0.00     0.010 A 
ATOM     36  C   UNL A   1      36.547  33.976  29.462  1.00  0.00     0.010 A 
ATOM     37  C   UNL A   1      36.356  33.445  30.746  1.00  0.00    -0.014 A 
BRANCH  37  38
ATOM     38  C   UNL A   1      37.461  32.716  31.427  1.00  0.00     0.031 A 
ATOM     39  C   UNL A   1      38.155  31.561  30.760  1.00  0.00     0.074 A 
ATOM     40  C   UNL A   1      37.795  33.056  32.687  1.00  0.00     0.049 A 
ATOM     41  N   UNL A   1      39.101  30.785  31.228  1.00  0.00    -0.248 NA
ATOM     42  C   UNL A   1      37.710  31.210  29.402  1.00  0.00     0.031 C 
ATOM     43  C   UNL A   1      37.157  34.113  33.474  1.00  0.00     0.029 A 
ATOM     44  N   UNL A   1      38.752  32.548  33.533  1.00  0.00    -0.354 N 
ATOM     45  C   UNL A   1      39.354  29.852  30.232  1.00  0.00     0.074 A 
ATOM     46  C   UNL A   1      38.427  30.124  29.153  1.00  0.00     0.031 C 
ATOM     47  C   UNL A   1      37.765  34.204  34.667  1.00  0.00     0.029 A 
ATOM     48  C   UNL A   1      38.808  33.187  34.749  1.00  0.00     0.049 A 
ATOM     49  H   UNL A   1      39.341  31.798  33.291  1.00  0.00     0.167 HD
ATOM     50  C   UNL A   1      40.292  28.876  30.206  1.00  0.00     0.037 A 
ATOM     51  C   UNL A   1      39.609  32.980  35.812  1.00  0.00     0.037 A 
ATOM     52  C   UNL A   1      41.239  28.627  31.262  1.00  0.00     0.049 A 
ATOM     53  C   UNL A   1      40.650  31.898  35.754  1.00  0.00     0.074 A 
ATOM     54  C   UNL A   1      42.275  27.709  31.290  1.00  0.00     0.029 A 
ATOM     55  N   UNL A   1      41.266  29.299  32.475  1.00  0.00    -0.354 N 
ATOM     56  N   UNL A   1      40.922  31.067  34.779  1.00  0.00    -0.248 NA
ATOM     57  C   UNL A   1      41.495  31.725  36.945  1.00  0.00     0.031 C 
ATOM     58  C   UNL A   1      42.903  27.796  32.537  1.00  0.00     0.029 A 
ATOM     59  C   UNL A   1      42.288  28.799  33.268  1.00  0.00     0.049 A 
ATOM     60  H   UNL A   1      40.652  30.023  32.734  1.00  0.00     0.167 HD
ATOM     61  C   UNL A   1      41.975  30.283  35.228  1.00  0.00     0.074 A 
ATOM     62  C   UNL A   1      42.307  30.749  36.558  1.00  0.00     0.031 C 
ATOM     63  C   UNL A   1      42.605  29.265  34.593  1.00  0.00     0.037 A 
BRANCH  50  64
ATOM     64  C   UNL A   1      40.363  28.006  28.984  1.00  0.00     0.064 A 
ATOM     65  C   UNL A   1      41.115  28.402  27.868  1.00  0.00     0.173 A 
ATOM     66  C   UNL A   1      39.631  26.813  28.893  1.00  0.00     0.173 A 
ATOM     67  F   UNL A   1      41.826  29.539  27.900  1.00  0.00    -0.203 F 
ATOM     68  C   UNL A   1      41.124  27.639  26.704  1.00  0.00     0.198 A 
ATOM     69  C   UNL A   1      39.665  26.037  27.737  1.00  0.00     0.198 A 
ATOM     70  F   UNL A   1      38.903  26.386  29.937  1.00  0.00    -0.203 F 
ATOM     71  F   UNL A   1      41.826  28.051  25.640  1.00  0.00    -0.200 F 
ATOM     72  C   UNL A   1      40.403  26.456  26.641  1.00  0.00     0.200 A 
ATOM     73  F   UNL A   1      38.986  24.883  27.687  1.00  0.00    -0.200 F 
ATOM     74  F   UNL A   1      40.422  25.716  25.523  1.00  0.00    -0.200 F 
ENDBRANCH  50  64
BRANCH  51  75
ATOM     75  C   UNL A   1      39.480  33.855  37.006  1.00  0.00     0.064 A 
ATOM     76  C   UNL A   1      38.711  33.473  38.114  1.00  0.00     0.173 A 
ATOM     77  C   UNL A   1      40.098  35.112  37.040  1.00  0.00     0.173 A 
ATOM     78  F   UNL A   1      38.095  32.282  38.126  1.00  0.00    -0.203 F 
ATOM     79  C   UNL A   1      38.548  34.325  39.204  1.00  0.00     0.198 A 
ATOM     80  C   UNL A   1      39.953  35.955  38.141  1.00  0.00     0.198 A 
ATOM     81  F   UNL A   1      40.860  35.512  36.012  1.00  0.00    -0.203 F 
ATOM     82  F   UNL A   1      37.778  33.953  40.235  1.00  0.00    -0.200 F 
ATOM     83  C   UNL A   1      39.172  35.565  39.217  1.00  0.00     0.200 A 
ATOM     84  F   UNL A   1      40.576  37.141  38.160  1.00  0.00    -0.200 F 
ATOM     85  F   UNL A   1      39.021  36.381  40.269  1.00  0.00    -0.200 F 
ENDBRANCH  51  75
BRANCH  63  86
ATOM     86  C   UNL A   1      43.724  28.581  35.322  1.00  0.00     0.064 A 
ATOM     87  C   UNL A   1      45.051  29.007  35.154  1.00  0.00     0.173 A 
ATOM     88  C   UNL A   1      43.491  27.459  36.129  1.00  0.00     0.173 A 
ATOM     89  F   UNL A   1      45.327  30.071  34.386  1.00  0.00    -0.203 F 
ATOM     90  C   UNL A   1      46.103  28.324  35.758  1.00  0.00     0.198 A 
ATOM     91  C   UNL A   1      44.543  26.795  36.753  1.00  0.00     0.198 A 
ATOM     92  F   UNL A   1      42.237  27.022  36.331  1.00  0.00    -0.203 F 
ATOM     93  F   UNL A   1      47.364  28.730  35.558  1.00  0.00    -0.200 F 
ATOM     94  C   UNL A   1      45.849  27.222  36.559  1.00  0.00     0.200 A 
ATOM     95  F   UNL A   1      44.294  25.744  37.546  1.00  0.00    -0.200 F 
ATOM     96  F   UNL A   1      46.862  26.573  37.148  1.00  0.00    -0.200 F 
ENDBRANCH  63  86
ENDBRANCH  37  38
ENDBRANCH  29  32
ENDBRANCH  27  28
ENDBRANCH  26  27
ENDBRANCH   1  26
TORSDOF 13
ENDMDL
MODEL 3
REMARK VINA RESULT:     -12.7      2.049      3.054
REMARK SMILES C[C@@H]1[NH2+]CC[C@@H]1C(=O)Nc1cc(F)ccc1C(=O)NCCCCNC(=O)c1ccc(-c2c3nc(c(-c4c(F)c(F)c(F)c(F)c4F)c4ccc([nH]4)c(-c4c(F)c(F)c(F)c(F)c4F)c4nc(c(-c5c(F)c(F)c(F)c(F)c5F)c5ccc2[nH]5)C=C4)C=C3)cc1
REMARK SMILES IDX 21 1 20 2 19 3 17 4 18 5 16 7 10 8 11 9 12 10 15 11 13 12
REMARK SMILES IDX 14 13 9 14 7 15 8 16 6 18 1 19 2 20 3 21 4 22 5 25 22 26
REMARK SMILES IDX 23 27 24 28 25 29 26 31 27 32 28 33 89 34 29 35 88 36 30 37
REMARK SMILES IDX 31 38 32 39 82 40 33 41 87 42 81 43 83 44 34 45 86 46 80 47
REMARK SMILES IDX 79 48 35 50 67 51 47 52 66 53 48 54 51 55 65 56 84 57 49 58
REMARK SMILES IDX 50 59 64 61 85 62 52 63 36 64 37 65 45 66 38 67 39 68 43 69
REMARK SMILES IDX 46 70 40 71 41 72 44 73 42 74 68 75 69 76 77 77 70 78 71 79
REMARK SMILES IDX 75 80 78 81 72 82 73 83 76 84 74 85 53 86 54 87 62 88 55 89
REMARK SMILES IDX 56 90 60 91 63 92 57 93 58 94 61 95 59 96
REMARK H PARENT 19 6 9 17 3 23 3 24 24 30 83 49 51 60
REMARK Flexibility Score: inf
ROOT
ATOM      1  C   UNL A   1      31.484  30.585  26.340  1.00  0.00     0.023 C 
ENDROOT
BRANCH   1   2
ATOM      2  C   UNL A   1      32.876  29.963  26.387  1.00  0.00     0.116 C 
BRANCH   2   3
ATOM      3  N   UNL A   1      33.468  29.682  25.096  1.00  0.00    -0.352 N 
ATOM      4  C   UNL A   1      32.938  29.157  23.944  1.00  0.00     0.253 C 
ATOM      5  O   UNL A   1      33.672  29.107  22.955  1.00  0.00    -0.269 OA
ATOM      6  H   UNL A   1      34.424  29.909  25.032  1.00  0.00     0.163 HD
BRANCH   4   7
ATOM      7  C   UNL A   1      31.565  28.582  23.831  1.00  0.00     0.063 A 
ATOM      8  C   UNL A   1      31.118  27.352  24.358  1.00  0.00     0.056 A 
ATOM      9  C   UNL A   1      29.773  27.001  24.187  1.00  0.00     0.066 A 
ATOM     10  C   UNL A   1      28.890  27.836  23.509  1.00  0.00     0.125 A 
ATOM     11  C   UNL A   1      30.646  29.417  23.155  1.00  0.00     0.019 A 
ATOM     12  F   UNL A   1      27.603  27.483  23.407  1.00  0.00    -0.207 F 
ATOM     13  C   UNL A   1      29.312  29.045  22.992  1.00  0.00     0.040 A 
BRANCH   8  14
ATOM     14  N   UNL A   1      31.932  26.578  25.204  1.00  0.00    -0.325 N 
ATOM     15  C   UNL A   1      32.797  25.544  24.954  1.00  0.00     0.233 C 
ATOM     16  O   UNL A   1      33.345  25.031  25.934  1.00  0.00    -0.274 OA
ATOM     17  H   UNL A   1      31.869  26.825  26.155  1.00  0.00     0.169 HD
BRANCH  15  18
ATOM     18  C   UNL A   1      33.188  25.153  23.527  1.00  0.00     0.142 C 
ATOM     19  C   UNL A   1      31.073  23.652  23.607  1.00  0.00     0.076 C 
ATOM     20  C   UNL A   1      32.142  24.336  22.755  1.00  0.00     0.192 C 
ATOM     21  N   UNL A   1      32.904  23.324  21.999  1.00  0.00    -0.343 N 
ATOM     22  C   UNL A   1      34.007  22.949  22.885  1.00  0.00     0.261 C 
ATOM     23  H   UNL A   1      33.259  23.718  21.129  1.00  0.00     0.346 HD
ATOM     24  H   UNL A   1      32.328  22.523  21.740  1.00  0.00     0.346 HD
ATOM     25  C   UNL A   1      34.451  24.267  23.493  1.00  0.00     0.081 C 
ENDBRANCH  15  18
ENDBRANCH   8  14
ENDBRANCH   4   7
ENDBRANCH   2   3
ENDBRANCH   1   2
BRANCH   1  26
ATOM     26  C   UNL A   1      31.408  32.105  26.503  1.00  0.00     0.023 C 
BRANCH  26  27
ATOM     27  C   UNL A   1      32.554  32.780  27.255  1.00  0.00     0.116 C 
BRANCH  27  28
ATOM     28  N   UNL A   1      32.293  34.160  27.630  1.00  0.00    -0.352 N 
ATOM     29  C   UNL A   1      32.923  34.992  28.532  1.00  0.00     0.251 C 
ATOM     30  H   UNL A   1      31.532  34.573  27.160  1.00  0.00     0.163 HD
ATOM     31  O   UNL A   1      32.466  36.104  28.751  1.00  0.00    -0.269 OA
BRANCH  29  32
ATOM     32  C   UNL A   1      34.119  34.539  29.284  1.00  0.00     0.039 A 
ATOM     33  C   UNL A   1      33.939  34.058  30.586  1.00  0.00     0.014 A 
ATOM     34  C   UNL A   1      35.402  34.580  28.739  1.00  0.00     0.014 A 
ATOM     35  C   UNL A   1      35.020  33.514  31.285  1.00  0.00     0.010 A 
ATOM     36  C   UNL A   1      36.460  33.952  29.396  1.00  0.00     0.010 A 
ATOM     37  C   UNL A   1      36.278  33.393  30.669  1.00  0.00    -0.014 A 
BRANCH  37  38
ATOM     38  C   UNL A   1      37.381  32.636  31.321  1.00  0.00     0.031 A 
ATOM     39  C   UNL A   1      37.851  32.987  32.705  1.00  0.00     0.074 A 
ATOM     40  C   UNL A   1      38.012  31.667  30.629  1.00  0.00     0.049 A 
ATOM     41  N   UNL A   1      38.830  32.464  33.402  1.00  0.00    -0.248 NA
ATOM     42  C   UNL A   1      37.151  34.086  33.388  1.00  0.00     0.031 C 
ATOM     43  C   UNL A   1      37.701  31.272  29.253  1.00  0.00     0.029 A 
ATOM     44  N   UNL A   1      39.050  30.838  30.982  1.00  0.00    -0.354 N 
ATOM     45  C   UNL A   1      38.871  33.176  34.592  1.00  0.00     0.074 A 
ATOM     46  C   UNL A   1      37.854  34.203  34.506  1.00  0.00     0.031 C 
ATOM     47  C   UNL A   1      38.497  30.253  28.896  1.00  0.00     0.029 A 
ATOM     48  C   UNL A   1      39.403  29.946  29.998  1.00  0.00     0.049 A 
ATOM     49  H   UNL A   1      39.497  30.879  31.858  1.00  0.00     0.167 HD
ATOM     50  C   UNL A   1      39.664  32.975  35.671  1.00  0.00     0.037 A 
ATOM     51  C   UNL A   1      40.350  28.988  29.981  1.00  0.00     0.037 A 
ATOM     52  C   UNL A   1      40.652  31.932  35.773  1.00  0.00     0.049 A 
ATOM     53  C   UNL A   1      41.210  28.777  31.195  1.00  0.00     0.074 A 
ATOM     54  C   UNL A   1      41.449  31.604  36.857  1.00  0.00     0.029 A 
ATOM     55  N   UNL A   1      40.976  31.047  34.757  1.00  0.00    -0.354 N 
ATOM     56  N   UNL A   1      41.192  29.415  32.339  1.00  0.00    -0.248 NA
ATOM     57  C   UNL A   1      42.222  27.714  31.115  1.00  0.00     0.031 C 
ATOM     58  C   UNL A   1      42.286  30.549  36.482  1.00  0.00     0.029 A 
ATOM     59  C   UNL A   1      41.979  30.188  35.180  1.00  0.00     0.049 A 
ATOM     60  H   UNL A   1      40.558  31.030  33.866  1.00  0.00     0.167 HD
ATOM     61  C   UNL A   1      42.175  28.825  33.120  1.00  0.00     0.074 A 
ATOM     62  C   UNL A   1      42.760  27.764  32.327  1.00  0.00     0.031 C 
ATOM     63  C   UNL A   1      42.559  29.140  34.381  1.00  0.00     0.037 A 
BRANCH  50  64
ATOM     64  C   UNL A   1      39.489  33.890  36.848  1.00  0.00     0.064 A 
ATOM     65  C   UNL A   1      40.170  35.115  36.909  1.00  0.00     0.173 A 
ATOM     66  C   UNL A   1      38.700  33.522  37.948  1.00  0.00     0.173 A 
ATOM     67  F   UNL A   1      40.944  35.511  35.887  1.00  0.00    -0.203 F 
ATOM     68  C   UNL A   1      40.073  35.934  38.031  1.00  0.00     0.198 A 
ATOM     69  C   UNL A   1      38.583  34.356  39.057  1.00  0.00     0.198 A 
ATOM     70  F   UNL A   1      38.023  32.364  37.935  1.00  0.00    -0.203 F 
ATOM     71  F   UNL A   1      40.754  37.086  38.079  1.00  0.00    -0.200 F 
ATOM     72  C   UNL A   1      39.276  35.555  39.102  1.00  0.00     0.200 A 
ATOM     73  F   UNL A   1      37.795  33.999  40.081  1.00  0.00    -0.200 F 
ATOM     74  F   UNL A   1      39.175  36.350  40.176  1.00  0.00    -0.200 F 
ENDBRANCH  50  64
BRANCH  51  75
ATOM     75  C   UNL A   1      40.497  28.127  28.780  1.00  0.00     0.064 A 
ATOM     76  C   UNL A   1      41.286  28.519  27.689  1.00  0.00     0.173 A 
ATOM     77  C   UNL A   1      39.814  26.906  28.688  1.00  0.00     0.173 A 
ATOM     78  F   UNL A   1      41.954  29.681  27.727  1.00  0.00    -0.203 F 
ATOM     79  C   UNL A   1      41.370  27.732  26.543  1.00  0.00     0.198 A 
ATOM     80  C   UNL A   1      39.918  26.108  27.551  1.00  0.00     0.198 A 
ATOM     81  F   UNL A   1      39.064  26.481  29.714  1.00  0.00    -0.203 F 
ATOM     82  F   UNL A   1      42.102  28.145  25.500  1.00  0.00    -0.200 F 
ATOM     83  C   UNL A   1      40.688  26.525  26.476  1.00  0.00     0.200 A 
ATOM     84  F   UNL A   1      39.276  24.933  27.499  1.00  0.00    -0.200 F 
ATOM     85  F   UNL A   1      40.776  25.764  25.376  1.00  0.00    -0.200 F 
ENDBRANCH  51  75
BRANCH  63  86
ATOM     86  C   UNL A   1      43.663  28.330  34.992  1.00  0.00     0.064 A 
ATOM     87  C   UNL A   1      43.377  27.144  35.687  1.00  0.00     0.173 A 
ATOM     88  C   UNL A   1      44.996  28.763  34.952  1.00  0.00     0.173 A 
ATOM     89  F   UNL A   1      42.118  26.691  35.761  1.00  0.00    -0.203 F 
ATOM     90  C   UNL A   1      44.385  26.431  36.330  1.00  0.00     0.198 A 
ATOM     91  C   UNL A   1      46.005  28.033  35.573  1.00  0.00     0.198 A 
ATOM     92  F   UNL A   1      45.321  29.883  34.287  1.00  0.00    -0.203 F 
ATOM     93  F   UNL A   1      44.085  25.319  37.014  1.00  0.00    -0.200 F 
ATOM     94  C   UNL A   1      45.697  26.874  36.271  1.00  0.00     0.200 A 
ATOM     95  F   UNL A   1      47.276  28.449  35.495  1.00  0.00    -0.200 F 
ATOM     96  F   UNL A   1      46.668  26.181  36.881  1.00  0.00    -0.200 F 
ENDBRANCH  63  86
ENDBRANCH  37  38
ENDBRANCH  29  32
ENDBRANCH  27  28
ENDBRANCH  26  27
ENDBRANCH   1  26
TORSDOF 13
ENDMDL
