MODEL 1
REMARK VINA RESULT:     -12.5      0.000      0.000
REMARK SMILES O=C(CC1(NC(=O)c2cc([N+](=O)[O-])ccc2F)CCC1)NCCCCNC(=O)c1ccc(-c2c3nc(c(-c4c(F)c(F)c(F)c(F)c4F)c4ccc([nH]4)c(-c4c(F)c(F)c(F)c(F)c4F)c4nc(c(-c5c(F)c(F)c(F)c(F)c5F)c5ccc2[nH]5)C=C4)C=C3)cc1
REMARK SMILES IDX 22 1 21 2 1 3 2 4 3 6 4 7 18 8 20 9 19 10 5 11 6 12 7 14
REMARK SMILES IDX 8 15 9 16 16 17 10 18 15 19 17 20 14 21 11 22 12 23 13 24
REMARK SMILES IDX 23 25 24 26 25 27 26 28 27 29 28 31 29 32 30 33 91 34 31 35
REMARK SMILES IDX 90 36 32 37 33 38 34 39 84 40 35 41 89 42 83 43 85 44 36 45
REMARK SMILES IDX 88 46 82 47 81 48 37 50 69 51 49 52 68 53 50 54 53 55 67 56
REMARK SMILES IDX 86 57 51 58 52 59 66 61 87 62 54 63 38 64 39 65 47 66 40 67
REMARK SMILES IDX 41 68 45 69 48 70 42 71 43 72 46 73 44 74 70 75 71 76 79 77
REMARK SMILES IDX 72 78 73 79 77 80 80 81 74 82 75 83 78 84 76 85 55 86 56 87
REMARK SMILES IDX 64 88 57 89 58 90 62 91 65 92 59 93 60 94 63 95 61 96
REMARK H PARENT 21 5 5 13 26 30 85 49 53 60
REMARK Flexibility Score: inf
ROOT
ATOM      1  C   UNL A   1      33.118  30.045  26.992  1.00  0.00     0.116 C 
ENDROOT
BRANCH   1   2
ATOM      2  N   UNL A   1      33.193  28.600  26.899  1.00  0.00    -0.356 N 
ATOM      3  O   UNL A   1      34.006  28.635  24.761  1.00  0.00    -0.275 OA
ATOM      4  C   UNL A   1      33.654  28.001  25.755  1.00  0.00     0.222 C 
ATOM      5  H   UNL A   1      32.912  28.044  27.661  1.00  0.00     0.163 HD
BRANCH   4   6
ATOM      6  C   UNL A   1      33.603  26.498  25.722  1.00  0.00     0.128 C 
BRANCH   6   7
ATOM      7  C   UNL A   1      32.599  25.804  24.806  1.00  0.00     0.049 C 
ATOM      8  C   UNL A   1      31.792  24.680  25.539  1.00  0.00     0.029 C 
ATOM      9  C   UNL A   1      31.252  26.589  24.690  1.00  0.00     0.029 C 
ATOM     10  C   UNL A   1      30.482  25.319  25.059  1.00  0.00     0.005 C 
BRANCH   7  11
ATOM     11  N   UNL A   1      33.048  25.328  23.457  1.00  0.00    -0.346 N 
ATOM     12  C   UNL A   1      33.442  24.130  22.906  1.00  0.00     0.254 C 
ATOM     13  H   UNL A   1      33.063  26.058  22.796  1.00  0.00     0.164 HD
ATOM     14  O   UNL A   1      33.649  24.059  21.697  1.00  0.00    -0.269 OA
BRANCH  12  15
ATOM     15  C   UNL A   1      33.783  22.974  23.725  1.00  0.00     0.082 A 
ATOM     16  C   UNL A   1      32.941  21.860  23.636  1.00  0.00     0.102 A 
ATOM     17  C   UNL A   1      34.917  22.947  24.533  1.00  0.00     0.136 A 
ATOM     18  C   UNL A   1      33.323  20.671  24.263  1.00  0.00     0.270 A 
ATOM     19  C   UNL A   1      35.299  21.758  25.152  1.00  0.00     0.047 A 
ATOM     20  F   UNL A   1      35.714  24.019  24.628  1.00  0.00    -0.206 F 
ATOM     21  C   UNL A   1      34.517  20.606  24.999  1.00  0.00     0.088 A 
BRANCH  18  22
ATOM     22  N   UNL A   1      32.487  19.474  24.106  1.00  0.00     0.062 N 
ATOM     23  O   UNL A   1      32.153  18.872  25.137  1.00  0.00    -0.258 OA
ATOM     24  O   UNL A   1      32.156  19.150  22.959  1.00  0.00    -0.258 OA
ENDBRANCH  18  22
ENDBRANCH  12  15
ENDBRANCH   7  11
ENDBRANCH   6   7
ENDBRANCH   4   6
ENDBRANCH   1   2
BRANCH   1  25
ATOM     25  C   UNL A   1      31.773  30.581  26.517  1.00  0.00     0.023 C 
BRANCH  25  26
ATOM     26  C   UNL A   1      31.538  32.063  26.801  1.00  0.00     0.023 C 
BRANCH  26  27
ATOM     27  C   UNL A   1      32.768  32.842  27.252  1.00  0.00     0.116 C 
BRANCH  27  28
ATOM     28  N   UNL A   1      32.463  34.203  27.659  1.00  0.00    -0.352 N 
ATOM     29  C   UNL A   1      33.017  34.965  28.660  1.00  0.00     0.251 C 
ATOM     30  H   UNL A   1      31.754  34.647  27.140  1.00  0.00     0.163 HD
ATOM     31  O   UNL A   1      32.538  36.055  28.942  1.00  0.00    -0.269 OA
BRANCH  29  32
ATOM     32  C   UNL A   1      34.177  34.451  29.423  1.00  0.00     0.039 A 
ATOM     33  C   UNL A   1      33.946  33.826  30.651  1.00  0.00     0.014 A 
ATOM     34  C   UNL A   1      35.479  34.581  28.935  1.00  0.00     0.014 A 
ATOM     35  C   UNL A   1      35.015  33.267  31.355  1.00  0.00     0.010 A 
ATOM     36  C   UNL A   1      36.532  33.954  29.597  1.00  0.00     0.010 A 
ATOM     37  C   UNL A   1      36.311  33.289  30.813  1.00  0.00    -0.014 A 
BRANCH  37  38
ATOM     38  C   UNL A   1      37.442  32.609  31.496  1.00  0.00     0.031 A 
ATOM     39  C   UNL A   1      38.136  31.447  30.845  1.00  0.00     0.074 A 
ATOM     40  C   UNL A   1      37.806  33.003  32.733  1.00  0.00     0.049 A 
ATOM     41  N   UNL A   1      39.095  30.689  31.312  1.00  0.00    -0.248 NA
ATOM     42  C   UNL A   1      37.677  31.069  29.499  1.00  0.00     0.031 C 
ATOM     43  C   UNL A   1      37.185  34.093  33.487  1.00  0.00     0.029 A 
ATOM     44  N   UNL A   1      38.782  32.531  33.576  1.00  0.00    -0.354 N 
ATOM     45  C   UNL A   1      39.347  29.746  30.326  1.00  0.00     0.074 A 
ATOM     46  C   UNL A   1      38.403  29.988  29.257  1.00  0.00     0.031 C 
ATOM     47  C   UNL A   1      37.814  34.227  34.664  1.00  0.00     0.029 A 
ATOM     48  C   UNL A   1      38.851  33.204  34.771  1.00  0.00     0.049 A 
ATOM     49  H   UNL A   1      39.375  31.780  33.344  1.00  0.00     0.167 HD
ATOM     50  C   UNL A   1      40.298  28.782  30.304  1.00  0.00     0.037 A 
ATOM     51  C   UNL A   1      39.652  33.016  35.836  1.00  0.00     0.037 A 
ATOM     52  C   UNL A   1      41.251  28.561  31.360  1.00  0.00     0.049 A 
ATOM     53  C   UNL A   1      40.683  31.921  35.800  1.00  0.00     0.074 A 
ATOM     54  C   UNL A   1      42.288  27.644  31.404  1.00  0.00     0.029 A 
ATOM     55  N   UNL A   1      41.284  29.259  32.559  1.00  0.00    -0.354 N 
ATOM     56  N   UNL A   1      40.949  31.070  34.838  1.00  0.00    -0.248 NA
ATOM     57  C   UNL A   1      41.527  31.759  36.992  1.00  0.00     0.031 C 
ATOM     58  C   UNL A   1      42.908  27.746  32.651  1.00  0.00     0.029 A 
ATOM     59  C   UNL A   1      42.304  28.772  33.360  1.00  0.00     0.049 A 
ATOM     60  H   UNL A   1      40.673  29.992  32.803  1.00  0.00     0.167 HD
ATOM     61  C   UNL A   1      42.003  30.291  35.296  1.00  0.00     0.074 A 
ATOM     62  C   UNL A   1      42.338  30.777  36.618  1.00  0.00     0.031 C 
ATOM     63  C   UNL A   1      42.633  29.266  34.673  1.00  0.00     0.037 A 
BRANCH  50  64
ATOM     64  C   UNL A   1      40.372  27.893  29.095  1.00  0.00     0.064 A 
ATOM     65  C   UNL A   1      41.126  28.274  27.976  1.00  0.00     0.173 A 
ATOM     66  C   UNL A   1      39.635  26.701  29.014  1.00  0.00     0.173 A 
ATOM     67  F   UNL A   1      41.845  29.407  27.998  1.00  0.00    -0.203 F 
ATOM     68  C   UNL A   1      41.127  27.505  26.815  1.00  0.00     0.198 A 
ATOM     69  C   UNL A   1      39.664  25.917  27.864  1.00  0.00     0.198 A 
ATOM     70  F   UNL A   1      38.904  26.286  30.061  1.00  0.00    -0.203 F 
ATOM     71  F   UNL A   1      41.826  27.909  25.745  1.00  0.00    -0.200 F 
ATOM     72  C   UNL A   1      40.400  26.325  26.762  1.00  0.00     0.200 A 
ATOM     73  F   UNL A   1      38.983  24.764  27.824  1.00  0.00    -0.200 F 
ATOM     74  F   UNL A   1      40.412  25.580  25.649  1.00  0.00    -0.200 F 
ENDBRANCH  50  64
BRANCH  51  75
ATOM     75  C   UNL A   1      39.527  33.916  37.014  1.00  0.00     0.064 A 
ATOM     76  C   UNL A   1      38.741  33.567  38.122  1.00  0.00     0.173 A 
ATOM     77  C   UNL A   1      40.164  35.163  37.035  1.00  0.00     0.173 A 
ATOM     78  F   UNL A   1      38.107  32.385  38.151  1.00  0.00    -0.203 F 
ATOM     79  C   UNL A   1      38.576  34.444  39.192  1.00  0.00     0.198 A 
ATOM     80  C   UNL A   1      40.022  36.028  38.119  1.00  0.00     0.198 A 
ATOM     81  F   UNL A   1      40.945  35.534  36.008  1.00  0.00    -0.203 F 
ATOM     82  F   UNL A   1      37.786  34.102  40.220  1.00  0.00    -0.200 F 
ATOM     83  C   UNL A   1      39.220  35.671  39.192  1.00  0.00     0.200 A 
ATOM     84  F   UNL A   1      40.667  37.202  38.125  1.00  0.00    -0.200 F 
ATOM     85  F   UNL A   1      39.069  36.510  40.226  1.00  0.00    -0.200 F 
ENDBRANCH  51  75
BRANCH  63  86
ATOM     86  C   UNL A   1      43.773  28.603  35.392  1.00  0.00     0.064 A 
ATOM     87  C   UNL A   1      43.528  27.567  36.308  1.00  0.00     0.173 A 
ATOM     88  C   UNL A   1      45.094  29.052  35.248  1.00  0.00     0.173 A 
ATOM     89  F   UNL A   1      42.282  27.107  36.490  1.00  0.00    -0.203 F 
ATOM     90  C   UNL A   1      44.559  27.022  37.067  1.00  0.00     0.198 A 
ATOM     91  C   UNL A   1      46.128  28.482  35.987  1.00  0.00     0.198 A 
ATOM     92  F   UNL A   1      45.383  30.031  34.378  1.00  0.00    -0.203 F 
ATOM     93  F   UNL A   1      44.292  26.067  37.968  1.00  0.00    -0.200 F 
ATOM     94  C   UNL A   1      45.858  27.478  36.905  1.00  0.00     0.200 A 
ATOM     95  F   UNL A   1      47.387  28.906  35.811  1.00  0.00    -0.200 F 
ATOM     96  F   UNL A   1      46.851  26.949  37.633  1.00  0.00    -0.200 F 
ENDBRANCH  63  86
ENDBRANCH  37  38
ENDBRANCH  29  32
ENDBRANCH  27  28
ENDBRANCH  26  27
ENDBRANCH  25  26
ENDBRANCH   1  25
TORSDOF 15
ENDMDL
MODEL 2
REMARK VINA RESULT:     -12.5      0.815      7.358
REMARK SMILES O=C(CC1(NC(=O)c2cc([N+](=O)[O-])ccc2F)CCC1)NCCCCNC(=O)c1ccc(-c2c3nc(c(-c4c(F)c(F)c(F)c(F)c4F)c4ccc([nH]4)c(-c4c(F)c(F)c(F)c(F)c4F)c4nc(c(-c5c(F)c(F)c(F)c(F)c5F)c5ccc2[nH]5)C=C4)C=C3)cc1
REMARK SMILES IDX 22 1 21 2 1 3 2 4 3 6 4 7 18 8 20 9 19 10 5 11 6 12 7 14
REMARK SMILES IDX 8 15 9 16 16 17 10 18 15 19 17 20 14 21 11 22 12 23 13 24
REMARK SMILES IDX 23 25 24 26 25 27 26 28 27 29 28 31 29 32 30 33 91 34 31 35
REMARK SMILES IDX 90 36 32 37 33 38 34 39 84 40 35 41 89 42 83 43 85 44 36 45
REMARK SMILES IDX 88 46 82 47 81 48 37 50 69 51 49 52 68 53 50 54 53 55 67 56
REMARK SMILES IDX 86 57 51 58 52 59 66 61 87 62 54 63 38 64 39 65 47 66 40 67
REMARK SMILES IDX 41 68 45 69 48 70 42 71 43 72 46 73 44 74 70 75 71 76 79 77
REMARK SMILES IDX 72 78 73 79 77 80 80 81 74 82 75 83 78 84 76 85 55 86 56 87
REMARK SMILES IDX 64 88 57 89 58 90 62 91 65 92 59 93 60 94 63 95 61 96
REMARK H PARENT 21 5 5 13 26 30 85 49 53 60
REMARK Flexibility Score: inf
ROOT
ATOM      1  C   UNL A   1      32.678  30.091  26.880  1.00  0.00     0.116 C 
ENDROOT
BRANCH   1   2
ATOM      2  N   UNL A   1      32.912  28.781  26.302  1.00  0.00    -0.356 N 
ATOM      3  O   UNL A   1      31.391  27.748  27.661  1.00  0.00    -0.275 OA
ATOM      4  C   UNL A   1      32.218  27.689  26.753  1.00  0.00     0.222 C 
ATOM      5  H   UNL A   1      33.574  28.676  25.581  1.00  0.00     0.163 HD
BRANCH   4   6
ATOM      6  C   UNL A   1      32.602  26.362  26.157  1.00  0.00     0.128 C 
BRANCH   6   7
ATOM      7  C   UNL A   1      31.974  25.927  24.835  1.00  0.00     0.049 C 
ATOM      8  C   UNL A   1      30.839  24.867  25.028  1.00  0.00     0.029 C 
ATOM      9  C   UNL A   1      30.864  26.914  24.346  1.00  0.00     0.029 C 
ATOM     10  C   UNL A   1      29.891  25.742  24.197  1.00  0.00     0.005 C 
BRANCH   7  11
ATOM     11  N   UNL A   1      32.867  25.534  23.696  1.00  0.00    -0.346 N 
ATOM     12  C   UNL A   1      33.654  24.450  23.380  1.00  0.00     0.254 C 
ATOM     13  H   UNL A   1      32.898  26.226  22.997  1.00  0.00     0.164 HD
ATOM     14  O   UNL A   1      34.192  24.395  22.276  1.00  0.00    -0.269 OA
BRANCH  12  15
ATOM     15  C   UNL A   1      34.010  23.435  24.363  1.00  0.00     0.082 A 
ATOM     16  C   UNL A   1      33.406  22.180  24.230  1.00  0.00     0.102 A 
ATOM     17  C   UNL A   1      34.942  23.674  25.370  1.00  0.00     0.136 A 
ATOM     18  C   UNL A   1      33.847  21.128  25.036  1.00  0.00     0.270 A 
ATOM     19  C   UNL A   1      35.385  22.621  26.169  1.00  0.00     0.047 A 
ATOM     20  F   UNL A   1      35.509  24.880  25.504  1.00  0.00    -0.206 F 
ATOM     21  C   UNL A   1      34.858  21.336  25.989  1.00  0.00     0.088 A 
BRANCH  18  22
ATOM     22  N   UNL A   1      33.276  19.788  24.847  1.00  0.00     0.062 N 
ATOM     23  O   UNL A   1      32.048  19.669  24.962  1.00  0.00    -0.258 OA
ATOM     24  O   UNL A   1      34.053  18.866  24.570  1.00  0.00    -0.258 OA
ENDBRANCH  18  22
ENDBRANCH  12  15
ENDBRANCH   7  11
ENDBRANCH   6   7
ENDBRANCH   4   6
ENDBRANCH   1   2
BRANCH   1  25
ATOM     25  C   UNL A   1      31.533  30.824  26.192  1.00  0.00     0.023 C 
BRANCH  25  26
ATOM     26  C   UNL A   1      31.396  32.297  26.574  1.00  0.00     0.023 C 
BRANCH  26  27
ATOM     27  C   UNL A   1      32.597  32.897  27.296  1.00  0.00     0.116 C 
BRANCH  27  28
ATOM     28  N   UNL A   1      32.379  34.268  27.723  1.00  0.00    -0.352 N 
ATOM     29  C   UNL A   1      33.019  34.996  28.697  1.00  0.00     0.251 C 
ATOM     30  H   UNL A   1      31.666  34.749  27.243  1.00  0.00     0.163 HD
ATOM     31  O   UNL A   1      32.608  36.107  29.007  1.00  0.00    -0.269 OA
BRANCH  29  32
ATOM     32  C   UNL A   1      34.191  34.424  29.397  1.00  0.00     0.039 A 
ATOM     33  C   UNL A   1      33.979  33.693  30.569  1.00  0.00     0.014 A 
ATOM     34  C   UNL A   1      35.486  34.601  28.906  1.00  0.00     0.014 A 
ATOM     35  C   UNL A   1      35.058  33.079  31.207  1.00  0.00     0.010 A 
ATOM     36  C   UNL A   1      36.550  33.924  29.497  1.00  0.00     0.010 A 
ATOM     37  C   UNL A   1      36.347  33.155  30.653  1.00  0.00    -0.014 A 
BRANCH  37  38
ATOM     38  C   UNL A   1      37.489  32.423  31.259  1.00  0.00     0.031 A 
ATOM     39  C   UNL A   1      37.996  32.798  32.622  1.00  0.00     0.074 A 
ATOM     40  C   UNL A   1      38.108  31.455  30.554  1.00  0.00     0.049 A 
ATOM     41  N   UNL A   1      39.018  32.319  33.285  1.00  0.00    -0.248 NA
ATOM     42  C   UNL A   1      37.275  33.870  33.327  1.00  0.00     0.031 C 
ATOM     43  C   UNL A   1      37.734  31.024  29.206  1.00  0.00     0.029 A 
ATOM     44  N   UNL A   1      39.183  30.660  30.869  1.00  0.00    -0.354 N 
ATOM     45  C   UNL A   1      39.067  33.034  34.474  1.00  0.00     0.074 A 
ATOM     46  C   UNL A   1      38.008  34.018  34.420  1.00  0.00     0.031 C 
ATOM     47  C   UNL A   1      38.544  30.025  28.823  1.00  0.00     0.029 A 
ATOM     48  C   UNL A   1      39.525  29.775  29.876  1.00  0.00     0.049 A 
ATOM     49  H   UNL A   1      39.664  30.722  31.726  1.00  0.00     0.167 HD
ATOM     50  C   UNL A   1      39.902  32.865  35.526  1.00  0.00     0.037 A 
ATOM     51  C   UNL A   1      40.518  28.868  29.816  1.00  0.00     0.037 A 
ATOM     52  C   UNL A   1      40.939  31.867  35.584  1.00  0.00     0.049 A 
ATOM     53  C   UNL A   1      41.451  28.718  30.986  1.00  0.00     0.074 A 
ATOM     54  C   UNL A   1      41.801  31.584  36.630  1.00  0.00     0.029 A 
ATOM     55  N   UNL A   1      41.259  30.993  34.555  1.00  0.00    -0.354 N 
ATOM     56  N   UNL A   1      41.452  29.361  32.128  1.00  0.00    -0.248 NA
ATOM     57  C   UNL A   1      42.519  27.716  30.863  1.00  0.00     0.031 C 
ATOM     58  C   UNL A   1      42.679  30.581  36.213  1.00  0.00     0.029 A 
ATOM     59  C   UNL A   1      42.323  30.191  34.932  1.00  0.00     0.049 A 
ATOM     60  H   UNL A   1      40.796  30.950  33.687  1.00  0.00     0.167 HD
ATOM     61  C   UNL A   1      42.499  28.828  32.869  1.00  0.00     0.074 A 
ATOM     62  C   UNL A   1      43.106  27.798  32.051  1.00  0.00     0.031 C 
ATOM     63  C   UNL A   1      42.917  29.164  34.112  1.00  0.00     0.037 A 
BRANCH  50  64
ATOM     64  C   UNL A   1      39.731  33.768  36.714  1.00  0.00     0.064 A 
ATOM     65  C   UNL A   1      38.897  33.395  37.778  1.00  0.00     0.173 A 
ATOM     66  C   UNL A   1      40.330  35.037  36.765  1.00  0.00     0.173 A 
ATOM     67  F   UNL A   1      38.295  32.195  37.778  1.00  0.00    -0.203 F 
ATOM     68  C   UNL A   1      38.656  34.262  38.840  1.00  0.00     0.198 A 
ATOM     69  C   UNL A   1      40.113  35.888  37.844  1.00  0.00     0.198 A 
ATOM     70  F   UNL A   1      41.144  35.439  35.776  1.00  0.00    -0.203 F 
ATOM     71  F   UNL A   1      37.826  33.898  39.827  1.00  0.00    -0.200 F 
ATOM     72  C   UNL A   1      39.268  35.506  38.874  1.00  0.00     0.200 A 
ATOM     73  F   UNL A   1      40.726  37.080  37.888  1.00  0.00    -0.200 F 
ATOM     74  F   UNL A   1      39.044  36.335  39.903  1.00  0.00    -0.200 F 
ENDBRANCH  50  64
BRANCH  51  75
ATOM     75  C   UNL A   1      40.652  28.009  28.610  1.00  0.00     0.064 A 
ATOM     76  C   UNL A   1      41.408  28.417  27.500  1.00  0.00     0.173 A 
ATOM     77  C   UNL A   1      39.991  26.776  28.529  1.00  0.00     0.173 A 
ATOM     78  F   UNL A   1      42.058  29.590  27.525  1.00  0.00    -0.203 F 
ATOM     79  C   UNL A   1      41.475  27.636  26.348  1.00  0.00     0.198 A 
ATOM     80  C   UNL A   1      40.082  25.982  27.388  1.00  0.00     0.198 A 
ATOM     81  F   UNL A   1      39.274  26.332  29.572  1.00  0.00    -0.203 F 
ATOM     82  F   UNL A   1      42.171  28.069  25.288  1.00  0.00    -0.200 F 
ATOM     83  C   UNL A   1      40.816  26.418  26.295  1.00  0.00     0.200 A 
ATOM     84  F   UNL A   1      39.465  24.794  27.350  1.00  0.00    -0.200 F 
ATOM     85  F   UNL A   1      40.888  25.662  25.190  1.00  0.00    -0.200 F 
ENDBRANCH  51  75
BRANCH  63  86
ATOM     86  C   UNL A   1      44.073  28.402  34.695  1.00  0.00     0.064 A 
ATOM     87  C   UNL A   1      43.851  27.215  35.412  1.00  0.00     0.173 A 
ATOM     88  C   UNL A   1      45.385  28.891  34.627  1.00  0.00     0.173 A 
ATOM     89  F   UNL A   1      42.613  26.709  35.515  1.00  0.00    -0.203 F 
ATOM     90  C   UNL A   1      44.896  26.561  36.057  1.00  0.00     0.198 A 
ATOM     91  C   UNL A   1      46.433  28.216  35.247  1.00  0.00     0.198 A 
ATOM     92  F   UNL A   1      45.653  30.015  33.945  1.00  0.00    -0.203 F 
ATOM     93  F   UNL A   1      44.651  25.455  36.773  1.00  0.00    -0.200 F 
ATOM     94  C   UNL A   1      46.186  27.059  35.972  1.00  0.00     0.200 A 
ATOM     95  F   UNL A   1      47.685  28.685  35.143  1.00  0.00    -0.200 F 
ATOM     96  F   UNL A   1      47.193  26.425  36.589  1.00  0.00    -0.200 F 
ENDBRANCH  63  86
ENDBRANCH  37  38
ENDBRANCH  29  32
ENDBRANCH  27  28
ENDBRANCH  26  27
ENDBRANCH  25  26
ENDBRANCH   1  25
TORSDOF 15
ENDMDL
MODEL 3
REMARK VINA RESULT:     -12.5      0.716      7.271
REMARK SMILES O=C(CC1(NC(=O)c2cc([N+](=O)[O-])ccc2F)CCC1)NCCCCNC(=O)c1ccc(-c2c3nc(c(-c4c(F)c(F)c(F)c(F)c4F)c4ccc([nH]4)c(-c4c(F)c(F)c(F)c(F)c4F)c4nc(c(-c5c(F)c(F)c(F)c(F)c5F)c5ccc2[nH]5)C=C4)C=C3)cc1
REMARK SMILES IDX 22 1 21 2 1 3 2 4 3 6 4 7 18 8 20 9 19 10 5 11 6 12 7 14
REMARK SMILES IDX 8 15 9 16 16 17 10 18 15 19 17 20 14 21 11 22 12 23 13 24
REMARK SMILES IDX 23 25 24 26 25 27 26 28 27 29 28 31 29 32 30 33 91 34 31 35
REMARK SMILES IDX 90 36 32 37 33 38 34 39 84 40 35 41 89 42 83 43 85 44 36 45
REMARK SMILES IDX 88 46 82 47 81 48 37 50 69 51 49 52 68 53 50 54 53 55 67 56
REMARK SMILES IDX 86 57 51 58 52 59 66 61 87 62 54 63 38 64 39 65 47 66 40 67
REMARK SMILES IDX 41 68 45 69 48 70 42 71 43 72 46 73 44 74 70 75 71 76 79 77
REMARK SMILES IDX 72 78 73 79 77 80 80 81 74 82 75 83 78 84 76 85 55 86 56 87
REMARK SMILES IDX 64 88 57 89 58 90 62 91 65 92 59 93 60 94 63 95 61 96
REMARK H PARENT 21 5 5 13 26 30 85 49 53 60
REMARK Flexibility Score: inf
ROOT
ATOM      1  C   UNL A   1      32.485  30.078  26.899  1.00  0.00     0.116 C 
ENDROOT
BRANCH   1   2
ATOM      2  N   UNL A   1      32.715  28.769  26.319  1.00  0.00    -0.356 N 
ATOM      3  O   UNL A   1      31.186  27.739  27.672  1.00  0.00    -0.275 OA
ATOM      4  C   UNL A   1      32.015  27.678  26.767  1.00  0.00     0.222 C 
ATOM      5  H   UNL A   1      33.378  28.661  25.599  1.00  0.00     0.163 HD
BRANCH   4   6
ATOM      6  C   UNL A   1      32.394  26.351  26.168  1.00  0.00     0.128 C 
BRANCH   6   7
ATOM      7  C   UNL A   1      31.845  25.965  24.797  1.00  0.00     0.049 C 
ATOM      8  C   UNL A   1      30.696  24.906  24.886  1.00  0.00     0.029 C 
ATOM      9  C   UNL A   1      30.772  26.975  24.275  1.00  0.00     0.029 C 
ATOM     10  C   UNL A   1      29.804  25.815  24.029  1.00  0.00     0.005 C 
BRANCH   7  11
ATOM     11  N   UNL A   1      32.804  25.604  23.702  1.00  0.00    -0.346 N 
ATOM     12  C   UNL A   1      33.521  24.488  23.337  1.00  0.00     0.254 C 
ATOM     13  H   UNL A   1      32.958  26.356  23.086  1.00  0.00     0.164 HD
ATOM     14  O   UNL A   1      34.153  24.492  22.283  1.00  0.00    -0.269 OA
BRANCH  12  15
ATOM     15  C   UNL A   1      33.696  23.350  24.232  1.00  0.00     0.082 A 
ATOM     16  C   UNL A   1      32.957  22.197  23.947  1.00  0.00     0.102 A 
ATOM     17  C   UNL A   1      34.587  23.380  25.301  1.00  0.00     0.136 A 
ATOM     18  C   UNL A   1      33.222  21.029  24.666  1.00  0.00     0.270 A 
ATOM     19  C   UNL A   1      34.855  22.211  26.013  1.00  0.00     0.047 A 
ATOM     20  F   UNL A   1      35.284  24.489  25.581  1.00  0.00    -0.206 F 
ATOM     21  C   UNL A   1      34.191  21.022  25.682  1.00  0.00     0.088 A 
BRANCH  18  22
ATOM     22  N   UNL A   1      32.510  19.792  24.319  1.00  0.00     0.062 N 
ATOM     23  O   UNL A   1      32.417  19.505  23.118  1.00  0.00    -0.258 OA
ATOM     24  O   UNL A   1      32.061  19.108  25.247  1.00  0.00    -0.258 OA
ENDBRANCH  18  22
ENDBRANCH  12  15
ENDBRANCH   7  11
ENDBRANCH   6   7
ENDBRANCH   4   6
ENDBRANCH   1   2
BRANCH   1  25
ATOM     25  C   UNL A   1      31.464  30.884  26.107  1.00  0.00     0.023 C 
BRANCH  25  26
ATOM     26  C   UNL A   1      31.301  32.334  26.560  1.00  0.00     0.023 C 
BRANCH  26  27
ATOM     27  C   UNL A   1      32.491  32.917  27.314  1.00  0.00     0.116 C 
BRANCH  27  28
ATOM     28  N   UNL A   1      32.298  34.305  27.699  1.00  0.00    -0.352 N 
ATOM     29  C   UNL A   1      32.957  35.053  28.645  1.00  0.00     0.251 C 
ATOM     30  H   UNL A   1      31.590  34.781  27.208  1.00  0.00     0.163 HD
ATOM     31  O   UNL A   1      32.565  36.179  28.923  1.00  0.00    -0.269 OA
BRANCH  29  32
ATOM     32  C   UNL A   1      34.123  34.483  29.356  1.00  0.00     0.039 A 
ATOM     33  C   UNL A   1      33.915  33.847  30.582  1.00  0.00     0.014 A 
ATOM     34  C   UNL A   1      35.411  34.573  28.821  1.00  0.00     0.014 A 
ATOM     35  C   UNL A   1      34.987  33.236  31.236  1.00  0.00     0.010 A 
ATOM     36  C   UNL A   1      36.463  33.896  29.433  1.00  0.00     0.010 A 
ATOM     37  C   UNL A   1      36.263  33.219  30.646  1.00  0.00    -0.014 A 
BRANCH  37  38
ATOM     38  C   UNL A   1      37.391  32.486  31.275  1.00  0.00     0.031 A 
ATOM     39  C   UNL A   1      37.886  32.875  32.639  1.00  0.00     0.074 A 
ATOM     40  C   UNL A   1      38.010  31.504  30.589  1.00  0.00     0.049 A 
ATOM     41  N   UNL A   1      38.896  32.396  33.320  1.00  0.00    -0.248 NA
ATOM     42  C   UNL A   1      37.165  33.961  33.321  1.00  0.00     0.031 C 
ATOM     43  C   UNL A   1      37.650  31.060  29.242  1.00  0.00     0.029 A 
ATOM     44  N   UNL A   1      39.076  30.705  30.927  1.00  0.00    -0.354 N 
ATOM     45  C   UNL A   1      38.936  33.124  34.500  1.00  0.00     0.074 A 
ATOM     46  C   UNL A   1      37.886  34.116  34.421  1.00  0.00     0.031 C 
ATOM     47  C   UNL A   1      38.456  30.049  28.881  1.00  0.00     0.029 A 
ATOM     48  C   UNL A   1      39.422  29.804  29.949  1.00  0.00     0.049 A 
ATOM     49  H   UNL A   1      39.547  30.774  31.789  1.00  0.00     0.167 HD
ATOM     50  C   UNL A   1      39.758  32.962  35.564  1.00  0.00     0.037 A 
ATOM     51  C   UNL A   1      40.408  28.889  29.912  1.00  0.00     0.037 A 
ATOM     52  C   UNL A   1      40.785  31.957  35.647  1.00  0.00     0.049 A 
ATOM     53  C   UNL A   1      41.326  28.747  31.095  1.00  0.00     0.074 A 
ATOM     54  C   UNL A   1      41.632  31.680  36.707  1.00  0.00     0.029 A 
ATOM     55  N   UNL A   1      41.110  31.068  34.633  1.00  0.00    -0.354 N 
ATOM     56  N   UNL A   1      41.319  29.404  32.229  1.00  0.00    -0.248 NA
ATOM     57  C   UNL A   1      42.387  27.735  30.997  1.00  0.00     0.031 C 
ATOM     58  C   UNL A   1      42.507  30.666  36.312  1.00  0.00     0.029 A 
ATOM     59  C   UNL A   1      42.164  30.262  35.032  1.00  0.00     0.049 A 
ATOM     60  H   UNL A   1      40.658  31.017  33.760  1.00  0.00     0.167 HD
ATOM     61  C   UNL A   1      42.353  28.871  32.988  1.00  0.00     0.074 A 
ATOM     62  C   UNL A   1      42.960  27.827  32.191  1.00  0.00     0.031 C 
ATOM     63  C   UNL A   1      42.758  29.220  34.232  1.00  0.00     0.037 A 
BRANCH  50  64
ATOM     64  C   UNL A   1      39.579  33.882  36.738  1.00  0.00     0.064 A 
ATOM     65  C   UNL A   1      40.255  35.109  36.791  1.00  0.00     0.173 A 
ATOM     66  C   UNL A   1      38.799  33.516  37.847  1.00  0.00     0.173 A 
ATOM     67  F   UNL A   1      41.019  35.506  35.760  1.00  0.00    -0.203 F 
ATOM     68  C   UNL A   1      40.172  35.928  37.914  1.00  0.00     0.198 A 
ATOM     69  C   UNL A   1      38.692  34.351  38.954  1.00  0.00     0.198 A 
ATOM     70  F   UNL A   1      38.124  32.356  37.844  1.00  0.00    -0.203 F 
ATOM     71  F   UNL A   1      40.857  37.079  37.956  1.00  0.00    -0.200 F 
ATOM     72  C   UNL A   1      39.387  35.551  38.993  1.00  0.00     0.200 A 
ATOM     73  F   UNL A   1      37.911  33.998  39.985  1.00  0.00    -0.200 F 
ATOM     74  F   UNL A   1      39.298  36.345  40.068  1.00  0.00    -0.200 F 
ENDBRANCH  50  64
BRANCH  51  75
ATOM     75  C   UNL A   1      40.550  28.014  28.718  1.00  0.00     0.064 A 
ATOM     76  C   UNL A   1      41.324  28.401  27.614  1.00  0.00     0.173 A 
ATOM     77  C   UNL A   1      39.877  26.787  28.644  1.00  0.00     0.173 A 
ATOM     78  F   UNL A   1      41.986  29.568  27.633  1.00  0.00    -0.203 F 
ATOM     79  C   UNL A   1      41.399  27.605  26.473  1.00  0.00     0.198 A 
ATOM     80  C   UNL A   1      39.976  25.978  27.514  1.00  0.00     0.198 A 
ATOM     81  F   UNL A   1      39.142  26.363  29.683  1.00  0.00    -0.203 F 
ATOM     82  F   UNL A   1      42.113  28.018  25.417  1.00  0.00    -0.200 F 
ATOM     83  C   UNL A   1      40.728  26.393  26.425  1.00  0.00     0.200 A 
ATOM     84  F   UNL A   1      39.346  24.796  27.482  1.00  0.00    -0.200 F 
ATOM     85  F   UNL A   1      40.807  25.623  25.331  1.00  0.00    -0.200 F 
ENDBRANCH  51  75
BRANCH  63  86
ATOM     86  C   UNL A   1      43.901  28.456  34.838  1.00  0.00     0.064 A 
ATOM     87  C   UNL A   1      43.656  27.320  35.627  1.00  0.00     0.173 A 
ATOM     88  C   UNL A   1      45.227  28.899  34.720  1.00  0.00     0.173 A 
ATOM     89  F   UNL A   1      42.406  26.861  35.780  1.00  0.00    -0.203 F 
ATOM     90  C   UNL A   1      44.693  26.671  36.290  1.00  0.00     0.198 A 
ATOM     91  C   UNL A   1      46.265  28.227  35.359  1.00  0.00     0.198 A 
ATOM     92  F   UNL A   1      45.515  29.972  33.969  1.00  0.00    -0.203 F 
ATOM     93  F   UNL A   1      44.428  25.616  37.073  1.00  0.00    -0.200 F 
ATOM     94  C   UNL A   1      45.996  27.122  36.154  1.00  0.00     0.200 A 
ATOM     95  F   UNL A   1      47.528  28.650  35.207  1.00  0.00    -0.200 F 
ATOM     96  F   UNL A   1      46.995  26.493  36.789  1.00  0.00    -0.200 F 
ENDBRANCH  63  86
ENDBRANCH  37  38
ENDBRANCH  29  32
ENDBRANCH  27  28
ENDBRANCH  26  27
ENDBRANCH  25  26
ENDBRANCH   1  25
TORSDOF 15
ENDMDL
