MODEL 1
REMARK VINA RESULT:     -12.1      0.000      0.000
REMARK SMILES CC(C)C[C@H](CNC(=O)Nc1ccccc1Br)C(=O)NCCCCNC(=O)c1ccc(-c2c3nc(c(-c4c(F)c(F)c(F)c(F)c4F)c4ccc([nH]4)c(-c4c(F)c(F)c(F)c(F)c4F)c4nc(c(-c5c(F)c(F)c(F)c(F)c5F)c5ccc2[nH]5)C=C4)C=C3)cc1
REMARK SMILES IDX 22 1 21 2 20 3 18 4 19 5 5 7 4 8 2 9 1 10 3 11 6 12 7 13
REMARK SMILES IDX 8 14 9 16 10 17 11 19 12 20 16 21 13 22 15 23 17 24 14 25
REMARK SMILES IDX 23 26 24 27 25 28 26 29 27 31 28 32 29 33 90 34 30 35 89 36
REMARK SMILES IDX 31 37 32 38 33 39 83 40 34 41 88 42 82 43 84 44 35 45 87 46
REMARK SMILES IDX 81 47 80 48 36 50 68 51 48 52 67 53 49 54 52 55 66 56 85 57
REMARK SMILES IDX 50 58 51 59 65 61 86 62 53 63 37 64 38 65 46 66 39 67 40 68
REMARK SMILES IDX 44 69 47 70 41 71 42 72 45 73 43 74 69 75 70 76 78 77 71 78
REMARK SMILES IDX 72 79 76 80 79 81 73 82 74 83 77 84 75 85 54 86 55 87 63 88
REMARK SMILES IDX 56 89 57 90 61 91 64 92 58 93 59 94 62 95 60 96
REMARK H PARENT 20 6 7 15 10 18 25 30 84 49 52 60
REMARK Flexibility Score: inf
ROOT
ATOM      1  C   UNL A   1      31.935  30.356  26.830  1.00  0.00     0.023 C 
ENDROOT
BRANCH   1   2
ATOM      2  C   UNL A   1      32.296  29.878  25.424  1.00  0.00     0.116 C 
BRANCH   2   3
ATOM      3  N   UNL A   1      31.155  29.290  24.746  1.00  0.00    -0.356 N 
ATOM      4  C   UNL A   1      30.905  27.998  24.396  1.00  0.00     0.224 C 
ATOM      5  O   UNL A   1      29.879  27.764  23.756  1.00  0.00    -0.275 OA
ATOM      6  H   UNL A   1      30.447  29.929  24.500  1.00  0.00     0.163 HD
BRANCH   4   7
ATOM      7  C   UNL A   1      31.848  26.870  24.799  1.00  0.00     0.098 C 
BRANCH   7   8
ATOM      8  C   UNL A   1      33.217  26.977  24.102  1.00  0.00     0.018 C 
BRANCH   8   9
ATOM      9  C   UNL A   1      33.126  27.331  22.600  1.00  0.00    -0.017 C 
ATOM     10  C   UNL A   1      34.156  28.389  22.194  1.00  0.00     0.007 C 
ATOM     11  C   UNL A   1      33.321  26.069  21.758  1.00  0.00     0.007 C 
ENDBRANCH   8   9
ENDBRANCH   7   8
BRANCH   7  12
ATOM     12  C   UNL A   1      31.105  25.529  24.692  1.00  0.00     0.131 C 
BRANCH  12  13
ATOM     13  N   UNL A   1      30.706  24.917  25.951  1.00  0.00    -0.337 N 
ATOM     14  C   UNL A   1      31.017  23.740  26.534  1.00  0.00     0.319 C 
ATOM     15  H   UNL A   1      30.086  25.470  26.480  1.00  0.00     0.165 HD
ATOM     16  O   UNL A   1      30.290  23.337  27.444  1.00  0.00    -0.249 OA
ATOM     17  N   UNL A   1      32.013  22.952  26.074  1.00  0.00    -0.307 N 
ATOM     18  H   UNL A   1      31.920  21.996  26.288  1.00  0.00     0.171 HD
BRANCH  17  19
ATOM     19  C   UNL A   1      33.162  23.285  25.339  1.00  0.00     0.057 A 
ATOM     20  C   UNL A   1      34.141  24.002  26.035  1.00  0.00     0.027 A 
ATOM     21  C   UNL A   1      33.415  22.874  24.017  1.00  0.00     0.041 A 
ATOM     22  C   UNL A   1      35.408  24.179  25.478  1.00  0.00     0.002 A 
ATOM     23  C   UNL A   1      34.684  23.067  23.460  1.00  0.00     0.018 A 
ATOM     24  Br  UNL A   1      32.088  22.095  22.899  1.00  0.00    -0.049 Br
ATOM     25  C   UNL A   1      35.686  23.692  24.203  1.00  0.00     0.001 A 
ENDBRANCH  17  19
ENDBRANCH  12  13
ENDBRANCH   7  12
ENDBRANCH   4   7
ENDBRANCH   2   3
ENDBRANCH   1   2
BRANCH   1  26
ATOM     26  C   UNL A   1      31.633  31.848  26.933  1.00  0.00     0.023 C 
BRANCH  26  27
ATOM     27  C   UNL A   1      32.818  32.712  27.341  1.00  0.00     0.116 C 
BRANCH  27  28
ATOM     28  N   UNL A   1      32.449  34.090  27.626  1.00  0.00    -0.352 N 
ATOM     29  C   UNL A   1      32.989  34.945  28.559  1.00  0.00     0.251 C 
ATOM     30  H   UNL A   1      31.718  34.460  27.080  1.00  0.00     0.163 HD
ATOM     31  O   UNL A   1      32.496  36.043  28.762  1.00  0.00    -0.269 OA
BRANCH  29  32
ATOM     32  C   UNL A   1      34.154  34.490  29.343  1.00  0.00     0.039 A 
ATOM     33  C   UNL A   1      33.936  33.875  30.577  1.00  0.00     0.014 A 
ATOM     34  C   UNL A   1      35.447  34.617  28.827  1.00  0.00     0.014 A 
ATOM     35  C   UNL A   1      35.014  33.321  31.265  1.00  0.00     0.010 A 
ATOM     36  C   UNL A   1      36.507  33.996  29.475  1.00  0.00     0.010 A 
ATOM     37  C   UNL A   1      36.301  33.343  30.700  1.00  0.00    -0.014 A 
BRANCH  37  38
ATOM     38  C   UNL A   1      37.448  32.690  31.376  1.00  0.00     0.031 A 
ATOM     39  C   UNL A   1      38.156  31.544  30.713  1.00  0.00     0.074 A 
ATOM     40  C   UNL A   1      37.805  33.086  32.613  1.00  0.00     0.049 A 
ATOM     41  N   UNL A   1      39.126  30.794  31.168  1.00  0.00    -0.248 NA
ATOM     42  C   UNL A   1      37.687  31.169  29.368  1.00  0.00     0.031 C 
ATOM     43  C   UNL A   1      37.157  34.149  33.382  1.00  0.00     0.029 A 
ATOM     44  N   UNL A   1      38.793  32.626  33.448  1.00  0.00    -0.354 N 
ATOM     45  C   UNL A   1      39.373  29.856  30.175  1.00  0.00     0.074 A 
ATOM     46  C   UNL A   1      38.413  30.090  29.121  1.00  0.00     0.031 C 
ATOM     47  C   UNL A   1      37.778  34.276  34.566  1.00  0.00     0.029 A 
ATOM     48  C   UNL A   1      38.841  33.279  34.655  1.00  0.00     0.049 A 
ATOM     49  H   UNL A   1      39.409  31.898  33.204  1.00  0.00     0.167 HD
ATOM     50  C   UNL A   1      40.334  28.902  30.136  1.00  0.00     0.037 A 
ATOM     51  C   UNL A   1      39.648  33.090  35.716  1.00  0.00     0.037 A 
ATOM     52  C   UNL A   1      41.303  28.690  31.178  1.00  0.00     0.049 A 
ATOM     53  C   UNL A   1      40.710  32.025  35.647  1.00  0.00     0.074 A 
ATOM     54  C   UNL A   1      42.352  27.789  31.211  1.00  0.00     0.029 A 
ATOM     55  N   UNL A   1      41.339  29.391  32.375  1.00  0.00    -0.354 N 
ATOM     56  N   UNL A   1      40.981  31.189  34.674  1.00  0.00    -0.248 NA
ATOM     57  C   UNL A   1      41.584  31.884  36.819  1.00  0.00     0.031 C 
ATOM     58  C   UNL A   1      42.998  27.914  32.446  1.00  0.00     0.029 A 
ATOM     59  C   UNL A   1      42.381  28.929  33.162  1.00  0.00     0.049 A 
ATOM     60  H   UNL A   1      40.716  30.109  32.628  1.00  0.00     0.167 HD
ATOM     61  C   UNL A   1      42.069  30.442  35.104  1.00  0.00     0.074 A 
ATOM     62  C   UNL A   1      42.419  30.936  36.420  1.00  0.00     0.031 C 
ATOM     63  C   UNL A   1      42.719  29.438  34.467  1.00  0.00     0.037 A 
BRANCH  50  64
ATOM     64  C   UNL A   1      40.386  28.024  28.920  1.00  0.00     0.064 A 
ATOM     65  C   UNL A   1      41.137  28.380  27.788  1.00  0.00     0.173 A 
ATOM     66  C   UNL A   1      39.701  26.800  28.893  1.00  0.00     0.173 A 
ATOM     67  F   UNL A   1      41.801  29.546  27.757  1.00  0.00    -0.203 F 
ATOM     68  C   UNL A   1      41.172  27.560  26.664  1.00  0.00     0.198 A 
ATOM     69  C   UNL A   1      39.764  25.967  27.779  1.00  0.00     0.198 A 
ATOM     70  F   UNL A   1      38.972  26.410  29.950  1.00  0.00    -0.203 F 
ATOM     71  F   UNL A   1      41.852  27.947  25.575  1.00  0.00    -0.200 F 
ATOM     72  C   UNL A   1      40.492  26.351  26.664  1.00  0.00     0.200 A 
ATOM     73  F   UNL A   1      39.117  24.794  27.785  1.00  0.00    -0.200 F 
ATOM     74  F   UNL A   1      40.532  25.560  25.582  1.00  0.00    -0.200 F 
ENDBRANCH  50  64
BRANCH  51  75
ATOM     75  C   UNL A   1      39.501  33.943  36.923  1.00  0.00     0.064 A 
ATOM     76  C   UNL A   1      40.105  35.207  36.990  1.00  0.00     0.173 A 
ATOM     77  C   UNL A   1      38.756  33.517  38.032  1.00  0.00     0.173 A 
ATOM     78  F   UNL A   1      40.844  35.650  35.962  1.00  0.00    -0.203 F 
ATOM     79  C   UNL A   1      39.988  36.001  38.128  1.00  0.00     0.198 A 
ATOM     80  C   UNL A   1      38.615  34.325  39.158  1.00  0.00     0.198 A 
ATOM     81  F   UNL A   1      38.152  32.319  38.016  1.00  0.00    -0.203 F 
ATOM     82  F   UNL A   1      40.613  37.185  38.183  1.00  0.00    -0.200 F 
ATOM     83  C   UNL A   1      39.238  35.563  39.210  1.00  0.00     0.200 A 
ATOM     84  F   UNL A   1      37.878  33.903  40.195  1.00  0.00    -0.200 F 
ATOM     85  F   UNL A   1      39.122  36.330  40.302  1.00  0.00    -0.200 F 
ENDBRANCH  51  75
BRANCH  63  86
ATOM     86  C   UNL A   1      43.897  28.828  35.169  1.00  0.00     0.064 A 
ATOM     87  C   UNL A   1      45.197  29.328  34.996  1.00  0.00     0.173 A 
ATOM     88  C   UNL A   1      43.717  27.758  36.059  1.00  0.00     0.173 A 
ATOM     89  F   UNL A   1      45.423  30.340  34.145  1.00  0.00    -0.203 F 
ATOM     90  C   UNL A   1      46.275  28.762  35.669  1.00  0.00     0.198 A 
ATOM     91  C   UNL A   1      44.794  27.215  36.754  1.00  0.00     0.198 A 
ATOM     92  F   UNL A   1      42.494  27.249  36.265  1.00  0.00    -0.203 F 
ATOM     93  F   UNL A   1      47.514  29.225  35.454  1.00  0.00    -0.200 F 
ATOM     94  C   UNL A   1      46.072  27.712  36.553  1.00  0.00     0.200 A 
ATOM     95  F   UNL A   1      44.594  26.210  37.618  1.00  0.00    -0.200 F 
ATOM     96  F   UNL A   1      47.112  27.175  37.206  1.00  0.00    -0.200 F 
ENDBRANCH  63  86
ENDBRANCH  37  38
ENDBRANCH  29  32
ENDBRANCH  27  28
ENDBRANCH  26  27
ENDBRANCH   1  26
TORSDOF 16
ENDMDL
MODEL 2
REMARK VINA RESULT:     -12.1      5.722     11.162
REMARK SMILES CC(C)C[C@H](CNC(=O)Nc1ccccc1Br)C(=O)NCCCCNC(=O)c1ccc(-c2c3nc(c(-c4c(F)c(F)c(F)c(F)c4F)c4ccc([nH]4)c(-c4c(F)c(F)c(F)c(F)c4F)c4nc(c(-c5c(F)c(F)c(F)c(F)c5F)c5ccc2[nH]5)C=C4)C=C3)cc1
REMARK SMILES IDX 22 1 21 2 20 3 18 4 19 5 5 7 4 8 2 9 1 10 3 11 6 12 7 13
REMARK SMILES IDX 8 14 9 16 10 17 11 19 12 20 16 21 13 22 15 23 17 24 14 25
REMARK SMILES IDX 23 26 24 27 25 28 26 29 27 31 28 32 29 33 90 34 30 35 89 36
REMARK SMILES IDX 31 37 32 38 33 39 83 40 34 41 88 42 82 43 84 44 35 45 87 46
REMARK SMILES IDX 81 47 80 48 36 50 68 51 48 52 67 53 49 54 52 55 66 56 85 57
REMARK SMILES IDX 50 58 51 59 65 61 86 62 53 63 37 64 38 65 46 66 39 67 40 68
REMARK SMILES IDX 44 69 47 70 41 71 42 72 45 73 43 74 69 75 70 76 78 77 71 78
REMARK SMILES IDX 72 79 76 80 79 81 73 82 74 83 77 84 75 85 54 86 55 87 63 88
REMARK SMILES IDX 56 89 57 90 61 91 64 92 58 93 59 94 62 95 60 96
REMARK H PARENT 20 6 7 15 10 18 25 30 84 49 52 60
REMARK Flexibility Score: inf
ROOT
ATOM      1  C   UNL A   1      37.167  21.217  24.952  1.00  0.00     0.023 C 
ENDROOT
BRANCH   1   2
ATOM      2  C   UNL A   1      35.705  20.772  24.946  1.00  0.00     0.116 C 
BRANCH   2   3
ATOM      3  N   UNL A   1      35.035  21.104  26.190  1.00  0.00    -0.356 N 
ATOM      4  C   UNL A   1      33.710  21.109  26.507  1.00  0.00     0.224 C 
ATOM      5  O   UNL A   1      33.389  21.504  27.629  1.00  0.00    -0.275 OA
ATOM      6  H   UNL A   1      35.636  21.368  26.924  1.00  0.00     0.163 HD
BRANCH   4   7
ATOM      7  C   UNL A   1      32.657  20.623  25.518  1.00  0.00     0.098 C 
BRANCH   7   8
ATOM      8  C   UNL A   1      33.259  19.738  24.411  1.00  0.00     0.018 C 
BRANCH   8   9
ATOM      9  C   UNL A   1      32.594  18.347  24.295  1.00  0.00    -0.017 C 
ATOM     10  C   UNL A   1      33.247  17.485  23.211  1.00  0.00     0.007 C 
ATOM     11  C   UNL A   1      32.666  17.625  25.642  1.00  0.00     0.007 C 
ENDBRANCH   8   9
ENDBRANCH   7   8
BRANCH   7  12
ATOM     12  C   UNL A   1      31.793  21.814  25.076  1.00  0.00     0.131 C 
BRANCH  12  13
ATOM     13  N   UNL A   1      30.696  22.172  25.964  1.00  0.00    -0.337 N 
ATOM     14  C   UNL A   1      30.535  23.167  26.862  1.00  0.00     0.319 C 
ATOM     15  H   UNL A   1      29.919  21.571  25.895  1.00  0.00     0.165 HD
ATOM     16  O   UNL A   1      29.641  23.046  27.703  1.00  0.00    -0.249 OA
ATOM     17  N   UNL A   1      31.388  24.211  26.938  1.00  0.00    -0.307 N 
ATOM     18  H   UNL A   1      31.430  24.651  27.818  1.00  0.00     0.171 HD
BRANCH  17  19
ATOM     19  C   UNL A   1      32.224  24.768  25.957  1.00  0.00     0.057 A 
ATOM     20  C   UNL A   1      33.595  24.552  26.135  1.00  0.00     0.027 A 
ATOM     21  C   UNL A   1      31.772  25.426  24.798  1.00  0.00     0.041 A 
ATOM     22  C   UNL A   1      34.491  24.856  25.109  1.00  0.00     0.002 A 
ATOM     23  C   UNL A   1      32.677  25.739  23.779  1.00  0.00     0.018 A 
ATOM     24  Br  UNL A   1      29.967  25.971  24.550  1.00  0.00    -0.049 Br
ATOM     25  C   UNL A   1      34.029  25.425  23.924  1.00  0.00     0.001 A 
ENDBRANCH  17  19
ENDBRANCH  12  13
ENDBRANCH   7  12
ENDBRANCH   4   7
ENDBRANCH   2   3
ENDBRANCH   1   2
BRANCH   1  26
ATOM     26  C   UNL A   1      38.177  20.074  24.989  1.00  0.00     0.023 C 
BRANCH  26  27
ATOM     27  C   UNL A   1      39.371  20.308  25.904  1.00  0.00     0.116 C 
BRANCH  27  28
ATOM     28  N   UNL A   1      40.299  19.188  25.930  1.00  0.00    -0.352 N 
ATOM     29  C   UNL A   1      41.661  19.209  26.120  1.00  0.00     0.251 C 
ATOM     30  H   UNL A   1      39.899  18.298  25.796  1.00  0.00     0.163 HD
ATOM     31  O   UNL A   1      42.326  18.192  26.003  1.00  0.00    -0.269 OA
BRANCH  29  32
ATOM     32  C   UNL A   1      42.311  20.498  26.428  1.00  0.00     0.039 A 
ATOM     33  C   UNL A   1      42.807  21.269  25.374  1.00  0.00     0.014 A 
ATOM     34  C   UNL A   1      42.370  20.964  27.743  1.00  0.00     0.014 A 
ATOM     35  C   UNL A   1      43.303  22.545  25.635  1.00  0.00     0.010 A 
ATOM     36  C   UNL A   1      42.789  22.266  27.991  1.00  0.00     0.010 A 
ATOM     37  C   UNL A   1      43.259  23.068  26.939  1.00  0.00    -0.014 A 
BRANCH  37  38
ATOM     38  C   UNL A   1      43.706  24.452  27.228  1.00  0.00     0.031 A 
ATOM     39  C   UNL A   1      42.726  25.462  27.749  1.00  0.00     0.074 A 
ATOM     40  C   UNL A   1      44.975  24.814  26.954  1.00  0.00     0.049 A 
ATOM     41  N   UNL A   1      42.898  26.737  27.990  1.00  0.00    -0.248 NA
ATOM     42  C   UNL A   1      41.357  24.983  28.003  1.00  0.00     0.031 C 
ATOM     43  C   UNL A   1      46.003  23.936  26.393  1.00  0.00     0.029 A 
ATOM     44  N   UNL A   1      45.610  26.022  27.097  1.00  0.00    -0.354 N 
ATOM     45  C   UNL A   1      41.663  27.210  28.410  1.00  0.00     0.074 A 
ATOM     46  C   UNL A   1      40.735  26.104  28.332  1.00  0.00     0.031 C 
ATOM     47  C   UNL A   1      47.146  24.628  26.260  1.00  0.00     0.029 A 
ATOM     48  C   UNL A   1      46.922  26.004  26.690  1.00  0.00     0.049 A 
ATOM     49  H   UNL A   1      45.168  26.824  27.458  1.00  0.00     0.167 HD
ATOM     50  C   UNL A   1      41.339  28.450  28.847  1.00  0.00     0.037 A 
ATOM     51  C   UNL A   1      47.837  26.991  26.662  1.00  0.00     0.037 A 
ATOM     52  C   UNL A   1      42.272  29.541  28.945  1.00  0.00     0.049 A 
ATOM     53  C   UNL A   1      47.453  28.360  27.156  1.00  0.00     0.074 A 
ATOM     54  C   UNL A   1      42.058  30.819  29.428  1.00  0.00     0.029 A 
ATOM     55  N   UNL A   1      43.600  29.478  28.550  1.00  0.00    -0.354 N 
ATOM     56  N   UNL A   1      46.300  28.780  27.616  1.00  0.00    -0.248 NA
ATOM     57  C   UNL A   1      48.500  29.391  27.134  1.00  0.00     0.031 C 
ATOM     58  C   UNL A   1      43.246  31.545  29.285  1.00  0.00     0.029 A 
ATOM     59  C   UNL A   1      44.214  30.703  28.761  1.00  0.00     0.049 A 
ATOM     60  H   UNL A   1      44.042  28.683  28.175  1.00  0.00     0.167 HD
ATOM     61  C   UNL A   1      46.488  30.111  27.963  1.00  0.00     0.074 A 
ATOM     62  C   UNL A   1      47.872  30.425  27.674  1.00  0.00     0.031 C 
ATOM     63  C   UNL A   1      45.596  30.994  28.473  1.00  0.00     0.037 A 
BRANCH  50  64
ATOM     64  C   UNL A   1      39.915  28.687  29.260  1.00  0.00     0.064 A 
ATOM     65  C   UNL A   1      39.482  28.450  30.575  1.00  0.00     0.173 A 
ATOM     66  C   UNL A   1      38.978  29.181  28.341  1.00  0.00     0.173 A 
ATOM     67  F   UNL A   1      40.336  27.964  31.489  1.00  0.00    -0.203 F 
ATOM     68  C   UNL A   1      38.157  28.667  30.944  1.00  0.00     0.198 A 
ATOM     69  C   UNL A   1      37.661  29.428  28.722  1.00  0.00     0.198 A 
ATOM     70  F   UNL A   1      39.339  29.430  27.073  1.00  0.00    -0.203 F 
ATOM     71  F   UNL A   1      37.756  28.381  32.190  1.00  0.00    -0.200 F 
ATOM     72  C   UNL A   1      37.251  29.163  30.019  1.00  0.00     0.200 A 
ATOM     73  F   UNL A   1      36.789  29.919  27.831  1.00  0.00    -0.200 F 
ATOM     74  F   UNL A   1      35.977  29.377  30.378  1.00  0.00    -0.200 F 
ENDBRANCH  50  64
BRANCH  51  75
ATOM     75  C   UNL A   1      49.213  26.715  26.172  1.00  0.00     0.064 A 
ATOM     76  C   UNL A   1      50.193  26.201  27.032  1.00  0.00     0.173 A 
ATOM     77  C   UNL A   1      49.576  26.957  24.840  1.00  0.00     0.173 A 
ATOM     78  F   UNL A   1      49.900  25.972  28.321  1.00  0.00    -0.203 F 
ATOM     79  C   UNL A   1      51.490  25.960  26.583  1.00  0.00     0.198 A 
ATOM     80  C   UNL A   1      50.865  26.688  24.385  1.00  0.00     0.198 A 
ATOM     81  F   UNL A   1      48.673  27.442  23.975  1.00  0.00    -0.203 F 
ATOM     82  F   UNL A   1      52.420  25.512  27.438  1.00  0.00    -0.200 F 
ATOM     83  C   UNL A   1      51.824  26.198  25.258  1.00  0.00     0.200 A 
ATOM     84  F   UNL A   1      51.179  26.906  23.100  1.00  0.00    -0.200 F 
ATOM     85  F   UNL A   1      53.070  25.962  24.826  1.00  0.00    -0.200 F 
ENDBRANCH  51  75
BRANCH  63  86
ATOM     86  C   UNL A   1      46.096  32.374  28.786  1.00  0.00     0.064 A 
ATOM     87  C   UNL A   1      46.663  32.688  30.030  1.00  0.00     0.173 A 
ATOM     88  C   UNL A   1      46.046  33.383  27.811  1.00  0.00     0.173 A 
ATOM     89  F   UNL A   1      46.719  31.762  30.999  1.00  0.00    -0.203 F 
ATOM     90  C   UNL A   1      47.138  33.969  30.295  1.00  0.00     0.198 A 
ATOM     91  C   UNL A   1      46.551  34.654  28.070  1.00  0.00     0.198 A 
ATOM     92  F   UNL A   1      45.521  33.132  26.603  1.00  0.00    -0.203 F 
ATOM     93  F   UNL A   1      47.634  34.259  31.506  1.00  0.00    -0.200 F 
ATOM     94  C   UNL A   1      47.089  34.948  29.314  1.00  0.00     0.200 A 
ATOM     95  F   UNL A   1      46.516  35.595  27.116  1.00  0.00    -0.200 F 
ATOM     96  F   UNL A   1      47.556  36.178  29.570  1.00  0.00    -0.200 F 
ENDBRANCH  63  86
ENDBRANCH  37  38
ENDBRANCH  29  32
ENDBRANCH  27  28
ENDBRANCH  26  27
ENDBRANCH   1  26
TORSDOF 16
ENDMDL
MODEL 3
REMARK VINA RESULT:     -12.1      1.124      7.487
REMARK SMILES CC(C)C[C@H](CNC(=O)Nc1ccccc1Br)C(=O)NCCCCNC(=O)c1ccc(-c2c3nc(c(-c4c(F)c(F)c(F)c(F)c4F)c4ccc([nH]4)c(-c4c(F)c(F)c(F)c(F)c4F)c4nc(c(-c5c(F)c(F)c(F)c(F)c5F)c5ccc2[nH]5)C=C4)C=C3)cc1
REMARK SMILES IDX 22 1 21 2 20 3 18 4 19 5 5 7 4 8 2 9 1 10 3 11 6 12 7 13
REMARK SMILES IDX 8 14 9 16 10 17 11 19 12 20 16 21 13 22 15 23 17 24 14 25
REMARK SMILES IDX 23 26 24 27 25 28 26 29 27 31 28 32 29 33 90 34 30 35 89 36
REMARK SMILES IDX 31 37 32 38 33 39 83 40 34 41 88 42 82 43 84 44 35 45 87 46
REMARK SMILES IDX 81 47 80 48 36 50 68 51 48 52 67 53 49 54 52 55 66 56 85 57
REMARK SMILES IDX 50 58 51 59 65 61 86 62 53 63 37 64 38 65 46 66 39 67 40 68
REMARK SMILES IDX 44 69 47 70 41 71 42 72 45 73 43 74 69 75 70 76 78 77 71 78
REMARK SMILES IDX 72 79 76 80 79 81 73 82 74 83 77 84 75 85 54 86 55 87 63 88
REMARK SMILES IDX 56 89 57 90 61 91 64 92 58 93 59 94 62 95 60 96
REMARK H PARENT 20 6 7 15 10 18 25 30 84 49 52 60
REMARK Flexibility Score: inf
ROOT
ATOM      1  C   UNL A   1      31.788  30.936  25.790  1.00  0.00     0.023 C 
ENDROOT
BRANCH   1   2
ATOM      2  C   UNL A   1      32.805  30.005  26.448  1.00  0.00     0.116 C 
BRANCH   2   3
ATOM      3  N   UNL A   1      32.175  29.098  27.390  1.00  0.00    -0.356 N 
ATOM      4  C   UNL A   1      31.668  27.847  27.208  1.00  0.00     0.224 C 
ATOM      5  O   UNL A   1      31.114  27.306  28.166  1.00  0.00    -0.275 OA
ATOM      6  H   UNL A   1      32.101  29.444  28.310  1.00  0.00     0.163 HD
BRANCH   4   7
ATOM      7  C   UNL A   1      31.799  27.126  25.871  1.00  0.00     0.098 C 
BRANCH   7   8
ATOM      8  C   UNL A   1      30.546  27.294  24.992  1.00  0.00     0.018 C 
BRANCH   8   9
ATOM      9  C   UNL A   1      30.853  27.782  23.558  1.00  0.00    -0.017 C 
ATOM     10  C   UNL A   1      30.046  29.031  23.190  1.00  0.00     0.007 C 
ATOM     11  C   UNL A   1      32.348  28.074  23.419  1.00  0.00     0.007 C 
ENDBRANCH   8   9
ENDBRANCH   7   8
BRANCH   7  12
ATOM     12  C   UNL A   1      32.300  25.694  26.119  1.00  0.00     0.131 C 
BRANCH  12  13
ATOM     13  N   UNL A   1      31.416  24.830  26.886  1.00  0.00    -0.337 N 
ATOM     14  C   UNL A   1      30.539  23.869  26.525  1.00  0.00     0.319 C 
ATOM     15  H   UNL A   1      31.466  24.975  27.858  1.00  0.00     0.165 HD
ATOM     16  O   UNL A   1      29.691  23.522  27.350  1.00  0.00    -0.249 OA
ATOM     17  N   UNL A   1      30.492  23.375  25.269  1.00  0.00    -0.307 N 
ATOM     18  H   UNL A   1      29.622  22.997  25.002  1.00  0.00     0.171 HD
BRANCH  17  19
ATOM     19  C   UNL A   1      31.490  23.316  24.283  1.00  0.00     0.057 A 
ATOM     20  C   UNL A   1      31.326  24.188  23.201  1.00  0.00     0.027 A 
ATOM     21  C   UNL A   1      32.651  22.524  24.365  1.00  0.00     0.041 A 
ATOM     22  C   UNL A   1      32.368  24.378  22.292  1.00  0.00     0.002 A 
ATOM     23  C   UNL A   1      33.685  22.711  23.442  1.00  0.00     0.018 A 
ATOM     24  Br  UNL A   1      32.882  21.150  25.659  1.00  0.00    -0.049 Br
ATOM     25  C   UNL A   1      33.553  23.658  22.426  1.00  0.00     0.001 A 
ENDBRANCH  17  19
ENDBRANCH  12  13
ENDBRANCH   7  12
ENDBRANCH   4   7
ENDBRANCH   2   3
ENDBRANCH   1   2
BRANCH   1  26
ATOM     26  C   UNL A   1      31.415  32.159  26.624  1.00  0.00     0.023 C 
BRANCH  26  27
ATOM     27  C   UNL A   1      32.585  32.826  27.333  1.00  0.00     0.116 C 
BRANCH  27  28
ATOM     28  N   UNL A   1      32.334  34.222  27.660  1.00  0.00    -0.352 N 
ATOM     29  C   UNL A   1      32.971  35.013  28.587  1.00  0.00     0.251 C 
ATOM     30  H   UNL A   1      31.613  34.658  27.149  1.00  0.00     0.163 HD
ATOM     31  O   UNL A   1      32.573  36.140  28.830  1.00  0.00    -0.269 OA
BRANCH  29  32
ATOM     32  C   UNL A   1      34.127  34.453  29.316  1.00  0.00     0.039 A 
ATOM     33  C   UNL A   1      33.896  33.724  30.484  1.00  0.00     0.014 A 
ATOM     34  C   UNL A   1      35.421  34.599  28.809  1.00  0.00     0.014 A 
ATOM     35  C   UNL A   1      34.962  33.078  31.108  1.00  0.00     0.010 A 
ATOM     36  C   UNL A   1      36.467  33.890  29.386  1.00  0.00     0.010 A 
ATOM     37  C   UNL A   1      36.248  33.123  30.541  1.00  0.00    -0.014 A 
BRANCH  37  38
ATOM     38  C   UNL A   1      37.380  32.379  31.143  1.00  0.00     0.031 A 
ATOM     39  C   UNL A   1      37.879  32.751  32.510  1.00  0.00     0.074 A 
ATOM     40  C   UNL A   1      38.000  31.419  30.431  1.00  0.00     0.049 A 
ATOM     41  N   UNL A   1      38.900  32.277  33.177  1.00  0.00    -0.248 NA
ATOM     42  C   UNL A   1      37.152  33.824  33.208  1.00  0.00     0.031 C 
ATOM     43  C   UNL A   1      37.642  31.008  29.073  1.00  0.00     0.029 A 
ATOM     44  N   UNL A   1      39.074  30.623  30.748  1.00  0.00    -0.354 N 
ATOM     45  C   UNL A   1      38.943  33.000  34.361  1.00  0.00     0.074 A 
ATOM     46  C   UNL A   1      37.888  33.985  34.297  1.00  0.00     0.031 C 
ATOM     47  C   UNL A   1      38.466  30.022  28.681  1.00  0.00     0.029 A 
ATOM     48  C   UNL A   1      39.432  29.759  29.743  1.00  0.00     0.049 A 
ATOM     49  H   UNL A   1      39.541  30.669  31.612  1.00  0.00     0.167 HD
ATOM     50  C   UNL A   1      39.773  32.837  35.419  1.00  0.00     0.037 A 
ATOM     51  C   UNL A   1      40.432  28.859  29.684  1.00  0.00     0.037 A 
ATOM     52  C   UNL A   1      40.807  31.839  35.487  1.00  0.00     0.049 A 
ATOM     53  C   UNL A   1      41.339  28.695  30.874  1.00  0.00     0.074 A 
ATOM     54  C   UNL A   1      41.664  31.553  36.535  1.00  0.00     0.029 A 
ATOM     55  N   UNL A   1      41.122  30.960  34.461  1.00  0.00    -0.354 N 
ATOM     56  N   UNL A   1      41.328  29.336  32.017  1.00  0.00    -0.248 NA
ATOM     57  C   UNL A   1      42.393  27.676  30.769  1.00  0.00     0.031 C 
ATOM     58  C   UNL A   1      42.528  30.531  36.127  1.00  0.00     0.029 A 
ATOM     59  C   UNL A   1      42.175  30.144  34.844  1.00  0.00     0.049 A 
ATOM     60  H   UNL A   1      40.667  30.922  33.590  1.00  0.00     0.167 HD
ATOM     61  C   UNL A   1      42.351  28.784  32.776  1.00  0.00     0.074 A 
ATOM     62  C   UNL A   1      42.952  27.742  31.968  1.00  0.00     0.031 C 
ATOM     63  C   UNL A   1      42.756  29.108  34.028  1.00  0.00     0.037 A 
BRANCH  50  64
ATOM     64  C   UNL A   1      39.588  33.757  36.591  1.00  0.00     0.064 A 
ATOM     65  C   UNL A   1      40.195  35.022  36.634  1.00  0.00     0.173 A 
ATOM     66  C   UNL A   1      38.774  33.382  37.670  1.00  0.00     0.173 A 
ATOM     67  F   UNL A   1      40.994  35.422  35.634  1.00  0.00    -0.203 F 
ATOM     68  C   UNL A   1      40.021  35.864  37.730  1.00  0.00     0.198 A 
ATOM     69  C   UNL A   1      38.576  34.240  38.750  1.00  0.00     0.198 A 
ATOM     70  F   UNL A   1      38.166  32.186  37.677  1.00  0.00    -0.203 F 
ATOM     71  F   UNL A   1      40.655  37.044  37.773  1.00  0.00    -0.200 F 
ATOM     72  C   UNL A   1      39.206  35.475  38.782  1.00  0.00     0.200 A 
ATOM     73  F   UNL A   1      37.779  33.869  39.760  1.00  0.00    -0.200 F 
ATOM     74  F   UNL A   1      39.035  36.289  39.833  1.00  0.00    -0.200 F 
ENDBRANCH  50  64
BRANCH  51  75
ATOM     75  C   UNL A   1      40.613  28.027  28.467  1.00  0.00     0.064 A 
ATOM     76  C   UNL A   1      40.014  26.764  28.363  1.00  0.00     0.173 A 
ATOM     77  C   UNL A   1      41.384  28.474  27.385  1.00  0.00     0.173 A 
ATOM     78  F   UNL A   1      39.283  26.284  29.380  1.00  0.00    -0.203 F 
ATOM     79  C   UNL A   1      40.197  25.970  27.233  1.00  0.00     0.198 A 
ATOM     80  C   UNL A   1      41.543  27.692  26.243  1.00  0.00     0.198 A 
ATOM     81  F   UNL A   1      41.973  29.678  27.431  1.00  0.00    -0.203 F 
ATOM     82  F   UNL A   1      39.651  24.748  27.179  1.00  0.00    -0.200 F 
ATOM     83  C   UNL A   1      40.957  26.437  26.170  1.00  0.00     0.200 A 
ATOM     84  F   UNL A   1      42.266  28.154  25.212  1.00  0.00    -0.200 F 
ATOM     85  F   UNL A   1      41.130  25.676  25.081  1.00  0.00    -0.200 F 
ENDBRANCH  51  75
BRANCH  63  86
ATOM     86  C   UNL A   1      43.881  28.308  34.615  1.00  0.00     0.064 A 
ATOM     87  C   UNL A   1      43.650  27.104  35.298  1.00  0.00     0.173 A 
ATOM     88  C   UNL A   1      45.210  28.730  34.456  1.00  0.00     0.173 A 
ATOM     89  F   UNL A   1      42.396  26.667  35.490  1.00  0.00    -0.203 F 
ATOM     90  C   UNL A   1      44.708  26.365  35.821  1.00  0.00     0.198 A 
ATOM     91  C   UNL A   1      46.267  27.972  34.953  1.00  0.00     0.198 A 
ATOM     92  F   UNL A   1      45.485  29.869  33.805  1.00  0.00    -0.203 F 
ATOM     93  F   UNL A   1      44.461  25.242  36.509  1.00  0.00    -0.200 F 
ATOM     94  C   UNL A   1      46.014  26.795  35.642  1.00  0.00     0.200 A 
ATOM     95  F   UNL A   1      47.529  28.381  34.767  1.00  0.00    -0.200 F 
ATOM     96  F   UNL A   1      47.030  26.077  36.139  1.00  0.00    -0.200 F 
ENDBRANCH  63  86
ENDBRANCH  37  38
ENDBRANCH  29  32
ENDBRANCH  27  28
ENDBRANCH  26  27
ENDBRANCH   1  26
TORSDOF 16
ENDMDL
