MODEL 1
REMARK VINA RESULT:     -12.8      0.000      0.000
REMARK SMILES O=C(NCCCCNC(=O)[C@H]1CS[C@]2(c3ccccc3)CCC(=O)N12)c1ccc(-c2c3nc(c(-c4c(F)c(F)c(F)c(F)c4F)c4ccc([nH]4)c(-c4c(F)c(F)c(F)c(F)c4F)c4nc(c(-c5c(F)c(F)c(F)c(F)c5F)c5ccc2[nH]5)C=C4)C=C3)cc1
REMARK SMILES IDX 5 1 4 2 3 3 1 4 2 5 26 7 27 8 88 9 28 10 87 11 29 12 30 13
REMARK SMILES IDX 31 14 81 15 32 16 86 17 80 18 82 19 33 20 85 21 79 22 78 23
REMARK SMILES IDX 34 25 66 26 46 27 65 28 47 29 50 30 64 31 83 32 48 33 49 34
REMARK SMILES IDX 63 36 84 37 51 38 35 39 36 40 44 41 37 42 38 43 42 44 45 45
REMARK SMILES IDX 39 46 40 47 43 48 41 49 67 50 68 51 76 52 69 53 70 54 74 55
REMARK SMILES IDX 77 56 71 57 72 58 75 59 73 60 52 61 53 62 61 63 54 64 55 65
REMARK SMILES IDX 59 66 62 67 56 68 57 69 60 70 58 71 6 72 7 73 8 74 9 75
REMARK SMILES IDX 10 77 11 78 12 79 25 80 13 81 14 82 23 83 21 84 22 85 24 86
REMARK SMILES IDX 15 87 16 88 20 89 17 90 19 91 18 92
REMARK H PARENT 3 6 82 24 50 35 8 76
REMARK Flexibility Score: inf
ROOT
ATOM      1  C   UNL A   1      38.101  19.752  24.770  1.00  0.00     0.023 C 
ENDROOT
BRANCH   1   2
ATOM      2  C   UNL A   1      39.151  20.078  25.829  1.00  0.00     0.116 C 
BRANCH   2   3
ATOM      3  N   UNL A   1      40.230  19.102  25.870  1.00  0.00    -0.352 N 
ATOM      4  O   UNL A   1      42.360  18.360  25.924  1.00  0.00    -0.269 OA
ATOM      5  C   UNL A   1      41.572  19.286  26.096  1.00  0.00     0.251 C 
ATOM      6  H   UNL A   1      39.957  18.169  25.713  1.00  0.00     0.163 HD
BRANCH   5   7
ATOM      7  C   UNL A   1      42.076  20.607  26.523  1.00  0.00     0.039 A 
ATOM      8  C   UNL A   1      42.122  20.951  27.876  1.00  0.00     0.014 A 
ATOM      9  C   UNL A   1      42.523  21.508  25.552  1.00  0.00     0.014 A 
ATOM     10  C   UNL A   1      42.485  22.241  28.249  1.00  0.00     0.010 A 
ATOM     11  C   UNL A   1      42.958  22.777  25.934  1.00  0.00     0.010 A 
ATOM     12  C   UNL A   1      42.913  23.164  27.283  1.00  0.00    -0.014 A 
BRANCH  12  13
ATOM     13  C   UNL A   1      43.348  24.523  27.692  1.00  0.00     0.031 A 
ATOM     14  C   UNL A   1      42.339  25.578  28.041  1.00  0.00     0.074 A 
ATOM     15  C   UNL A   1      44.663  24.806  27.723  1.00  0.00     0.049 A 
ATOM     16  N   UNL A   1      42.529  26.838  28.340  1.00  0.00    -0.248 NA
ATOM     17  C   UNL A   1      40.928  25.165  28.049  1.00  0.00     0.031 C 
ATOM     18  C   UNL A   1      45.734  23.860  27.405  1.00  0.00     0.029 A 
ATOM     19  N   UNL A   1      45.322  25.969  28.025  1.00  0.00    -0.354 N 
ATOM     20  C   UNL A   1      41.264  27.375  28.545  1.00  0.00     0.074 A 
ATOM     21  C   UNL A   1      40.313  26.308  28.314  1.00  0.00     0.031 C 
ATOM     22  C   UNL A   1      46.917  24.476  27.541  1.00  0.00     0.029 A 
ATOM     23  C   UNL A   1      46.685  25.874  27.892  1.00  0.00     0.049 A 
ATOM     24  H   UNL A   1      44.864  26.792  28.311  1.00  0.00     0.167 HD
ATOM     25  C   UNL A   1      40.934  28.641  28.898  1.00  0.00     0.037 A 
ATOM     26  C   UNL A   1      47.642  26.813  28.006  1.00  0.00     0.037 A 
ATOM     27  C   UNL A   1      41.891  29.692  29.132  1.00  0.00     0.049 A 
ATOM     28  C   UNL A   1      47.248  28.219  28.358  1.00  0.00     0.074 A 
ATOM     29  C   UNL A   1      41.661  30.999  29.528  1.00  0.00     0.029 A 
ATOM     30  N   UNL A   1      43.266  29.558  28.981  1.00  0.00    -0.354 N 
ATOM     31  N   UNL A   1      46.053  28.710  28.579  1.00  0.00    -0.248 NA
ATOM     32  C   UNL A   1      48.334  29.200  28.477  1.00  0.00     0.031 C 
ATOM     33  C   UNL A   1      42.889  31.668  29.564  1.00  0.00     0.029 A 
ATOM     34  C   UNL A   1      43.892  30.764  29.251  1.00  0.00     0.049 A 
ATOM     35  H   UNL A   1      43.726  28.728  28.721  1.00  0.00     0.167 HD
ATOM     36  C   UNL A   1      46.243  30.048  28.891  1.00  0.00     0.074 A 
ATOM     37  C   UNL A   1      47.670  30.292  28.834  1.00  0.00     0.031 C 
ATOM     38  C   UNL A   1      45.316  30.988  29.201  1.00  0.00     0.037 A 
BRANCH  25  39
ATOM     39  C   UNL A   1      39.472  28.969  29.020  1.00  0.00     0.064 A 
ATOM     40  C   UNL A   1      38.796  28.903  30.248  1.00  0.00     0.173 A 
ATOM     41  C   UNL A   1      38.742  29.377  27.893  1.00  0.00     0.173 A 
ATOM     42  F   UNL A   1      39.445  28.509  31.354  1.00  0.00    -0.203 F 
ATOM     43  C   UNL A   1      37.437  29.197  30.336  1.00  0.00     0.198 A 
ATOM     44  C   UNL A   1      37.391  29.701  27.991  1.00  0.00     0.198 A 
ATOM     45  F   UNL A   1      39.338  29.467  26.694  1.00  0.00    -0.203 F 
ATOM     46  F   UNL A   1      36.801  29.070  31.509  1.00  0.00    -0.200 F 
ATOM     47  C   UNL A   1      36.737  29.599  29.209  1.00  0.00     0.200 A 
ATOM     48  F   UNL A   1      36.719  30.104  26.904  1.00  0.00    -0.200 F 
ATOM     49  F   UNL A   1      35.430  29.882  29.296  1.00  0.00    -0.200 F 
ENDBRANCH  25  39
BRANCH  26  50
ATOM     50  C   UNL A   1      49.059  26.438  27.775  1.00  0.00     0.064 A 
ATOM     51  C   UNL A   1      49.571  26.320  26.477  1.00  0.00     0.173 A 
ATOM     52  C   UNL A   1      49.940  26.237  28.849  1.00  0.00     0.173 A 
ATOM     53  F   UNL A   1      48.762  26.487  25.421  1.00  0.00    -0.203 F 
ATOM     54  C   UNL A   1      50.912  26.009  26.261  1.00  0.00     0.198 A 
ATOM     55  C   UNL A   1      51.287  25.955  28.631  1.00  0.00     0.198 A 
ATOM     56  F   UNL A   1      49.500  26.349  30.110  1.00  0.00    -0.203 F 
ATOM     57  F   UNL A   1      51.372  25.874  25.010  1.00  0.00    -0.200 F 
ATOM     58  C   UNL A   1      51.771  25.837  27.337  1.00  0.00     0.200 A 
ATOM     59  F   UNL A   1      52.116  25.809  29.673  1.00  0.00    -0.200 F 
ATOM     60  F   UNL A   1      53.063  25.555  27.127  1.00  0.00    -0.200 F 
ENDBRANCH  26  50
BRANCH  38  61
ATOM     61  C   UNL A   1      45.816  32.359  29.553  1.00  0.00     0.064 A 
ATOM     62  C   UNL A   1      45.910  33.381  28.598  1.00  0.00     0.173 A 
ATOM     63  C   UNL A   1      46.153  32.666  30.881  1.00  0.00     0.173 A 
ATOM     64  F   UNL A   1      45.616  33.133  27.313  1.00  0.00    -0.203 F 
ATOM     65  C   UNL A   1      46.338  34.657  28.957  1.00  0.00     0.198 A 
ATOM     66  C   UNL A   1      46.552  33.949  31.241  1.00  0.00     0.198 A 
ATOM     67  F   UNL A   1      46.075  31.723  31.833  1.00  0.00    -0.203 F 
ATOM     68  F   UNL A   1      46.459  35.608  28.021  1.00  0.00    -0.200 F 
ATOM     69  C   UNL A   1      46.650  34.941  30.278  1.00  0.00     0.200 A 
ATOM     70  F   UNL A   1      46.839  34.226  32.520  1.00  0.00    -0.200 F 
ATOM     71  F   UNL A   1      47.050  36.173  30.624  1.00  0.00    -0.200 F 
ENDBRANCH  38  61
ENDBRANCH  12  13
ENDBRANCH   5   7
ENDBRANCH   2   3
ENDBRANCH   1   2
BRANCH   1  72
ATOM     72  C   UNL A   1      36.712  20.332  25.032  1.00  0.00     0.023 C 
BRANCH  72  73
ATOM     73  C   UNL A   1      36.669  21.839  25.278  1.00  0.00     0.116 C 
BRANCH  73  74
ATOM     74  N   UNL A   1      35.901  22.179  26.464  1.00  0.00    -0.354 N 
ATOM     75  C   UNL A   1      34.632  22.686  26.561  1.00  0.00     0.243 C 
ATOM     76  H   UNL A   1      36.359  22.024  27.322  1.00  0.00     0.163 HD
ATOM     77  O   UNL A   1      34.213  22.941  27.690  1.00  0.00    -0.273 OA
BRANCH  75  78
ATOM     78  C   UNL A   1      33.781  22.866  25.290  1.00  0.00     0.186 C 
ATOM     79  C   UNL A   1      32.356  22.369  25.526  1.00  0.00     0.107 C 
ATOM     80  N   UNL A   1      33.703  24.189  24.655  1.00  0.00    -0.311 N 
ATOM     81  S   UNL A   1      31.287  23.824  25.649  1.00  0.00    -0.126 SA
ATOM     82  C   UNL A   1      32.488  24.981  24.880  1.00  0.00     0.115 C 
ATOM     83  C   UNL A   1      34.060  24.170  23.302  1.00  0.00     0.224 C 
ATOM     84  C   UNL A   1      32.050  25.376  23.448  1.00  0.00     0.055 C 
ATOM     85  C   UNL A   1      32.835  24.499  22.503  1.00  0.00     0.104 C 
ATOM     86  O   UNL A   1      35.078  23.678  22.838  1.00  0.00    -0.275 OA
BRANCH  82  87
ATOM     87  C   UNL A   1      32.634  26.235  25.762  1.00  0.00    -0.012 A 
ATOM     88  C   UNL A   1      31.577  26.746  26.528  1.00  0.00     0.007 A 
ATOM     89  C   UNL A   1      33.839  26.979  25.787  1.00  0.00     0.007 A 
ATOM     90  C   UNL A   1      31.713  27.920  27.284  1.00  0.00     0.000 A 
ATOM     91  C   UNL A   1      33.992  28.127  26.572  1.00  0.00     0.000 A 
ATOM     92  C   UNL A   1      32.923  28.601  27.318  1.00  0.00     0.000 A 
ENDBRANCH  82  87
ENDBRANCH  75  78
ENDBRANCH  73  74
ENDBRANCH  72  73
ENDBRANCH   1  72
TORSDOF 12
ENDMDL
MODEL 2
REMARK VINA RESULT:     -12.7      0.087      1.683
REMARK SMILES O=C(NCCCCNC(=O)[C@H]1CS[C@]2(c3ccccc3)CCC(=O)N12)c1ccc(-c2c3nc(c(-c4c(F)c(F)c(F)c(F)c4F)c4ccc([nH]4)c(-c4c(F)c(F)c(F)c(F)c4F)c4nc(c(-c5c(F)c(F)c(F)c(F)c5F)c5ccc2[nH]5)C=C4)C=C3)cc1
REMARK SMILES IDX 5 1 4 2 3 3 1 4 2 5 26 7 27 8 88 9 28 10 87 11 29 12 30 13
REMARK SMILES IDX 31 14 81 15 32 16 86 17 80 18 82 19 33 20 85 21 79 22 78 23
REMARK SMILES IDX 34 25 66 26 46 27 65 28 47 29 50 30 64 31 83 32 48 33 49 34
REMARK SMILES IDX 63 36 84 37 51 38 35 39 36 40 44 41 37 42 38 43 42 44 45 45
REMARK SMILES IDX 39 46 40 47 43 48 41 49 67 50 68 51 76 52 69 53 70 54 74 55
REMARK SMILES IDX 77 56 71 57 72 58 75 59 73 60 52 61 53 62 61 63 54 64 55 65
REMARK SMILES IDX 59 66 62 67 56 68 57 69 60 70 58 71 6 72 7 73 8 74 9 75
REMARK SMILES IDX 10 77 11 78 12 79 25 80 13 81 14 82 23 83 21 84 22 85 24 86
REMARK SMILES IDX 15 87 16 88 20 89 17 90 19 91 18 92
REMARK H PARENT 3 6 82 24 50 35 8 76
REMARK Flexibility Score: inf
ROOT
ATOM      1  C   UNL A   1      38.081  19.803  24.786  1.00  0.00     0.023 C 
ENDROOT
BRANCH   1   2
ATOM      2  C   UNL A   1      39.137  20.115  25.843  1.00  0.00     0.116 C 
BRANCH   2   3
ATOM      3  N   UNL A   1      40.219  19.141  25.861  1.00  0.00    -0.352 N 
ATOM      4  O   UNL A   1      42.351  18.404  25.882  1.00  0.00    -0.269 OA
ATOM      5  C   UNL A   1      41.563  19.326  26.073  1.00  0.00     0.251 C 
ATOM      6  H   UNL A   1      39.946  18.209  25.697  1.00  0.00     0.163 HD
BRANCH   5   7
ATOM      7  C   UNL A   1      42.069  20.644  26.508  1.00  0.00     0.039 A 
ATOM      8  C   UNL A   1      42.180  20.954  27.865  1.00  0.00     0.014 A 
ATOM      9  C   UNL A   1      42.452  21.576  25.539  1.00  0.00     0.014 A 
ATOM     10  C   UNL A   1      42.542  22.240  28.253  1.00  0.00     0.010 A 
ATOM     11  C   UNL A   1      42.887  22.842  25.931  1.00  0.00     0.010 A 
ATOM     12  C   UNL A   1      42.906  23.193  27.291  1.00  0.00    -0.014 A 
BRANCH  12  13
ATOM     13  C   UNL A   1      43.341  24.549  27.712  1.00  0.00     0.031 A 
ATOM     14  C   UNL A   1      42.332  25.605  28.059  1.00  0.00     0.074 A 
ATOM     15  C   UNL A   1      44.656  24.828  27.756  1.00  0.00     0.049 A 
ATOM     16  N   UNL A   1      42.524  26.862  28.367  1.00  0.00    -0.248 NA
ATOM     17  C   UNL A   1      40.920  25.196  28.052  1.00  0.00     0.031 C 
ATOM     18  C   UNL A   1      45.728  23.881  27.442  1.00  0.00     0.029 A 
ATOM     19  N   UNL A   1      45.317  25.987  28.072  1.00  0.00    -0.354 N 
ATOM     20  C   UNL A   1      41.259  27.402  28.565  1.00  0.00     0.074 A 
ATOM     21  C   UNL A   1      40.306  26.339  28.320  1.00  0.00     0.031 C 
ATOM     22  C   UNL A   1      46.911  24.492  27.592  1.00  0.00     0.029 A 
ATOM     23  C   UNL A   1      46.680  25.888  27.950  1.00  0.00     0.049 A 
ATOM     24  H   UNL A   1      44.858  26.810  28.359  1.00  0.00     0.167 HD
ATOM     25  C   UNL A   1      40.929  28.666  28.924  1.00  0.00     0.037 A 
ATOM     26  C   UNL A   1      47.639  26.824  28.078  1.00  0.00     0.037 A 
ATOM     27  C   UNL A   1      41.887  29.713  29.173  1.00  0.00     0.049 A 
ATOM     28  C   UNL A   1      47.247  28.228  28.435  1.00  0.00     0.074 A 
ATOM     29  C   UNL A   1      41.658  31.017  29.575  1.00  0.00     0.029 A 
ATOM     30  N   UNL A   1      43.263  29.576  29.033  1.00  0.00    -0.354 N 
ATOM     31  N   UNL A   1      46.051  28.722  28.650  1.00  0.00    -0.248 NA
ATOM     32  C   UNL A   1      48.334  29.206  28.570  1.00  0.00     0.031 C 
ATOM     33  C   UNL A   1      42.887  31.683  29.626  1.00  0.00     0.029 A 
ATOM     34  C   UNL A   1      43.890  30.778  29.315  1.00  0.00     0.049 A 
ATOM     35  H   UNL A   1      43.723  28.746  28.772  1.00  0.00     0.167 HD
ATOM     36  C   UNL A   1      46.242  30.058  28.972  1.00  0.00     0.074 A 
ATOM     37  C   UNL A   1      47.670  30.297  28.929  1.00  0.00     0.031 C 
ATOM     38  C   UNL A   1      45.315  30.998  29.280  1.00  0.00     0.037 A 
BRANCH  25  39
ATOM     39  C   UNL A   1      39.467  28.997  29.035  1.00  0.00     0.064 A 
ATOM     40  C   UNL A   1      38.705  29.376  27.918  1.00  0.00     0.173 A 
ATOM     41  C   UNL A   1      38.813  28.913  30.274  1.00  0.00     0.173 A 
ATOM     42  F   UNL A   1      39.282  29.482  26.712  1.00  0.00    -0.203 F 
ATOM     43  C   UNL A   1      37.355  29.693  28.046  1.00  0.00     0.198 A 
ATOM     44  C   UNL A   1      37.456  29.200  30.391  1.00  0.00     0.198 A 
ATOM     45  F   UNL A   1      39.490  28.548  31.373  1.00  0.00    -0.203 F 
ATOM     46  F   UNL A   1      36.662  30.108  26.975  1.00  0.00    -0.200 F 
ATOM     47  C   UNL A   1      36.730  29.600  29.280  1.00  0.00     0.200 A 
ATOM     48  F   UNL A   1      36.851  29.096  31.582  1.00  0.00    -0.200 F 
ATOM     49  F   UNL A   1      35.431  29.905  29.400  1.00  0.00    -0.200 F 
ENDBRANCH  25  39
BRANCH  26  50
ATOM     50  C   UNL A   1      49.057  26.446  27.857  1.00  0.00     0.064 A 
ATOM     51  C   UNL A   1      49.575  26.316  26.563  1.00  0.00     0.173 A 
ATOM     52  C   UNL A   1      49.933  26.255  28.937  1.00  0.00     0.173 A 
ATOM     53  F   UNL A   1      48.771  26.474  25.502  1.00  0.00    -0.203 F 
ATOM     54  C   UNL A   1      50.917  26.002  26.355  1.00  0.00     0.198 A 
ATOM     55  C   UNL A   1      51.281  25.970  28.727  1.00  0.00     0.198 A 
ATOM     56  F   UNL A   1      49.487  26.378  30.195  1.00  0.00    -0.203 F 
ATOM     57  F   UNL A   1      51.382  25.856  25.108  1.00  0.00    -0.200 F 
ATOM     58  C   UNL A   1      51.770  25.840  27.437  1.00  0.00     0.200 A 
ATOM     59  F   UNL A   1      52.105  25.833  29.775  1.00  0.00    -0.200 F 
ATOM     60  F   UNL A   1      53.064  25.556  27.235  1.00  0.00    -0.200 F 
ENDBRANCH  26  50
BRANCH  38  61
ATOM     61  C   UNL A   1      45.816  32.366  29.645  1.00  0.00     0.064 A 
ATOM     62  C   UNL A   1      46.200  32.688  30.954  1.00  0.00     0.173 A 
ATOM     63  C   UNL A   1      45.963  33.350  28.654  1.00  0.00     0.173 A 
ATOM     64  F   UNL A   1      46.062  31.789  31.939  1.00  0.00    -0.203 F 
ATOM     65  C   UNL A   1      46.699  33.952  31.261  1.00  0.00     0.198 A 
ATOM     66  C   UNL A   1      46.489  34.600  28.959  1.00  0.00     0.198 A 
ATOM     67  F   UNL A   1      45.613  33.089  27.385  1.00  0.00    -0.203 F 
ATOM     68  F   UNL A   1      47.023  34.252  32.526  1.00  0.00    -0.200 F 
ATOM     69  C   UNL A   1      46.851  34.902  30.263  1.00  0.00     0.200 A 
ATOM     70  F   UNL A   1      46.649  35.513  27.991  1.00  0.00    -0.200 F 
ATOM     71  F   UNL A   1      47.344  36.113  30.558  1.00  0.00    -0.200 F 
ENDBRANCH  38  61
ENDBRANCH  12  13
ENDBRANCH   5   7
ENDBRANCH   2   3
ENDBRANCH   1   2
BRANCH   1  72
ATOM     72  C   UNL A   1      36.697  20.396  25.054  1.00  0.00     0.023 C 
BRANCH  72  73
ATOM     73  C   UNL A   1      36.673  21.898  25.332  1.00  0.00     0.116 C 
BRANCH  73  74
ATOM     74  N   UNL A   1      35.885  22.226  26.508  1.00  0.00    -0.354 N 
ATOM     75  C   UNL A   1      34.602  22.701  26.589  1.00  0.00     0.243 C 
ATOM     76  H   UNL A   1      36.339  22.088  27.371  1.00  0.00     0.163 HD
ATOM     77  O   UNL A   1      34.166  22.952  27.712  1.00  0.00    -0.273 OA
BRANCH  75  78
ATOM     78  C   UNL A   1      33.760  22.850  25.308  1.00  0.00     0.186 C 
ATOM     79  C   UNL A   1      32.330  22.373  25.551  1.00  0.00     0.107 C 
ATOM     80  N   UNL A   1      33.697  24.154  24.633  1.00  0.00    -0.311 N 
ATOM     81  S   UNL A   1      31.273  23.842  25.624  1.00  0.00    -0.126 SA
ATOM     82  C   UNL A   1      32.489  24.963  24.828  1.00  0.00     0.115 C 
ATOM     83  C   UNL A   1      34.062  24.091  23.284  1.00  0.00     0.224 C 
ATOM     84  C   UNL A   1      32.062  25.320  23.382  1.00  0.00     0.055 C 
ATOM     85  C   UNL A   1      32.844  24.407  22.468  1.00  0.00     0.104 C 
ATOM     86  O   UNL A   1      35.077  23.577  22.840  1.00  0.00    -0.275 OA
BRANCH  82  87
ATOM     87  C   UNL A   1      32.643  26.242  25.673  1.00  0.00    -0.012 A 
ATOM     88  C   UNL A   1      33.842  26.967  25.734  1.00  0.00     0.007 A 
ATOM     89  C   UNL A   1      31.587  26.712  26.492  1.00  0.00     0.007 A 
ATOM     90  C   UNL A   1      33.979  28.100  26.550  1.00  0.00     0.000 A 
ATOM     91  C   UNL A   1      31.706  27.865  27.275  1.00  0.00     0.000 A 
ATOM     92  C   UNL A   1      32.908  28.557  27.308  1.00  0.00     0.000 A 
ENDBRANCH  82  87
ENDBRANCH  75  78
ENDBRANCH  73  74
ENDBRANCH  72  73
ENDBRANCH   1  72
TORSDOF 12
ENDMDL
MODEL 3
REMARK VINA RESULT:     -12.7      0.130      1.140
REMARK SMILES O=C(NCCCCNC(=O)[C@H]1CS[C@]2(c3ccccc3)CCC(=O)N12)c1ccc(-c2c3nc(c(-c4c(F)c(F)c(F)c(F)c4F)c4ccc([nH]4)c(-c4c(F)c(F)c(F)c(F)c4F)c4nc(c(-c5c(F)c(F)c(F)c(F)c5F)c5ccc2[nH]5)C=C4)C=C3)cc1
REMARK SMILES IDX 5 1 4 2 3 3 1 4 2 5 26 7 27 8 88 9 28 10 87 11 29 12 30 13
REMARK SMILES IDX 31 14 81 15 32 16 86 17 80 18 82 19 33 20 85 21 79 22 78 23
REMARK SMILES IDX 34 25 66 26 46 27 65 28 47 29 50 30 64 31 83 32 48 33 49 34
REMARK SMILES IDX 63 36 84 37 51 38 35 39 36 40 44 41 37 42 38 43 42 44 45 45
REMARK SMILES IDX 39 46 40 47 43 48 41 49 67 50 68 51 76 52 69 53 70 54 74 55
REMARK SMILES IDX 77 56 71 57 72 58 75 59 73 60 52 61 53 62 61 63 54 64 55 65
REMARK SMILES IDX 59 66 62 67 56 68 57 69 60 70 58 71 6 72 7 73 8 74 9 75
REMARK SMILES IDX 10 77 11 78 12 79 25 80 13 81 14 82 23 83 21 84 22 85 24 86
REMARK SMILES IDX 15 87 16 88 20 89 17 90 19 91 18 92
REMARK H PARENT 3 6 82 24 50 35 8 76
REMARK Flexibility Score: inf
ROOT
ATOM      1  C   UNL A   1      37.978  19.797  24.734  1.00  0.00     0.023 C 
ENDROOT
BRANCH   1   2
ATOM      2  C   UNL A   1      39.065  20.169  25.739  1.00  0.00     0.116 C 
BRANCH   2   3
ATOM      3  N   UNL A   1      40.129  19.177  25.809  1.00  0.00    -0.352 N 
ATOM      4  O   UNL A   1      42.246  18.404  25.908  1.00  0.00    -0.269 OA
ATOM      5  C   UNL A   1      41.469  19.343  26.055  1.00  0.00     0.251 C 
ATOM      6  H   UNL A   1      39.843  18.247  25.659  1.00  0.00     0.163 HD
BRANCH   5   7
ATOM      7  C   UNL A   1      41.986  20.662  26.475  1.00  0.00     0.039 A 
ATOM      8  C   UNL A   1      42.149  20.967  27.828  1.00  0.00     0.014 A 
ATOM      9  C   UNL A   1      42.327  21.599  25.495  1.00  0.00     0.014 A 
ATOM     10  C   UNL A   1      42.522  22.253  28.207  1.00  0.00     0.010 A 
ATOM     11  C   UNL A   1      42.772  22.865  25.875  1.00  0.00     0.010 A 
ATOM     12  C   UNL A   1      42.843  23.212  27.234  1.00  0.00    -0.014 A 
BRANCH  12  13
ATOM     13  C   UNL A   1      43.289  24.568  27.643  1.00  0.00     0.031 A 
ATOM     14  C   UNL A   1      42.289  25.629  28.000  1.00  0.00     0.074 A 
ATOM     15  C   UNL A   1      44.606  24.842  27.667  1.00  0.00     0.049 A 
ATOM     16  N   UNL A   1      42.489  26.887  28.300  1.00  0.00    -0.248 NA
ATOM     17  C   UNL A   1      40.875  25.224  28.015  1.00  0.00     0.031 C 
ATOM     18  C   UNL A   1      45.670  23.890  27.342  1.00  0.00     0.029 A 
ATOM     19  N   UNL A   1      45.275  26.000  27.969  1.00  0.00    -0.354 N 
ATOM     20  C   UNL A   1      41.229  27.432  28.513  1.00  0.00     0.074 A 
ATOM     21  C   UNL A   1      40.269  26.372  28.286  1.00  0.00     0.031 C 
ATOM     22  C   UNL A   1      46.857  24.498  27.473  1.00  0.00     0.029 A 
ATOM     23  C   UNL A   1      46.636  25.897  27.828  1.00  0.00     0.049 A 
ATOM     24  H   UNL A   1      44.823  26.826  28.258  1.00  0.00     0.167 HD
ATOM     25  C   UNL A   1      40.908  28.699  28.871  1.00  0.00     0.037 A 
ATOM     26  C   UNL A   1      47.599  26.829  27.938  1.00  0.00     0.037 A 
ATOM     27  C   UNL A   1      41.874  29.743  29.101  1.00  0.00     0.049 A 
ATOM     28  C   UNL A   1      47.217  28.237  28.295  1.00  0.00     0.074 A 
ATOM     29  C   UNL A   1      41.654  31.050  29.501  1.00  0.00     0.029 A 
ATOM     30  N   UNL A   1      43.247  29.601  28.943  1.00  0.00    -0.354 N 
ATOM     31  N   UNL A   1      46.026  28.736  28.524  1.00  0.00    -0.248 NA
ATOM     32  C   UNL A   1      48.309  29.211  28.410  1.00  0.00     0.031 C 
ATOM     33  C   UNL A   1      42.886  31.712  29.531  1.00  0.00     0.029 A 
ATOM     34  C   UNL A   1      43.882  30.802  29.211  1.00  0.00     0.049 A 
ATOM     35  H   UNL A   1      43.700  28.768  28.679  1.00  0.00     0.167 HD
ATOM     36  C   UNL A   1      46.226  30.072  28.837  1.00  0.00     0.074 A 
ATOM     37  C   UNL A   1      47.654  30.306  28.773  1.00  0.00     0.031 C 
ATOM     38  C   UNL A   1      45.307  31.017  29.154  1.00  0.00     0.037 A 
BRANCH  25  39
ATOM     39  C   UNL A   1      39.450  29.036  29.001  1.00  0.00     0.064 A 
ATOM     40  C   UNL A   1      38.794  29.030  30.242  1.00  0.00     0.173 A 
ATOM     41  C   UNL A   1      38.701  29.392  27.868  1.00  0.00     0.173 A 
ATOM     42  F   UNL A   1      39.460  28.688  31.355  1.00  0.00    -0.203 F 
ATOM     43  C   UNL A   1      37.437  29.331  30.338  1.00  0.00     0.198 A 
ATOM     44  C   UNL A   1      37.352  29.723  27.973  1.00  0.00     0.198 A 
ATOM     45  F   UNL A   1      39.278  29.423  26.657  1.00  0.00    -0.203 F 
ATOM     46  F   UNL A   1      36.821  29.262  31.526  1.00  0.00    -0.200 F 
ATOM     47  C   UNL A   1      36.719  29.682  29.206  1.00  0.00     0.200 A 
ATOM     48  F   UNL A   1      36.663  30.077  26.879  1.00  0.00    -0.200 F 
ATOM     49  F   UNL A   1      35.414  29.972  29.301  1.00  0.00    -0.200 F 
ENDBRANCH  25  39
BRANCH  26  50
ATOM     50  C   UNL A   1      49.013  26.446  27.699  1.00  0.00     0.064 A 
ATOM     51  C   UNL A   1      49.543  26.419  26.403  1.00  0.00     0.173 A 
ATOM     52  C   UNL A   1      49.873  26.145  28.767  1.00  0.00     0.173 A 
ATOM     53  F   UNL A   1      48.754  26.684  25.352  1.00  0.00    -0.203 F 
ATOM     54  C   UNL A   1      50.881  26.099  26.182  1.00  0.00     0.198 A 
ATOM     55  C   UNL A   1      51.218  25.854  28.545  1.00  0.00     0.198 A 
ATOM     56  F   UNL A   1      49.415  26.166  30.026  1.00  0.00    -0.203 F 
ATOM     57  F   UNL A   1      51.357  26.053  24.931  1.00  0.00    -0.200 F 
ATOM     58  C   UNL A   1      51.720  25.827  27.253  1.00  0.00     0.200 A 
ATOM     59  F   UNL A   1      52.028  25.611  29.585  1.00  0.00    -0.200 F 
ATOM     60  F   UNL A   1      53.010  25.538  27.040  1.00  0.00    -0.200 F 
ENDBRANCH  26  50
BRANCH  38  61
ATOM     61  C   UNL A   1      45.818  32.384  29.506  1.00  0.00     0.064 A 
ATOM     62  C   UNL A   1      46.202  32.717  30.813  1.00  0.00     0.173 A 
ATOM     63  C   UNL A   1      45.974  33.357  28.506  1.00  0.00     0.173 A 
ATOM     64  F   UNL A   1      46.056  31.829  31.806  1.00  0.00    -0.203 F 
ATOM     65  C   UNL A   1      46.710  33.980  31.107  1.00  0.00     0.198 A 
ATOM     66  C   UNL A   1      46.509  34.606  28.799  1.00  0.00     0.198 A 
ATOM     67  F   UNL A   1      45.624  33.085  27.239  1.00  0.00    -0.203 F 
ATOM     68  F   UNL A   1      47.035  34.291  32.370  1.00  0.00    -0.200 F 
ATOM     69  C   UNL A   1      46.872  34.919  30.100  1.00  0.00     0.200 A 
ATOM     70  F   UNL A   1      46.677  35.508  27.821  1.00  0.00    -0.200 F 
ATOM     71  F   UNL A   1      47.373  36.129  30.383  1.00  0.00    -0.200 F 
ENDBRANCH  38  61
ENDBRANCH  12  13
ENDBRANCH   5   7
ENDBRANCH   2   3
ENDBRANCH   1   2
BRANCH   1  72
ATOM     72  C   UNL A   1      36.606  20.416  25.001  1.00  0.00     0.023 C 
BRANCH  72  73
ATOM     73  C   UNL A   1      36.616  21.909  25.327  1.00  0.00     0.116 C 
BRANCH  73  74
ATOM     74  N   UNL A   1      35.815  22.219  26.500  1.00  0.00    -0.354 N 
ATOM     75  C   UNL A   1      34.535  22.701  26.574  1.00  0.00     0.243 C 
ATOM     76  H   UNL A   1      36.257  22.061  27.365  1.00  0.00     0.163 HD
ATOM     77  O   UNL A   1      34.086  22.934  27.696  1.00  0.00    -0.273 OA
BRANCH  75  78
ATOM     78  C   UNL A   1      33.709  22.882  25.286  1.00  0.00     0.186 C 
ATOM     79  C   UNL A   1      32.273  22.409  25.501  1.00  0.00     0.107 C 
ATOM     80  N   UNL A   1      33.663  24.200  24.637  1.00  0.00    -0.311 N 
ATOM     81  S   UNL A   1      31.225  23.883  25.591  1.00  0.00    -0.126 SA
ATOM     82  C   UNL A   1      32.458  25.013  24.833  1.00  0.00     0.115 C 
ATOM     83  C   UNL A   1      34.044  24.162  23.291  1.00  0.00     0.224 C 
ATOM     84  C   UNL A   1      32.051  25.401  23.390  1.00  0.00     0.055 C 
ATOM     85  C   UNL A   1      32.839  24.503  22.467  1.00  0.00     0.104 C 
ATOM     86  O   UNL A   1      35.062  23.650  22.850  1.00  0.00    -0.275 OA
BRANCH  82  87
ATOM     87  C   UNL A   1      32.608  26.273  25.706  1.00  0.00    -0.012 A 
ATOM     88  C   UNL A   1      31.566  26.766  26.504  1.00  0.00     0.007 A 
ATOM     89  C   UNL A   1      33.798  27.041  25.688  1.00  0.00     0.007 A 
ATOM     90  C   UNL A   1      31.704  27.945  27.252  1.00  0.00     0.000 A 
ATOM     91  C   UNL A   1      33.954  28.194  26.464  1.00  0.00     0.000 A 
ATOM     92  C   UNL A   1      32.901  28.651  27.244  1.00  0.00     0.000 A 
ENDBRANCH  82  87
ENDBRANCH  75  78
ENDBRANCH  73  74
ENDBRANCH  72  73
ENDBRANCH   1  72
TORSDOF 12
ENDMDL
