MODEL 1
REMARK VINA RESULT:     -12.1      0.000      0.000
REMARK SMILES C[C@@H](c1ccccc1)[C@@H]1[NH2+][C@@H](C(=O)NCCCCNC(=O)c2ccc(-c3c4nc(c(-c5c(F)c(F)c(F)c(F)c5F)c5ccc([nH]5)c(-c5c(F)c(F)c(F)c(F)c5F)c5nc(c(-c6c(F)c(F)c(F)c(F)c6F)c6ccc3[nH]6)C=C5)C=C4)cc2)CS1
REMARK SMILES IDX 16 1 15 2 14 3 12 4 13 5 11 7 9 8 10 9 86 10 85 13 2 14 1 15
REMARK SMILES IDX 3 16 4 17 8 18 5 19 7 20 6 21 17 22 18 23 19 24 20 25 21 27
REMARK SMILES IDX 22 28 23 29 84 30 24 31 83 32 25 33 26 34 27 35 77 36 28 37
REMARK SMILES IDX 82 38 76 39 78 40 29 41 81 42 75 43 74 44 30 46 62 47 42 48
REMARK SMILES IDX 61 49 43 50 46 51 60 52 79 53 44 54 45 55 59 57 80 58 47 59
REMARK SMILES IDX 31 60 32 61 40 62 33 63 34 64 38 65 41 66 35 67 36 68 39 69
REMARK SMILES IDX 37 70 63 71 64 72 72 73 65 74 66 75 70 76 73 77 67 78 68 79
REMARK SMILES IDX 71 80 69 81 48 82 49 83 57 84 50 85 51 86 55 87 58 88 52 89
REMARK SMILES IDX 53 90 56 91 54 92
REMARK H PARENT 14 6 10 11 10 12 19 26 78 45 46 56
REMARK Flexibility Score: inf
ROOT
ATOM      1  C   UNL A   1      31.784  30.375  26.558  1.00  0.00     0.023 C 
ENDROOT
BRANCH   1   2
ATOM      2  C   UNL A   1      33.174  29.949  26.088  1.00  0.00     0.116 C 
BRANCH   2   3
ATOM      3  N   UNL A   1      33.218  29.728  24.656  1.00  0.00    -0.351 N 
ATOM      4  C   UNL A   1      33.289  28.551  23.966  1.00  0.00     0.279 C 
ATOM      5  O   UNL A   1      33.327  28.626  22.735  1.00  0.00    -0.268 OA
ATOM      6  H   UNL A   1      33.193  30.542  24.102  1.00  0.00     0.163 HD
BRANCH   4   7
ATOM      7  C   UNL A   1      33.269  27.203  24.724  1.00  0.00     0.283 C 
ATOM      8  C   UNL A   1      33.508  24.837  24.359  1.00  0.00     0.249 C 
ATOM      9  N   UNL A   1      34.010  26.161  23.953  1.00  0.00    -0.324 N 
ATOM     10  S   UNL A   1      31.708  25.068  24.337  1.00  0.00    -0.092 SA
ATOM     11  H   UNL A   1      33.854  26.296  22.954  1.00  0.00     0.347 HD
ATOM     12  H   UNL A   1      35.010  26.230  24.141  1.00  0.00     0.347 HD
ATOM     13  C   UNL A   1      31.829  26.743  25.008  1.00  0.00     0.151 C 
BRANCH   8  14
ATOM     14  C   UNL A   1      34.064  24.312  25.728  1.00  0.00     0.085 C 
ATOM     15  C   UNL A   1      32.975  23.633  26.579  1.00  0.00     0.020 C 
BRANCH  14  16
ATOM     16  C   UNL A   1      35.273  23.394  25.516  1.00  0.00    -0.038 A 
ATOM     17  C   UNL A   1      35.060  22.048  25.178  1.00  0.00     0.004 A 
ATOM     18  C   UNL A   1      36.597  23.835  25.665  1.00  0.00     0.004 A 
ATOM     19  C   UNL A   1      36.130  21.165  25.016  1.00  0.00     0.000 A 
ATOM     20  C   UNL A   1      37.670  22.956  25.481  1.00  0.00     0.000 A 
ATOM     21  C   UNL A   1      37.436  21.621  25.165  1.00  0.00     0.000 A 
ENDBRANCH  14  16
ENDBRANCH   8  14
ENDBRANCH   4   7
ENDBRANCH   2   3
ENDBRANCH   1   2
BRANCH   1  22
ATOM     22  C   UNL A   1      31.592  31.888  26.700  1.00  0.00     0.023 C 
BRANCH  22  23
ATOM     23  C   UNL A   1      32.756  32.641  27.337  1.00  0.00     0.116 C 
BRANCH  23  24
ATOM     24  N   UNL A   1      32.430  34.020  27.665  1.00  0.00    -0.352 N 
ATOM     25  C   UNL A   1      32.997  34.848  28.603  1.00  0.00     0.251 C 
ATOM     26  H   UNL A   1      31.697  34.417  27.140  1.00  0.00     0.163 HD
ATOM     27  O   UNL A   1      32.504  35.949  28.832  1.00  0.00    -0.269 OA
BRANCH  25  28
ATOM     28  C   UNL A   1      34.182  34.398  29.367  1.00  0.00     0.039 A 
ATOM     29  C   UNL A   1      33.987  33.795  30.612  1.00  0.00     0.014 A 
ATOM     30  C   UNL A   1      35.473  34.555  28.858  1.00  0.00     0.014 A 
ATOM     31  C   UNL A   1      35.081  33.278  31.310  1.00  0.00     0.010 A 
ATOM     32  C   UNL A   1      36.554  33.977  29.521  1.00  0.00     0.010 A 
ATOM     33  C   UNL A   1      36.369  33.323  30.750  1.00  0.00    -0.014 A 
BRANCH  33  34
ATOM     34  C   UNL A   1      37.521  32.663  31.419  1.00  0.00     0.031 A 
ATOM     35  C   UNL A   1      38.192  31.474  30.788  1.00  0.00     0.074 A 
ATOM     36  C   UNL A   1      37.916  33.095  32.634  1.00  0.00     0.049 A 
ATOM     37  N   UNL A   1      39.161  30.729  31.255  1.00  0.00    -0.248 NA
ATOM     38  C   UNL A   1      37.694  31.050  29.470  1.00  0.00     0.031 C 
ATOM     39  C   UNL A   1      37.313  34.204  33.375  1.00  0.00     0.029 A 
ATOM     40  N   UNL A   1      38.908  32.642  33.470  1.00  0.00    -0.354 N 
ATOM     41  C   UNL A   1      39.375  29.742  30.301  1.00  0.00     0.074 A 
ATOM     42  C   UNL A   1      38.411  29.957  29.245  1.00  0.00     0.031 C 
ATOM     43  C   UNL A   1      37.955  34.354  34.546  1.00  0.00     0.029 A 
ATOM     44  C   UNL A   1      38.985  33.328  34.660  1.00  0.00     0.049 A 
ATOM     45  H   UNL A   1      39.508  31.896  33.239  1.00  0.00     0.167 HD
ATOM     46  C   UNL A   1      40.302  28.755  30.303  1.00  0.00     0.037 A 
ATOM     47  C   UNL A   1      39.782  33.138  35.729  1.00  0.00     0.037 A 
ATOM     48  C   UNL A   1      41.287  28.567  31.337  1.00  0.00     0.049 A 
ATOM     49  C   UNL A   1      40.802  32.028  35.696  1.00  0.00     0.074 A 
ATOM     50  C   UNL A   1      42.328  27.655  31.377  1.00  0.00     0.029 A 
ATOM     51  N   UNL A   1      41.347  29.294  32.515  1.00  0.00    -0.354 N 
ATOM     52  N   UNL A   1      41.059  31.167  34.743  1.00  0.00    -0.248 NA
ATOM     53  C   UNL A   1      41.645  31.869  36.889  1.00  0.00     0.031 C 
ATOM     54  C   UNL A   1      42.978  27.787  32.607  1.00  0.00     0.029 A 
ATOM     55  C   UNL A   1      42.384  28.824  33.307  1.00  0.00     0.049 A 
ATOM     56  H   UNL A   1      40.743  30.034  32.754  1.00  0.00     0.167 HD
ATOM     57  C   UNL A   1      42.111  30.388  35.206  1.00  0.00     0.074 A 
ATOM     58  C   UNL A   1      42.460  30.892  36.517  1.00  0.00     0.031 C 
ATOM     59  C   UNL A   1      42.730  29.344  34.602  1.00  0.00     0.037 A 
BRANCH  46  60
ATOM     60  C   UNL A   1      40.315  27.790  29.153  1.00  0.00     0.064 A 
ATOM     61  C   UNL A   1      39.543  26.619  29.164  1.00  0.00     0.173 A 
ATOM     62  C   UNL A   1      41.031  28.093  27.985  1.00  0.00     0.173 A 
ATOM     63  F   UNL A   1      38.845  26.280  30.259  1.00  0.00    -0.203 F 
ATOM     64  C   UNL A   1      39.496  25.782  28.052  1.00  0.00     0.198 A 
ATOM     65  C   UNL A   1      40.960  27.269  26.865  1.00  0.00     0.198 A 
ATOM     66  F   UNL A   1      41.780  29.205  27.920  1.00  0.00    -0.203 F 
ATOM     67  F   UNL A   1      38.772  24.655  28.094  1.00  0.00    -0.200 F 
ATOM     68  C   UNL A   1      40.193  26.114  26.900  1.00  0.00     0.200 A 
ATOM     69  F   UNL A   1      41.621  27.601  25.748  1.00  0.00    -0.200 F 
ATOM     70  F   UNL A   1      40.127  25.321  25.822  1.00  0.00    -0.200 F 
ENDBRANCH  46  60
BRANCH  47  71
ATOM     71  C   UNL A   1      39.654  34.006  36.931  1.00  0.00     0.064 A 
ATOM     72  C   UNL A   1      38.868  33.617  38.025  1.00  0.00     0.173 A 
ATOM     73  C   UNL A   1      40.270  35.265  36.990  1.00  0.00     0.173 A 
ATOM     74  F   UNL A   1      38.240  32.432  38.010  1.00  0.00    -0.203 F 
ATOM     75  C   UNL A   1      38.666  34.469  39.108  1.00  0.00     0.198 A 
ATOM     76  C   UNL A   1      40.098  36.101  38.090  1.00  0.00     0.198 A 
ATOM     77  F   UNL A   1      41.038  35.685  35.974  1.00  0.00    -0.203 F 
ATOM     78  F   UNL A   1      37.848  34.101  40.104  1.00  0.00    -0.200 F 
ATOM     79  C   UNL A   1      39.284  35.711  39.142  1.00  0.00     0.200 A 
ATOM     80  F   UNL A   1      40.710  37.293  38.125  1.00  0.00    -0.200 F 
ATOM     81  F   UNL A   1      39.082  36.535  40.179  1.00  0.00    -0.200 F 
ENDBRANCH  47  71
BRANCH  59  82
ATOM     82  C   UNL A   1      43.875  28.703  35.334  1.00  0.00     0.064 A 
ATOM     83  C   UNL A   1      45.196  29.140  35.164  1.00  0.00     0.173 A 
ATOM     84  C   UNL A   1      43.640  27.662  36.246  1.00  0.00     0.173 A 
ATOM     85  F   UNL A   1      45.478  30.121  34.293  1.00  0.00    -0.203 F 
ATOM     86  C   UNL A   1      46.244  28.539  35.859  1.00  0.00     0.198 A 
ATOM     87  C   UNL A   1      44.683  27.088  36.965  1.00  0.00     0.198 A 
ATOM     88  F   UNL A   1      42.392  27.212  36.452  1.00  0.00    -0.203 F 
ATOM     89  F   UNL A   1      47.505  28.937  35.640  1.00  0.00    -0.200 F 
ATOM     90  C   UNL A   1      45.985  27.521  36.764  1.00  0.00     0.200 A 
ATOM     91  F   UNL A   1      44.430  26.116  37.852  1.00  0.00    -0.200 F 
ATOM     92  F   UNL A   1      46.993  26.951  37.438  1.00  0.00    -0.200 F 
ENDBRANCH  59  82
ENDBRANCH  33  34
ENDBRANCH  25  28
ENDBRANCH  23  24
ENDBRANCH  22  23
ENDBRANCH   1  22
TORSDOF 13
ENDMDL
MODEL 2
REMARK VINA RESULT:     -12.0      0.747      1.404
REMARK SMILES C[C@@H](c1ccccc1)[C@@H]1[NH2+][C@@H](C(=O)NCCCCNC(=O)c2ccc(-c3c4nc(c(-c5c(F)c(F)c(F)c(F)c5F)c5ccc([nH]5)c(-c5c(F)c(F)c(F)c(F)c5F)c5nc(c(-c6c(F)c(F)c(F)c(F)c6F)c6ccc3[nH]6)C=C5)C=C4)cc2)CS1
REMARK SMILES IDX 16 1 15 2 14 3 12 4 13 5 11 7 9 8 10 9 86 10 85 13 2 14 1 15
REMARK SMILES IDX 3 16 4 17 8 18 5 19 7 20 6 21 17 22 18 23 19 24 20 25 21 27
REMARK SMILES IDX 22 28 23 29 84 30 24 31 83 32 25 33 26 34 27 35 77 36 28 37
REMARK SMILES IDX 82 38 76 39 78 40 29 41 81 42 75 43 74 44 30 46 62 47 42 48
REMARK SMILES IDX 61 49 43 50 46 51 60 52 79 53 44 54 45 55 59 57 80 58 47 59
REMARK SMILES IDX 31 60 32 61 40 62 33 63 34 64 38 65 41 66 35 67 36 68 39 69
REMARK SMILES IDX 37 70 63 71 64 72 72 73 65 74 66 75 70 76 73 77 67 78 68 79
REMARK SMILES IDX 71 80 69 81 48 82 49 83 57 84 50 85 51 86 55 87 58 88 52 89
REMARK SMILES IDX 53 90 56 91 54 92
REMARK H PARENT 14 6 10 11 10 12 19 26 78 45 46 56
REMARK Flexibility Score: inf
ROOT
ATOM      1  C   UNL A   1      31.789  30.353  26.711  1.00  0.00     0.023 C 
ENDROOT
BRANCH   1   2
ATOM      2  C   UNL A   1      32.407  29.871  25.399  1.00  0.00     0.116 C 
BRANCH   2   3
ATOM      3  N   UNL A   1      31.411  29.702  24.360  1.00  0.00    -0.351 N 
ATOM      4  C   UNL A   1      30.910  28.551  23.823  1.00  0.00     0.279 C 
ATOM      5  O   UNL A   1      30.068  28.669  22.930  1.00  0.00    -0.268 OA
ATOM      6  H   UNL A   1      31.044  30.537  23.987  1.00  0.00     0.163 HD
BRANCH   4   7
ATOM      7  C   UNL A   1      31.361  27.177  24.373  1.00  0.00     0.283 C 
ATOM      8  C   UNL A   1      32.461  25.149  23.693  1.00  0.00     0.249 C 
ATOM      9  N   UNL A   1      32.456  26.612  23.530  1.00  0.00    -0.324 N 
ATOM     10  S   UNL A   1      30.703  24.723  23.542  1.00  0.00    -0.092 SA
ATOM     11  H   UNL A   1      32.293  26.848  22.551  1.00  0.00     0.347 HD
ATOM     12  H   UNL A   1      33.354  27.000  23.816  1.00  0.00     0.347 HD
ATOM     13  C   UNL A   1      30.181  26.193  24.457  1.00  0.00     0.151 C 
BRANCH   8  14
ATOM     14  C   UNL A   1      33.128  24.635  25.015  1.00  0.00     0.085 C 
ATOM     15  C   UNL A   1      32.254  23.595  25.744  1.00  0.00     0.020 C 
BRANCH  14  16
ATOM     16  C   UNL A   1      34.539  24.102  24.750  1.00  0.00    -0.038 A 
ATOM     17  C   UNL A   1      34.832  23.525  23.504  1.00  0.00     0.004 A 
ATOM     18  C   UNL A   1      35.562  24.146  25.712  1.00  0.00     0.004 A 
ATOM     19  C   UNL A   1      36.093  22.990  23.233  1.00  0.00     0.000 A 
ATOM     20  C   UNL A   1      36.831  23.630  25.433  1.00  0.00     0.000 A 
ATOM     21  C   UNL A   1      37.094  23.044  24.198  1.00  0.00     0.000 A 
ENDBRANCH  14  16
ENDBRANCH   8  14
ENDBRANCH   4   7
ENDBRANCH   2   3
ENDBRANCH   1   2
BRANCH   1  22
ATOM     22  C   UNL A   1      31.582  31.868  26.802  1.00  0.00     0.023 C 
BRANCH  22  23
ATOM     23  C   UNL A   1      32.785  32.667  27.292  1.00  0.00     0.116 C 
BRANCH  23  24
ATOM     24  N   UNL A   1      32.455  34.042  27.634  1.00  0.00    -0.352 N 
ATOM     25  C   UNL A   1      33.022  34.863  28.577  1.00  0.00     0.251 C 
ATOM     26  H   UNL A   1      31.719  34.441  27.115  1.00  0.00     0.163 HD
ATOM     27  O   UNL A   1      32.526  35.960  28.818  1.00  0.00    -0.269 OA
BRANCH  25  28
ATOM     28  C   UNL A   1      34.211  34.412  29.333  1.00  0.00     0.039 A 
ATOM     29  C   UNL A   1      34.025  33.816  30.583  1.00  0.00     0.014 A 
ATOM     30  C   UNL A   1      35.499  34.558  28.811  1.00  0.00     0.014 A 
ATOM     31  C   UNL A   1      35.122  33.297  31.274  1.00  0.00     0.010 A 
ATOM     32  C   UNL A   1      36.583  33.978  29.467  1.00  0.00     0.010 A 
ATOM     33  C   UNL A   1      36.405  33.332  30.702  1.00  0.00    -0.014 A 
BRANCH  33  34
ATOM     34  C   UNL A   1      37.560  32.670  31.365  1.00  0.00     0.031 A 
ATOM     35  C   UNL A   1      38.238  31.493  30.719  1.00  0.00     0.074 A 
ATOM     36  C   UNL A   1      37.950  33.087  32.586  1.00  0.00     0.049 A 
ATOM     37  N   UNL A   1      39.211  30.746  31.177  1.00  0.00    -0.248 NA
ATOM     38  C   UNL A   1      37.745  31.083  29.394  1.00  0.00     0.031 C 
ATOM     39  C   UNL A   1      37.339  34.182  33.341  1.00  0.00     0.029 A 
ATOM     40  N   UNL A   1      38.943  32.628  33.418  1.00  0.00    -0.354 N 
ATOM     41  C   UNL A   1      39.432  29.774  30.211  1.00  0.00     0.074 A 
ATOM     42  C   UNL A   1      38.468  29.998  29.156  1.00  0.00     0.031 C 
ATOM     43  C   UNL A   1      37.979  34.321  34.514  1.00  0.00     0.029 A 
ATOM     44  C   UNL A   1      39.014  33.298  34.616  1.00  0.00     0.049 A 
ATOM     45  H   UNL A   1      39.547  31.889  33.178  1.00  0.00     0.167 HD
ATOM     46  C   UNL A   1      40.365  28.792  30.201  1.00  0.00     0.037 A 
ATOM     47  C   UNL A   1      39.810  33.099  35.684  1.00  0.00     0.037 A 
ATOM     48  C   UNL A   1      41.348  28.595  31.234  1.00  0.00     0.049 A 
ATOM     49  C   UNL A   1      40.836  31.995  35.639  1.00  0.00     0.074 A 
ATOM     50  C   UNL A   1      42.394  27.689  31.264  1.00  0.00     0.029 A 
ATOM     51  N   UNL A   1      41.402  29.307  32.422  1.00  0.00    -0.354 N 
ATOM     52  N   UNL A   1      41.100  31.148  34.674  1.00  0.00    -0.248 NA
ATOM     53  C   UNL A   1      41.678  31.824  36.831  1.00  0.00     0.031 C 
ATOM     54  C   UNL A   1      43.041  27.808  32.496  1.00  0.00     0.029 A 
ATOM     55  C   UNL A   1      42.440  28.832  33.209  1.00  0.00     0.049 A 
ATOM     56  H   UNL A   1      40.794  30.040  32.670  1.00  0.00     0.167 HD
ATOM     57  C   UNL A   1      42.155  30.369  35.130  1.00  0.00     0.074 A 
ATOM     58  C   UNL A   1      42.499  30.857  36.447  1.00  0.00     0.031 C 
ATOM     59  C   UNL A   1      42.781  29.336  34.513  1.00  0.00     0.037 A 
BRANCH  46  60
ATOM     60  C   UNL A   1      40.385  27.843  29.038  1.00  0.00     0.064 A 
ATOM     61  C   UNL A   1      39.599  26.681  29.021  1.00  0.00     0.173 A 
ATOM     62  C   UNL A   1      41.123  28.153  27.886  1.00  0.00     0.173 A 
ATOM     63  F   UNL A   1      38.880  26.335  30.100  1.00  0.00    -0.203 F 
ATOM     64  C   UNL A   1      39.560  25.859  27.897  1.00  0.00     0.198 A 
ATOM     65  C   UNL A   1      41.060  27.346  26.754  1.00  0.00     0.198 A 
ATOM     66  F   UNL A   1      41.885  29.257  27.848  1.00  0.00    -0.203 F 
ATOM     67  F   UNL A   1      38.823  24.741  27.912  1.00  0.00    -0.200 F 
ATOM     68  C   UNL A   1      40.280  26.199  26.760  1.00  0.00     0.200 A 
ATOM     69  F   UNL A   1      41.743  27.685  25.652  1.00  0.00    -0.200 F 
ATOM     70  F   UNL A   1      40.222  25.421  25.671  1.00  0.00    -0.200 F 
ENDBRANCH  46  60
BRANCH  47  71
ATOM     71  C   UNL A   1      39.675  33.949  36.898  1.00  0.00     0.064 A 
ATOM     72  C   UNL A   1      38.879  33.547  37.980  1.00  0.00     0.173 A 
ATOM     73  C   UNL A   1      40.294  35.206  36.980  1.00  0.00     0.173 A 
ATOM     74  F   UNL A   1      38.247  32.364  37.943  1.00  0.00    -0.203 F 
ATOM     75  C   UNL A   1      38.671  34.384  39.074  1.00  0.00     0.198 A 
ATOM     76  C   UNL A   1      40.116  36.027  38.091  1.00  0.00     0.198 A 
ATOM     77  F   UNL A   1      41.072  35.638  35.976  1.00  0.00    -0.203 F 
ATOM     78  F   UNL A   1      37.844  34.005  40.058  1.00  0.00    -0.200 F 
ATOM     79  C   UNL A   1      39.292  35.624  39.130  1.00  0.00     0.200 A 
ATOM     80  F   UNL A   1      40.731  37.216  38.148  1.00  0.00    -0.200 F 
ATOM     81  F   UNL A   1      39.084  36.433  40.177  1.00  0.00    -0.200 F 
ENDBRANCH  47  71
BRANCH  59  82
ATOM     82  C   UNL A   1      43.928  28.692  35.238  1.00  0.00     0.064 A 
ATOM     83  C   UNL A   1      43.739  27.594  36.089  1.00  0.00     0.173 A 
ATOM     84  C   UNL A   1      45.239  29.155  35.046  1.00  0.00     0.173 A 
ATOM     85  F   UNL A   1      42.504  27.121  36.318  1.00  0.00    -0.203 F 
ATOM     86  C   UNL A   1      44.816  27.003  36.745  1.00  0.00     0.198 A 
ATOM     87  C   UNL A   1      46.317  28.541  35.675  1.00  0.00     0.198 A 
ATOM     88  F   UNL A   1      45.476  30.198  34.234  1.00  0.00    -0.203 F 
ATOM     89  F   UNL A   1      44.605  25.989  37.596  1.00  0.00    -0.200 F 
ATOM     90  C   UNL A   1      46.104  27.471  36.531  1.00  0.00     0.200 A 
ATOM     91  F   UNL A   1      47.562  28.984  35.453  1.00  0.00    -0.200 F 
ATOM     92  F   UNL A   1      47.139  26.895  37.156  1.00  0.00    -0.200 F 
ENDBRANCH  59  82
ENDBRANCH  33  34
ENDBRANCH  25  28
ENDBRANCH  23  24
ENDBRANCH  22  23
ENDBRANCH   1  22
TORSDOF 13
ENDMDL
MODEL 3
REMARK VINA RESULT:     -12.0      5.868     11.293
REMARK SMILES C[C@@H](c1ccccc1)[C@@H]1[NH2+][C@@H](C(=O)NCCCCNC(=O)c2ccc(-c3c4nc(c(-c5c(F)c(F)c(F)c(F)c5F)c5ccc([nH]5)c(-c5c(F)c(F)c(F)c(F)c5F)c5nc(c(-c6c(F)c(F)c(F)c(F)c6F)c6ccc3[nH]6)C=C5)C=C4)cc2)CS1
REMARK SMILES IDX 16 1 15 2 14 3 12 4 13 5 11 7 9 8 10 9 86 10 85 13 2 14 1 15
REMARK SMILES IDX 3 16 4 17 8 18 5 19 7 20 6 21 17 22 18 23 19 24 20 25 21 27
REMARK SMILES IDX 22 28 23 29 84 30 24 31 83 32 25 33 26 34 27 35 77 36 28 37
REMARK SMILES IDX 82 38 76 39 78 40 29 41 81 42 75 43 74 44 30 46 62 47 42 48
REMARK SMILES IDX 61 49 43 50 46 51 60 52 79 53 44 54 45 55 59 57 80 58 47 59
REMARK SMILES IDX 31 60 32 61 40 62 33 63 34 64 38 65 41 66 35 67 36 68 39 69
REMARK SMILES IDX 37 70 63 71 64 72 72 73 65 74 66 75 70 76 73 77 67 78 68 79
REMARK SMILES IDX 71 80 69 81 48 82 49 83 57 84 50 85 51 86 55 87 58 88 52 89
REMARK SMILES IDX 53 90 56 91 54 92
REMARK H PARENT 14 6 10 11 10 12 19 26 78 45 46 56
REMARK Flexibility Score: inf
ROOT
ATOM      1  C   UNL A   1      37.115  21.079  24.559  1.00  0.00     0.023 C 
ENDROOT
BRANCH   1   2
ATOM      2  C   UNL A   1      36.702  22.022  25.688  1.00  0.00     0.116 C 
BRANCH   2   3
ATOM      3  N   UNL A   1      35.654  21.455  26.513  1.00  0.00    -0.351 N 
ATOM      4  C   UNL A   1      34.337  21.806  26.599  1.00  0.00     0.279 C 
ATOM      5  O   UNL A   1      33.639  21.173  27.394  1.00  0.00    -0.268 OA
ATOM      6  H   UNL A   1      35.931  20.711  27.095  1.00  0.00     0.163 HD
BRANCH   4   7
ATOM      7  C   UNL A   1      33.769  22.918  25.685  1.00  0.00     0.283 C 
ATOM      8  C   UNL A   1      31.861  24.364  25.448  1.00  0.00     0.249 C 
ATOM      9  N   UNL A   1      32.767  23.741  26.427  1.00  0.00    -0.324 N 
ATOM     10  S   UNL A   1      31.462  22.986  24.336  1.00  0.00    -0.092 SA
ATOM     11  H   UNL A   1      32.232  23.144  27.059  1.00  0.00     0.347 HD
ATOM     12  H   UNL A   1      33.239  24.458  26.975  1.00  0.00     0.347 HD
ATOM     13  C   UNL A   1      33.145  22.329  24.408  1.00  0.00     0.151 C 
BRANCH   8  14
ATOM     14  C   UNL A   1      32.445  25.621  24.716  1.00  0.00     0.085 C 
ATOM     15  C   UNL A   1      31.622  26.008  23.471  1.00  0.00     0.020 C 
BRANCH  14  16
ATOM     16  C   UNL A   1      32.599  26.800  25.682  1.00  0.00    -0.038 A 
ATOM     17  C   UNL A   1      33.828  27.477  25.749  1.00  0.00     0.004 A 
ATOM     18  C   UNL A   1      31.564  27.229  26.528  1.00  0.00     0.004 A 
ATOM     19  C   UNL A   1      34.026  28.530  26.644  1.00  0.00     0.000 A 
ATOM     20  C   UNL A   1      31.756  28.298  27.409  1.00  0.00     0.000 A 
ATOM     21  C   UNL A   1      32.988  28.942  27.473  1.00  0.00     0.000 A 
ENDBRANCH  14  16
ENDBRANCH   8  14
ENDBRANCH   4   7
ENDBRANCH   2   3
ENDBRANCH   1   2
BRANCH   1  22
ATOM     22  C   UNL A   1      37.968  19.886  25.001  1.00  0.00     0.023 C 
BRANCH  22  23
ATOM     23  C   UNL A   1      39.189  20.230  25.847  1.00  0.00     0.116 C 
BRANCH  23  24
ATOM     24  N   UNL A   1      40.174  19.160  25.886  1.00  0.00    -0.352 N 
ATOM     25  C   UNL A   1      41.530  19.233  26.084  1.00  0.00     0.251 C 
ATOM     26  H   UNL A   1      39.816  18.252  25.750  1.00  0.00     0.163 HD
ATOM     27  O   UNL A   1      42.228  18.231  25.956  1.00  0.00    -0.269 OA
BRANCH  25  28
ATOM     28  C   UNL A   1      42.160  20.530  26.416  1.00  0.00     0.039 A 
ATOM     29  C   UNL A   1      42.628  21.335  25.373  1.00  0.00     0.014 A 
ATOM     30  C   UNL A   1      42.277  20.961  27.740  1.00  0.00     0.014 A 
ATOM     31  C   UNL A   1      43.141  22.604  25.653  1.00  0.00     0.010 A 
ATOM     32  C   UNL A   1      42.723  22.253  28.012  1.00  0.00     0.010 A 
ATOM     33  C   UNL A   1      43.151  23.093  26.971  1.00  0.00    -0.014 A 
BRANCH  33  34
ATOM     34  C   UNL A   1      43.572  24.487  27.268  1.00  0.00     0.031 A 
ATOM     35  C   UNL A   1      42.568  25.504  27.739  1.00  0.00     0.074 A 
ATOM     36  C   UNL A   1      44.850  24.855  27.045  1.00  0.00     0.049 A 
ATOM     37  N   UNL A   1      42.735  26.779  27.980  1.00  0.00    -0.248 NA
ATOM     38  C   UNL A   1      41.189  25.033  27.943  1.00  0.00     0.031 C 
ATOM     39  C   UNL A   1      45.906  23.977  26.538  1.00  0.00     0.029 A 
ATOM     40  N   UNL A   1      45.476  26.069  27.196  1.00  0.00    -0.354 N 
ATOM     41  C   UNL A   1      41.485  27.264  28.345  1.00  0.00     0.074 A 
ATOM     42  C   UNL A   1      40.559  26.157  28.257  1.00  0.00     0.031 C 
ATOM     43  C   UNL A   1      47.049  24.675  26.437  1.00  0.00     0.029 A 
ATOM     44  C   UNL A   1      46.800  26.058  26.826  1.00  0.00     0.049 A 
ATOM     45  H   UNL A   1      45.019  26.871  27.538  1.00  0.00     0.167 HD
ATOM     46  C   UNL A   1      41.148  28.517  28.731  1.00  0.00     0.037 A 
ATOM     47  C   UNL A   1      47.705  27.054  26.786  1.00  0.00     0.037 A 
ATOM     48  C   UNL A   1      42.079  29.609  28.854  1.00  0.00     0.049 A 
ATOM     49  C   UNL A   1      47.293  28.438  27.221  1.00  0.00     0.074 A 
ATOM     50  C   UNL A   1      41.847  30.887  29.331  1.00  0.00     0.029 A 
ATOM     51  N   UNL A   1      43.416  29.554  28.491  1.00  0.00    -0.354 N 
ATOM     52  N   UNL A   1      46.132  28.857  27.660  1.00  0.00    -0.248 NA
ATOM     53  C   UNL A   1      48.322  29.485  27.159  1.00  0.00     0.031 C 
ATOM     54  C   UNL A   1      43.026  31.625  29.196  1.00  0.00     0.029 A 
ATOM     55  C   UNL A   1      44.010  30.790  28.696  1.00  0.00     0.049 A 
ATOM     56  H   UNL A   1      43.874  28.756  28.140  1.00  0.00     0.167 HD
ATOM     57  C   UNL A   1      46.299  30.204  27.955  1.00  0.00     0.074 A 
ATOM     58  C   UNL A   1      47.679  30.527  27.667  1.00  0.00     0.031 C 
ATOM     59  C   UNL A   1      45.389  31.095  28.419  1.00  0.00     0.037 A 
BRANCH  46  60
ATOM     60  C   UNL A   1      39.709  28.797  29.055  1.00  0.00     0.064 A 
ATOM     61  C   UNL A   1      39.203  28.648  30.355  1.00  0.00     0.173 A 
ATOM     62  C   UNL A   1      38.853  29.318  28.073  1.00  0.00     0.173 A 
ATOM     63  F   UNL A   1      39.979  28.147  31.329  1.00  0.00    -0.203 F 
ATOM     64  C   UNL A   1      37.890  29.000  30.657  1.00  0.00     0.198 A 
ATOM     65  C   UNL A   1      37.549  29.696  28.384  1.00  0.00     0.198 A 
ATOM     66  F   UNL A   1      39.289  29.487  26.815  1.00  0.00    -0.203 F 
ATOM     67  F   UNL A   1      37.420  28.825  31.899  1.00  0.00    -0.200 F 
ATOM     68  C   UNL A   1      37.069  29.536  29.675  1.00  0.00     0.200 A 
ATOM     69  F   UNL A   1      36.763  30.228  27.439  1.00  0.00    -0.200 F 
ATOM     70  F   UNL A   1      35.813  29.897  29.973  1.00  0.00    -0.200 F 
ENDBRANCH  46  60
BRANCH  47  71
ATOM     71  C   UNL A   1      49.092  26.798  26.311  1.00  0.00     0.064 A 
ATOM     72  C   UNL A   1      49.441  26.975  24.965  1.00  0.00     0.173 A 
ATOM     73  C   UNL A   1      50.084  26.320  27.182  1.00  0.00     0.173 A 
ATOM     74  F   UNL A   1      48.525  27.410  24.087  1.00  0.00    -0.203 F 
ATOM     75  C   UNL A   1      50.711  26.641  24.499  1.00  0.00     0.198 A 
ATOM     76  C   UNL A   1      51.364  26.022  26.722  1.00  0.00     0.198 A 
ATOM     77  F   UNL A   1      49.806  26.138  28.481  1.00  0.00    -0.203 F 
ATOM     78  F   UNL A   1      50.993  26.748  23.193  1.00  0.00    -0.200 F 
ATOM     79  C   UNL A   1      51.673  26.166  25.379  1.00  0.00     0.200 A 
ATOM     80  F   UNL A   1      52.295  25.579  27.578  1.00  0.00    -0.200 F 
ATOM     81  F   UNL A   1      52.891  25.836  24.929  1.00  0.00    -0.200 F 
ENDBRANCH  47  71
BRANCH  59  82
ATOM     82  C   UNL A   1      45.865  32.495  28.683  1.00  0.00     0.064 A 
ATOM     83  C   UNL A   1      46.421  32.864  29.917  1.00  0.00     0.173 A 
ATOM     84  C   UNL A   1      45.799  33.468  27.675  1.00  0.00     0.173 A 
ATOM     85  F   UNL A   1      46.493  31.976  30.920  1.00  0.00    -0.203 F 
ATOM     86  C   UNL A   1      46.866  34.165  30.140  1.00  0.00     0.198 A 
ATOM     87  C   UNL A   1      46.278  34.757  27.889  1.00  0.00     0.198 A 
ATOM     88  F   UNL A   1      45.285  33.164  26.473  1.00  0.00    -0.203 F 
ATOM     89  F   UNL A   1      47.344  34.510  31.343  1.00  0.00    -0.200 F 
ATOM     90  C   UNL A   1      46.802  35.107  29.124  1.00  0.00     0.200 A 
ATOM     91  F   UNL A   1      46.231  35.661  26.900  1.00  0.00    -0.200 F 
ATOM     92  F   UNL A   1      47.240  36.355  29.338  1.00  0.00    -0.200 F 
ENDBRANCH  59  82
ENDBRANCH  33  34
ENDBRANCH  25  28
ENDBRANCH  23  24
ENDBRANCH  22  23
ENDBRANCH   1  22
TORSDOF 13
ENDMDL
