MODEL 1
REMARK VINA RESULT:     -13.1      0.000      0.000
REMARK SMILES Nc1ccc(-c2cc3ccccc3s2)c(C(=O)NCCCCNC(=O)c2ccc(-c3c4nc(c(-c5c(F)c(F)c(F)c(F)c5F)c5ccc([nH]5)c(-c5c(F)c(F)c(F)c(F)c5F)c5nc(c(-c6c(F)c(F)c(F)c(F)c6F)c6ccc3[nH]6)C=C5)C=C4)cc2)n1
REMARK SMILES IDX 21 1 20 2 19 3 18 4 16 5 17 6 15 8 2 9 3 10 89 11 4 12 5 13
REMARK SMILES IDX 1 14 6 17 7 18 14 19 8 20 13 21 9 22 12 23 10 24 11 25 22 26
REMARK SMILES IDX 23 27 24 28 25 30 26 31 27 32 88 33 28 34 87 35 29 36 30 37
REMARK SMILES IDX 31 38 81 39 32 40 86 41 80 42 82 43 33 44 85 45 79 46 78 47
REMARK SMILES IDX 34 49 66 50 46 51 65 52 47 53 50 54 64 55 83 56 48 57 49 58
REMARK SMILES IDX 63 60 84 61 51 62 35 63 36 64 44 65 37 66 38 67 42 68 45 69
REMARK SMILES IDX 39 70 40 71 43 72 41 73 67 74 68 75 76 76 69 77 70 78 74 79
REMARK SMILES IDX 77 80 71 81 72 82 75 83 73 84 52 85 53 86 61 87 54 88 55 89
REMARK SMILES IDX 59 90 62 91 56 92 57 93 60 94 58 95
REMARK H PARENT 18 7 1 15 1 16 23 29 82 48 50 59
REMARK Flexibility Score: inf
ROOT
ATOM      1  C   UNL A   1      32.083  30.067  25.470  1.00  0.00     0.023 C 
ENDROOT
BRANCH   1   2
ATOM      2  C   UNL A   1      33.224  29.205  24.925  1.00  0.00     0.023 C 
BRANCH   2   3
ATOM      3  C   UNL A   1      33.550  27.934  25.696  1.00  0.00     0.116 C 
BRANCH   3   4
ATOM      4  N   UNL A   1      32.426  27.272  26.318  1.00  0.00    -0.351 N 
ATOM      5  C   UNL A   1      31.897  26.019  26.070  1.00  0.00     0.270 C 
ATOM      6  O   UNL A   1      31.041  25.601  26.853  1.00  0.00    -0.267 OA
ATOM      7  H   UNL A   1      31.971  27.789  27.022  1.00  0.00     0.163 HD
BRANCH   5   8
ATOM      8  C   UNL A   1      32.268  25.182  24.874  1.00  0.00     0.139 A 
ATOM      9  C   UNL A   1      33.688  23.459  24.206  1.00  0.00     0.124 A 
ATOM     10  C   UNL A   1      33.236  23.549  22.904  1.00  0.00     0.047 A 
ATOM     11  N   UNL A   1      33.202  24.230  25.188  1.00  0.00    -0.225 NA
ATOM     12  C   UNL A   1      32.295  24.523  22.583  1.00  0.00     0.016 A 
ATOM     13  C   UNL A   1      31.802  25.391  23.569  1.00  0.00     0.023 A 
BRANCH   9  14
ATOM     14  N   UNL A   1      34.642  22.525  24.557  1.00  0.00    -0.384 N 
ATOM     15  H   UNL A   1      35.042  21.947  23.868  1.00  0.00     0.158 HD
ATOM     16  H   UNL A   1      34.924  22.438  25.496  1.00  0.00     0.158 HD
ENDBRANCH   9  14
BRANCH  13  17
ATOM     17  C   UNL A   1      30.871  26.455  23.178  1.00  0.00     0.038 A 
ATOM     18  C   UNL A   1      31.113  27.618  22.477  1.00  0.00     0.029 A 
ATOM     19  S   UNL A   1      29.223  26.352  23.647  1.00  0.00    -0.135 S 
ATOM     20  C   UNL A   1      29.994  28.518  22.481  1.00  0.00    -0.007 A 
ATOM     21  C   UNL A   1      28.895  27.958  23.134  1.00  0.00     0.035 A 
ATOM     22  C   UNL A   1      29.876  29.839  21.987  1.00  0.00     0.009 A 
ATOM     23  C   UNL A   1      27.702  28.678  23.327  1.00  0.00     0.019 A 
ATOM     24  C   UNL A   1      28.696  30.562  22.184  1.00  0.00     0.001 A 
ATOM     25  C   UNL A   1      27.624  29.986  22.851  1.00  0.00     0.001 A 
ENDBRANCH  13  17
ENDBRANCH   5   8
ENDBRANCH   3   4
ENDBRANCH   2   3
ENDBRANCH   1   2
BRANCH   1  26
ATOM     26  C   UNL A   1      32.136  30.482  26.941  1.00  0.00     0.116 C 
BRANCH  26  27
ATOM     27  N   UNL A   1      32.326  31.906  27.173  1.00  0.00    -0.352 N 
ATOM     28  C   UNL A   1      33.436  32.613  27.587  1.00  0.00     0.251 C 
ATOM     29  H   UNL A   1      31.529  32.459  27.005  1.00  0.00     0.163 HD
ATOM     30  O   UNL A   1      33.353  33.823  27.765  1.00  0.00    -0.269 OA
BRANCH  28  31
ATOM     31  C   UNL A   1      34.715  31.927  27.900  1.00  0.00     0.039 A 
ATOM     32  C   UNL A   1      35.861  32.718  28.049  1.00  0.00     0.014 A 
ATOM     33  C   UNL A   1      34.802  30.547  28.091  1.00  0.00     0.014 A 
ATOM     34  C   UNL A   1      37.040  32.154  28.540  1.00  0.00     0.010 A 
ATOM     35  C   UNL A   1      35.950  29.998  28.661  1.00  0.00     0.010 A 
ATOM     36  C   UNL A   1      37.063  30.807  28.936  1.00  0.00    -0.014 A 
BRANCH  36  37
ATOM     37  C   UNL A   1      38.185  30.277  29.752  1.00  0.00     0.031 A 
ATOM     38  C   UNL A   1      38.394  30.717  31.170  1.00  0.00     0.074 A 
ATOM     39  C   UNL A   1      39.075  29.453  29.162  1.00  0.00     0.049 A 
ATOM     40  N   UNL A   1      39.350  30.391  32.004  1.00  0.00    -0.248 NA
ATOM     41  C   UNL A   1      37.416  31.669  31.718  1.00  0.00     0.031 C 
ATOM     42  C   UNL A   1      39.022  29.016  27.764  1.00  0.00     0.029 A 
ATOM     43  N   UNL A   1      40.203  28.843  29.652  1.00  0.00    -0.354 N 
ATOM     44  C   UNL A   1      39.097  31.104  33.167  1.00  0.00     0.074 A 
ATOM     45  C   UNL A   1      37.924  31.916  32.917  1.00  0.00     0.031 C 
ATOM     46  C   UNL A   1      40.047  28.185  27.520  1.00  0.00     0.029 A 
ATOM     47  C   UNL A   1      40.852  28.059  28.728  1.00  0.00     0.049 A 
ATOM     48  H   UNL A   1      40.517  28.956  30.578  1.00  0.00     0.167 HD
ATOM     49  C   UNL A   1      39.773  31.070  34.340  1.00  0.00     0.037 A 
ATOM     50  C   UNL A   1      41.972  27.320  28.841  1.00  0.00     0.037 A 
ATOM     51  C   UNL A   1      40.932  30.250  34.585  1.00  0.00     0.049 A 
ATOM     52  C   UNL A   1      42.687  27.280  30.162  1.00  0.00     0.074 A 
ATOM     53  C   UNL A   1      41.656  30.103  35.756  1.00  0.00     0.029 A 
ATOM     54  N   UNL A   1      41.538  29.438  33.637  1.00  0.00    -0.354 N 
ATOM     55  N   UNL A   1      42.391  27.900  31.278  1.00  0.00    -0.248 NA
ATOM     56  C   UNL A   1      43.886  26.435  30.241  1.00  0.00     0.031 C 
ATOM     57  C   UNL A   1      42.720  29.229  35.506  1.00  0.00     0.029 A 
ATOM     58  C   UNL A   1      42.636  28.799  34.191  1.00  0.00     0.049 A 
ATOM     59  H   UNL A   1      41.233  29.332  32.707  1.00  0.00     0.167 HD
ATOM     60  C   UNL A   1      43.350  27.503  32.199  1.00  0.00     0.074 A 
ATOM     61  C   UNL A   1      44.228  26.576  31.514  1.00  0.00     0.031 C 
ATOM     62  C   UNL A   1      43.491  27.874  33.495  1.00  0.00     0.037 A 
BRANCH  49  63
ATOM     63  C   UNL A   1      39.273  31.946  35.452  1.00  0.00     0.064 A 
ATOM     64  C   UNL A   1      38.426  31.445  36.454  1.00  0.00     0.173 A 
ATOM     65  C   UNL A   1      39.662  33.291  35.535  1.00  0.00     0.173 A 
ATOM     66  F   UNL A   1      38.017  30.168  36.415  1.00  0.00    -0.203 F 
ATOM     67  C   UNL A   1      37.964  32.266  37.479  1.00  0.00     0.198 A 
ATOM     68  C   UNL A   1      39.219  34.102  36.578  1.00  0.00     0.198 A 
ATOM     69  F   UNL A   1      40.476  33.819  34.608  1.00  0.00    -0.203 F 
ATOM     70  F   UNL A   1      37.117  31.778  38.395  1.00  0.00    -0.200 F 
ATOM     71  C   UNL A   1      38.364  33.592  37.543  1.00  0.00     0.200 A 
ATOM     72  F   UNL A   1      39.616  35.381  36.645  1.00  0.00    -0.200 F 
ATOM     73  F   UNL A   1      37.920  34.381  38.531  1.00  0.00    -0.200 F 
ENDBRANCH  49  63
BRANCH  50  74
ATOM     74  C   UNL A   1      42.460  26.531  27.681  1.00  0.00     0.064 A 
ATOM     75  C   UNL A   1      41.954  25.249  27.423  1.00  0.00     0.173 A 
ATOM     76  C   UNL A   1      43.424  27.041  26.800  1.00  0.00     0.173 A 
ATOM     77  F   UNL A   1      41.043  24.711  28.248  1.00  0.00    -0.203 F 
ATOM     78  C   UNL A   1      42.407  24.500  26.340  1.00  0.00     0.198 A 
ATOM     79  C   UNL A   1      43.857  26.302  25.701  1.00  0.00     0.198 A 
ATOM     80  F   UNL A   1      43.932  28.266  26.997  1.00  0.00    -0.203 F 
ATOM     81  F   UNL A   1      41.936  23.262  26.140  1.00  0.00    -0.200 F 
ATOM     82  C   UNL A   1      43.354  25.029  25.476  1.00  0.00     0.200 A 
ATOM     83  F   UNL A   1      44.761  26.822  24.860  1.00  0.00    -0.200 F 
ATOM     84  F   UNL A   1      43.785  24.311  24.430  1.00  0.00    -0.200 F 
ENDBRANCH  50  74
BRANCH  62  85
ATOM     85  C   UNL A   1      44.621  27.255  34.262  1.00  0.00     0.064 A 
ATOM     86  C   UNL A   1      44.469  26.032  34.933  1.00  0.00     0.173 A 
ATOM     87  C   UNL A   1      45.879  27.875  34.296  1.00  0.00     0.173 A 
ATOM     88  F   UNL A   1      43.280  25.412  34.944  1.00  0.00    -0.203 F 
ATOM     89  C   UNL A   1      45.533  25.463  35.627  1.00  0.00     0.198 A 
ATOM     90  C   UNL A   1      46.946  27.290  34.969  1.00  0.00     0.198 A 
ATOM     91  F   UNL A   1      46.073  29.044  33.667  1.00  0.00    -0.203 F 
ATOM     92  F   UNL A   1      45.356  24.315  36.295  1.00  0.00    -0.200 F 
ATOM     93  C   UNL A   1      46.772  26.087  35.639  1.00  0.00     0.200 A 
ATOM     94  F   UNL A   1      48.144  27.889  34.972  1.00  0.00    -0.200 F 
ATOM     95  F   UNL A   1      47.796  25.534  36.303  1.00  0.00    -0.200 F 
ENDBRANCH  62  85
ENDBRANCH  36  37
ENDBRANCH  28  31
ENDBRANCH  26  27
ENDBRANCH   1  26
TORSDOF 13
ENDMDL
MODEL 2
REMARK VINA RESULT:     -13.1      0.069      1.952
REMARK SMILES Nc1ccc(-c2cc3ccccc3s2)c(C(=O)NCCCCNC(=O)c2ccc(-c3c4nc(c(-c5c(F)c(F)c(F)c(F)c5F)c5ccc([nH]5)c(-c5c(F)c(F)c(F)c(F)c5F)c5nc(c(-c6c(F)c(F)c(F)c(F)c6F)c6ccc3[nH]6)C=C5)C=C4)cc2)n1
REMARK SMILES IDX 21 1 20 2 19 3 18 4 16 5 17 6 15 8 2 9 3 10 89 11 4 12 5 13
REMARK SMILES IDX 1 14 6 17 7 18 14 19 8 20 13 21 9 22 12 23 10 24 11 25 22 26
REMARK SMILES IDX 23 27 24 28 25 30 26 31 27 32 88 33 28 34 87 35 29 36 30 37
REMARK SMILES IDX 31 38 81 39 32 40 86 41 80 42 82 43 33 44 85 45 79 46 78 47
REMARK SMILES IDX 34 49 66 50 46 51 65 52 47 53 50 54 64 55 83 56 48 57 49 58
REMARK SMILES IDX 63 60 84 61 51 62 35 63 36 64 44 65 37 66 38 67 42 68 45 69
REMARK SMILES IDX 39 70 40 71 43 72 41 73 67 74 68 75 76 76 69 77 70 78 74 79
REMARK SMILES IDX 77 80 71 81 72 82 75 83 73 84 52 85 53 86 61 87 54 88 55 89
REMARK SMILES IDX 59 90 62 91 56 92 57 93 60 94 58 95
REMARK H PARENT 18 7 1 15 1 16 23 29 82 48 50 59
REMARK Flexibility Score: inf
ROOT
ATOM      1  C   UNL A   1      32.108  30.032  25.506  1.00  0.00     0.023 C 
ENDROOT
BRANCH   1   2
ATOM      2  C   UNL A   1      33.230  29.137  24.976  1.00  0.00     0.023 C 
BRANCH   2   3
ATOM      3  C   UNL A   1      33.556  27.893  25.790  1.00  0.00     0.116 C 
BRANCH   3   4
ATOM      4  N   UNL A   1      32.423  27.206  26.367  1.00  0.00    -0.351 N 
ATOM      5  C   UNL A   1      31.909  25.958  26.070  1.00  0.00     0.270 C 
ATOM      6  O   UNL A   1      31.038  25.511  26.822  1.00  0.00    -0.267 OA
ATOM      7  H   UNL A   1      31.947  27.699  27.074  1.00  0.00     0.163 HD
BRANCH   5   8
ATOM      8  C   UNL A   1      32.314  25.157  24.860  1.00  0.00     0.139 A 
ATOM      9  C   UNL A   1      33.771  23.473  24.175  1.00  0.00     0.124 A 
ATOM     10  C   UNL A   1      33.341  23.590  22.867  1.00  0.00     0.047 A 
ATOM     11  N   UNL A   1      33.256  24.211  25.167  1.00  0.00    -0.225 NA
ATOM     12  C   UNL A   1      32.392  24.559  22.555  1.00  0.00     0.016 A 
ATOM     13  C   UNL A   1      31.868  25.394  23.553  1.00  0.00     0.023 A 
BRANCH   9  14
ATOM     14  N   UNL A   1      34.732  22.544  24.518  1.00  0.00    -0.384 N 
ATOM     15  H   UNL A   1      35.650  22.633  24.173  1.00  0.00     0.158 HD
ATOM     16  H   UNL A   1      34.500  21.792  25.111  1.00  0.00     0.158 HD
ENDBRANCH   9  14
BRANCH  13  17
ATOM     17  C   UNL A   1      30.929  26.453  23.173  1.00  0.00     0.038 A 
ATOM     18  C   UNL A   1      31.164  27.632  22.495  1.00  0.00     0.029 A 
ATOM     19  S   UNL A   1      29.278  26.323  23.625  1.00  0.00    -0.135 S 
ATOM     20  C   UNL A   1      30.034  28.519  22.504  1.00  0.00    -0.007 A 
ATOM     21  C   UNL A   1      28.936  27.934  23.137  1.00  0.00     0.035 A 
ATOM     22  C   UNL A   1      29.906  29.847  22.034  1.00  0.00     0.009 A 
ATOM     23  C   UNL A   1      27.733  28.637  23.332  1.00  0.00     0.019 A 
ATOM     24  C   UNL A   1      28.716  30.553  22.232  1.00  0.00     0.001 A 
ATOM     25  C   UNL A   1      27.645  29.953  22.879  1.00  0.00     0.001 A 
ENDBRANCH  13  17
ENDBRANCH   5   8
ENDBRANCH   3   4
ENDBRANCH   2   3
ENDBRANCH   1   2
BRANCH   1  26
ATOM     26  C   UNL A   1      32.164  30.461  26.973  1.00  0.00     0.116 C 
BRANCH  26  27
ATOM     27  N   UNL A   1      32.361  31.886  27.190  1.00  0.00    -0.352 N 
ATOM     28  C   UNL A   1      33.477  32.593  27.591  1.00  0.00     0.251 C 
ATOM     29  H   UNL A   1      31.565  32.441  27.023  1.00  0.00     0.163 HD
ATOM     30  O   UNL A   1      33.399  33.805  27.759  1.00  0.00    -0.269 OA
BRANCH  28  31
ATOM     31  C   UNL A   1      34.755  31.905  27.901  1.00  0.00     0.039 A 
ATOM     32  C   UNL A   1      35.905  32.693  28.037  1.00  0.00     0.014 A 
ATOM     33  C   UNL A   1      34.839  30.526  28.101  1.00  0.00     0.014 A 
ATOM     34  C   UNL A   1      37.085  32.129  28.525  1.00  0.00     0.010 A 
ATOM     35  C   UNL A   1      35.989  29.977  28.669  1.00  0.00     0.010 A 
ATOM     36  C   UNL A   1      37.105  30.785  28.931  1.00  0.00    -0.014 A 
BRANCH  36  37
ATOM     37  C   UNL A   1      38.231  30.257  29.744  1.00  0.00     0.031 A 
ATOM     38  C   UNL A   1      38.444  30.699  31.160  1.00  0.00     0.074 A 
ATOM     39  C   UNL A   1      39.119  29.432  29.151  1.00  0.00     0.049 A 
ATOM     40  N   UNL A   1      39.404  30.376  31.991  1.00  0.00    -0.248 NA
ATOM     41  C   UNL A   1      37.468  31.651  31.709  1.00  0.00     0.031 C 
ATOM     42  C   UNL A   1      39.061  28.993  27.755  1.00  0.00     0.029 A 
ATOM     43  N   UNL A   1      40.249  28.823  29.639  1.00  0.00    -0.354 N 
ATOM     44  C   UNL A   1      39.154  31.091  33.153  1.00  0.00     0.074 A 
ATOM     45  C   UNL A   1      37.980  31.901  32.906  1.00  0.00     0.031 C 
ATOM     46  C   UNL A   1      40.086  28.162  27.509  1.00  0.00     0.029 A 
ATOM     47  C   UNL A   1      40.896  28.038  28.714  1.00  0.00     0.049 A 
ATOM     48  H   UNL A   1      40.566  28.938  30.564  1.00  0.00     0.167 HD
ATOM     49  C   UNL A   1      39.835  31.060  34.324  1.00  0.00     0.037 A 
ATOM     50  C   UNL A   1      42.017  27.300  28.824  1.00  0.00     0.037 A 
ATOM     51  C   UNL A   1      40.996  30.241  34.566  1.00  0.00     0.049 A 
ATOM     52  C   UNL A   1      42.736  27.263  30.142  1.00  0.00     0.074 A 
ATOM     53  C   UNL A   1      41.724  30.095  35.735  1.00  0.00     0.029 A 
ATOM     54  N   UNL A   1      41.598  29.426  33.618  1.00  0.00    -0.354 N 
ATOM     55  N   UNL A   1      42.444  27.884  31.259  1.00  0.00    -0.248 NA
ATOM     56  C   UNL A   1      43.936  26.418  30.219  1.00  0.00     0.031 C 
ATOM     57  C   UNL A   1      42.788  29.222  35.483  1.00  0.00     0.029 A 
ATOM     58  C   UNL A   1      42.698  28.789  34.169  1.00  0.00     0.049 A 
ATOM     59  H   UNL A   1      41.290  29.319  32.689  1.00  0.00     0.167 HD
ATOM     60  C   UNL A   1      43.406  27.490  32.176  1.00  0.00     0.074 A 
ATOM     61  C   UNL A   1      44.283  26.562  31.490  1.00  0.00     0.031 C 
ATOM     62  C   UNL A   1      43.552  27.863  33.471  1.00  0.00     0.037 A 
BRANCH  49  63
ATOM     63  C   UNL A   1      39.338  31.937  35.437  1.00  0.00     0.064 A 
ATOM     64  C   UNL A   1      39.722  33.283  35.534  1.00  0.00     0.173 A 
ATOM     65  C   UNL A   1      38.448  31.437  36.399  1.00  0.00     0.173 A 
ATOM     66  F   UNL A   1      40.578  33.807  34.645  1.00  0.00    -0.203 F 
ATOM     67  C   UNL A   1      39.258  34.087  36.573  1.00  0.00     0.198 A 
ATOM     68  C   UNL A   1      37.965  32.252  37.421  1.00  0.00     0.198 A 
ATOM     69  F   UNL A   1      38.044  30.158  36.348  1.00  0.00    -0.203 F 
ATOM     70  F   UNL A   1      39.678  35.356  36.674  1.00  0.00    -0.200 F 
ATOM     71  C   UNL A   1      38.377  33.573  37.511  1.00  0.00     0.200 A 
ATOM     72  F   UNL A   1      37.104  31.757  38.321  1.00  0.00    -0.200 F 
ATOM     73  F   UNL A   1      37.930  34.349  38.509  1.00  0.00    -0.200 F 
ENDBRANCH  49  63
BRANCH  50  74
ATOM     74  C   UNL A   1      42.500  26.509  27.663  1.00  0.00     0.064 A 
ATOM     75  C   UNL A   1      43.459  27.037  26.787  1.00  0.00     0.173 A 
ATOM     76  C   UNL A   1      42.031  25.212  27.414  1.00  0.00     0.173 A 
ATOM     77  F   UNL A   1      43.924  28.280  26.974  1.00  0.00    -0.203 F 
ATOM     78  C   UNL A   1      43.916  26.304  25.694  1.00  0.00     0.198 A 
ATOM     79  C   UNL A   1      42.508  24.469  26.336  1.00  0.00     0.198 A 
ATOM     80  F   UNL A   1      41.121  24.659  28.228  1.00  0.00    -0.203 F 
ATOM     81  F   UNL A   1      44.803  26.847  24.849  1.00  0.00    -0.200 F 
ATOM     82  C   UNL A   1      43.444  25.018  25.472  1.00  0.00     0.200 A 
ATOM     83  F   UNL A   1      42.062  23.222  26.133  1.00  0.00    -0.200 F 
ATOM     84  F   UNL A   1      43.890  24.311  24.424  1.00  0.00    -0.200 F 
ENDBRANCH  50  74
BRANCH  62  85
ATOM     85  C   UNL A   1      44.685  27.246  34.236  1.00  0.00     0.064 A 
ATOM     86  C   UNL A   1      45.941  27.867  34.315  1.00  0.00     0.173 A 
ATOM     87  C   UNL A   1      44.500  26.039  34.926  1.00  0.00     0.173 A 
ATOM     88  F   UNL A   1      46.170  29.012  33.656  1.00  0.00    -0.203 F 
ATOM     89  C   UNL A   1      46.977  27.288  35.042  1.00  0.00     0.198 A 
ATOM     90  C   UNL A   1      45.530  25.478  35.674  1.00  0.00     0.198 A 
ATOM     91  F   UNL A   1      43.315  25.410  34.882  1.00  0.00    -0.203 F 
ATOM     92  F   UNL A   1      48.181  27.875  35.072  1.00  0.00    -0.200 F 
ATOM     93  C   UNL A   1      46.769  26.099  35.727  1.00  0.00     0.200 A 
ATOM     94  F   UNL A   1      45.325  24.335  36.341  1.00  0.00    -0.200 F 
ATOM     95  F   UNL A   1      47.766  25.548  36.432  1.00  0.00    -0.200 F 
ENDBRANCH  62  85
ENDBRANCH  36  37
ENDBRANCH  28  31
ENDBRANCH  26  27
ENDBRANCH   1  26
TORSDOF 13
ENDMDL
MODEL 3
REMARK VINA RESULT:     -13.0      1.348      3.615
REMARK SMILES Nc1ccc(-c2cc3ccccc3s2)c(C(=O)NCCCCNC(=O)c2ccc(-c3c4nc(c(-c5c(F)c(F)c(F)c(F)c5F)c5ccc([nH]5)c(-c5c(F)c(F)c(F)c(F)c5F)c5nc(c(-c6c(F)c(F)c(F)c(F)c6F)c6ccc3[nH]6)C=C5)C=C4)cc2)n1
REMARK SMILES IDX 21 1 20 2 19 3 18 4 16 5 17 6 15 8 2 9 3 10 89 11 4 12 5 13
REMARK SMILES IDX 1 14 6 17 7 18 14 19 8 20 13 21 9 22 12 23 10 24 11 25 22 26
REMARK SMILES IDX 23 27 24 28 25 30 26 31 27 32 88 33 28 34 87 35 29 36 30 37
REMARK SMILES IDX 31 38 81 39 32 40 86 41 80 42 82 43 33 44 85 45 79 46 78 47
REMARK SMILES IDX 34 49 66 50 46 51 65 52 47 53 50 54 64 55 83 56 48 57 49 58
REMARK SMILES IDX 63 60 84 61 51 62 35 63 36 64 44 65 37 66 38 67 42 68 45 69
REMARK SMILES IDX 39 70 40 71 43 72 41 73 67 74 68 75 76 76 69 77 70 78 74 79
REMARK SMILES IDX 77 80 71 81 72 82 75 83 73 84 52 85 53 86 61 87 54 88 55 89
REMARK SMILES IDX 59 90 62 91 56 92 57 93 60 94 58 95
REMARK H PARENT 18 7 1 15 1 16 23 29 82 48 50 59
REMARK Flexibility Score: inf
ROOT
ATOM      1  C   UNL A   1      31.970  29.652  25.401  1.00  0.00     0.023 C 
ENDROOT
BRANCH   1   2
ATOM      2  C   UNL A   1      33.242  29.326  24.616  1.00  0.00     0.023 C 
BRANCH   2   3
ATOM      3  C   UNL A   1      33.747  27.893  24.693  1.00  0.00     0.116 C 
BRANCH   3   4
ATOM      4  N   UNL A   1      33.813  27.184  23.436  1.00  0.00    -0.351 N 
ATOM      5  C   UNL A   1      32.793  26.824  22.575  1.00  0.00     0.270 C 
ATOM      6  O   UNL A   1      33.114  26.377  21.471  1.00  0.00    -0.267 OA
ATOM      7  H   UNL A   1      34.717  26.918  23.150  1.00  0.00     0.163 HD
BRANCH   5   8
ATOM      8  C   UNL A   1      31.333  26.897  22.940  1.00  0.00     0.139 A 
ATOM      9  C   UNL A   1      29.457  28.267  22.751  1.00  0.00     0.124 A 
ATOM     10  C   UNL A   1      28.701  27.388  23.501  1.00  0.00     0.047 A 
ATOM     11  N   UNL A   1      30.738  28.025  22.441  1.00  0.00    -0.225 NA
ATOM     12  C   UNL A   1      29.309  26.246  24.017  1.00  0.00     0.016 A 
ATOM     13  C   UNL A   1      30.664  25.984  23.766  1.00  0.00     0.023 A 
BRANCH   9  14
ATOM     14  N   UNL A   1      28.898  29.423  22.247  1.00  0.00    -0.384 N 
ATOM     15  H   UNL A   1      29.456  30.224  22.117  1.00  0.00     0.158 HD
ATOM     16  H   UNL A   1      27.941  29.448  22.016  1.00  0.00     0.158 HD
ENDBRANCH   9  14
BRANCH  13  17
ATOM     17  C   UNL A   1      31.288  24.814  24.390  1.00  0.00     0.038 A 
ATOM     18  C   UNL A   1      31.865  24.688  25.638  1.00  0.00     0.029 A 
ATOM     19  S   UNL A   1      31.404  23.345  23.509  1.00  0.00    -0.135 S 
ATOM     20  C   UNL A   1      32.569  23.447  25.807  1.00  0.00    -0.007 A 
ATOM     21  C   UNL A   1      32.430  22.628  24.685  1.00  0.00     0.035 A 
ATOM     22  C   UNL A   1      33.379  22.989  26.873  1.00  0.00     0.009 A 
ATOM     23  C   UNL A   1      33.089  21.389  24.587  1.00  0.00     0.019 A 
ATOM     24  C   UNL A   1      34.042  21.762  26.777  1.00  0.00     0.001 A 
ATOM     25  C   UNL A   1      33.900  20.976  25.643  1.00  0.00     0.001 A 
ENDBRANCH  13  17
ENDBRANCH   5   8
ENDBRANCH   3   4
ENDBRANCH   2   3
ENDBRANCH   1   2
BRANCH   1  26
ATOM     26  C   UNL A   1      32.116  30.067  26.866  1.00  0.00     0.116 C 
BRANCH  26  27
ATOM     27  N   UNL A   1      32.259  31.497  27.090  1.00  0.00    -0.352 N 
ATOM     28  C   UNL A   1      33.344  32.242  27.506  1.00  0.00     0.251 C 
ATOM     29  H   UNL A   1      31.447  32.023  26.914  1.00  0.00     0.163 HD
ATOM     30  O   UNL A   1      33.221  33.450  27.676  1.00  0.00    -0.269 OA
BRANCH  28  31
ATOM     31  C   UNL A   1      34.642  31.599  27.830  1.00  0.00     0.039 A 
ATOM     32  C   UNL A   1      35.758  32.429  28.001  1.00  0.00     0.014 A 
ATOM     33  C   UNL A   1      34.776  30.222  28.010  1.00  0.00     0.014 A 
ATOM     34  C   UNL A   1      36.949  31.903  28.502  1.00  0.00     0.010 A 
ATOM     35  C   UNL A   1      35.935  29.709  28.592  1.00  0.00     0.010 A 
ATOM     36  C   UNL A   1      37.015  30.554  28.888  1.00  0.00    -0.014 A 
BRANCH  36  37
ATOM     37  C   UNL A   1      38.145  30.057  29.714  1.00  0.00     0.031 A 
ATOM     38  C   UNL A   1      38.350  30.533  31.121  1.00  0.00     0.074 A 
ATOM     39  C   UNL A   1      39.044  29.230  29.142  1.00  0.00     0.049 A 
ATOM     40  N   UNL A   1      39.311  30.239  31.961  1.00  0.00    -0.248 NA
ATOM     41  C   UNL A   1      37.362  31.486  31.648  1.00  0.00     0.031 C 
ATOM     42  C   UNL A   1      38.993  28.759  27.755  1.00  0.00     0.029 A 
ATOM     43  N   UNL A   1      40.179  28.645  29.645  1.00  0.00    -0.354 N 
ATOM     44  C   UNL A   1      39.051  30.977  33.106  1.00  0.00     0.074 A 
ATOM     45  C   UNL A   1      37.868  31.768  32.840  1.00  0.00     0.031 C 
ATOM     46  C   UNL A   1      40.028  27.935  27.530  1.00  0.00     0.029 A 
ATOM     47  C   UNL A   1      40.837  27.847  28.739  1.00  0.00     0.049 A 
ATOM     48  H   UNL A   1      40.493  28.784  30.568  1.00  0.00     0.167 HD
ATOM     49  C   UNL A   1      39.730  30.979  34.279  1.00  0.00     0.037 A 
ATOM     50  C   UNL A   1      41.965  27.125  28.868  1.00  0.00     0.037 A 
ATOM     51  C   UNL A   1      40.899  30.179  34.542  1.00  0.00     0.049 A 
ATOM     52  C   UNL A   1      42.683  27.125  30.187  1.00  0.00     0.074 A 
ATOM     53  C   UNL A   1      41.627  30.068  35.714  1.00  0.00     0.029 A 
ATOM     54  N   UNL A   1      41.513  29.351  33.612  1.00  0.00    -0.354 N 
ATOM     55  N   UNL A   1      42.381  27.767  31.289  1.00  0.00    -0.248 NA
ATOM     56  C   UNL A   1      43.892  26.296  30.285  1.00  0.00     0.031 C 
ATOM     57  C   UNL A   1      42.701  29.201  35.483  1.00  0.00     0.029 A 
ATOM     58  C   UNL A   1      42.619  28.739  34.179  1.00  0.00     0.049 A 
ATOM     59  H   UNL A   1      41.208  29.219  32.685  1.00  0.00     0.167 HD
ATOM     60  C   UNL A   1      43.346  27.404  32.217  1.00  0.00     0.074 A 
ATOM     61  C   UNL A   1      44.234  26.471  31.553  1.00  0.00     0.031 C 
ATOM     62  C   UNL A   1      43.485  27.807  33.504  1.00  0.00     0.037 A 
BRANCH  49  63
ATOM     63  C   UNL A   1      39.220  31.874  35.371  1.00  0.00     0.064 A 
ATOM     64  C   UNL A   1      39.549  33.239  35.412  1.00  0.00     0.173 A 
ATOM     65  C   UNL A   1      38.374  31.373  36.371  1.00  0.00     0.173 A 
ATOM     66  F   UNL A   1      40.362  33.765  34.485  1.00  0.00    -0.203 F 
ATOM     67  C   UNL A   1      39.074  34.060  36.432  1.00  0.00     0.198 A 
ATOM     68  C   UNL A   1      37.879  32.204  37.374  1.00  0.00     0.198 A 
ATOM     69  F   UNL A   1      38.023  30.078  36.375  1.00  0.00    -0.203 F 
ATOM     70  F   UNL A   1      39.442  35.348  36.478  1.00  0.00    -0.200 F 
ATOM     71  C   UNL A   1      38.236  33.544  37.408  1.00  0.00     0.200 A 
ATOM     72  F   UNL A   1      37.060  31.707  38.311  1.00  0.00    -0.200 F 
ATOM     73  F   UNL A   1      37.779  34.336  38.388  1.00  0.00    -0.200 F 
ENDBRANCH  49  63
BRANCH  50  74
ATOM     74  C   UNL A   1      42.461  26.314  27.725  1.00  0.00     0.064 A 
ATOM     75  C   UNL A   1      43.441  26.819  26.860  1.00  0.00     0.173 A 
ATOM     76  C   UNL A   1      41.980  25.019  27.482  1.00  0.00     0.173 A 
ATOM     77  F   UNL A   1      43.918  28.059  27.041  1.00  0.00    -0.203 F 
ATOM     78  C   UNL A   1      43.909  26.068  25.784  1.00  0.00     0.198 A 
ATOM     79  C   UNL A   1      42.468  24.258  26.422  1.00  0.00     0.198 A 
ATOM     80  F   UNL A   1      41.049  24.487  28.287  1.00  0.00    -0.203 F 
ATOM     81  F   UNL A   1      44.817  26.590  24.950  1.00  0.00    -0.200 F 
ATOM     82  C   UNL A   1      43.426  24.785  25.570  1.00  0.00     0.200 A 
ATOM     83  F   UNL A   1      42.010  23.014  26.226  1.00  0.00    -0.200 F 
ATOM     84  F   UNL A   1      43.882  24.060  24.539  1.00  0.00    -0.200 F 
ENDBRANCH  50  74
BRANCH  62  85
ATOM     85  C   UNL A   1      44.623  27.220  34.284  1.00  0.00     0.064 A 
ATOM     86  C   UNL A   1      45.869  27.861  34.358  1.00  0.00     0.173 A 
ATOM     87  C   UNL A   1      44.453  26.022  34.993  1.00  0.00     0.173 A 
ATOM     88  F   UNL A   1      46.085  28.998  33.681  1.00  0.00    -0.203 F 
ATOM     89  C   UNL A   1      46.910  27.310  35.100  1.00  0.00     0.198 A 
ATOM     90  C   UNL A   1      45.488  25.489  35.755  1.00  0.00     0.198 A 
ATOM     91  F   UNL A   1      43.278  25.375  34.955  1.00  0.00    -0.203 F 
ATOM     92  F   UNL A   1      48.105  27.916  35.126  1.00  0.00    -0.200 F 
ATOM     93  C   UNL A   1      46.717  26.130  35.803  1.00  0.00     0.200 A 
ATOM     94  F   UNL A   1      45.296  24.355  36.441  1.00  0.00    -0.200 F 
ATOM     95  F   UNL A   1      47.719  25.605  36.523  1.00  0.00    -0.200 F 
ENDBRANCH  62  85
ENDBRANCH  36  37
ENDBRANCH  28  31
ENDBRANCH  26  27
ENDBRANCH   1  26
TORSDOF 13
ENDMDL
