MODEL 1
REMARK VINA RESULT:     -12.0      0.000      0.000
REMARK SMILES C[C@H]1Cc2ccccc2N1/C=C\C(=O)NCCCCNC(=O)c1ccc(-c2c3nc(c(-c4c(F)c(F)c(F)c(F)c4F)c4ccc([nH]4)c(-c4c(F)c(F)c(F)c(F)c4F)c4nc(c(-c5c(F)c(F)c(F)c(F)c5F)c5ccc2[nH]5)C=C4)C=C3)cc1
REMARK SMILES IDX 18 1 17 2 16 3 15 4 13 5 14 6 12 8 11 9 10 10 1 11 2 12 3 13
REMARK SMILES IDX 4 14 9 15 5 16 8 17 6 18 7 19 19 20 20 21 21 22 22 24 23 25
REMARK SMILES IDX 24 26 85 27 25 28 84 29 26 30 27 31 28 32 78 33 29 34 83 35
REMARK SMILES IDX 77 36 79 37 30 38 82 39 76 40 75 41 31 43 63 44 43 45 62 46
REMARK SMILES IDX 44 47 47 48 61 49 80 50 45 51 46 52 60 54 81 55 48 56 32 57
REMARK SMILES IDX 33 58 41 59 34 60 35 61 39 62 42 63 36 64 37 65 40 66 38 67
REMARK SMILES IDX 64 68 65 69 73 70 66 71 67 72 71 73 74 74 68 75 69 76 72 77
REMARK SMILES IDX 70 78 49 79 50 80 58 81 51 82 52 83 56 84 59 85 53 86 54 87
REMARK SMILES IDX 57 88 55 89
REMARK H PARENT 15 7 20 23 79 42 47 53
REMARK Flexibility Score: inf
ROOT
ATOM      1  C   UNL A   1      31.296  31.684  26.751  1.00  0.00     0.023 C 
ENDROOT
BRANCH   1   2
ATOM      2  C   UNL A   1      31.522  30.286  26.167  1.00  0.00     0.023 C 
BRANCH   2   3
ATOM      3  C   UNL A   1      32.935  29.861  25.749  1.00  0.00     0.116 C 
BRANCH   3   4
ATOM      4  N   UNL A   1      33.322  28.508  26.092  1.00  0.00    -0.353 N 
ATOM      5  C   UNL A   1      33.519  27.444  25.258  1.00  0.00     0.245 C 
ATOM      6  O   UNL A   1      33.768  26.337  25.732  1.00  0.00    -0.270 OA
ATOM      7  H   UNL A   1      33.460  28.331  27.051  1.00  0.00     0.163 HD
BRANCH   5   8
ATOM      8  C   UNL A   1      33.305  27.581  23.802  1.00  0.00     0.089 C 
ATOM      9  C   UNL A   1      32.157  27.536  23.113  1.00  0.00     0.092 C 
BRANCH   9  10
ATOM     10  N   UNL A   1      30.839  27.393  23.490  1.00  0.00    -0.344 N 
ATOM     11  C   UNL A   1      30.620  25.311  24.835  1.00  0.00     0.032 C 
ATOM     12  C   UNL A   1      30.085  26.132  23.672  1.00  0.00     0.088 C 
ATOM     13  C   UNL A   1      28.593  26.488  23.865  1.00  0.00     0.062 C 
ATOM     14  C   UNL A   1      28.556  27.904  23.407  1.00  0.00    -0.022 A 
ATOM     15  C   UNL A   1      29.856  28.401  23.301  1.00  0.00     0.044 A 
ATOM     16  C   UNL A   1      27.445  28.685  23.128  1.00  0.00     0.006 A 
ATOM     17  C   UNL A   1      30.057  29.730  22.952  1.00  0.00     0.026 A 
ATOM     18  C   UNL A   1      27.649  30.013  22.757  1.00  0.00     0.000 A 
ATOM     19  C   UNL A   1      28.947  30.538  22.686  1.00  0.00     0.002 A 
ENDBRANCH   9  10
ENDBRANCH   5   8
ENDBRANCH   3   4
ENDBRANCH   2   3
ENDBRANCH   1   2
BRANCH   1  20
ATOM     20  C   UNL A   1      32.346  32.755  26.490  1.00  0.00     0.116 C 
BRANCH  20  21
ATOM     21  N   UNL A   1      32.370  33.837  27.464  1.00  0.00    -0.352 N 
ATOM     22  C   UNL A   1      33.315  34.167  28.413  1.00  0.00     0.251 C 
ATOM     23  H   UNL A   1      31.583  34.429  27.443  1.00  0.00     0.163 HD
ATOM     24  O   UNL A   1      33.137  35.137  29.145  1.00  0.00    -0.269 OA
BRANCH  22  25
ATOM     25  C   UNL A   1      34.516  33.320  28.609  1.00  0.00     0.039 A 
ATOM     26  C   UNL A   1      34.414  31.983  28.996  1.00  0.00     0.014 A 
ATOM     27  C   UNL A   1      35.778  33.904  28.453  1.00  0.00     0.014 A 
ATOM     28  C   UNL A   1      35.549  31.307  29.443  1.00  0.00     0.010 A 
ATOM     29  C   UNL A   1      36.925  33.202  28.835  1.00  0.00     0.010 A 
ATOM     30  C   UNL A   1      36.808  31.930  29.417  1.00  0.00    -0.014 A 
BRANCH  30  31
ATOM     31  C   UNL A   1      37.962  31.297  30.111  1.00  0.00     0.031 A 
ATOM     32  C   UNL A   1      38.213  31.593  31.570  1.00  0.00     0.074 A 
ATOM     33  C   UNL A   1      38.739  30.405  29.469  1.00  0.00     0.049 A 
ATOM     34  N   UNL A   1      39.149  31.130  32.363  1.00  0.00    -0.248 NA
ATOM     35  C   UNL A   1      37.289  32.532  32.227  1.00  0.00     0.031 C 
ATOM     36  C   UNL A   1      38.587  30.010  28.069  1.00  0.00     0.029 A 
ATOM     37  N   UNL A   1      39.798  29.654  29.917  1.00  0.00    -0.354 N 
ATOM     38  C   UNL A   1      38.933  31.730  33.598  1.00  0.00     0.074 A 
ATOM     39  C   UNL A   1      37.801  32.616  33.446  1.00  0.00     0.031 C 
ATOM     40  C   UNL A   1      39.491  29.060  27.784  1.00  0.00     0.029 A 
ATOM     41  C   UNL A   1      40.315  28.812  28.965  1.00  0.00     0.049 A 
ATOM     42  H   UNL A   1      40.151  29.714  30.833  1.00  0.00     0.167 HD
ATOM     43  C   UNL A   1      39.605  31.545  34.760  1.00  0.00     0.037 A 
ATOM     44  C   UNL A   1      41.342  27.942  29.033  1.00  0.00     0.037 A 
ATOM     45  C   UNL A   1      40.712  30.642  34.925  1.00  0.00     0.049 A 
ATOM     46  C   UNL A   1      42.104  27.793  30.321  1.00  0.00     0.074 A 
ATOM     47  C   UNL A   1      41.442  30.373  36.070  1.00  0.00     0.029 A 
ATOM     48  N   UNL A   1      41.245  29.854  33.916  1.00  0.00    -0.354 N 
ATOM     49  N   UNL A   1      41.891  28.369  31.479  1.00  0.00    -0.248 NA
ATOM     50  C   UNL A   1      43.256  26.879  30.309  1.00  0.00     0.031 C 
ATOM     51  C   UNL A   1      42.439  29.449  35.746  1.00  0.00     0.029 A 
ATOM     52  C   UNL A   1      42.307  29.113  34.409  1.00  0.00     0.049 A 
ATOM     53  H   UNL A   1      40.917  29.825  32.989  1.00  0.00     0.167 HD
ATOM     54  C   UNL A   1      42.871  27.883  32.332  1.00  0.00     0.074 A 
ATOM     55  C   UNL A   1      43.669  26.948  31.567  1.00  0.00     0.031 C 
ATOM     56  C   UNL A   1      43.094  28.190  33.633  1.00  0.00     0.037 A 
BRANCH  43  57
ATOM     57  C   UNL A   1      39.165  32.334  35.957  1.00  0.00     0.064 A 
ATOM     58  C   UNL A   1      38.290  31.793  36.910  1.00  0.00     0.173 A 
ATOM     59  C   UNL A   1      39.682  33.617  36.193  1.00  0.00     0.173 A 
ATOM     60  F   UNL A   1      37.758  30.575  36.722  1.00  0.00    -0.203 F 
ATOM     61  C   UNL A   1      37.939  32.511  38.050  1.00  0.00     0.198 A 
ATOM     62  C   UNL A   1      39.348  34.323  37.346  1.00  0.00     0.198 A 
ATOM     63  F   UNL A   1      40.527  34.177  35.316  1.00  0.00    -0.203 F 
ATOM     64  F   UNL A   1      37.078  31.985  38.933  1.00  0.00    -0.200 F 
ATOM     65  C   UNL A   1      38.476  33.770  38.272  1.00  0.00     0.200 A 
ATOM     66  F   UNL A   1      39.875  35.535  37.565  1.00  0.00    -0.200 F 
ATOM     67  F   UNL A   1      38.148  34.454  39.378  1.00  0.00    -0.200 F 
ENDBRANCH  43  57
BRANCH  44  68
ATOM     68  C   UNL A   1      41.702  27.137  27.837  1.00  0.00     0.064 A 
ATOM     69  C   UNL A   1      42.616  27.623  26.893  1.00  0.00     0.173 A 
ATOM     70  C   UNL A   1      41.157  25.862  27.627  1.00  0.00     0.173 A 
ATOM     71  F   UNL A   1      43.144  28.848  27.040  1.00  0.00    -0.203 F 
ATOM     72  C   UNL A   1      42.970  26.864  25.780  1.00  0.00     0.198 A 
ATOM     73  C   UNL A   1      41.531  25.094  26.526  1.00  0.00     0.198 A 
ATOM     74  F   UNL A   1      40.277  25.356  28.501  1.00  0.00    -0.203 F 
ATOM     75  F   UNL A   1      43.825  27.363  24.876  1.00  0.00    -0.200 F 
ATOM     76  C   UNL A   1      42.435  25.597  25.603  1.00  0.00     0.200 A 
ATOM     77  F   UNL A   1      41.021  23.866  26.365  1.00  0.00    -0.200 F 
ATOM     78  F   UNL A   1      42.786  24.863  24.539  1.00  0.00    -0.200 F 
ENDBRANCH  44  68
BRANCH  56  79
ATOM     79  C   UNL A   1      44.242  27.513  34.320  1.00  0.00     0.064 A 
ATOM     80  C   UNL A   1      45.502  28.124  34.401  1.00  0.00     0.173 A 
ATOM     81  C   UNL A   1      44.063  26.278  34.960  1.00  0.00     0.173 A 
ATOM     82  F   UNL A   1      45.722  29.300  33.793  1.00  0.00    -0.203 F 
ATOM     83  C   UNL A   1      46.546  27.516  35.091  1.00  0.00     0.198 A 
ATOM     84  C   UNL A   1      45.104  25.685  35.669  1.00  0.00     0.198 A 
ATOM     85  F   UNL A   1      42.874  25.659  34.917  1.00  0.00    -0.203 F 
ATOM     86  F   UNL A   1      47.750  28.102  35.134  1.00  0.00    -0.200 F 
ATOM     87  C   UNL A   1      46.345  26.301  35.731  1.00  0.00     0.200 A 
ATOM     88  F   UNL A   1      44.905  24.517  36.297  1.00  0.00    -0.200 F 
ATOM     89  F   UNL A   1      47.348  25.724  36.406  1.00  0.00    -0.200 F 
ENDBRANCH  56  79
ENDBRANCH  30  31
ENDBRANCH  22  25
ENDBRANCH  20  21
ENDBRANCH   1  20
TORSDOF 12
ENDMDL
MODEL 2
REMARK VINA RESULT:     -12.0      1.693      2.835
REMARK SMILES C[C@H]1Cc2ccccc2N1/C=C\C(=O)NCCCCNC(=O)c1ccc(-c2c3nc(c(-c4c(F)c(F)c(F)c(F)c4F)c4ccc([nH]4)c(-c4c(F)c(F)c(F)c(F)c4F)c4nc(c(-c5c(F)c(F)c(F)c(F)c5F)c5ccc2[nH]5)C=C4)C=C3)cc1
REMARK SMILES IDX 18 1 17 2 16 3 15 4 13 5 14 6 12 8 11 9 10 10 1 11 2 12 3 13
REMARK SMILES IDX 4 14 9 15 5 16 8 17 6 18 7 19 19 20 20 21 21 22 22 24 23 25
REMARK SMILES IDX 24 26 85 27 25 28 84 29 26 30 27 31 28 32 78 33 29 34 83 35
REMARK SMILES IDX 77 36 79 37 30 38 82 39 76 40 75 41 31 43 63 44 43 45 62 46
REMARK SMILES IDX 44 47 47 48 61 49 80 50 45 51 46 52 60 54 81 55 48 56 32 57
REMARK SMILES IDX 33 58 41 59 34 60 35 61 39 62 42 63 36 64 37 65 40 66 38 67
REMARK SMILES IDX 64 68 65 69 73 70 66 71 67 72 71 73 74 74 68 75 69 76 72 77
REMARK SMILES IDX 70 78 49 79 50 80 58 81 51 82 52 83 56 84 59 85 53 86 54 87
REMARK SMILES IDX 57 88 55 89
REMARK H PARENT 15 7 20 23 79 42 47 53
REMARK Flexibility Score: inf
ROOT
ATOM      1  C   UNL A   1      32.321  29.741  25.297  1.00  0.00     0.023 C 
ENDROOT
BRANCH   1   2
ATOM      2  C   UNL A   1      31.009  29.384  24.591  1.00  0.00     0.023 C 
BRANCH   2   3
ATOM      3  C   UNL A   1      31.044  28.857  23.151  1.00  0.00     0.116 C 
BRANCH   3   4
ATOM      4  N   UNL A   1      32.358  28.645  22.580  1.00  0.00    -0.353 N 
ATOM      5  C   UNL A   1      32.853  27.521  21.983  1.00  0.00     0.245 C 
ATOM      6  O   UNL A   1      34.029  27.490  21.624  1.00  0.00    -0.270 OA
ATOM      7  H   UNL A   1      32.976  29.411  22.629  1.00  0.00     0.163 HD
BRANCH   5   8
ATOM      8  C   UNL A   1      32.030  26.298  21.884  1.00  0.00     0.089 C 
ATOM      9  C   UNL A   1      31.948  25.268  22.738  1.00  0.00     0.092 C 
BRANCH   9  10
ATOM     10  N   UNL A   1      32.537  25.008  23.957  1.00  0.00    -0.344 N 
ATOM     11  C   UNL A   1      30.963  25.695  25.759  1.00  0.00     0.032 C 
ATOM     12  C   UNL A   1      32.382  25.774  25.214  1.00  0.00     0.088 C 
ATOM     13  C   UNL A   1      33.414  25.236  26.233  1.00  0.00     0.062 C 
ATOM     14  C   UNL A   1      34.329  24.456  25.357  1.00  0.00    -0.022 A 
ATOM     15  C   UNL A   1      33.743  24.273  24.103  1.00  0.00     0.044 A 
ATOM     16  C   UNL A   1      35.577  23.940  25.668  1.00  0.00     0.006 A 
ATOM     17  C   UNL A   1      34.397  23.511  23.144  1.00  0.00     0.026 A 
ATOM     18  C   UNL A   1      36.242  23.193  24.697  1.00  0.00     0.000 A 
ATOM     19  C   UNL A   1      35.648  22.965  23.447  1.00  0.00     0.002 A 
ENDBRANCH   9  10
ENDBRANCH   5   8
ENDBRANCH   3   4
ENDBRANCH   2   3
ENDBRANCH   1   2
BRANCH   1  20
ATOM     20  C   UNL A   1      32.286  30.007  26.796  1.00  0.00     0.116 C 
BRANCH  20  21
ATOM     21  N   UNL A   1      32.298  31.415  27.166  1.00  0.00    -0.352 N 
ATOM     22  C   UNL A   1      33.329  32.215  27.614  1.00  0.00     0.251 C 
ATOM     23  H   UNL A   1      31.429  31.871  27.082  1.00  0.00     0.163 HD
ATOM     24  O   UNL A   1      33.121  33.397  27.871  1.00  0.00    -0.269 OA
BRANCH  22  25
ATOM     25  C   UNL A   1      34.675  31.644  27.859  1.00  0.00     0.039 A 
ATOM     26  C   UNL A   1      34.873  30.271  28.005  1.00  0.00     0.014 A 
ATOM     27  C   UNL A   1      35.756  32.522  28.002  1.00  0.00     0.014 A 
ATOM     28  C   UNL A   1      36.084  29.799  28.511  1.00  0.00     0.010 A 
ATOM     29  C   UNL A   1      36.992  32.041  28.443  1.00  0.00     0.010 A 
ATOM     30  C   UNL A   1      37.137  30.688  28.786  1.00  0.00    -0.014 A 
BRANCH  30  31
ATOM     31  C   UNL A   1      38.327  30.214  29.543  1.00  0.00     0.031 A 
ATOM     32  C   UNL A   1      38.535  30.661  30.970  1.00  0.00     0.074 A 
ATOM     33  C   UNL A   1      39.180  29.329  28.992  1.00  0.00     0.049 A 
ATOM     34  N   UNL A   1      39.492  30.348  31.808  1.00  0.00    -0.248 NA
ATOM     35  C   UNL A   1      37.532  31.581  31.531  1.00  0.00     0.031 C 
ATOM     36  C   UNL A   1      39.077  28.797  27.634  1.00  0.00     0.029 A 
ATOM     37  N   UNL A   1      40.287  28.708  29.515  1.00  0.00    -0.354 N 
ATOM     38  C   UNL A   1      39.214  31.040  32.981  1.00  0.00     0.074 A 
ATOM     39  C   UNL A   1      38.019  31.817  32.741  1.00  0.00     0.031 C 
ATOM     40  C   UNL A   1      40.056  27.898  27.444  1.00  0.00     0.029 A 
ATOM     41  C   UNL A   1      40.881  27.825  28.648  1.00  0.00     0.049 A 
ATOM     42  H   UNL A   1      40.622  28.880  30.423  1.00  0.00     0.167 HD
ATOM     43  C   UNL A   1      39.883  31.016  34.159  1.00  0.00     0.037 A 
ATOM     44  C   UNL A   1      41.970  27.048  28.804  1.00  0.00     0.037 A 
ATOM     45  C   UNL A   1      41.054  30.222  34.415  1.00  0.00     0.049 A 
ATOM     46  C   UNL A   1      42.725  27.078  30.105  1.00  0.00     0.074 A 
ATOM     47  C   UNL A   1      41.787  30.117  35.585  1.00  0.00     0.029 A 
ATOM     48  N   UNL A   1      41.659  29.389  33.487  1.00  0.00    -0.354 N 
ATOM     49  N   UNL A   1      42.452  27.740  31.203  1.00  0.00    -0.248 NA
ATOM     50  C   UNL A   1      43.943  26.260  30.185  1.00  0.00     0.031 C 
ATOM     51  C   UNL A   1      42.857  29.248  35.354  1.00  0.00     0.029 A 
ATOM     52  C   UNL A   1      42.769  28.781  34.053  1.00  0.00     0.049 A 
ATOM     53  H   UNL A   1      41.348  29.249  32.564  1.00  0.00     0.167 HD
ATOM     54  C   UNL A   1      43.455  27.413  32.104  1.00  0.00     0.074 A 
ATOM     55  C   UNL A   1      44.333  26.477  31.434  1.00  0.00     0.031 C 
ATOM     56  C   UNL A   1      43.635  27.855  33.372  1.00  0.00     0.037 A 
BRANCH  43  57
ATOM     57  C   UNL A   1      39.367  31.876  35.276  1.00  0.00     0.064 A 
ATOM     58  C   UNL A   1      38.534  31.355  36.276  1.00  0.00     0.173 A 
ATOM     59  C   UNL A   1      39.769  33.215  35.387  1.00  0.00     0.173 A 
ATOM     60  F   UNL A   1      38.110  30.083  36.207  1.00  0.00    -0.203 F 
ATOM     61  C   UNL A   1      38.113  32.146  37.342  1.00  0.00     0.198 A 
ATOM     62  C   UNL A   1      39.366  33.997  36.467  1.00  0.00     0.198 A 
ATOM     63  F   UNL A   1      40.570  33.760  34.460  1.00  0.00    -0.203 F 
ATOM     64  F   UNL A   1      37.294  31.634  38.272  1.00  0.00    -0.200 F 
ATOM     65  C   UNL A   1      38.538  33.462  37.442  1.00  0.00     0.200 A 
ATOM     66  F   UNL A   1      39.786  35.266  36.568  1.00  0.00    -0.200 F 
ATOM     67  F   UNL A   1      38.144  34.218  38.477  1.00  0.00    -0.200 F 
ENDBRANCH  43  57
BRANCH  44  68
ATOM     68  C   UNL A   1      42.408  26.167  27.690  1.00  0.00     0.064 A 
ATOM     69  C   UNL A   1      43.403  26.581  26.795  1.00  0.00     0.173 A 
ATOM     70  C   UNL A   1      41.857  24.890  27.513  1.00  0.00     0.173 A 
ATOM     71  F   UNL A   1      43.941  27.805  26.911  1.00  0.00    -0.203 F 
ATOM     72  C   UNL A   1      43.829  25.751  25.761  1.00  0.00     0.198 A 
ATOM     73  C   UNL A   1      42.301  24.052  26.493  1.00  0.00     0.198 A 
ATOM     74  F   UNL A   1      40.900  24.451  28.342  1.00  0.00    -0.203 F 
ATOM     75  F   UNL A   1      44.762  26.182  24.900  1.00  0.00    -0.200 F 
ATOM     76  C   UNL A   1      43.284  24.484  25.616  1.00  0.00     0.200 A 
ATOM     77  F   UNL A   1      41.781  22.824  26.364  1.00  0.00    -0.200 F 
ATOM     78  F   UNL A   1      43.704  23.681  24.629  1.00  0.00    -0.200 F 
ENDBRANCH  44  68
BRANCH  56  79
ATOM     79  C   UNL A   1      44.823  27.336  34.126  1.00  0.00     0.064 A 
ATOM     80  C   UNL A   1      46.039  28.035  34.136  1.00  0.00     0.173 A 
ATOM     81  C   UNL A   1      44.724  26.170  34.899  1.00  0.00     0.173 A 
ATOM     82  F   UNL A   1      46.183  29.149  33.402  1.00  0.00    -0.203 F 
ATOM     83  C   UNL A   1      47.118  27.578  34.886  1.00  0.00     0.198 A 
ATOM     84  C   UNL A   1      45.799  25.729  35.666  1.00  0.00     0.198 A 
ATOM     85  F   UNL A   1      43.579  25.472  34.927  1.00  0.00    -0.203 F 
ATOM     86  F   UNL A   1      48.280  28.244  34.860  1.00  0.00    -0.200 F 
ATOM     87  C   UNL A   1      46.995  26.431  35.657  1.00  0.00     0.200 A 
ATOM     88  F   UNL A   1      45.675  24.627  36.420  1.00  0.00    -0.200 F 
ATOM     89  F   UNL A   1      48.032  25.999  36.388  1.00  0.00    -0.200 F 
ENDBRANCH  56  79
ENDBRANCH  30  31
ENDBRANCH  22  25
ENDBRANCH  20  21
ENDBRANCH   1  20
TORSDOF 12
ENDMDL
MODEL 3
REMARK VINA RESULT:     -12.0      3.771      6.999
REMARK SMILES C[C@H]1Cc2ccccc2N1/C=C\C(=O)NCCCCNC(=O)c1ccc(-c2c3nc(c(-c4c(F)c(F)c(F)c(F)c4F)c4ccc([nH]4)c(-c4c(F)c(F)c(F)c(F)c4F)c4nc(c(-c5c(F)c(F)c(F)c(F)c5F)c5ccc2[nH]5)C=C4)C=C3)cc1
REMARK SMILES IDX 18 1 17 2 16 3 15 4 13 5 14 6 12 8 11 9 10 10 1 11 2 12 3 13
REMARK SMILES IDX 4 14 9 15 5 16 8 17 6 18 7 19 19 20 20 21 21 22 22 24 23 25
REMARK SMILES IDX 24 26 85 27 25 28 84 29 26 30 27 31 28 32 78 33 29 34 83 35
REMARK SMILES IDX 77 36 79 37 30 38 82 39 76 40 75 41 31 43 63 44 43 45 62 46
REMARK SMILES IDX 44 47 47 48 61 49 80 50 45 51 46 52 60 54 81 55 48 56 32 57
REMARK SMILES IDX 33 58 41 59 34 60 35 61 39 62 42 63 36 64 37 65 40 66 38 67
REMARK SMILES IDX 64 68 65 69 73 70 66 71 67 72 71 73 74 74 68 75 69 76 72 77
REMARK SMILES IDX 70 78 49 79 50 80 58 81 51 82 52 83 56 84 59 85 53 86 54 87
REMARK SMILES IDX 57 88 55 89
REMARK H PARENT 15 7 20 23 79 42 47 53
REMARK Flexibility Score: inf
ROOT
ATOM      1  C   UNL A   1      34.560  33.240  27.901  1.00  0.00     0.023 C 
ENDROOT
BRANCH   1   2
ATOM      2  C   UNL A   1      34.414  34.670  28.428  1.00  0.00     0.023 C 
BRANCH   2   3
ATOM      3  C   UNL A   1      33.280  35.004  29.405  1.00  0.00     0.116 C 
BRANCH   3   4
ATOM      4  N   UNL A   1      33.637  35.832  30.539  1.00  0.00    -0.353 N 
ATOM      5  C   UNL A   1      34.021  35.440  31.790  1.00  0.00     0.245 C 
ATOM      6  O   UNL A   1      34.210  36.285  32.662  1.00  0.00    -0.270 OA
ATOM      7  H   UNL A   1      33.598  36.805  30.389  1.00  0.00     0.163 HD
BRANCH   5   8
ATOM      8  C   UNL A   1      34.081  34.006  32.142  1.00  0.00     0.089 C 
ATOM      9  C   UNL A   1      35.149  33.262  32.460  1.00  0.00     0.092 C 
BRANCH   9  10
ATOM     10  N   UNL A   1      36.489  33.552  32.602  1.00  0.00    -0.344 N 
ATOM     11  C   UNL A   1      37.060  33.494  35.024  1.00  0.00     0.032 C 
ATOM     12  C   UNL A   1      37.142  34.272  33.719  1.00  0.00     0.088 C 
ATOM     13  C   UNL A   1      38.608  34.554  33.315  1.00  0.00     0.062 C 
ATOM     14  C   UNL A   1      38.574  34.302  31.849  1.00  0.00    -0.022 A 
ATOM     15  C   UNL A   1      37.390  33.645  31.508  1.00  0.00     0.044 A 
ATOM     16  C   UNL A   1      39.536  34.620  30.903  1.00  0.00     0.006 A 
ATOM     17  C   UNL A   1      37.177  33.249  30.195  1.00  0.00     0.026 A 
ATOM     18  C   UNL A   1      39.312  34.241  29.581  1.00  0.00     0.000 A 
ATOM     19  C   UNL A   1      38.146  33.544  29.230  1.00  0.00     0.002 A 
ENDBRANCH   9  10
ENDBRANCH   5   8
ENDBRANCH   3   4
ENDBRANCH   2   3
ENDBRANCH   1   2
BRANCH   1  20
ATOM     20  C   UNL A   1      33.975  32.102  28.727  1.00  0.00     0.116 C 
BRANCH  20  21
ATOM     21  N   UNL A   1      33.797  30.852  28.002  1.00  0.00    -0.352 N 
ATOM     22  C   UNL A   1      34.658  29.789  27.823  1.00  0.00     0.251 C 
ATOM     23  H   UNL A   1      32.919  30.747  27.569  1.00  0.00     0.163 HD
ATOM     24  O   UNL A   1      34.302  28.814  27.167  1.00  0.00    -0.269 OA
BRANCH  22  25
ATOM     25  C   UNL A   1      36.041  29.841  28.355  1.00  0.00     0.039 A 
ATOM     26  C   UNL A   1      37.103  30.327  27.591  1.00  0.00     0.014 A 
ATOM     27  C   UNL A   1      36.282  29.335  29.637  1.00  0.00     0.014 A 
ATOM     28  C   UNL A   1      38.413  30.099  28.009  1.00  0.00     0.010 A 
ATOM     29  C   UNL A   1      37.595  29.170  30.088  1.00  0.00     0.010 A 
ATOM     30  C   UNL A   1      38.672  29.468  29.238  1.00  0.00    -0.014 A 
BRANCH  30  31
ATOM     31  C   UNL A   1      40.052  29.017  29.563  1.00  0.00     0.031 A 
ATOM     32  C   UNL A   1      40.885  29.804  30.546  1.00  0.00     0.074 A 
ATOM     33  C   UNL A   1      40.535  27.872  29.046  1.00  0.00     0.049 A 
ATOM     34  N   UNL A   1      42.100  29.570  30.979  1.00  0.00    -0.248 NA
ATOM     35  C   UNL A   1      40.273  31.013  31.119  1.00  0.00     0.031 C 
ATOM     36  C   UNL A   1      39.823  27.005  28.109  1.00  0.00     0.029 A 
ATOM     37  N   UNL A   1      41.732  27.232  29.254  1.00  0.00    -0.354 N 
ATOM     38  C   UNL A   1      42.397  30.604  31.859  1.00  0.00     0.074 A 
ATOM     39  C   UNL A   1      41.252  31.488  31.875  1.00  0.00     0.031 C 
ATOM     40  C   UNL A   1      40.578  25.925  27.854  1.00  0.00     0.029 A 
ATOM     41  C   UNL A   1      41.845  26.045  28.572  1.00  0.00     0.049 A 
ATOM     42  H   UNL A   1      42.440  27.588  29.836  1.00  0.00     0.167 HD
ATOM     43  C   UNL A   1      43.514  30.792  32.601  1.00  0.00     0.037 A 
ATOM     44  C   UNL A   1      42.857  25.158  28.526  1.00  0.00     0.037 A 
ATOM     45  C   UNL A   1      44.643  29.901  32.613  1.00  0.00     0.049 A 
ATOM     46  C   UNL A   1      44.108  25.416  29.321  1.00  0.00     0.074 A 
ATOM     47  C   UNL A   1      45.811  29.999  33.351  1.00  0.00     0.029 A 
ATOM     48  N   UNL A   1      44.741  28.743  31.858  1.00  0.00    -0.354 N 
ATOM     49  N   UNL A   1      44.375  26.399  30.145  1.00  0.00    -0.248 NA
ATOM     50  C   UNL A   1      45.201  24.444  29.173  1.00  0.00     0.031 C 
ATOM     51  C   UNL A   1      46.632  28.919  33.014  1.00  0.00     0.029 A 
ATOM     52  C   UNL A   1      45.959  28.127  32.097  1.00  0.00     0.049 A 
ATOM     53  H   UNL A   1      44.050  28.408  31.244  1.00  0.00     0.167 HD
ATOM     54  C   UNL A   1      45.658  26.162  30.618  1.00  0.00     0.074 A 
ATOM     55  C   UNL A   1      46.109  24.929  30.007  1.00  0.00     0.031 C 
ATOM     56  C   UNL A   1      46.397  26.903  31.478  1.00  0.00     0.037 A 
BRANCH  43  57
ATOM     57  C   UNL A   1      43.580  32.012  33.472  1.00  0.00     0.064 A 
ATOM     58  C   UNL A   1      44.103  33.223  32.997  1.00  0.00     0.173 A 
ATOM     59  C   UNL A   1      43.046  31.990  34.769  1.00  0.00     0.173 A 
ATOM     60  F   UNL A   1      44.637  33.292  31.768  1.00  0.00    -0.203 F 
ATOM     61  C   UNL A   1      44.100  34.366  33.793  1.00  0.00     0.198 A 
ATOM     62  C   UNL A   1      43.023  33.140  35.555  1.00  0.00     0.198 A 
ATOM     63  F   UNL A   1      42.528  30.858  35.269  1.00  0.00    -0.203 F 
ATOM     64  F   UNL A   1      44.631  35.506  33.329  1.00  0.00    -0.200 F 
ATOM     65  C   UNL A   1      43.551  34.326  35.066  1.00  0.00     0.200 A 
ATOM     66  F   UNL A   1      42.483  33.103  36.780  1.00  0.00    -0.200 F 
ATOM     67  F   UNL A   1      43.536  35.431  35.826  1.00  0.00    -0.200 F 
ENDBRANCH  43  57
BRANCH  44  68
ATOM     68  C   UNL A   1      42.721  23.933  27.696  1.00  0.00     0.064 A 
ATOM     69  C   UNL A   1      42.222  22.744  28.245  1.00  0.00     0.173 A 
ATOM     70  C   UNL A   1      43.066  23.933  26.337  1.00  0.00     0.173 A 
ATOM     71  F   UNL A   1      41.902  22.691  29.547  1.00  0.00    -0.203 F 
ATOM     72  C   UNL A   1      42.076  21.599  27.466  1.00  0.00     0.198 A 
ATOM     73  C   UNL A   1      42.897  22.794  25.553  1.00  0.00     0.198 A 
ATOM     74  F   UNL A   1      43.551  25.045  25.767  1.00  0.00    -0.203 F 
ATOM     75  F   UNL A   1      41.623  20.466  28.022  1.00  0.00    -0.200 F 
ATOM     76  C   UNL A   1      42.405  21.628  26.119  1.00  0.00     0.200 A 
ATOM     77  F   UNL A   1      43.204  22.828  24.250  1.00  0.00    -0.200 F 
ATOM     78  F   UNL A   1      42.251  20.529  25.367  1.00  0.00    -0.200 F 
ENDBRANCH  44  68
BRANCH  56  79
ATOM     79  C   UNL A   1      47.771  26.410  31.816  1.00  0.00     0.064 A 
ATOM     80  C   UNL A   1      47.984  25.525  32.884  1.00  0.00     0.173 A 
ATOM     81  C   UNL A   1      48.873  26.769  31.026  1.00  0.00     0.173 A 
ATOM     82  F   UNL A   1      46.961  25.164  33.674  1.00  0.00    -0.203 F 
ATOM     83  C   UNL A   1      49.254  25.025  33.154  1.00  0.00     0.198 A 
ATOM     84  C   UNL A   1      50.138  26.247  31.286  1.00  0.00     0.198 A 
ATOM     85  F   UNL A   1      48.718  27.606  29.989  1.00  0.00    -0.203 F 
ATOM     86  F   UNL A   1      49.441  24.203  34.195  1.00  0.00    -0.200 F 
ATOM     87  C   UNL A   1      50.328  25.380  32.351  1.00  0.00     0.200 A 
ATOM     88  F   UNL A   1      51.173  26.581  30.502  1.00  0.00    -0.200 F 
ATOM     89  F   UNL A   1      51.548  24.887  32.605  1.00  0.00    -0.200 F 
ENDBRANCH  56  79
ENDBRANCH  30  31
ENDBRANCH  22  25
ENDBRANCH  20  21
ENDBRANCH   1  20
TORSDOF 12
ENDMDL
