MODEL 1
REMARK VINA RESULT:     -12.1      0.000      0.000
REMARK SMILES CC[NH2+][C@]1(C(=O)NCCCCNC(=O)c2ccc(-c3c4nc(c(-c5c(F)c(F)c(F)c(F)c5F)c5ccc([nH]5)c(-c5c(F)c(F)c(F)c(F)c5F)c5nc(c(-c6c(F)c(F)c(F)c(F)c6F)c6ccc3[nH]6)C=C5)C=C4)cc2)CC[C@@H]([N@H+]2C[C@@H](C)O[C@@H](C)C2)C1
REMARK SMILES IDX 9 1 8 2 7 3 5 4 6 5 4 7 78 8 89 9 79 10 80 11 3 12 2 15 1 16
REMARK SMILES IDX 81 17 82 18 88 19 83 21 86 22 84 23 85 24 87 25 10 26 11 27
REMARK SMILES IDX 12 28 13 29 14 31 15 32 16 33 77 34 17 35 76 36 18 37 19 38
REMARK SMILES IDX 20 39 70 40 21 41 75 42 69 43 71 44 22 45 74 46 68 47 67 48
REMARK SMILES IDX 23 50 55 51 35 52 54 53 36 54 39 55 53 56 72 57 37 58 38 59
REMARK SMILES IDX 52 61 73 62 40 63 24 64 25 65 33 66 26 67 27 68 31 69 34 70
REMARK SMILES IDX 28 71 29 72 32 73 30 74 56 75 57 76 65 77 58 78 59 79 63 80
REMARK SMILES IDX 66 81 60 82 61 83 64 84 62 85 41 86 42 87 50 88 43 89 44 90
REMARK SMILES IDX 48 91 51 92 45 93 46 94 49 95 47 96
REMARK H PARENT 7 6 3 13 3 14 81 20 12 30 71 49 39 60
REMARK Flexibility Score: inf
ROOT
ATOM      1  C   UNL A   1      32.104  30.051  26.914  1.00  0.00     0.023 C 
ENDROOT
BRANCH   1   2
ATOM      2  C   UNL A   1      33.466  29.479  26.517  1.00  0.00     0.116 C 
BRANCH   2   3
ATOM      3  N   UNL A   1      33.657  29.540  25.079  1.00  0.00    -0.351 N 
ATOM      4  C   UNL A   1      33.550  28.604  24.093  1.00  0.00     0.281 C 
ATOM      5  O   UNL A   1      33.987  28.955  22.989  1.00  0.00    -0.268 OA
ATOM      6  H   UNL A   1      33.915  30.433  24.751  1.00  0.00     0.163 HD
BRANCH   4   7
ATOM      7  C   UNL A   1      32.818  27.226  24.256  1.00  0.00     0.181 C 
ATOM      8  C   UNL A   1      32.979  26.429  22.938  1.00  0.00     0.085 C 
ATOM      9  C   UNL A   1      33.448  26.241  25.252  1.00  0.00     0.144 C 
ATOM     10  C   UNL A   1      32.685  24.983  23.298  1.00  0.00     0.072 C 
ATOM     11  C   UNL A   1      33.237  24.812  24.721  1.00  0.00     0.191 C 
BRANCH   7  12
ATOM     12  N   UNL A   1      31.404  27.450  24.670  1.00  0.00    -0.334 N 
ATOM     13  H   UNL A   1      31.057  26.590  25.094  1.00  0.00     0.347 HD
ATOM     14  H   UNL A   1      31.413  28.238  25.317  1.00  0.00     0.347 HD
BRANCH  12  15
ATOM     15  C   UNL A   1      30.502  27.818  23.576  1.00  0.00     0.257 C 
ATOM     16  C   UNL A   1      30.179  29.304  23.643  1.00  0.00     0.071 C 
ENDBRANCH  12  15
ENDBRANCH   7  12
BRANCH  11  17
ATOM     17  N   UNL A   1      34.360  23.864  24.838  1.00  0.00    -0.328 N 
ATOM     18  C   UNL A   1      34.726  23.393  26.177  1.00  0.00     0.294 C 
ATOM     19  C   UNL A   1      34.290  22.733  23.904  1.00  0.00     0.294 C 
ATOM     20  H   UNL A   1      35.127  24.478  24.568  1.00  0.00     0.348 HD
ATOM     21  C   UNL A   1      34.039  22.105  26.696  1.00  0.00     0.170 C 
ATOM     22  C   UNL A   1      33.660  21.417  24.433  1.00  0.00     0.170 C 
ATOM     23  C   UNL A   1      33.279  22.383  27.992  1.00  0.00     0.045 C 
ATOM     24  O   UNL A   1      33.124  21.529  25.755  1.00  0.00    -0.364 OA
ATOM     25  C   UNL A   1      32.529  20.961  23.515  1.00  0.00     0.045 C 
ENDBRANCH  11  17
ENDBRANCH   4   7
ENDBRANCH   2   3
ENDBRANCH   1   2
BRANCH   1  26
ATOM     26  C   UNL A   1      31.915  31.549  26.692  1.00  0.00     0.023 C 
BRANCH  26  27
ATOM     27  C   UNL A   1      32.952  32.419  27.385  1.00  0.00     0.116 C 
BRANCH  27  28
ATOM     28  N   UNL A   1      32.524  33.796  27.604  1.00  0.00    -0.352 N 
ATOM     29  C   UNL A   1      33.041  34.727  28.477  1.00  0.00     0.251 C 
ATOM     30  H   UNL A   1      31.766  34.101  27.055  1.00  0.00     0.163 HD
ATOM     31  O   UNL A   1      32.530  35.837  28.586  1.00  0.00    -0.269 OA
BRANCH  29  32
ATOM     32  C   UNL A   1      34.189  34.354  29.332  1.00  0.00     0.039 A 
ATOM     33  C   UNL A   1      33.945  33.747  30.566  1.00  0.00     0.014 A 
ATOM     34  C   UNL A   1      35.498  34.527  28.878  1.00  0.00     0.014 A 
ATOM     35  C   UNL A   1      35.012  33.225  31.301  1.00  0.00     0.010 A 
ATOM     36  C   UNL A   1      36.545  33.922  29.560  1.00  0.00     0.010 A 
ATOM     37  C   UNL A   1      36.314  33.264  30.777  1.00  0.00    -0.014 A 
BRANCH  37  38
ATOM     38  C   UNL A   1      37.456  32.625  31.476  1.00  0.00     0.031 A 
ATOM     39  C   UNL A   1      38.183  31.480  30.830  1.00  0.00     0.074 A 
ATOM     40  C   UNL A   1      37.778  33.010  32.726  1.00  0.00     0.049 A 
ATOM     41  N   UNL A   1      39.134  30.721  31.311  1.00  0.00    -0.248 NA
ATOM     42  C   UNL A   1      37.749  31.110  29.473  1.00  0.00     0.031 C 
ATOM     43  C   UNL A   1      37.112  34.070  33.485  1.00  0.00     0.029 A 
ATOM     44  N   UNL A   1      38.745  32.546  33.583  1.00  0.00    -0.354 N 
ATOM     45  C   UNL A   1      39.389  29.771  30.331  1.00  0.00     0.074 A 
ATOM     46  C   UNL A   1      38.452  30.009  29.256  1.00  0.00     0.031 C 
ATOM     47  C   UNL A   1      37.715  34.203  34.677  1.00  0.00     0.029 A 
ATOM     48  C   UNL A   1      38.783  33.214  34.783  1.00  0.00     0.049 A 
ATOM     49  H   UNL A   1      39.352  31.805  33.359  1.00  0.00     0.167 HD
ATOM     50  C   UNL A   1      40.338  28.805  30.315  1.00  0.00     0.037 A 
ATOM     51  C   UNL A   1      39.596  33.047  35.843  1.00  0.00     0.037 A 
ATOM     52  C   UNL A   1      41.297  28.601  31.368  1.00  0.00     0.049 A 
ATOM     53  C   UNL A   1      40.649  31.975  35.800  1.00  0.00     0.074 A 
ATOM     54  C   UNL A   1      42.350  27.706  31.416  1.00  0.00     0.029 A 
ATOM     55  N   UNL A   1      41.316  29.309  32.562  1.00  0.00    -0.354 N 
ATOM     56  N   UNL A   1      40.930  31.129  34.840  1.00  0.00    -0.248 NA
ATOM     57  C   UNL A   1      41.500  31.838  36.990  1.00  0.00     0.031 C 
ATOM     58  C   UNL A   1      42.985  27.847  32.656  1.00  0.00     0.029 A 
ATOM     59  C   UNL A   1      42.352  28.857  33.363  1.00  0.00     0.049 A 
ATOM     60  H   UNL A   1      40.686  30.026  32.803  1.00  0.00     0.167 HD
ATOM     61  C   UNL A   1      42.006  30.380  35.294  1.00  0.00     0.074 A 
ATOM     62  C   UNL A   1      42.332  30.877  36.615  1.00  0.00     0.031 C 
ATOM     63  C   UNL A   1      42.666  29.371  34.672  1.00  0.00     0.037 A 
BRANCH  50  64
ATOM     64  C   UNL A   1      40.378  27.905  29.114  1.00  0.00     0.064 A 
ATOM     65  C   UNL A   1      41.135  28.229  27.976  1.00  0.00     0.173 A 
ATOM     66  C   UNL A   1      39.638  26.714  29.092  1.00  0.00     0.173 A 
ATOM     67  F   UNL A   1      41.848  29.365  27.940  1.00  0.00    -0.203 F 
ATOM     68  C   UNL A   1      41.109  27.417  26.845  1.00  0.00     0.198 A 
ATOM     69  C   UNL A   1      39.644  25.888  27.971  1.00  0.00     0.198 A 
ATOM     70  F   UNL A   1      38.903  26.354  30.154  1.00  0.00    -0.203 F 
ATOM     71  F   UNL A   1      41.781  27.786  25.745  1.00  0.00    -0.200 F 
ATOM     72  C   UNL A   1      40.368  26.247  26.844  1.00  0.00     0.200 A 
ATOM     73  F   UNL A   1      38.934  24.752  27.974  1.00  0.00    -0.200 F 
ATOM     74  F   UNL A   1      40.339  25.472  25.751  1.00  0.00    -0.200 F 
ENDBRANCH  50  64
BRANCH  51  75
ATOM     75  C   UNL A   1      39.483  33.959  37.010  1.00  0.00     0.064 A 
ATOM     76  C   UNL A   1      38.725  33.586  38.130  1.00  0.00     0.173 A 
ATOM     77  C   UNL A   1      40.132  35.201  37.045  1.00  0.00     0.173 A 
ATOM     78  F   UNL A   1      38.069  32.416  38.133  1.00  0.00    -0.203 F 
ATOM     79  C   UNL A   1      38.613  34.425  39.236  1.00  0.00     0.198 A 
ATOM     80  C   UNL A   1      40.037  36.029  38.161  1.00  0.00     0.198 A 
ATOM     81  F   UNL A   1      40.871  35.601  36.000  1.00  0.00    -0.203 F 
ATOM     82  F   UNL A   1      37.857  34.057  40.278  1.00  0.00    -0.200 F 
ATOM     83  C   UNL A   1      39.274  35.644  39.254  1.00  0.00     0.200 A 
ATOM     84  F   UNL A   1      40.688  37.202  38.180  1.00  0.00    -0.200 F 
ATOM     85  F   UNL A   1      39.173  36.447  40.321  1.00  0.00    -0.200 F 
ENDBRANCH  51  75
BRANCH  63  86
ATOM     86  C   UNL A   1      43.830  28.764  35.396  1.00  0.00     0.064 A 
ATOM     87  C   UNL A   1      43.672  27.657  36.243  1.00  0.00     0.173 A 
ATOM     88  C   UNL A   1      45.125  29.272  35.208  1.00  0.00     0.173 A 
ATOM     89  F   UNL A   1      42.452  27.148  36.468  1.00  0.00    -0.203 F 
ATOM     90  C   UNL A   1      44.768  27.092  36.891  1.00  0.00     0.198 A 
ATOM     91  C   UNL A   1      46.220  28.687  35.836  1.00  0.00     0.198 A 
ATOM     92  F   UNL A   1      45.327  30.326  34.404  1.00  0.00    -0.203 F 
ATOM     93  F   UNL A   1      44.590  26.062  37.728  1.00  0.00    -0.200 F 
ATOM     94  C   UNL A   1      46.041  27.602  36.682  1.00  0.00     0.200 A 
ATOM     95  F   UNL A   1      47.451  29.175  35.624  1.00  0.00    -0.200 F 
ATOM     96  F   UNL A   1      47.095  27.053  37.300  1.00  0.00    -0.200 F 
ENDBRANCH  63  86
ENDBRANCH  37  38
ENDBRANCH  29  32
ENDBRANCH  27  28
ENDBRANCH  26  27
ENDBRANCH   1  26
TORSDOF 14
ENDMDL
MODEL 2
REMARK VINA RESULT:     -12.1      0.288      1.979
REMARK SMILES CC[NH2+][C@]1(C(=O)NCCCCNC(=O)c2ccc(-c3c4nc(c(-c5c(F)c(F)c(F)c(F)c5F)c5ccc([nH]5)c(-c5c(F)c(F)c(F)c(F)c5F)c5nc(c(-c6c(F)c(F)c(F)c(F)c6F)c6ccc3[nH]6)C=C5)C=C4)cc2)CC[C@@H]([N@H+]2C[C@@H](C)O[C@@H](C)C2)C1
REMARK SMILES IDX 9 1 8 2 7 3 5 4 6 5 4 7 78 8 89 9 79 10 80 11 3 12 2 15 1 16
REMARK SMILES IDX 81 17 82 18 88 19 83 21 86 22 84 23 85 24 87 25 10 26 11 27
REMARK SMILES IDX 12 28 13 29 14 31 15 32 16 33 77 34 17 35 76 36 18 37 19 38
REMARK SMILES IDX 20 39 70 40 21 41 75 42 69 43 71 44 22 45 74 46 68 47 67 48
REMARK SMILES IDX 23 50 55 51 35 52 54 53 36 54 39 55 53 56 72 57 37 58 38 59
REMARK SMILES IDX 52 61 73 62 40 63 24 64 25 65 33 66 26 67 27 68 31 69 34 70
REMARK SMILES IDX 28 71 29 72 32 73 30 74 56 75 57 76 65 77 58 78 59 79 63 80
REMARK SMILES IDX 66 81 60 82 61 83 64 84 62 85 41 86 42 87 50 88 43 89 44 90
REMARK SMILES IDX 48 91 51 92 45 93 46 94 49 95 47 96
REMARK H PARENT 7 6 3 13 3 14 81 20 12 30 71 49 39 60
REMARK Flexibility Score: inf
ROOT
ATOM      1  C   UNL A   1      32.111  30.079  27.011  1.00  0.00     0.023 C 
ENDROOT
BRANCH   1   2
ATOM      2  C   UNL A   1      33.459  29.522  26.548  1.00  0.00     0.116 C 
BRANCH   2   3
ATOM      3  N   UNL A   1      33.589  29.607  25.104  1.00  0.00    -0.351 N 
ATOM      4  C   UNL A   1      33.441  28.688  24.108  1.00  0.00     0.281 C 
ATOM      5  O   UNL A   1      33.831  29.058  22.992  1.00  0.00    -0.268 OA
ATOM      6  H   UNL A   1      33.832  30.506  24.781  1.00  0.00     0.163 HD
BRANCH   4   7
ATOM      7  C   UNL A   1      32.717  27.306  24.278  1.00  0.00     0.181 C 
ATOM      8  C   UNL A   1      32.839  26.525  22.946  1.00  0.00     0.085 C 
ATOM      9  C   UNL A   1      33.381  26.311  25.242  1.00  0.00     0.144 C 
ATOM     10  C   UNL A   1      32.559  25.074  23.299  1.00  0.00     0.072 C 
ATOM     11  C   UNL A   1      33.156  24.888  24.702  1.00  0.00     0.191 C 
BRANCH   7  12
ATOM     12  N   UNL A   1      31.318  27.522  24.740  1.00  0.00    -0.334 N 
ATOM     13  H   UNL A   1      30.904  26.611  24.937  1.00  0.00     0.347 HD
ATOM     14  H   UNL A   1      31.373  28.121  25.563  1.00  0.00     0.347 HD
BRANCH  12  15
ATOM     15  C   UNL A   1      30.460  28.215  23.776  1.00  0.00     0.257 C 
ATOM     16  C   UNL A   1      29.229  27.372  23.470  1.00  0.00     0.071 C 
ENDBRANCH  12  15
ENDBRANCH   7  12
BRANCH  11  17
ATOM     17  N   UNL A   1      34.285  23.941  24.772  1.00  0.00    -0.328 N 
ATOM     18  C   UNL A   1      34.675  23.433  26.089  1.00  0.00     0.294 C 
ATOM     19  C   UNL A   1      34.203  22.838  23.806  1.00  0.00     0.294 C 
ATOM     20  H   UNL A   1      35.045  24.567  24.506  1.00  0.00     0.348 HD
ATOM     21  C   UNL A   1      34.001  22.127  26.581  1.00  0.00     0.170 C 
ATOM     22  C   UNL A   1      33.587  21.505  24.305  1.00  0.00     0.170 C 
ATOM     23  C   UNL A   1      33.262  22.364  27.897  1.00  0.00     0.045 C 
ATOM     24  O   UNL A   1      33.073  21.575  25.640  1.00  0.00    -0.364 OA
ATOM     25  C   UNL A   1      32.442  21.071  23.394  1.00  0.00     0.045 C 
ENDBRANCH  11  17
ENDBRANCH   4   7
ENDBRANCH   2   3
ENDBRANCH   1   2
BRANCH   1  26
ATOM     26  C   UNL A   1      31.877  31.565  26.759  1.00  0.00     0.023 C 
BRANCH  26  27
ATOM     27  C   UNL A   1      32.957  32.473  27.328  1.00  0.00     0.116 C 
BRANCH  27  28
ATOM     28  N   UNL A   1      32.510  33.834  27.598  1.00  0.00    -0.352 N 
ATOM     29  C   UNL A   1      33.027  34.746  28.491  1.00  0.00     0.251 C 
ATOM     30  H   UNL A   1      31.736  34.143  27.073  1.00  0.00     0.163 HD
ATOM     31  O   UNL A   1      32.498  35.843  28.645  1.00  0.00    -0.269 OA
BRANCH  29  32
ATOM     32  C   UNL A   1      34.196  34.367  29.312  1.00  0.00     0.039 A 
ATOM     33  C   UNL A   1      33.985  33.742  30.544  1.00  0.00     0.014 A 
ATOM     34  C   UNL A   1      35.493  34.552  28.830  1.00  0.00     0.014 A 
ATOM     35  C   UNL A   1      35.071  33.216  31.246  1.00  0.00     0.010 A 
ATOM     36  C   UNL A   1      36.559  33.943  29.478  1.00  0.00     0.010 A 
ATOM     37  C   UNL A   1      36.360  33.267  30.691  1.00  0.00    -0.014 A 
BRANCH  37  38
ATOM     38  C   UNL A   1      37.522  32.624  31.354  1.00  0.00     0.031 A 
ATOM     39  C   UNL A   1      38.249  31.504  30.666  1.00  0.00     0.074 A 
ATOM     40  C   UNL A   1      37.861  32.982  32.608  1.00  0.00     0.049 A 
ATOM     41  N   UNL A   1      39.217  30.745  31.111  1.00  0.00    -0.248 NA
ATOM     42  C   UNL A   1      37.796  31.164  29.308  1.00  0.00     0.031 C 
ATOM     43  C   UNL A   1      37.197  34.014  33.405  1.00  0.00     0.029 A 
ATOM     44  N   UNL A   1      38.848  32.507  33.436  1.00  0.00    -0.354 N 
ATOM     45  C   UNL A   1      39.466  29.822  30.103  1.00  0.00     0.074 A 
ATOM     46  C   UNL A   1      38.506  30.077  29.051  1.00  0.00     0.031 C 
ATOM     47  C   UNL A   1      37.820  34.124  34.589  1.00  0.00     0.029 A 
ATOM     48  C   UNL A   1      38.901  33.145  34.650  1.00  0.00     0.049 A 
ATOM     49  H   UNL A   1      39.460  31.779  33.182  1.00  0.00     0.167 HD
ATOM     50  C   UNL A   1      40.424  28.869  30.046  1.00  0.00     0.037 A 
ATOM     51  C   UNL A   1      39.734  32.961  35.692  1.00  0.00     0.037 A 
ATOM     52  C   UNL A   1      41.404  28.648  31.076  1.00  0.00     0.049 A 
ATOM     53  C   UNL A   1      40.798  31.903  35.603  1.00  0.00     0.074 A 
ATOM     54  C   UNL A   1      42.468  27.765  31.083  1.00  0.00     0.029 A 
ATOM     55  N   UNL A   1      41.436  29.326  32.288  1.00  0.00    -0.354 N 
ATOM     56  N   UNL A   1      41.071  31.084  34.617  1.00  0.00    -0.248 NA
ATOM     57  C   UNL A   1      41.671  31.746  36.775  1.00  0.00     0.031 C 
ATOM     58  C   UNL A   1      43.123  27.882  32.315  1.00  0.00     0.029 A 
ATOM     59  C   UNL A   1      42.491  28.867  33.059  1.00  0.00     0.049 A 
ATOM     60  H   UNL A   1      40.803  30.030  32.558  1.00  0.00     0.167 HD
ATOM     61  C   UNL A   1      42.163  30.336  35.033  1.00  0.00     0.074 A 
ATOM     62  C   UNL A   1      42.507  30.804  36.361  1.00  0.00     0.031 C 
ATOM     63  C   UNL A   1      42.823  29.351  34.374  1.00  0.00     0.037 A 
BRANCH  50  64
ATOM     64  C   UNL A   1      40.453  27.999  28.822  1.00  0.00     0.064 A 
ATOM     65  C   UNL A   1      39.752  26.784  28.765  1.00  0.00     0.173 A 
ATOM     66  C   UNL A   1      41.206  28.375  27.699  1.00  0.00     0.173 A 
ATOM     67  F   UNL A   1      39.029  26.372  29.818  1.00  0.00    -0.203 F 
ATOM     68  C   UNL A   1      39.842  25.957  27.649  1.00  0.00     0.198 A 
ATOM     69  C   UNL A   1      41.265  27.560  26.572  1.00  0.00     0.198 A 
ATOM     70  F   UNL A   1      41.891  29.528  27.699  1.00  0.00    -0.203 F 
ATOM     71  F   UNL A   1      39.221  24.769  27.648  1.00  0.00    -0.200 F 
ATOM     72  C   UNL A   1      40.594  26.346  26.553  1.00  0.00     0.200 A 
ATOM     73  F   UNL A   1      41.986  27.942  25.508  1.00  0.00    -0.200 F 
ATOM     74  F   UNL A   1      40.686  25.545  25.482  1.00  0.00    -0.200 F 
ENDBRANCH  50  64
BRANCH  51  75
ATOM     75  C   UNL A   1      39.631  33.842  36.883  1.00  0.00     0.064 A 
ATOM     76  C   UNL A   1      40.298  35.076  36.910  1.00  0.00     0.173 A 
ATOM     77  C   UNL A   1      38.862  33.490  38.001  1.00  0.00     0.173 A 
ATOM     78  F   UNL A   1      41.062  35.446  35.872  1.00  0.00    -0.203 F 
ATOM     79  C   UNL A   1      40.208  35.919  38.015  1.00  0.00     0.198 A 
ATOM     80  C   UNL A   1      38.756  34.345  39.097  1.00  0.00     0.198 A 
ATOM     81  F   UNL A   1      38.203  32.324  38.021  1.00  0.00    -0.203 F 
ATOM     82  F   UNL A   1      40.882  37.077  38.027  1.00  0.00    -0.200 F 
ATOM     83  C   UNL A   1      39.432  35.556  39.105  1.00  0.00     0.200 A 
ATOM     84  F   UNL A   1      37.994  33.996  40.144  1.00  0.00    -0.200 F 
ATOM     85  F   UNL A   1      39.339  36.370  40.165  1.00  0.00    -0.200 F 
ENDBRANCH  51  75
BRANCH  63  86
ATOM     86  C   UNL A   1      44.007  28.740  35.063  1.00  0.00     0.064 A 
ATOM     87  C   UNL A   1      45.296  29.274  34.922  1.00  0.00     0.173 A 
ATOM     88  C   UNL A   1      43.841  27.630  35.905  1.00  0.00     0.173 A 
ATOM     89  F   UNL A   1      45.507  30.325  34.114  1.00  0.00    -0.203 F 
ATOM     90  C   UNL A   1      46.380  28.707  35.586  1.00  0.00     0.198 A 
ATOM     91  C   UNL A   1      44.923  27.083  36.588  1.00  0.00     0.198 A 
ATOM     92  F   UNL A   1      42.627  27.086  36.075  1.00  0.00    -0.203 F 
ATOM     93  F   UNL A   1      47.610  29.207  35.405  1.00  0.00    -0.200 F 
ATOM     94  C   UNL A   1      46.192  27.617  36.423  1.00  0.00     0.200 A 
ATOM     95  F   UNL A   1      44.738  26.037  37.405  1.00  0.00    -0.200 F 
ATOM     96  F   UNL A   1      47.236  27.077  37.067  1.00  0.00    -0.200 F 
ENDBRANCH  63  86
ENDBRANCH  37  38
ENDBRANCH  29  32
ENDBRANCH  27  28
ENDBRANCH  26  27
ENDBRANCH   1  26
TORSDOF 14
ENDMDL
MODEL 3
REMARK VINA RESULT:     -12.1      1.196      7.581
REMARK SMILES CC[NH2+][C@]1(C(=O)NCCCCNC(=O)c2ccc(-c3c4nc(c(-c5c(F)c(F)c(F)c(F)c5F)c5ccc([nH]5)c(-c5c(F)c(F)c(F)c(F)c5F)c5nc(c(-c6c(F)c(F)c(F)c(F)c6F)c6ccc3[nH]6)C=C5)C=C4)cc2)CC[C@@H]([N@H+]2C[C@@H](C)O[C@@H](C)C2)C1
REMARK SMILES IDX 9 1 8 2 7 3 5 4 6 5 4 7 78 8 89 9 79 10 80 11 3 12 2 15 1 16
REMARK SMILES IDX 81 17 82 18 88 19 83 21 86 22 84 23 85 24 87 25 10 26 11 27
REMARK SMILES IDX 12 28 13 29 14 31 15 32 16 33 77 34 17 35 76 36 18 37 19 38
REMARK SMILES IDX 20 39 70 40 21 41 75 42 69 43 71 44 22 45 74 46 68 47 67 48
REMARK SMILES IDX 23 50 55 51 35 52 54 53 36 54 39 55 53 56 72 57 37 58 38 59
REMARK SMILES IDX 52 61 73 62 40 63 24 64 25 65 33 66 26 67 27 68 31 69 34 70
REMARK SMILES IDX 28 71 29 72 32 73 30 74 56 75 57 76 65 77 58 78 59 79 63 80
REMARK SMILES IDX 66 81 60 82 61 83 64 84 62 85 41 86 42 87 50 88 43 89 44 90
REMARK SMILES IDX 48 91 51 92 45 93 46 94 49 95 47 96
REMARK H PARENT 7 6 3 13 3 14 81 20 12 30 71 49 39 60
REMARK Flexibility Score: inf
ROOT
ATOM      1  C   UNL A   1      31.425  31.115  25.757  1.00  0.00     0.023 C 
ENDROOT
BRANCH   1   2
ATOM      2  C   UNL A   1      32.154  29.770  25.782  1.00  0.00     0.116 C 
BRANCH   2   3
ATOM      3  N   UNL A   1      33.157  29.702  24.734  1.00  0.00    -0.351 N 
ATOM      4  C   UNL A   1      33.246  28.967  23.589  1.00  0.00     0.281 C 
ATOM      5  O   UNL A   1      34.348  29.011  23.025  1.00  0.00    -0.268 OA
ATOM      6  H   UNL A   1      33.922  30.305  24.879  1.00  0.00     0.163 HD
BRANCH   4   7
ATOM      7  C   UNL A   1      32.042  28.216  22.921  1.00  0.00     0.181 C 
ATOM      8  C   UNL A   1      32.595  26.987  22.159  1.00  0.00     0.085 C 
ATOM      9  C   UNL A   1      31.061  27.525  23.883  1.00  0.00     0.144 C 
ATOM     10  C   UNL A   1      31.403  26.069  21.947  1.00  0.00     0.072 C 
ATOM     11  C   UNL A   1      30.544  26.243  23.208  1.00  0.00     0.191 C 
BRANCH   7  12
ATOM     12  N   UNL A   1      31.259  29.163  22.078  1.00  0.00    -0.334 N 
ATOM     13  H   UNL A   1      31.843  29.976  21.888  1.00  0.00     0.347 HD
ATOM     14  H   UNL A   1      30.999  28.652  21.234  1.00  0.00     0.347 HD
BRANCH  12  15
ATOM     15  C   UNL A   1      30.010  29.628  22.686  1.00  0.00     0.257 C 
ATOM     16  C   UNL A   1      29.197  30.418  21.670  1.00  0.00     0.071 C 
ENDBRANCH  12  15
ENDBRANCH   7  12
BRANCH  11  17
ATOM     17  N   UNL A   1      30.419  25.032  24.042  1.00  0.00    -0.328 N 
ATOM     18  C   UNL A   1      30.772  23.743  23.440  1.00  0.00     0.294 C 
ATOM     19  C   UNL A   1      31.028  25.155  25.372  1.00  0.00     0.294 C 
ATOM     20  H   UNL A   1      29.404  24.998  24.137  1.00  0.00     0.348 HD
ATOM     21  C   UNL A   1      32.240  23.266  23.579  1.00  0.00     0.170 C 
ATOM     22  C   UNL A   1      32.476  24.623  25.539  1.00  0.00     0.170 C 
ATOM     23  C   UNL A   1      32.871  23.053  22.204  1.00  0.00     0.045 C 
ATOM     24  O   UNL A   1      33.067  24.176  24.315  1.00  0.00    -0.364 OA
ATOM     25  C   UNL A   1      33.380  25.709  26.117  1.00  0.00     0.045 C 
ENDBRANCH  11  17
ENDBRANCH   4   7
ENDBRANCH   2   3
ENDBRANCH   1   2
BRANCH   1  26
ATOM     26  C   UNL A   1      31.431  31.905  27.062  1.00  0.00     0.023 C 
BRANCH  26  27
ATOM     27  C   UNL A   1      32.653  32.793  27.250  1.00  0.00     0.116 C 
BRANCH  27  28
ATOM     28  N   UNL A   1      32.338  34.177  27.581  1.00  0.00    -0.352 N 
ATOM     29  C   UNL A   1      32.958  35.004  28.491  1.00  0.00     0.251 C 
ATOM     30  H   UNL A   1      31.584  34.574  27.089  1.00  0.00     0.163 HD
ATOM     31  O   UNL A   1      32.536  36.138  28.698  1.00  0.00    -0.269 OA
BRANCH  29  32
ATOM     32  C   UNL A   1      34.108  34.490  29.265  1.00  0.00     0.039 A 
ATOM     33  C   UNL A   1      33.868  33.797  30.454  1.00  0.00     0.014 A 
ATOM     34  C   UNL A   1      35.409  34.619  28.776  1.00  0.00     0.014 A 
ATOM     35  C   UNL A   1      34.924  33.150  31.101  1.00  0.00     0.010 A 
ATOM     36  C   UNL A   1      36.438  33.895  29.363  1.00  0.00     0.010 A 
ATOM     37  C   UNL A   1      36.206  33.152  30.530  1.00  0.00    -0.014 A 
BRANCH  37  38
ATOM     38  C   UNL A   1      37.328  32.387  31.129  1.00  0.00     0.031 A 
ATOM     39  C   UNL A   1      37.821  32.736  32.504  1.00  0.00     0.074 A 
ATOM     40  C   UNL A   1      37.963  31.447  30.402  1.00  0.00     0.049 A 
ATOM     41  N   UNL A   1      38.847  32.263  33.165  1.00  0.00    -0.248 NA
ATOM     42  C   UNL A   1      37.083  33.791  33.217  1.00  0.00     0.031 C 
ATOM     43  C   UNL A   1      37.618  31.056  29.034  1.00  0.00     0.029 A 
ATOM     44  N   UNL A   1      39.040  30.654  30.712  1.00  0.00    -0.354 N 
ATOM     45  C   UNL A   1      38.895  32.983  34.351  1.00  0.00     0.074 A 
ATOM     46  C   UNL A   1      37.834  33.965  34.293  1.00  0.00     0.031 C 
ATOM     47  C   UNL A   1      38.439  30.071  28.638  1.00  0.00     0.029 A 
ATOM     48  C   UNL A   1      39.392  29.787  29.707  1.00  0.00     0.049 A 
ATOM     49  H   UNL A   1      39.514  30.702  31.573  1.00  0.00     0.167 HD
ATOM     50  C   UNL A   1      39.727  32.822  35.406  1.00  0.00     0.037 A 
ATOM     51  C   UNL A   1      40.370  28.863  29.660  1.00  0.00     0.037 A 
ATOM     52  C   UNL A   1      40.752  31.815  35.477  1.00  0.00     0.049 A 
ATOM     53  C   UNL A   1      41.278  28.694  30.847  1.00  0.00     0.074 A 
ATOM     54  C   UNL A   1      41.596  31.512  36.530  1.00  0.00     0.029 A 
ATOM     55  N   UNL A   1      41.069  30.942  34.444  1.00  0.00    -0.354 N 
ATOM     56  N   UNL A   1      41.269  29.330  31.992  1.00  0.00    -0.248 NA
ATOM     57  C   UNL A   1      42.330  27.675  30.732  1.00  0.00     0.031 C 
ATOM     58  C   UNL A   1      42.450  30.480  36.121  1.00  0.00     0.029 A 
ATOM     59  C   UNL A   1      42.110  30.113  34.828  1.00  0.00     0.049 A 
ATOM     60  H   UNL A   1      40.619  30.916  33.569  1.00  0.00     0.167 HD
ATOM     61  C   UNL A   1      42.291  28.771  32.747  1.00  0.00     0.074 A 
ATOM     62  C   UNL A   1      42.895  27.738  31.930  1.00  0.00     0.031 C 
ATOM     63  C   UNL A   1      42.692  29.084  34.004  1.00  0.00     0.037 A 
BRANCH  50  64
ATOM     64  C   UNL A   1      39.553  33.759  36.566  1.00  0.00     0.064 A 
ATOM     65  C   UNL A   1      40.186  35.012  36.602  1.00  0.00     0.173 A 
ATOM     66  C   UNL A   1      38.759  33.395  37.663  1.00  0.00     0.173 A 
ATOM     67  F   UNL A   1      40.969  35.403  35.585  1.00  0.00    -0.203 F 
ATOM     68  C   UNL A   1      40.068  35.842  37.713  1.00  0.00     0.198 A 
ATOM     69  C   UNL A   1      38.616  34.244  38.757  1.00  0.00     0.198 A 
ATOM     70  F   UNL A   1      38.127  32.211  37.678  1.00  0.00    -0.203 F 
ATOM     71  F   UNL A   1      40.741  37.001  37.754  1.00  0.00    -0.200 F 
ATOM     72  C   UNL A   1      39.281  35.460  38.788  1.00  0.00     0.200 A 
ATOM     73  F   UNL A   1      37.847  33.877  39.792  1.00  0.00    -0.200 F 
ATOM     74  F   UNL A   1      39.176  36.257  39.860  1.00  0.00    -0.200 F 
ENDBRANCH  50  64
BRANCH  51  75
ATOM     75  C   UNL A   1      40.501  27.986  28.468  1.00  0.00     0.064 A 
ATOM     76  C   UNL A   1      41.268  28.397  27.368  1.00  0.00     0.173 A 
ATOM     77  C   UNL A   1      39.889  26.727  28.405  1.00  0.00     0.173 A 
ATOM     78  F   UNL A   1      41.855  29.603  27.375  1.00  0.00    -0.203 F 
ATOM     79  C   UNL A   1      41.408  27.586  26.245  1.00  0.00     0.198 A 
ATOM     80  C   UNL A   1      40.048  25.908  27.289  1.00  0.00     0.198 A 
ATOM     81  F   UNL A   1      39.149  26.288  29.433  1.00  0.00    -0.203 F 
ATOM     82  F   UNL A   1      42.119  28.017  25.195  1.00  0.00    -0.200 F 
ATOM     83  C   UNL A   1      40.803  26.339  26.208  1.00  0.00     0.200 A 
ATOM     84  F   UNL A   1      39.472  24.697  27.262  1.00  0.00    -0.200 F 
ATOM     85  F   UNL A   1      40.944  25.555  25.131  1.00  0.00    -0.200 F 
ENDBRANCH  51  75
BRANCH  63  86
ATOM     86  C   UNL A   1      43.812  28.276  34.588  1.00  0.00     0.064 A 
ATOM     87  C   UNL A   1      45.145  28.707  34.514  1.00  0.00     0.173 A 
ATOM     88  C   UNL A   1      43.543  27.077  35.264  1.00  0.00     0.173 A 
ATOM     89  F   UNL A   1      45.453  29.839  33.863  1.00  0.00    -0.203 F 
ATOM     90  C   UNL A   1      46.170  27.955  35.081  1.00  0.00     0.198 A 
ATOM     91  C   UNL A   1      44.568  26.342  35.852  1.00  0.00     0.198 A 
ATOM     92  F   UNL A   1      42.284  26.625  35.364  1.00  0.00    -0.203 F 
ATOM     93  F   UNL A   1      47.441  28.364  34.964  1.00  0.00    -0.200 F 
ATOM     94  C   UNL A   1      45.881  26.778  35.755  1.00  0.00     0.200 A 
ATOM     95  F   UNL A   1      44.285  25.211  36.512  1.00  0.00    -0.200 F 
ATOM     96  F   UNL A   1      46.868  26.060  36.306  1.00  0.00    -0.200 F 
ENDBRANCH  63  86
ENDBRANCH  37  38
ENDBRANCH  29  32
ENDBRANCH  27  28
ENDBRANCH  26  27
ENDBRANCH   1  26
TORSDOF 14
ENDMDL
