MODEL 1
REMARK VINA RESULT:     -11.8      0.000      0.000
REMARK SMILES CC[NH2+][C@]1(C(=O)NCCCCNC(=O)c2ccc(-c3c4nc(c(-c5c(F)c(F)c(F)c(F)c5F)c5ccc([nH]5)c(-c5c(F)c(F)c(F)c(F)c5F)c5nc(c(-c6c(F)c(F)c(F)c(F)c6F)c6ccc3[nH]6)C=C5)C=C4)cc2)CCC[C@H]1CCSc1ccc(Cl)cc1
REMARK SMILES IDX 8 1 7 2 5 3 6 4 4 6 78 7 81 8 79 9 80 10 3 11 2 14 1 15
REMARK SMILES IDX 82 16 83 17 84 18 85 19 86 20 91 21 87 22 90 23 88 24 89 25
REMARK SMILES IDX 9 26 10 27 11 28 12 29 13 30 14 32 15 33 16 34 77 35 17 36
REMARK SMILES IDX 76 37 18 38 19 39 20 40 70 41 21 42 75 43 69 44 71 45 22 46
REMARK SMILES IDX 74 47 68 48 67 49 23 51 55 52 35 53 54 54 36 55 39 56 53 57
REMARK SMILES IDX 72 58 37 59 38 60 52 62 73 63 40 64 24 65 25 66 33 67 26 68
REMARK SMILES IDX 27 69 31 70 34 71 28 72 29 73 32 74 30 75 56 76 57 77 65 78
REMARK SMILES IDX 58 79 59 80 63 81 66 82 60 83 61 84 64 85 62 86 41 87 42 88
REMARK SMILES IDX 50 89 43 90 44 91 48 92 51 93 45 94 46 95 49 96 47 97
REMARK H PARENT 7 5 3 12 3 13 12 31 71 50 39 61
REMARK Flexibility Score: inf
ROOT
ATOM      1  C   UNL A   1      35.419  24.227  25.448  1.00  0.00     0.116 C 
ENDROOT
BRANCH   1   2
ATOM      2  N   UNL A   1      34.856  24.527  24.155  1.00  0.00    -0.351 N 
ATOM      3  C   UNL A   1      33.720  25.147  23.753  1.00  0.00     0.281 C 
ATOM      4  O   UNL A   1      33.632  25.245  22.519  1.00  0.00    -0.268 OA
ATOM      5  H   UNL A   1      35.415  24.215  23.407  1.00  0.00     0.163 HD
BRANCH   3   6
ATOM      6  C   UNL A   1      32.607  25.761  24.691  1.00  0.00     0.178 C 
ATOM      7  C   UNL A   1      31.754  26.676  23.748  1.00  0.00     0.079 C 
ATOM      8  C   UNL A   1      31.456  24.890  25.298  1.00  0.00     0.061 C 
ATOM      9  C   UNL A   1      30.455  26.984  24.480  1.00  0.00     0.008 C 
ATOM     10  C   UNL A   1      30.329  25.919  25.560  1.00  0.00     0.011 C 
BRANCH   6  11
ATOM     11  N   UNL A   1      33.255  26.701  25.668  1.00  0.00    -0.334 N 
ATOM     12  H   UNL A   1      32.523  27.040  26.293  1.00  0.00     0.347 HD
ATOM     13  H   UNL A   1      33.990  26.146  26.106  1.00  0.00     0.347 HD
BRANCH  11  14
ATOM     14  C   UNL A   1      33.947  27.870  25.139  1.00  0.00     0.257 C 
ATOM     15  C   UNL A   1      33.870  29.029  26.125  1.00  0.00     0.071 C 
ENDBRANCH  11  14
ENDBRANCH   6  11
BRANCH   8  16
ATOM     16  C   UNL A   1      30.886  23.735  24.446  1.00  0.00     0.022 C 
BRANCH  16  17
ATOM     17  C   UNL A   1      31.479  22.364  24.782  1.00  0.00     0.075 C 
BRANCH  17  18
ATOM     18  S   UNL A   1      32.446  21.452  23.509  1.00  0.00    -0.126 SA
BRANCH  18  19
ATOM     19  C   UNL A   1      32.579  19.760  24.070  1.00  0.00     0.007 A 
ATOM     20  C   UNL A   1      32.539  18.760  23.093  1.00  0.00     0.016 A 
ATOM     21  C   UNL A   1      32.811  19.370  25.393  1.00  0.00     0.016 A 
ATOM     22  C   UNL A   1      32.652  17.407  23.435  1.00  0.00     0.021 A 
ATOM     23  C   UNL A   1      32.904  18.016  25.751  1.00  0.00     0.021 A 
ATOM     24  C   UNL A   1      32.814  17.039  24.766  1.00  0.00     0.041 A 
ATOM     25  Cl  UNL A   1      32.904  15.375  25.192  1.00  0.00    -0.084 Cl
ENDBRANCH  18  19
ENDBRANCH  17  18
ENDBRANCH  16  17
ENDBRANCH   8  16
ENDBRANCH   3   6
ENDBRANCH   1   2
BRANCH   1  26
ATOM     26  C   UNL A   1      34.935  22.855  25.954  1.00  0.00     0.023 C 
BRANCH  26  27
ATOM     27  C   UNL A   1      35.776  21.656  25.565  1.00  0.00     0.023 C 
BRANCH  27  28
ATOM     28  C   UNL A   1      37.153  21.997  25.018  1.00  0.00     0.116 C 
BRANCH  28  29
ATOM     29  N   UNL A   1      38.202  21.020  25.303  1.00  0.00    -0.352 N 
ATOM     30  C   UNL A   1      39.304  21.117  26.125  1.00  0.00     0.251 C 
ATOM     31  H   UNL A   1      38.106  20.159  24.834  1.00  0.00     0.163 HD
ATOM     32  O   UNL A   1      40.058  20.158  26.268  1.00  0.00    -0.269 OA
BRANCH  30  33
ATOM     33  C   UNL A   1      39.624  22.410  26.757  1.00  0.00     0.039 A 
ATOM     34  C   UNL A   1      40.710  22.478  27.632  1.00  0.00     0.014 A 
ATOM     35  C   UNL A   1      38.957  23.569  26.372  1.00  0.00     0.014 A 
ATOM     36  C   UNL A   1      41.210  23.725  28.009  1.00  0.00     0.010 A 
ATOM     37  C   UNL A   1      39.548  24.799  26.618  1.00  0.00     0.010 A 
ATOM     38  C   UNL A   1      40.680  24.895  27.442  1.00  0.00    -0.014 A 
BRANCH  38  39
ATOM     39  C   UNL A   1      41.271  26.233  27.705  1.00  0.00     0.031 A 
ATOM     40  C   UNL A   1      42.663  26.535  27.222  1.00  0.00     0.074 A 
ATOM     41  C   UNL A   1      40.605  27.136  28.454  1.00  0.00     0.049 A 
ATOM     42  N   UNL A   1      43.415  27.582  27.451  1.00  0.00    -0.248 NA
ATOM     43  C   UNL A   1      43.325  25.492  26.419  1.00  0.00     0.031 C 
ATOM     44  C   UNL A   1      39.286  26.939  29.059  1.00  0.00     0.029 A 
ATOM     45  N   UNL A   1      40.955  28.407  28.841  1.00  0.00    -0.354 N 
ATOM     46  C   UNL A   1      44.640  27.298  26.864  1.00  0.00     0.074 A 
ATOM     47  C   UNL A   1      44.562  25.955  26.339  1.00  0.00     0.031 C 
ATOM     48  C   UNL A   1      38.919  28.061  29.699  1.00  0.00     0.029 A 
ATOM     49  C   UNL A   1      39.990  29.046  29.581  1.00  0.00     0.049 A 
ATOM     50  H   UNL A   1      41.817  28.820  28.609  1.00  0.00     0.167 HD
ATOM     51  C   UNL A   1      45.724  28.100  26.733  1.00  0.00     0.037 A 
ATOM     52  C   UNL A   1      39.971  30.289  30.097  1.00  0.00     0.037 A 
ATOM     53  C   UNL A   1      45.771  29.462  27.185  1.00  0.00     0.049 A 
ATOM     54  C   UNL A   1      41.155  31.191  29.867  1.00  0.00     0.074 A 
ATOM     55  C   UNL A   1      46.787  30.388  27.039  1.00  0.00     0.029 A 
ATOM     56  N   UNL A   1      44.739  30.101  27.859  1.00  0.00    -0.354 N 
ATOM     57  N   UNL A   1      42.283  30.935  29.252  1.00  0.00    -0.248 NA
ATOM     58  C   UNL A   1      41.054  32.561  30.390  1.00  0.00     0.031 C 
ATOM     59  C   UNL A   1      46.379  31.583  27.643  1.00  0.00     0.029 A 
ATOM     60  C   UNL A   1      45.093  31.411  28.129  1.00  0.00     0.049 A 
ATOM     61  H   UNL A   1      43.882  29.683  28.107  1.00  0.00     0.167 HD
ATOM     62  C   UNL A   1      43.010  32.118  29.280  1.00  0.00     0.074 A 
ATOM     63  C   UNL A   1      42.189  33.096  29.964  1.00  0.00     0.031 C 
ATOM     64  C   UNL A   1      44.246  32.373  28.787  1.00  0.00     0.037 A 
BRANCH  51  65
ATOM     65  C   UNL A   1      46.928  27.523  26.047  1.00  0.00     0.064 A 
ATOM     66  C   UNL A   1      47.956  26.896  26.769  1.00  0.00     0.173 A 
ATOM     67  C   UNL A   1      47.059  27.600  24.653  1.00  0.00     0.173 A 
ATOM     68  F   UNL A   1      47.888  26.813  28.107  1.00  0.00    -0.203 F 
ATOM     69  C   UNL A   1      49.090  26.406  26.126  1.00  0.00     0.198 A 
ATOM     70  C   UNL A   1      48.178  27.077  24.009  1.00  0.00     0.198 A 
ATOM     71  F   UNL A   1      46.106  28.185  23.914  1.00  0.00    -0.203 F 
ATOM     72  F   UNL A   1      50.088  25.876  26.845  1.00  0.00    -0.200 F 
ATOM     73  C   UNL A   1      49.197  26.491  24.747  1.00  0.00     0.200 A 
ATOM     74  F   UNL A   1      48.277  27.149  22.675  1.00  0.00    -0.200 F 
ATOM     75  F   UNL A   1      50.289  26.021  24.129  1.00  0.00    -0.200 F 
ENDBRANCH  51  65
BRANCH  52  76
ATOM     76  C   UNL A   1      38.771  30.781  30.824  1.00  0.00     0.064 A 
ATOM     77  C   UNL A   1      38.679  30.656  32.219  1.00  0.00     0.173 A 
ATOM     78  C   UNL A   1      37.693  31.370  30.151  1.00  0.00     0.173 A 
ATOM     79  F   UNL A   1      39.679  30.082  32.904  1.00  0.00    -0.203 F 
ATOM     80  C   UNL A   1      37.545  31.077  32.908  1.00  0.00     0.198 A 
ATOM     81  C   UNL A   1      36.568  31.815  30.845  1.00  0.00     0.198 A 
ATOM     82  F   UNL A   1      37.733  31.520  28.819  1.00  0.00    -0.203 F 
ATOM     83  F   UNL A   1      37.464  30.899  34.233  1.00  0.00    -0.200 F 
ATOM     84  C   UNL A   1      36.491  31.660  32.221  1.00  0.00     0.200 A 
ATOM     85  F   UNL A   1      35.556  32.389  30.179  1.00  0.00    -0.200 F 
ATOM     86  F   UNL A   1      35.399  32.063  32.883  1.00  0.00    -0.200 F 
ENDBRANCH  52  76
BRANCH  64  87
ATOM     87  C   UNL A   1      44.760  33.775  28.915  1.00  0.00     0.064 A 
ATOM     88  C   UNL A   1      44.519  34.744  27.931  1.00  0.00     0.173 A 
ATOM     89  C   UNL A   1      45.472  34.162  30.061  1.00  0.00     0.173 A 
ATOM     90  F   UNL A   1      43.855  34.418  26.812  1.00  0.00    -0.203 F 
ATOM     91  C   UNL A   1      44.997  36.042  28.076  1.00  0.00     0.198 A 
ATOM     92  C   UNL A   1      45.923  35.469  30.216  1.00  0.00     0.198 A 
ATOM     93  F   UNL A   1      45.720  33.274  31.035  1.00  0.00    -0.203 F 
ATOM     94  F   UNL A   1      44.798  36.940  27.100  1.00  0.00    -0.200 F 
ATOM     95  C   UNL A   1      45.692  36.406  29.220  1.00  0.00     0.200 A 
ATOM     96  F   UNL A   1      46.583  35.822  31.328  1.00  0.00    -0.200 F 
ATOM     97  F   UNL A   1      46.147  37.659  29.360  1.00  0.00    -0.200 F 
ENDBRANCH  64  87
ENDBRANCH  38  39
ENDBRANCH  30  33
ENDBRANCH  28  29
ENDBRANCH  27  28
ENDBRANCH  26  27
ENDBRANCH   1  26
TORSDOF 17
ENDMDL
MODEL 2
REMARK VINA RESULT:     -11.6      5.025      8.389
REMARK SMILES CC[NH2+][C@]1(C(=O)NCCCCNC(=O)c2ccc(-c3c4nc(c(-c5c(F)c(F)c(F)c(F)c5F)c5ccc([nH]5)c(-c5c(F)c(F)c(F)c(F)c5F)c5nc(c(-c6c(F)c(F)c(F)c(F)c6F)c6ccc3[nH]6)C=C5)C=C4)cc2)CCC[C@H]1CCSc1ccc(Cl)cc1
REMARK SMILES IDX 8 1 7 2 5 3 6 4 4 6 78 7 81 8 79 9 80 10 3 11 2 14 1 15
REMARK SMILES IDX 82 16 83 17 84 18 85 19 86 20 91 21 87 22 90 23 88 24 89 25
REMARK SMILES IDX 9 26 10 27 11 28 12 29 13 30 14 32 15 33 16 34 77 35 17 36
REMARK SMILES IDX 76 37 18 38 19 39 20 40 70 41 21 42 75 43 69 44 71 45 22 46
REMARK SMILES IDX 74 47 68 48 67 49 23 51 55 52 35 53 54 54 36 55 39 56 53 57
REMARK SMILES IDX 72 58 37 59 38 60 52 62 73 63 40 64 24 65 25 66 33 67 26 68
REMARK SMILES IDX 27 69 31 70 34 71 28 72 29 73 32 74 30 75 56 76 57 77 65 78
REMARK SMILES IDX 58 79 59 80 63 81 66 82 60 83 61 84 64 85 62 86 41 87 42 88
REMARK SMILES IDX 50 89 43 90 44 91 48 92 51 93 45 94 46 95 49 96 47 97
REMARK H PARENT 7 5 3 12 3 13 12 31 71 50 39 61
REMARK Flexibility Score: inf
ROOT
ATOM      1  C   UNL A   1      32.175  29.213  25.647  1.00  0.00     0.116 C 
ENDROOT
BRANCH   1   2
ATOM      2  N   UNL A   1      33.181  29.273  24.616  1.00  0.00    -0.351 N 
ATOM      3  C   UNL A   1      33.364  28.604  23.451  1.00  0.00     0.281 C 
ATOM      4  O   UNL A   1      34.354  28.999  22.816  1.00  0.00    -0.268 OA
ATOM      5  H   UNL A   1      33.883  29.939  24.798  1.00  0.00     0.163 HD
BRANCH   3   6
ATOM      6  C   UNL A   1      32.430  27.474  22.864  1.00  0.00     0.178 C 
ATOM      7  C   UNL A   1      33.279  26.805  21.731  1.00  0.00     0.079 C 
ATOM      8  C   UNL A   1      32.056  26.193  23.683  1.00  0.00     0.061 C 
ATOM      9  C   UNL A   1      32.610  25.480  21.395  1.00  0.00     0.008 C 
ATOM     10  C   UNL A   1      31.723  25.152  22.587  1.00  0.00     0.011 C 
BRANCH   6  11
ATOM     11  N   UNL A   1      31.271  28.117  22.156  1.00  0.00    -0.334 N 
ATOM     12  H   UNL A   1      31.545  29.074  21.934  1.00  0.00     0.347 HD
ATOM     13  H   UNL A   1      31.092  27.511  21.356  1.00  0.00     0.347 HD
BRANCH  11  14
ATOM     14  C   UNL A   1      29.992  28.185  22.854  1.00  0.00     0.257 C 
ATOM     15  C   UNL A   1      29.598  29.635  23.108  1.00  0.00     0.071 C 
ENDBRANCH  11  14
ENDBRANCH   6  11
BRANCH   8  16
ATOM     16  C   UNL A   1      33.120  25.595  24.630  1.00  0.00     0.022 C 
BRANCH  16  17
ATOM     17  C   UNL A   1      32.691  24.289  25.301  1.00  0.00     0.075 C 
BRANCH  17  18
ATOM     18  S   UNL A   1      33.315  22.683  24.653  1.00  0.00    -0.126 SA
BRANCH  18  19
ATOM     19  C   UNL A   1      35.047  22.586  25.086  1.00  0.00     0.007 A 
ATOM     20  C   UNL A   1      35.678  21.350  24.913  1.00  0.00     0.016 A 
ATOM     21  C   UNL A   1      35.834  23.668  25.493  1.00  0.00     0.016 A 
ATOM     22  C   UNL A   1      37.036  21.182  25.210  1.00  0.00     0.021 A 
ATOM     23  C   UNL A   1      37.190  23.507  25.814  1.00  0.00     0.021 A 
ATOM     24  C   UNL A   1      37.783  22.256  25.679  1.00  0.00     0.041 A 
ATOM     25  Cl  UNL A   1      39.439  22.038  26.090  1.00  0.00    -0.084 Cl
ENDBRANCH  18  19
ENDBRANCH  17  18
ENDBRANCH  16  17
ENDBRANCH   8  16
ENDBRANCH   3   6
ENDBRANCH   1   2
BRANCH   1  26
ATOM     26  C   UNL A   1      32.587  30.059  26.867  1.00  0.00     0.023 C 
BRANCH  26  27
ATOM     27  C   UNL A   1      32.096  31.492  26.894  1.00  0.00     0.023 C 
BRANCH  27  28
ATOM     28  C   UNL A   1      33.073  32.486  27.501  1.00  0.00     0.116 C 
BRANCH  28  29
ATOM     29  N   UNL A   1      32.538  33.824  27.745  1.00  0.00    -0.352 N 
ATOM     30  C   UNL A   1      33.028  34.844  28.531  1.00  0.00     0.251 C 
ATOM     31  H   UNL A   1      31.698  34.027  27.275  1.00  0.00     0.163 HD
ATOM     32  O   UNL A   1      32.450  35.926  28.575  1.00  0.00    -0.269 OA
BRANCH  30  33
ATOM     33  C   UNL A   1      34.198  34.595  29.395  1.00  0.00     0.039 A 
ATOM     34  C   UNL A   1      33.984  34.195  30.715  1.00  0.00     0.014 A 
ATOM     35  C   UNL A   1      35.484  34.609  28.863  1.00  0.00     0.014 A 
ATOM     36  C   UNL A   1      35.047  33.675  31.454  1.00  0.00     0.010 A 
ATOM     37  C   UNL A   1      36.499  33.951  29.539  1.00  0.00     0.010 A 
ATOM     38  C   UNL A   1      36.297  33.478  30.845  1.00  0.00    -0.014 A 
BRANCH  38  39
ATOM     39  C   UNL A   1      37.417  32.801  31.550  1.00  0.00     0.031 A 
ATOM     40  C   UNL A   1      38.119  31.648  30.887  1.00  0.00     0.074 A 
ATOM     41  C   UNL A   1      37.738  33.152  32.812  1.00  0.00     0.049 A 
ATOM     42  N   UNL A   1      39.027  30.838  31.369  1.00  0.00    -0.248 NA
ATOM     43  C   UNL A   1      37.702  31.322  29.512  1.00  0.00     0.031 C 
ATOM     44  C   UNL A   1      37.079  34.193  33.604  1.00  0.00     0.029 A 
ATOM     45  N   UNL A   1      38.704  32.662  33.657  1.00  0.00    -0.354 N 
ATOM     46  C   UNL A   1      39.248  29.891  30.379  1.00  0.00     0.074 A 
ATOM     47  C   UNL A   1      38.326  30.174  29.304  1.00  0.00     0.031 C 
ATOM     48  C   UNL A   1      37.687  34.295  34.797  1.00  0.00     0.029 A 
ATOM     49  C   UNL A   1      38.756  33.303  34.870  1.00  0.00     0.049 A 
ATOM     50  H   UNL A   1      39.302  31.919  33.414  1.00  0.00     0.167 HD
ATOM     51  C   UNL A   1      40.167  28.897  30.346  1.00  0.00     0.037 A 
ATOM     52  C   UNL A   1      39.580  33.117  35.917  1.00  0.00     0.037 A 
ATOM     53  C   UNL A   1      41.135  28.666  31.382  1.00  0.00     0.049 A 
ATOM     54  C   UNL A   1      40.649  32.060  35.824  1.00  0.00     0.074 A 
ATOM     55  C   UNL A   1      42.159  27.738  31.419  1.00  0.00     0.029 A 
ATOM     56  N   UNL A   1      41.209  29.394  32.561  1.00  0.00    -0.354 N 
ATOM     57  N   UNL A   1      40.892  31.213  34.855  1.00  0.00    -0.248 NA
ATOM     58  C   UNL A   1      41.567  31.945  36.967  1.00  0.00     0.031 C 
ATOM     59  C   UNL A   1      42.840  27.889  32.632  1.00  0.00     0.029 A 
ATOM     60  C   UNL A   1      42.265  28.938  33.330  1.00  0.00     0.049 A 
ATOM     61  H   UNL A   1      40.600  30.126  32.813  1.00  0.00     0.167 HD
ATOM     62  C   UNL A   1      42.011  30.491  35.250  1.00  0.00     0.074 A 
ATOM     63  C   UNL A   1      42.404  31.008  36.545  1.00  0.00     0.031 C 
ATOM     64  C   UNL A   1      42.654  29.489  34.603  1.00  0.00     0.037 A 
BRANCH  51  65
ATOM     65  C   UNL A   1      40.178  28.010  29.135  1.00  0.00     0.064 A 
ATOM     66  C   UNL A   1      39.495  26.783  29.114  1.00  0.00     0.173 A 
ATOM     67  C   UNL A   1      40.882  28.387  27.982  1.00  0.00     0.173 A 
ATOM     68  F   UNL A   1      38.823  26.367  30.199  1.00  0.00    -0.203 F 
ATOM     69  C   UNL A   1      39.552  25.948  28.002  1.00  0.00     0.198 A 
ATOM     70  C   UNL A   1      40.907  27.565  26.857  1.00  0.00     0.198 A 
ATOM     71  F   UNL A   1      41.549  29.550  27.945  1.00  0.00    -0.203 F 
ATOM     72  F   UNL A   1      38.950  24.751  28.035  1.00  0.00    -0.200 F 
ATOM     73  C   UNL A   1      40.252  26.343  26.872  1.00  0.00     0.200 A 
ATOM     74  F   UNL A   1      41.574  27.951  25.761  1.00  0.00    -0.200 F 
ATOM     75  F   UNL A   1      40.307  25.538  25.803  1.00  0.00    -0.200 F 
ENDBRANCH  51  65
BRANCH  52  76
ATOM     76  C   UNL A   1      39.477  33.988  37.118  1.00  0.00     0.064 A 
ATOM     77  C   UNL A   1      38.783  33.555  38.258  1.00  0.00     0.173 A 
ATOM     78  C   UNL A   1      40.051  35.266  37.153  1.00  0.00     0.173 A 
ATOM     79  F   UNL A   1      38.201  32.346  38.265  1.00  0.00    -0.203 F 
ATOM     80  C   UNL A   1      38.644  34.375  39.374  1.00  0.00     0.198 A 
ATOM     81  C   UNL A   1      39.934  36.076  38.281  1.00  0.00     0.198 A 
ATOM     82  F   UNL A   1      40.732  35.725  36.093  1.00  0.00    -0.203 F 
ATOM     83  F   UNL A   1      37.933  33.954  40.429  1.00  0.00    -0.200 F 
ATOM     84  C   UNL A   1      39.223  35.635  39.387  1.00  0.00     0.200 A 
ATOM     85  F   UNL A   1      40.505  37.289  38.295  1.00  0.00    -0.200 F 
ATOM     86  F   UNL A   1      39.089  36.425  40.460  1.00  0.00    -0.200 F 
ENDBRANCH  52  76
BRANCH  64  87
ATOM     87  C   UNL A   1      43.882  28.929  35.254  1.00  0.00     0.064 A 
ATOM     88  C   UNL A   1      43.813  27.876  36.178  1.00  0.00     0.173 A 
ATOM     89  C   UNL A   1      45.149  29.429  34.918  1.00  0.00     0.173 A 
ATOM     90  F   UNL A   1      42.624  27.373  36.542  1.00  0.00    -0.203 F 
ATOM     91  C   UNL A   1      44.967  27.364  36.764  1.00  0.00     0.198 A 
ATOM     92  C   UNL A   1      46.303  28.895  35.482  1.00  0.00     0.198 A 
ATOM     93  F   UNL A   1      45.268  30.429  34.032  1.00  0.00    -0.203 F 
ATOM     94  F   UNL A   1      44.875  26.391  37.681  1.00  0.00    -0.200 F 
ATOM     95  C   UNL A   1      46.211  27.869  36.411  1.00  0.00     0.200 A 
ATOM     96  F   UNL A   1      47.504  29.375  35.131  1.00  0.00    -0.200 F 
ATOM     97  F   UNL A   1      47.321  27.371  36.972  1.00  0.00    -0.200 F 
ENDBRANCH  64  87
ENDBRANCH  38  39
ENDBRANCH  30  33
ENDBRANCH  28  29
ENDBRANCH  27  28
ENDBRANCH  26  27
ENDBRANCH   1  26
TORSDOF 17
ENDMDL
MODEL 3
REMARK VINA RESULT:     -11.5      4.829     10.097
REMARK SMILES CC[NH2+][C@]1(C(=O)NCCCCNC(=O)c2ccc(-c3c4nc(c(-c5c(F)c(F)c(F)c(F)c5F)c5ccc([nH]5)c(-c5c(F)c(F)c(F)c(F)c5F)c5nc(c(-c6c(F)c(F)c(F)c(F)c6F)c6ccc3[nH]6)C=C5)C=C4)cc2)CCC[C@H]1CCSc1ccc(Cl)cc1
REMARK SMILES IDX 8 1 7 2 5 3 6 4 4 6 78 7 81 8 79 9 80 10 3 11 2 14 1 15
REMARK SMILES IDX 82 16 83 17 84 18 85 19 86 20 91 21 87 22 90 23 88 24 89 25
REMARK SMILES IDX 9 26 10 27 11 28 12 29 13 30 14 32 15 33 16 34 77 35 17 36
REMARK SMILES IDX 76 37 18 38 19 39 20 40 70 41 21 42 75 43 69 44 71 45 22 46
REMARK SMILES IDX 74 47 68 48 67 49 23 51 55 52 35 53 54 54 36 55 39 56 53 57
REMARK SMILES IDX 72 58 37 59 38 60 52 62 73 63 40 64 24 65 25 66 33 67 26 68
REMARK SMILES IDX 27 69 31 70 34 71 28 72 29 73 32 74 30 75 56 76 57 77 65 78
REMARK SMILES IDX 58 79 59 80 63 81 66 82 60 83 61 84 64 85 62 86 41 87 42 88
REMARK SMILES IDX 50 89 43 90 44 91 48 92 51 93 45 94 46 95 49 96 47 97
REMARK H PARENT 7 5 3 12 3 13 12 31 71 50 39 61
REMARK Flexibility Score: inf
ROOT
ATOM      1  C   UNL A   1      31.949  29.497  25.597  1.00  0.00     0.116 C 
ENDROOT
BRANCH   1   2
ATOM      2  N   UNL A   1      33.071  29.484  24.692  1.00  0.00    -0.351 N 
ATOM      3  C   UNL A   1      33.342  28.804  23.552  1.00  0.00     0.281 C 
ATOM      4  O   UNL A   1      34.426  29.128  23.040  1.00  0.00    -0.268 OA
ATOM      5  H   UNL A   1      33.792  30.098  24.961  1.00  0.00     0.163 HD
BRANCH   3   6
ATOM      6  C   UNL A   1      32.406  27.743  22.849  1.00  0.00     0.178 C 
ATOM      7  C   UNL A   1      33.304  27.090  21.745  1.00  0.00     0.079 C 
ATOM      8  C   UNL A   1      31.927  26.443  23.579  1.00  0.00     0.061 C 
ATOM      9  C   UNL A   1      32.608  25.812  21.300  1.00  0.00     0.008 C 
ATOM     10  C   UNL A   1      31.628  25.469  22.413  1.00  0.00     0.011 C 
BRANCH   6  11
ATOM     11  N   UNL A   1      31.325  28.467  22.098  1.00  0.00    -0.334 N 
ATOM     12  H   UNL A   1      31.673  29.404  21.894  1.00  0.00     0.347 HD
ATOM     13  H   UNL A   1      31.140  27.878  21.287  1.00  0.00     0.347 HD
BRANCH  11  14
ATOM     14  C   UNL A   1      30.026  28.620  22.742  1.00  0.00     0.257 C 
ATOM     15  C   UNL A   1      29.201  29.688  22.035  1.00  0.00     0.071 C 
ENDBRANCH  11  14
ENDBRANCH   6  11
BRANCH   8  16
ATOM     16  C   UNL A   1      32.898  25.758  24.564  1.00  0.00     0.022 C 
BRANCH  16  17
ATOM     17  C   UNL A   1      32.408  24.402  25.079  1.00  0.00     0.075 C 
BRANCH  17  18
ATOM     18  S   UNL A   1      32.905  22.861  24.204  1.00  0.00    -0.126 SA
BRANCH  18  19
ATOM     19  C   UNL A   1      34.596  22.519  24.672  1.00  0.00     0.007 A 
ATOM     20  C   UNL A   1      35.521  23.556  24.517  1.00  0.00     0.016 A 
ATOM     21  C   UNL A   1      35.040  21.332  25.263  1.00  0.00     0.016 A 
ATOM     22  C   UNL A   1      36.865  23.387  24.872  1.00  0.00     0.021 A 
ATOM     23  C   UNL A   1      36.388  21.143  25.602  1.00  0.00     0.021 A 
ATOM     24  C   UNL A   1      37.298  22.174  25.394  1.00  0.00     0.041 A 
ATOM     25  Cl  UNL A   1      38.958  21.949  25.785  1.00  0.00    -0.084 Cl
ENDBRANCH  18  19
ENDBRANCH  17  18
ENDBRANCH  16  17
ENDBRANCH   8  16
ENDBRANCH   3   6
ENDBRANCH   1   2
BRANCH   1  26
ATOM     26  C   UNL A   1      32.274  30.307  26.866  1.00  0.00     0.023 C 
BRANCH  26  27
ATOM     27  C   UNL A   1      31.815  31.750  26.883  1.00  0.00     0.023 C 
BRANCH  27  28
ATOM     28  C   UNL A   1      32.890  32.754  27.265  1.00  0.00     0.116 C 
BRANCH  28  29
ATOM     29  N   UNL A   1      32.405  34.069  27.681  1.00  0.00    -0.352 N 
ATOM     30  C   UNL A   1      32.948  34.976  28.564  1.00  0.00     0.251 C 
ATOM     31  H   UNL A   1      31.557  34.349  27.264  1.00  0.00     0.163 HD
ATOM     32  O   UNL A   1      32.405  36.061  28.752  1.00  0.00    -0.269 OA
BRANCH  30  33
ATOM     33  C   UNL A   1      34.134  34.596  29.355  1.00  0.00     0.039 A 
ATOM     34  C   UNL A   1      33.945  34.015  30.610  1.00  0.00     0.014 A 
ATOM     35  C   UNL A   1      35.407  34.671  28.798  1.00  0.00     0.014 A 
ATOM     36  C   UNL A   1      35.017  33.385  31.242  1.00  0.00     0.010 A 
ATOM     37  C   UNL A   1      36.428  33.913  29.350  1.00  0.00     0.010 A 
ATOM     38  C   UNL A   1      36.250  33.263  30.581  1.00  0.00    -0.014 A 
BRANCH  38  39
ATOM     39  C   UNL A   1      37.376  32.481  31.156  1.00  0.00     0.031 A 
ATOM     40  C   UNL A   1      37.870  32.804  32.540  1.00  0.00     0.074 A 
ATOM     41  C   UNL A   1      38.013  31.557  30.410  1.00  0.00     0.049 A 
ATOM     42  N   UNL A   1      38.912  32.339  33.181  1.00  0.00    -0.248 NA
ATOM     43  C   UNL A   1      37.125  33.834  33.285  1.00  0.00     0.031 C 
ATOM     44  C   UNL A   1      37.694  31.207  29.024  1.00  0.00     0.029 A 
ATOM     45  N   UNL A   1      39.075  30.740  30.715  1.00  0.00    -0.354 N 
ATOM     46  C   UNL A   1      38.968  33.052  34.371  1.00  0.00     0.074 A 
ATOM     47  C   UNL A   1      37.909  34.032  34.332  1.00  0.00     0.031 C 
ATOM     48  C   UNL A   1      38.507  30.220  28.616  1.00  0.00     0.029 A 
ATOM     49  C   UNL A   1      39.430  29.889  29.697  1.00  0.00     0.049 A 
ATOM     50  H   UNL A   1      39.538  30.763  31.583  1.00  0.00     0.167 HD
ATOM     51  C   UNL A   1      39.800  32.878  35.425  1.00  0.00     0.037 A 
ATOM     52  C   UNL A   1      40.387  28.943  29.648  1.00  0.00     0.037 A 
ATOM     53  C   UNL A   1      40.801  31.851  35.494  1.00  0.00     0.049 A 
ATOM     54  C   UNL A   1      41.246  28.713  30.863  1.00  0.00     0.074 A 
ATOM     55  C   UNL A   1      41.647  31.535  36.541  1.00  0.00     0.029 A 
ATOM     56  N   UNL A   1      41.074  30.953  34.472  1.00  0.00    -0.354 N 
ATOM     57  N   UNL A   1      41.246  29.348  32.009  1.00  0.00    -0.248 NA
ATOM     58  C   UNL A   1      42.227  27.621  30.782  1.00  0.00     0.031 C 
ATOM     59  C   UNL A   1      42.449  30.459  36.145  1.00  0.00     0.029 A 
ATOM     60  C   UNL A   1      42.073  30.079  34.867  1.00  0.00     0.049 A 
ATOM     61  H   UNL A   1      40.624  30.939  33.596  1.00  0.00     0.167 HD
ATOM     62  C   UNL A   1      42.196  28.712  32.798  1.00  0.00     0.074 A 
ATOM     63  C   UNL A   1      42.745  27.634  32.002  1.00  0.00     0.031 C 
ATOM     64  C   UNL A   1      42.582  28.996  34.066  1.00  0.00     0.037 A 
BRANCH  51  65
ATOM     65  C   UNL A   1      39.633  33.806  36.593  1.00  0.00     0.064 A 
ATOM     66  C   UNL A   1      40.302  35.039  36.655  1.00  0.00     0.173 A 
ATOM     67  C   UNL A   1      38.799  33.459  37.666  1.00  0.00     0.173 A 
ATOM     68  F   UNL A   1      41.127  35.410  35.663  1.00  0.00    -0.203 F 
ATOM     69  C   UNL A   1      40.176  35.870  37.765  1.00  0.00     0.198 A 
ATOM     70  C   UNL A   1      38.648  34.309  38.759  1.00  0.00     0.198 A 
ATOM     71  F   UNL A   1      38.134  32.295  37.658  1.00  0.00    -0.203 F 
ATOM     72  F   UNL A   1      40.880  37.008  37.830  1.00  0.00    -0.200 F 
ATOM     73  C   UNL A   1      39.344  35.508  38.813  1.00  0.00     0.200 A 
ATOM     74  F   UNL A   1      37.835  33.964  39.767  1.00  0.00    -0.200 F 
ATOM     75  F   UNL A   1      39.225  36.307  39.881  1.00  0.00    -0.200 F 
ENDBRANCH  51  65
BRANCH  52  76
ATOM     76  C   UNL A   1      40.544  28.098  28.436  1.00  0.00     0.064 A 
ATOM     77  C   UNL A   1      39.910  26.849  28.347  1.00  0.00     0.173 A 
ATOM     78  C   UNL A   1      41.332  28.506  27.351  1.00  0.00     0.173 A 
ATOM     79  F   UNL A   1      39.160  26.408  29.368  1.00  0.00    -0.203 F 
ATOM     80  C   UNL A   1      40.081  26.030  27.235  1.00  0.00     0.198 A 
ATOM     81  C   UNL A   1      41.481  27.696  26.226  1.00  0.00     0.198 A 
ATOM     82  F   UNL A   1      41.953  29.693  27.381  1.00  0.00    -0.203 F 
ATOM     83  F   UNL A   1      39.505  24.821  27.200  1.00  0.00    -0.200 F 
ATOM     84  C   UNL A   1      40.864  26.455  26.172  1.00  0.00     0.200 A 
ATOM     85  F   UNL A   1      42.229  28.115  25.195  1.00  0.00    -0.200 F 
ATOM     86  F   UNL A   1      41.029  25.667  25.102  1.00  0.00    -0.200 F 
ENDBRANCH  52  76
BRANCH  64  87
ATOM     87  C   UNL A   1      43.602  28.093  34.690  1.00  0.00     0.064 A 
ATOM     88  C   UNL A   1      44.972  28.393  34.661  1.00  0.00     0.173 A 
ATOM     89  C   UNL A   1      43.197  26.929  35.362  1.00  0.00     0.173 A 
ATOM     90  F   UNL A   1      45.409  29.487  34.019  1.00  0.00    -0.203 F 
ATOM     91  C   UNL A   1      45.901  27.545  35.255  1.00  0.00     0.198 A 
ATOM     92  C   UNL A   1      44.126  26.100  35.982  1.00  0.00     0.198 A 
ATOM     93  F   UNL A   1      41.897  26.604  35.426  1.00  0.00    -0.203 F 
ATOM     94  F   UNL A   1      47.209  27.826  35.173  1.00  0.00    -0.200 F 
ATOM     95  C   UNL A   1      45.477  26.404  35.921  1.00  0.00     0.200 A 
ATOM     96  F   UNL A   1      43.714  25.004  36.635  1.00  0.00    -0.200 F 
ATOM     97  F   UNL A   1      46.374  25.591  36.498  1.00  0.00    -0.200 F 
ENDBRANCH  64  87
ENDBRANCH  38  39
ENDBRANCH  30  33
ENDBRANCH  28  29
ENDBRANCH  27  28
ENDBRANCH  26  27
ENDBRANCH   1  26
TORSDOF 17
ENDMDL
