MODEL 1
REMARK VINA RESULT:     -12.3      0.000      0.000
REMARK SMILES Cc1cc(F)c(C(=O)NCCCCNC(=O)c2ccc(-c3c4nc(c(-c5c(F)c(F)c(F)c(F)c5F)c5ccc([nH]5)c(-c5c(F)c(F)c(F)c(F)c5F)c5nc(c(-c6c(F)c(F)c(F)c(F)c6F)c6ccc3[nH]6)C=C5)C=C4)cc2)cc1F
REMARK SMILES IDX 12 1 11 2 10 3 9 4 7 5 8 6 6 8 1 9 2 10 3 11 81 12 4 13
REMARK SMILES IDX 80 14 82 15 5 16 13 17 14 18 15 19 16 21 17 22 18 23 79 24
REMARK SMILES IDX 19 25 78 26 20 27 21 28 22 29 72 30 23 31 77 32 71 33 73 34
REMARK SMILES IDX 24 35 76 36 70 37 69 38 25 40 57 41 37 42 56 43 38 44 41 45
REMARK SMILES IDX 55 46 74 47 39 48 40 49 54 51 75 52 42 53 26 54 27 55 35 56
REMARK SMILES IDX 28 57 29 58 33 59 36 60 30 61 31 62 34 63 32 64 58 65 59 66
REMARK SMILES IDX 67 67 60 68 61 69 65 70 68 71 62 72 63 73 66 74 64 75 43 76
REMARK SMILES IDX 44 77 52 78 45 79 46 80 50 81 53 82 47 83 48 84 51 85 49 86
REMARK H PARENT 9 7 14 20 73 39 41 50
REMARK Flexibility Score: inf
ROOT
ATOM      1  C   UNL A   1      31.795  31.877  26.769  1.00  0.00     0.023 C 
ENDROOT
BRANCH   1   2
ATOM      2  C   UNL A   1      31.971  30.368  26.904  1.00  0.00     0.023 C 
BRANCH   2   3
ATOM      3  C   UNL A   1      33.385  29.830  26.718  1.00  0.00     0.116 C 
BRANCH   3   4
ATOM      4  N   UNL A   1      33.737  29.533  25.340  1.00  0.00    -0.352 N 
ATOM      5  C   UNL A   1      33.533  28.393  24.596  1.00  0.00     0.254 C 
ATOM      6  O   UNL A   1      33.857  28.384  23.413  1.00  0.00    -0.269 OA
ATOM      7  H   UNL A   1      34.194  30.263  24.863  1.00  0.00     0.163 HD
BRANCH   5   8
ATOM      8  C   UNL A   1      32.945  27.188  25.210  1.00  0.00     0.078 A 
ATOM      9  C   UNL A   1      31.137  23.527  26.569  1.00  0.00     0.047 C 
ATOM     10  C   UNL A   1      31.758  24.834  26.182  1.00  0.00    -0.012 A 
ATOM     11  C   UNL A   1      30.962  25.895  25.735  1.00  0.00     0.046 A 
ATOM     12  C   UNL A   1      33.147  24.994  26.181  1.00  0.00     0.127 A 
ATOM     13  C   UNL A   1      31.555  27.062  25.253  1.00  0.00     0.136 A 
ATOM     14  C   UNL A   1      33.743  26.169  25.735  1.00  0.00     0.056 A 
ATOM     15  F   UNL A   1      33.937  23.989  26.585  1.00  0.00    -0.207 F 
ATOM     16  F   UNL A   1      30.756  28.030  24.786  1.00  0.00    -0.206 F 
ENDBRANCH   5   8
ENDBRANCH   3   4
ENDBRANCH   2   3
ENDBRANCH   1   2
BRANCH   1  17
ATOM     17  C   UNL A   1      32.900  32.740  27.368  1.00  0.00     0.116 C 
BRANCH  17  18
ATOM     18  N   UNL A   1      32.476  34.087  27.719  1.00  0.00    -0.352 N 
ATOM     19  C   UNL A   1      33.012  34.979  28.624  1.00  0.00     0.251 C 
ATOM     20  H   UNL A   1      31.682  34.412  27.235  1.00  0.00     0.163 HD
ATOM     21  O   UNL A   1      32.466  36.057  28.824  1.00  0.00    -0.269 OA
BRANCH  19  22
ATOM     22  C   UNL A   1      34.214  34.607  29.401  1.00  0.00     0.039 A 
ATOM     23  C   UNL A   1      35.491  34.732  28.852  1.00  0.00     0.014 A 
ATOM     24  C   UNL A   1      34.050  34.062  30.678  1.00  0.00     0.014 A 
ATOM     25  C   UNL A   1      36.569  34.114  29.479  1.00  0.00     0.010 A 
ATOM     26  C   UNL A   1      35.152  33.526  31.350  1.00  0.00     0.010 A 
ATOM     27  C   UNL A   1      36.407  33.483  30.723  1.00  0.00    -0.014 A 
BRANCH  27  28
ATOM     28  C   UNL A   1      37.547  32.741  31.325  1.00  0.00     0.031 A 
ATOM     29  C   UNL A   1      38.003  33.047  32.729  1.00  0.00     0.074 A 
ATOM     30  C   UNL A   1      38.128  31.742  30.635  1.00  0.00     0.049 A 
ATOM     31  N   UNL A   1      38.986  32.515  33.414  1.00  0.00    -0.248 NA
ATOM     32  C   UNL A   1      37.263  34.086  33.461  1.00  0.00     0.031 C 
ATOM     33  C   UNL A   1      37.758  31.329  29.281  1.00  0.00     0.029 A 
ATOM     34  N   UNL A   1      39.129  30.874  30.987  1.00  0.00    -0.354 N 
ATOM     35  C   UNL A   1      38.998  33.171  34.638  1.00  0.00     0.074 A 
ATOM     36  C   UNL A   1      37.937  34.155  34.601  1.00  0.00     0.031 C 
ATOM     37  C   UNL A   1      38.483  30.254  28.938  1.00  0.00     0.029 A 
ATOM     38  C   UNL A   1      39.412  29.943  30.019  1.00  0.00     0.049 A 
ATOM     39  H   UNL A   1      39.601  30.915  31.850  1.00  0.00     0.167 HD
ATOM     40  C   UNL A   1      39.812  32.964  35.702  1.00  0.00     0.037 A 
ATOM     41  C   UNL A   1      40.327  28.957  29.996  1.00  0.00     0.037 A 
ATOM     42  C   UNL A   1      40.843  31.962  35.754  1.00  0.00     0.049 A 
ATOM     43  C   UNL A   1      41.238  28.770  31.175  1.00  0.00     0.074 A 
ATOM     44  C   UNL A   1      41.712  31.670  36.792  1.00  0.00     0.029 A 
ATOM     45  N   UNL A   1      41.138  31.077  34.727  1.00  0.00    -0.354 N 
ATOM     46  N   UNL A   1      41.260  29.420  32.313  1.00  0.00    -0.248 NA
ATOM     47  C   UNL A   1      42.261  27.722  31.059  1.00  0.00     0.031 C 
ATOM     48  C   UNL A   1      42.553  30.630  36.381  1.00  0.00     0.029 A 
ATOM     49  C   UNL A   1      42.183  30.248  35.102  1.00  0.00     0.049 A 
ATOM     50  H   UNL A   1      40.672  31.042  33.860  1.00  0.00     0.167 HD
ATOM     51  C   UNL A   1      42.296  28.863  33.049  1.00  0.00     0.074 A 
ATOM     52  C   UNL A   1      42.861  27.802  32.241  1.00  0.00     0.031 C 
ATOM     53  C   UNL A   1      42.742  29.206  34.281  1.00  0.00     0.037 A 
BRANCH  40  54
ATOM     54  C   UNL A   1      39.632  33.846  36.902  1.00  0.00     0.064 A 
ATOM     55  C   UNL A   1      40.197  35.128  36.964  1.00  0.00     0.173 A 
ATOM     56  C   UNL A   1      38.830  33.429  37.975  1.00  0.00     0.173 A 
ATOM     57  F   UNL A   1      40.984  35.567  35.970  1.00  0.00    -0.203 F 
ATOM     58  C   UNL A   1      39.978  35.955  38.063  1.00  0.00     0.198 A 
ATOM     59  C   UNL A   1      38.592  34.267  39.061  1.00  0.00     0.198 A 
ATOM     60  F   UNL A   1      38.261  32.215  37.961  1.00  0.00    -0.203 F 
ATOM     61  F   UNL A   1      40.553  37.164  38.115  1.00  0.00    -0.200 F 
ATOM     62  C   UNL A   1      39.168  35.528  39.105  1.00  0.00     0.200 A 
ATOM     63  F   UNL A   1      37.802  33.857  40.063  1.00  0.00    -0.200 F 
ATOM     64  F   UNL A   1      38.948  36.330  40.156  1.00  0.00    -0.200 F 
ENDBRANCH  40  54
BRANCH  41  65
ATOM     65  C   UNL A   1      40.422  28.077  28.805  1.00  0.00     0.064 A 
ATOM     66  C   UNL A   1      39.728  26.861  28.754  1.00  0.00     0.173 A 
ATOM     67  C   UNL A   1      41.175  28.450  27.683  1.00  0.00     0.173 A 
ATOM     68  F   UNL A   1      39.013  26.453  29.811  1.00  0.00    -0.203 F 
ATOM     69  C   UNL A   1      39.786  26.049  27.622  1.00  0.00     0.198 A 
ATOM     70  C   UNL A   1      41.211  27.651  26.543  1.00  0.00     0.198 A 
ATOM     71  F   UNL A   1      41.855  29.606  27.685  1.00  0.00    -0.203 F 
ATOM     72  F   UNL A   1      39.134  24.880  27.606  1.00  0.00    -0.200 F 
ATOM     73  C   UNL A   1      40.518  26.451  26.514  1.00  0.00     0.200 A 
ATOM     74  F   UNL A   1      41.907  28.050  25.470  1.00  0.00    -0.200 F 
ATOM     75  F   UNL A   1      40.559  25.678  25.420  1.00  0.00    -0.200 F 
ENDBRANCH  41  65
BRANCH  53  76
ATOM     76  C   UNL A   1      43.899  28.428  34.830  1.00  0.00     0.064 A 
ATOM     77  C   UNL A   1      43.702  27.236  35.543  1.00  0.00     0.173 A 
ATOM     78  C   UNL A   1      45.216  28.853  34.607  1.00  0.00     0.173 A 
ATOM     79  F   UNL A   1      42.460  26.798  35.794  1.00  0.00    -0.203 F 
ATOM     80  C   UNL A   1      44.784  26.509  36.031  1.00  0.00     0.198 A 
ATOM     81  C   UNL A   1      46.296  28.111  35.075  1.00  0.00     0.198 A 
ATOM     82  F   UNL A   1      45.455  29.984  33.924  1.00  0.00    -0.203 F 
ATOM     83  F   UNL A   1      44.573  25.393  36.744  1.00  0.00    -0.200 F 
ATOM     84  C   UNL A   1      46.080  26.943  35.792  1.00  0.00     0.200 A 
ATOM     85  F   UNL A   1      47.548  28.527  34.836  1.00  0.00    -0.200 F 
ATOM     86  F   UNL A   1      47.120  26.239  36.258  1.00  0.00    -0.200 F 
ENDBRANCH  53  76
ENDBRANCH  27  28
ENDBRANCH  19  22
ENDBRANCH  17  18
ENDBRANCH   1  17
TORSDOF 11
ENDMDL
MODEL 2
REMARK VINA RESULT:     -12.2      0.148      2.037
REMARK SMILES Cc1cc(F)c(C(=O)NCCCCNC(=O)c2ccc(-c3c4nc(c(-c5c(F)c(F)c(F)c(F)c5F)c5ccc([nH]5)c(-c5c(F)c(F)c(F)c(F)c5F)c5nc(c(-c6c(F)c(F)c(F)c(F)c6F)c6ccc3[nH]6)C=C5)C=C4)cc2)cc1F
REMARK SMILES IDX 12 1 11 2 10 3 9 4 7 5 8 6 6 8 1 9 2 10 3 11 81 12 4 13
REMARK SMILES IDX 80 14 82 15 5 16 13 17 14 18 15 19 16 21 17 22 18 23 79 24
REMARK SMILES IDX 19 25 78 26 20 27 21 28 22 29 72 30 23 31 77 32 71 33 73 34
REMARK SMILES IDX 24 35 76 36 70 37 69 38 25 40 57 41 37 42 56 43 38 44 41 45
REMARK SMILES IDX 55 46 74 47 39 48 40 49 54 51 75 52 42 53 26 54 27 55 35 56
REMARK SMILES IDX 28 57 29 58 33 59 36 60 30 61 31 62 34 63 32 64 58 65 59 66
REMARK SMILES IDX 67 67 60 68 61 69 65 70 68 71 62 72 63 73 66 74 64 75 43 76
REMARK SMILES IDX 44 77 52 78 45 79 46 80 50 81 53 82 47 83 48 84 51 85 49 86
REMARK H PARENT 9 7 14 20 73 39 41 50
REMARK Flexibility Score: inf
ROOT
ATOM      1  C   UNL A   1      31.687  31.991  26.686  1.00  0.00     0.023 C 
ENDROOT
BRANCH   1   2
ATOM      2  C   UNL A   1      31.853  30.478  26.773  1.00  0.00     0.023 C 
BRANCH   2   3
ATOM      3  C   UNL A   1      33.274  29.941  26.642  1.00  0.00     0.116 C 
BRANCH   3   4
ATOM      4  N   UNL A   1      33.669  29.612  25.283  1.00  0.00    -0.352 N 
ATOM      5  C   UNL A   1      33.500  28.450  24.565  1.00  0.00     0.254 C 
ATOM      6  O   UNL A   1      33.858  28.414  23.392  1.00  0.00    -0.269 OA
ATOM      7  H   UNL A   1      34.130  30.335  24.800  1.00  0.00     0.163 HD
BRANCH   5   8
ATOM      8  C   UNL A   1      32.910  27.254  25.195  1.00  0.00     0.078 A 
ATOM      9  C   UNL A   1      31.105  23.610  26.602  1.00  0.00     0.047 C 
ATOM     10  C   UNL A   1      31.724  24.913  26.196  1.00  0.00    -0.012 A 
ATOM     11  C   UNL A   1      30.927  25.957  25.710  1.00  0.00     0.046 A 
ATOM     12  C   UNL A   1      33.110  25.085  26.219  1.00  0.00     0.127 A 
ATOM     13  C   UNL A   1      31.520  27.117  25.213  1.00  0.00     0.136 A 
ATOM     14  C   UNL A   1      33.706  26.255  25.759  1.00  0.00     0.056 A 
ATOM     15  F   UNL A   1      33.900  24.096  26.662  1.00  0.00    -0.207 F 
ATOM     16  F   UNL A   1      30.723  28.068  24.709  1.00  0.00    -0.206 F 
ENDBRANCH   5   8
ENDBRANCH   3   4
ENDBRANCH   2   3
ENDBRANCH   1   2
BRANCH   1  17
ATOM     17  C   UNL A   1      32.780  32.826  27.343  1.00  0.00     0.116 C 
BRANCH  17  18
ATOM     18  N   UNL A   1      32.364  34.176  27.695  1.00  0.00    -0.352 N 
ATOM     19  C   UNL A   1      32.914  35.068  28.591  1.00  0.00     0.251 C 
ATOM     20  H   UNL A   1      31.566  34.502  27.220  1.00  0.00     0.163 HD
ATOM     21  O   UNL A   1      32.373  36.149  28.795  1.00  0.00    -0.269 OA
BRANCH  19  22
ATOM     22  C   UNL A   1      34.124  34.695  29.355  1.00  0.00     0.039 A 
ATOM     23  C   UNL A   1      35.390  34.766  28.774  1.00  0.00     0.014 A 
ATOM     24  C   UNL A   1      33.976  34.203  30.655  1.00  0.00     0.014 A 
ATOM     25  C   UNL A   1      36.467  34.145  29.400  1.00  0.00     0.010 A 
ATOM     26  C   UNL A   1      35.079  33.665  31.323  1.00  0.00     0.010 A 
ATOM     27  C   UNL A   1      36.317  33.566  30.671  1.00  0.00    -0.014 A 
BRANCH  27  28
ATOM     28  C   UNL A   1      37.452  32.818  31.275  1.00  0.00     0.031 A 
ATOM     29  C   UNL A   1      37.914  33.129  32.676  1.00  0.00     0.074 A 
ATOM     30  C   UNL A   1      38.023  31.809  30.591  1.00  0.00     0.049 A 
ATOM     31  N   UNL A   1      38.894  32.593  33.362  1.00  0.00    -0.248 NA
ATOM     32  C   UNL A   1      37.185  34.180  33.402  1.00  0.00     0.031 C 
ATOM     33  C   UNL A   1      37.646  31.390  29.241  1.00  0.00     0.029 A 
ATOM     34  N   UNL A   1      39.017  30.934  30.946  1.00  0.00    -0.354 N 
ATOM     35  C   UNL A   1      38.914  33.258  34.581  1.00  0.00     0.074 A 
ATOM     36  C   UNL A   1      37.863  34.250  34.540  1.00  0.00     0.031 C 
ATOM     37  C   UNL A   1      38.360  30.307  28.903  1.00  0.00     0.029 A 
ATOM     38  C   UNL A   1      39.290  29.995  29.984  1.00  0.00     0.049 A 
ATOM     39  H   UNL A   1      39.491  30.977  31.808  1.00  0.00     0.167 HD
ATOM     40  C   UNL A   1      39.729  33.050  35.645  1.00  0.00     0.037 A 
ATOM     41  C   UNL A   1      40.196  29.000  29.966  1.00  0.00     0.037 A 
ATOM     42  C   UNL A   1      40.752  32.039  35.702  1.00  0.00     0.049 A 
ATOM     43  C   UNL A   1      41.107  28.813  31.144  1.00  0.00     0.074 A 
ATOM     44  C   UNL A   1      41.620  31.747  36.739  1.00  0.00     0.029 A 
ATOM     45  N   UNL A   1      41.036  31.145  34.681  1.00  0.00    -0.354 N 
ATOM     46  N   UNL A   1      41.138  29.471  32.277  1.00  0.00    -0.248 NA
ATOM     47  C   UNL A   1      42.121  27.755  31.033  1.00  0.00     0.031 C 
ATOM     48  C   UNL A   1      42.451  30.697  36.334  1.00  0.00     0.029 A 
ATOM     49  C   UNL A   1      42.075  30.310  35.059  1.00  0.00     0.049 A 
ATOM     50  H   UNL A   1      40.568  31.108  33.815  1.00  0.00     0.167 HD
ATOM     51  C   UNL A   1      42.170  28.909  33.015  1.00  0.00     0.074 A 
ATOM     52  C   UNL A   1      42.724  27.838  32.213  1.00  0.00     0.031 C 
ATOM     53  C   UNL A   1      42.622  29.256  34.244  1.00  0.00     0.037 A 
BRANCH  40  54
ATOM     54  C   UNL A   1      39.560  33.942  36.840  1.00  0.00     0.064 A 
ATOM     55  C   UNL A   1      38.797  33.550  37.949  1.00  0.00     0.173 A 
ATOM     56  C   UNL A   1      40.224  35.176  36.902  1.00  0.00     0.173 A 
ATOM     57  F   UNL A   1      38.132  32.385  37.932  1.00  0.00    -0.203 F 
ATOM     58  C   UNL A   1      38.694  34.367  39.072  1.00  0.00     0.198 A 
ATOM     59  C   UNL A   1      40.138  35.981  38.036  1.00  0.00     0.198 A 
ATOM     60  F   UNL A   1      40.970  35.595  35.870  1.00  0.00    -0.203 F 
ATOM     61  F   UNL A   1      37.934  33.985  40.109  1.00  0.00    -0.200 F 
ATOM     62  C   UNL A   1      39.371  35.576  39.118  1.00  0.00     0.200 A 
ATOM     63  F   UNL A   1      40.801  37.145  38.083  1.00  0.00    -0.200 F 
ATOM     64  F   UNL A   1      39.279  36.356  40.205  1.00  0.00    -0.200 F 
ENDBRANCH  40  54
BRANCH  41  65
ATOM     65  C   UNL A   1      40.280  28.111  28.780  1.00  0.00     0.064 A 
ATOM     66  C   UNL A   1      41.039  28.478  27.661  1.00  0.00     0.173 A 
ATOM     67  C   UNL A   1      39.637  26.865  28.758  1.00  0.00     0.173 A 
ATOM     68  F   UNL A   1      41.654  29.668  27.629  1.00  0.00    -0.203 F 
ATOM     69  C   UNL A   1      41.151  27.629  26.562  1.00  0.00     0.198 A 
ATOM     70  C   UNL A   1      39.771  26.007  27.670  1.00  0.00     0.198 A 
ATOM     71  F   UNL A   1      38.901  26.471  29.807  1.00  0.00    -0.203 F 
ATOM     72  F   UNL A   1      41.862  28.011  25.493  1.00  0.00    -0.200 F 
ATOM     73  C   UNL A   1      40.525  26.390  26.571  1.00  0.00     0.200 A 
ATOM     74  F   UNL A   1      39.178  24.806  27.689  1.00  0.00    -0.200 F 
ATOM     75  F   UNL A   1      40.647  25.568  25.520  1.00  0.00    -0.200 F 
ENDBRANCH  41  65
BRANCH  53  76
ATOM     76  C   UNL A   1      43.774  28.472  34.795  1.00  0.00     0.064 A 
ATOM     77  C   UNL A   1      45.098  28.899  34.615  1.00  0.00     0.173 A 
ATOM     78  C   UNL A   1      43.552  27.307  35.543  1.00  0.00     0.173 A 
ATOM     79  F   UNL A   1      45.359  30.000  33.895  1.00  0.00    -0.203 F 
ATOM     80  C   UNL A   1      46.160  28.175  35.149  1.00  0.00     0.198 A 
ATOM     81  C   UNL A   1      44.615  26.598  36.095  1.00  0.00     0.198 A 
ATOM     82  F   UNL A   1      42.303  26.862  35.747  1.00  0.00    -0.203 F 
ATOM     83  F   UNL A   1      47.420  28.580  34.933  1.00  0.00    -0.200 F 
ATOM     84  C   UNL A   1      45.918  27.030  35.893  1.00  0.00     0.200 A 
ATOM     85  F   UNL A   1      44.380  25.497  36.821  1.00  0.00    -0.200 F 
ATOM     86  F   UNL A   1      46.942  26.337  36.410  1.00  0.00    -0.200 F 
ENDBRANCH  53  76
ENDBRANCH  27  28
ENDBRANCH  19  22
ENDBRANCH  17  18
ENDBRANCH   1  17
TORSDOF 11
ENDMDL
MODEL 3
REMARK VINA RESULT:     -12.2      2.243      3.703
REMARK SMILES Cc1cc(F)c(C(=O)NCCCCNC(=O)c2ccc(-c3c4nc(c(-c5c(F)c(F)c(F)c(F)c5F)c5ccc([nH]5)c(-c5c(F)c(F)c(F)c(F)c5F)c5nc(c(-c6c(F)c(F)c(F)c(F)c6F)c6ccc3[nH]6)C=C5)C=C4)cc2)cc1F
REMARK SMILES IDX 12 1 11 2 10 3 9 4 7 5 8 6 6 8 1 9 2 10 3 11 81 12 4 13
REMARK SMILES IDX 80 14 82 15 5 16 13 17 14 18 15 19 16 21 17 22 18 23 79 24
REMARK SMILES IDX 19 25 78 26 20 27 21 28 22 29 72 30 23 31 77 32 71 33 73 34
REMARK SMILES IDX 24 35 76 36 70 37 69 38 25 40 57 41 37 42 56 43 38 44 41 45
REMARK SMILES IDX 55 46 74 47 39 48 40 49 54 51 75 52 42 53 26 54 27 55 35 56
REMARK SMILES IDX 28 57 29 58 33 59 36 60 30 61 31 62 34 63 32 64 58 65 59 66
REMARK SMILES IDX 67 67 60 68 61 69 65 70 68 71 62 72 63 73 66 74 64 75 43 76
REMARK SMILES IDX 44 77 52 78 45 79 46 80 50 81 53 82 47 83 48 84 51 85 49 86
REMARK H PARENT 9 7 14 20 73 39 41 50
REMARK Flexibility Score: inf
ROOT
ATOM      1  C   UNL A   1      31.780  28.833  26.941  1.00  0.00     0.023 C 
ENDROOT
BRANCH   1   2
ATOM      2  C   UNL A   1      32.118  27.372  26.661  1.00  0.00     0.023 C 
BRANCH   2   3
ATOM      3  C   UNL A   1      30.980  26.498  26.149  1.00  0.00     0.116 C 
BRANCH   3   4
ATOM      4  N   UNL A   1      31.220  25.904  24.844  1.00  0.00    -0.352 N 
ATOM      5  C   UNL A   1      30.853  26.337  23.589  1.00  0.00     0.254 C 
ATOM      6  O   UNL A   1      31.225  25.704  22.606  1.00  0.00    -0.269 OA
ATOM      7  H   UNL A   1      31.725  25.060  24.860  1.00  0.00     0.163 HD
BRANCH   5   8
ATOM      8  C   UNL A   1      30.012  27.537  23.423  1.00  0.00     0.078 A 
ATOM      9  C   UNL A   1      27.644  31.004  22.479  1.00  0.00     0.047 C 
ATOM     10  C   UNL A   1      28.468  29.824  22.895  1.00  0.00    -0.012 A 
ATOM     11  C   UNL A   1      29.866  29.901  22.902  1.00  0.00     0.046 A 
ATOM     12  C   UNL A   1      27.864  28.603  23.206  1.00  0.00     0.127 A 
ATOM     13  C   UNL A   1      30.629  28.763  23.164  1.00  0.00     0.136 A 
ATOM     14  C   UNL A   1      28.619  27.473  23.503  1.00  0.00     0.056 A 
ATOM     15  F   UNL A   1      26.528  28.493  23.189  1.00  0.00    -0.207 F 
ATOM     16  F   UNL A   1      31.963  28.870  23.109  1.00  0.00    -0.206 F 
ENDBRANCH   5   8
ENDBRANCH   3   4
ENDBRANCH   2   3
ENDBRANCH   1   2
BRANCH   1  17
ATOM     17  C   UNL A   1      32.591  29.870  26.174  1.00  0.00     0.116 C 
BRANCH  17  18
ATOM     18  N   UNL A   1      32.412  31.234  26.648  1.00  0.00    -0.352 N 
ATOM     19  C   UNL A   1      33.265  32.044  27.366  1.00  0.00     0.251 C 
ATOM     20  H   UNL A   1      31.545  31.642  26.420  1.00  0.00     0.163 HD
ATOM     21  O   UNL A   1      32.901  33.156  27.729  1.00  0.00    -0.269 OA
BRANCH  19  22
ATOM     22  C   UNL A   1      34.602  31.545  27.754  1.00  0.00     0.039 A 
ATOM     23  C   UNL A   1      34.823  30.187  27.986  1.00  0.00     0.014 A 
ATOM     24  C   UNL A   1      35.635  32.466  27.949  1.00  0.00     0.014 A 
ATOM     25  C   UNL A   1      35.992  29.782  28.622  1.00  0.00     0.010 A 
ATOM     26  C   UNL A   1      36.848  32.042  28.500  1.00  0.00     0.010 A 
ATOM     27  C   UNL A   1      37.008  30.709  28.908  1.00  0.00    -0.014 A 
BRANCH  27  28
ATOM     28  C   UNL A   1      38.204  30.275  29.679  1.00  0.00     0.031 A 
ATOM     29  C   UNL A   1      38.397  30.719  31.106  1.00  0.00     0.074 A 
ATOM     30  C   UNL A   1      39.082  29.422  29.119  1.00  0.00     0.049 A 
ATOM     31  N   UNL A   1      39.382  30.455  31.929  1.00  0.00    -0.248 NA
ATOM     32  C   UNL A   1      37.350  31.575  31.687  1.00  0.00     0.031 C 
ATOM     33  C   UNL A   1      38.991  28.896  27.757  1.00  0.00     0.029 A 
ATOM     34  N   UNL A   1      40.205  28.826  29.633  1.00  0.00    -0.354 N 
ATOM     35  C   UNL A   1      39.088  31.129  33.107  1.00  0.00     0.074 A 
ATOM     36  C   UNL A   1      37.842  31.833  32.891  1.00  0.00     0.031 C 
ATOM     37  C   UNL A   1      39.982  28.014  27.561  1.00  0.00     0.029 A 
ATOM     38  C   UNL A   1      40.815  27.962  28.759  1.00  0.00     0.049 A 
ATOM     39  H   UNL A   1      40.542  29.002  30.541  1.00  0.00     0.167 HD
ATOM     40  C   UNL A   1      39.787  31.150  34.268  1.00  0.00     0.037 A 
ATOM     41  C   UNL A   1      41.929  27.219  28.898  1.00  0.00     0.037 A 
ATOM     42  C   UNL A   1      41.007  30.422  34.496  1.00  0.00     0.049 A 
ATOM     43  C   UNL A   1      42.702  27.286  30.183  1.00  0.00     0.074 A 
ATOM     44  C   UNL A   1      41.783  30.374  35.642  1.00  0.00     0.029 A 
ATOM     45  N   UNL A   1      41.625  29.604  33.562  1.00  0.00    -0.354 N 
ATOM     46  N   UNL A   1      42.430  27.955  31.276  1.00  0.00    -0.248 NA
ATOM     47  C   UNL A   1      43.946  26.508  30.246  1.00  0.00     0.031 C 
ATOM     48  C   UNL A   1      42.886  29.552  35.392  1.00  0.00     0.029 A 
ATOM     49  C   UNL A   1      42.778  29.057  34.102  1.00  0.00     0.049 A 
ATOM     50  H   UNL A   1      41.293  29.435  32.651  1.00  0.00     0.167 HD
ATOM     51  C   UNL A   1      43.465  27.680  32.158  1.00  0.00     0.074 A 
ATOM     52  C   UNL A   1      44.357  26.761  31.482  1.00  0.00     0.031 C 
ATOM     53  C   UNL A   1      43.662  28.153  33.412  1.00  0.00     0.037 A 
BRANCH  40  54
ATOM     54  C   UNL A   1      39.259  31.999  35.387  1.00  0.00     0.064 A 
ATOM     55  C   UNL A   1      38.438  31.465  36.390  1.00  0.00     0.173 A 
ATOM     56  C   UNL A   1      39.633  33.346  35.492  1.00  0.00     0.173 A 
ATOM     57  F   UNL A   1      38.041  30.185  36.327  1.00  0.00    -0.203 F 
ATOM     58  C   UNL A   1      37.999  32.253  37.452  1.00  0.00     0.198 A 
ATOM     59  C   UNL A   1      39.213  34.126  36.567  1.00  0.00     0.198 A 
ATOM     60  F   UNL A   1      40.422  33.904  34.562  1.00  0.00    -0.203 F 
ATOM     61  F   UNL A   1      37.190  31.730  38.384  1.00  0.00    -0.200 F 
ATOM     62  C   UNL A   1      38.394  33.579  37.544  1.00  0.00     0.200 A 
ATOM     63  F   UNL A   1      39.603  35.405  36.660  1.00  0.00    -0.200 F 
ATOM     64  F   UNL A   1      37.981  34.333  38.572  1.00  0.00    -0.200 F 
ENDBRANCH  40  54
BRANCH  41  65
ATOM     65  C   UNL A   1      42.374  26.353  27.778  1.00  0.00     0.064 A 
ATOM     66  C   UNL A   1      41.822  25.079  27.593  1.00  0.00     0.173 A 
ATOM     67  C   UNL A   1      43.328  26.796  26.851  1.00  0.00     0.173 A 
ATOM     68  F   UNL A   1      40.922  24.605  28.466  1.00  0.00    -0.203 F 
ATOM     69  C   UNL A   1      42.211  24.278  26.521  1.00  0.00     0.198 A 
ATOM     70  C   UNL A   1      43.696  26.006  25.765  1.00  0.00     0.198 A 
ATOM     71  F   UNL A   1      43.881  28.010  26.985  1.00  0.00    -0.203 F 
ATOM     72  F   UNL A   1      41.688  23.053  26.379  1.00  0.00    -0.200 F 
ATOM     73  C   UNL A   1      43.139  24.746  25.603  1.00  0.00     0.200 A 
ATOM     74  F   UNL A   1      44.581  26.468  24.872  1.00  0.00    -0.200 F 
ATOM     75  F   UNL A   1      43.500  23.982  24.563  1.00  0.00    -0.200 F 
ENDBRANCH  41  65
BRANCH  53  76
ATOM     76  C   UNL A   1      44.889  27.686  34.134  1.00  0.00     0.064 A 
ATOM     77  C   UNL A   1      46.087  28.413  34.077  1.00  0.00     0.173 A 
ATOM     78  C   UNL A   1      44.858  26.527  34.922  1.00  0.00     0.173 A 
ATOM     79  F   UNL A   1      46.169  29.521  33.325  1.00  0.00    -0.203 F 
ATOM     80  C   UNL A   1      47.217  27.984  34.768  1.00  0.00     0.198 A 
ATOM     81  C   UNL A   1      45.982  26.113  35.630  1.00  0.00     0.198 A 
ATOM     82  F   UNL A   1      43.732  25.802  35.012  1.00  0.00    -0.203 F 
ATOM     83  F   UNL A   1      48.363  28.673  34.669  1.00  0.00    -0.200 F 
ATOM     84  C   UNL A   1      47.161  26.838  35.548  1.00  0.00     0.200 A 
ATOM     85  F   UNL A   1      45.925  25.011  36.391  1.00  0.00    -0.200 F 
ATOM     86  F   UNL A   1      48.248  26.429  36.217  1.00  0.00    -0.200 F 
ENDBRANCH  53  76
ENDBRANCH  27  28
ENDBRANCH  19  22
ENDBRANCH  17  18
ENDBRANCH   1  17
TORSDOF 11
ENDMDL
