MODEL 1
REMARK VINA RESULT:     -13.6      0.000      0.000
REMARK SMILES CC(C)c1ccc(NC(=O)C(=O)N/N=C/c2ccccc2C(=O)NCCCCNC(=O)c2ccc(-c3c4nc(c(-c5c(F)c(F)c(F)c(F)c5F)c5ccc([nH]5)c(-c5c(F)c(F)c(F)c(F)c5F)c5nc(c(-c6c(F)c(F)c(F)c(F)c6F)c6ccc3[nH]6)C=C5)C=C4)cc2)cc1
REMARK SMILES IDX 25 1 24 2 22 3 23 4 21 6 16 7 17 8 18 9 20 10 19 11 15 12
REMARK SMILES IDX 14 13 13 14 11 15 12 16 9 18 8 19 10 21 7 22 4 23 5 24 96 25
REMARK SMILES IDX 6 26 95 27 2 28 1 29 3 30 26 31 27 32 28 33 29 34 30 35
REMARK SMILES IDX 31 37 32 38 33 39 94 40 34 41 93 42 35 43 36 44 37 45 87 46
REMARK SMILES IDX 38 47 92 48 86 49 88 50 39 51 91 52 85 53 84 54 40 56 72 57
REMARK SMILES IDX 52 58 71 59 53 60 56 61 70 62 89 63 54 64 55 65 69 67 90 68
REMARK SMILES IDX 57 69 41 70 42 71 50 72 43 73 44 74 48 75 51 76 45 77 46 78
REMARK SMILES IDX 49 79 47 80 73 81 74 82 82 83 75 84 76 85 80 86 83 87 77 88
REMARK SMILES IDX 78 89 81 90 79 91 58 92 59 93 67 94 60 95 61 96 65 97 68 98
REMARK SMILES IDX 62 99 63 100 66 101 64 102
REMARK H PARENT 24 5 13 17 8 20 29 36 88 55 56 66
REMARK Flexibility Score: inf
ROOT
ATOM      1  C   UNL A   1      32.362  29.840  25.712  1.00  0.00     0.116 C 
ENDROOT
BRANCH   1   2
ATOM      2  N   UNL A   1      32.834  29.479  24.405  1.00  0.00    -0.352 N 
ATOM      3  C   UNL A   1      32.148  29.089  23.282  1.00  0.00     0.251 C 
ATOM      4  O   UNL A   1      32.834  28.943  22.264  1.00  0.00    -0.269 OA
ATOM      5  H   UNL A   1      33.812  29.518  24.297  1.00  0.00     0.163 HD
BRANCH   3   6
ATOM      6  C   UNL A   1      30.690  28.747  23.188  1.00  0.00     0.048 A 
ATOM      7  C   UNL A   1      29.985  27.623  23.640  1.00  0.00     0.007 A 
ATOM      8  C   UNL A   1      28.579  27.548  23.518  1.00  0.00     0.010 A 
ATOM      9  C   UNL A   1      27.851  28.580  22.940  1.00  0.00     0.001 A 
ATOM     10  C   UNL A   1      29.916  29.778  22.599  1.00  0.00     0.014 A 
ATOM     11  C   UNL A   1      28.523  29.695  22.467  1.00  0.00     0.001 A 
BRANCH   7  12
ATOM     12  C   UNL A   1      30.531  26.346  24.096  1.00  0.00     0.142 C 
ATOM     13  N   UNL A   1      29.889  25.474  24.805  1.00  0.00    -0.180 NA
BRANCH  13  14
ATOM     14  N   UNL A   1      30.549  24.260  25.022  1.00  0.00    -0.239 N 
ATOM     15  C   UNL A   1      31.313  24.015  26.159  1.00  0.00     0.329 C 
ATOM     16  O   UNL A   1      30.840  23.890  27.280  1.00  0.00    -0.262 OA
ATOM     17  H   UNL A   1      30.469  23.551  24.344  1.00  0.00     0.194 HD
BRANCH  15  18
ATOM     18  C   UNL A   1      32.832  24.098  25.962  1.00  0.00     0.315 C 
ATOM     19  N   UNL A   1      33.576  22.967  25.704  1.00  0.00    -0.318 N 
ATOM     20  H   UNL A   1      34.539  23.082  25.872  1.00  0.00     0.170 HD
ATOM     21  O   UNL A   1      33.400  25.168  26.174  1.00  0.00    -0.263 OA
BRANCH  19  22
ATOM     22  C   UNL A   1      33.233  21.682  25.250  1.00  0.00     0.041 A 
ATOM     23  C   UNL A   1      32.764  19.001  24.441  1.00  0.00    -0.045 A 
ATOM     24  C   UNL A   1      32.516  20.072  23.579  1.00  0.00     0.006 A 
ATOM     25  C   UNL A   1      33.236  19.294  25.727  1.00  0.00     0.006 A 
ATOM     26  C   UNL A   1      32.757  21.395  23.977  1.00  0.00     0.026 A 
ATOM     27  C   UNL A   1      33.471  20.616  26.123  1.00  0.00     0.026 A 
BRANCH  23  28
ATOM     28  C   UNL A   1      32.633  17.549  24.006  1.00  0.00     0.013 C 
ATOM     29  C   UNL A   1      33.774  17.030  23.123  1.00  0.00     0.012 C 
ATOM     30  C   UNL A   1      32.494  16.661  25.247  1.00  0.00     0.012 C 
ENDBRANCH  23  28
ENDBRANCH  19  22
ENDBRANCH  15  18
ENDBRANCH  13  14
ENDBRANCH   7  12
ENDBRANCH   3   6
ENDBRANCH   1   2
BRANCH   1  31
ATOM     31  C   UNL A   1      31.385  31.007  25.779  1.00  0.00     0.023 C 
BRANCH  31  32
ATOM     32  C   UNL A   1      31.413  31.948  26.987  1.00  0.00     0.023 C 
BRANCH  32  33
ATOM     33  C   UNL A   1      32.594  32.889  27.183  1.00  0.00     0.116 C 
BRANCH  33  34
ATOM     34  N   UNL A   1      32.266  34.195  27.729  1.00  0.00    -0.352 N 
ATOM     35  C   UNL A   1      32.981  35.012  28.571  1.00  0.00     0.251 C 
ATOM     36  H   UNL A   1      31.391  34.550  27.453  1.00  0.00     0.163 HD
ATOM     37  O   UNL A   1      32.631  36.169  28.788  1.00  0.00    -0.269 OA
BRANCH  35  38
ATOM     38  C   UNL A   1      34.157  34.484  29.284  1.00  0.00     0.039 A 
ATOM     39  C   UNL A   1      33.958  33.804  30.492  1.00  0.00     0.014 A 
ATOM     40  C   UNL A   1      35.442  34.643  28.766  1.00  0.00     0.014 A 
ATOM     41  C   UNL A   1      35.044  33.226  31.151  1.00  0.00     0.010 A 
ATOM     42  C   UNL A   1      36.508  33.999  29.379  1.00  0.00     0.010 A 
ATOM     43  C   UNL A   1      36.323  33.299  30.584  1.00  0.00    -0.014 A 
BRANCH  43  44
ATOM     44  C   UNL A   1      37.513  32.732  31.261  1.00  0.00     0.031 A 
ATOM     45  C   UNL A   1      38.269  31.627  30.579  1.00  0.00     0.074 A 
ATOM     46  C   UNL A   1      37.853  33.134  32.500  1.00  0.00     0.049 A 
ATOM     47  N   UNL A   1      39.208  30.845  31.047  1.00  0.00    -0.248 NA
ATOM     48  C   UNL A   1      37.877  31.331  29.190  1.00  0.00     0.031 C 
ATOM     49  C   UNL A   1      37.177  34.178  33.270  1.00  0.00     0.029 A 
ATOM     50  N   UNL A   1      38.845  32.691  33.339  1.00  0.00    -0.354 N 
ATOM     51  C   UNL A   1      39.480  29.939  30.029  1.00  0.00     0.074 A 
ATOM     52  C   UNL A   1      38.582  30.241  28.937  1.00  0.00     0.031 C 
ATOM     53  C   UNL A   1      37.776  34.299  34.467  1.00  0.00     0.029 A 
ATOM     54  C   UNL A   1      38.854  33.319  34.561  1.00  0.00     0.049 A 
ATOM     55  H   UNL A   1      39.489  31.990  33.089  1.00  0.00     0.167 HD
ATOM     56  C   UNL A   1      40.411  28.956  30.005  1.00  0.00     0.037 A 
ATOM     57  C   UNL A   1      39.639  33.110  35.635  1.00  0.00     0.037 A 
ATOM     58  C   UNL A   1      41.334  28.705  31.077  1.00  0.00     0.049 A 
ATOM     59  C   UNL A   1      40.704  32.048  35.561  1.00  0.00     0.074 A 
ATOM     60  C   UNL A   1      42.348  27.765  31.145  1.00  0.00     0.029 A 
ATOM     61  N   UNL A   1      41.363  29.416  32.268  1.00  0.00    -0.354 N 
ATOM     62  N   UNL A   1      40.974  31.212  34.586  1.00  0.00    -0.248 NA
ATOM     63  C   UNL A   1      41.583  31.908  36.730  1.00  0.00     0.031 C 
ATOM     64  C   UNL A   1      42.978  27.896  32.387  1.00  0.00     0.029 A 
ATOM     65  C   UNL A   1      42.383  28.943  33.075  1.00  0.00     0.049 A 
ATOM     66  H   UNL A   1      40.750  30.149  32.504  1.00  0.00     0.167 HD
ATOM     67  C   UNL A   1      42.070  30.473  35.009  1.00  0.00     0.074 A 
ATOM     68  C   UNL A   1      42.423  30.967  36.324  1.00  0.00     0.031 C 
ATOM     69  C   UNL A   1      42.727  29.475  34.369  1.00  0.00     0.037 A 
BRANCH  56  70
ATOM     70  C   UNL A   1      40.468  28.090  28.780  1.00  0.00     0.064 A 
ATOM     71  C   UNL A   1      39.772  26.872  28.705  1.00  0.00     0.173 A 
ATOM     72  C   UNL A   1      41.223  28.482  27.665  1.00  0.00     0.173 A 
ATOM     73  F   UNL A   1      39.048  26.443  29.750  1.00  0.00    -0.203 F 
ATOM     74  C   UNL A   1      39.860  26.065  27.575  1.00  0.00     0.198 A 
ATOM     75  C   UNL A   1      41.282  27.687  26.523  1.00  0.00     0.198 A 
ATOM     76  F   UNL A   1      41.906  29.637  27.682  1.00  0.00    -0.203 F 
ATOM     77  F   UNL A   1      39.236  24.879  27.551  1.00  0.00    -0.200 F 
ATOM     78  C   UNL A   1      40.610  26.475  26.482  1.00  0.00     0.200 A 
ATOM     79  F   UNL A   1      41.998  28.089  25.464  1.00  0.00    -0.200 F 
ATOM     80  F   UNL A   1      40.692  25.697  25.394  1.00  0.00    -0.200 F 
ENDBRANCH  56  70
BRANCH  57  81
ATOM     81  C   UNL A   1      39.476  33.945  36.854  1.00  0.00     0.064 A 
ATOM     82  C   UNL A   1      38.741  33.472  37.952  1.00  0.00     0.173 A 
ATOM     83  C   UNL A   1      40.035  35.227  36.950  1.00  0.00     0.173 A 
ATOM     84  F   UNL A   1      38.169  32.260  37.901  1.00  0.00    -0.203 F 
ATOM     85  C   UNL A   1      38.554  34.258  39.088  1.00  0.00     0.198 A 
ATOM     86  C   UNL A   1      39.870  36.001  38.097  1.00  0.00     0.198 A 
ATOM     87  F   UNL A   1      40.751  35.725  35.931  1.00  0.00    -0.203 F 
ATOM     88  F   UNL A   1      37.809  33.798  40.102  1.00  0.00    -0.200 F 
ATOM     89  C   UNL A   1      39.123  35.520  39.161  1.00  0.00     0.200 A 
ATOM     90  F   UNL A   1      40.433  37.216  38.171  1.00  0.00    -0.200 F 
ATOM     91  F   UNL A   1      38.945  36.274  40.254  1.00  0.00    -0.200 F 
ENDBRANCH  57  81
BRANCH  69  92
ATOM     92  C   UNL A   1      43.927  28.896  35.056  1.00  0.00     0.064 A 
ATOM     93  C   UNL A   1      43.815  27.839  35.971  1.00  0.00     0.173 A 
ATOM     94  C   UNL A   1      45.209  29.383  34.763  1.00  0.00     0.173 A 
ATOM     95  F   UNL A   1      42.608  27.349  36.293  1.00  0.00    -0.203 F 
ATOM     96  C   UNL A   1      44.944  27.309  36.588  1.00  0.00     0.198 A 
ATOM     97  C   UNL A   1      46.338  28.832  35.362  1.00  0.00     0.198 A 
ATOM     98  F   UNL A   1      45.368  30.388  33.889  1.00  0.00    -0.203 F 
ATOM     99  F   UNL A   1      44.812  26.330  37.495  1.00  0.00    -0.200 F 
ATOM    100  C   UNL A   1      46.204  27.800  36.279  1.00  0.00     0.200 A 
ATOM    101  F   UNL A   1      47.554  29.300  35.053  1.00  0.00    -0.200 F 
ATOM    102  F   UNL A   1      47.289  27.285  36.873  1.00  0.00    -0.200 F 
ENDBRANCH  69  92
ENDBRANCH  43  44
ENDBRANCH  35  38
ENDBRANCH  33  34
ENDBRANCH  32  33
ENDBRANCH  31  32
ENDBRANCH   1  31
TORSDOF 16
ENDMDL
MODEL 2
REMARK VINA RESULT:     -13.4      5.222     10.500
REMARK SMILES CC(C)c1ccc(NC(=O)C(=O)N/N=C/c2ccccc2C(=O)NCCCCNC(=O)c2ccc(-c3c4nc(c(-c5c(F)c(F)c(F)c(F)c5F)c5ccc([nH]5)c(-c5c(F)c(F)c(F)c(F)c5F)c5nc(c(-c6c(F)c(F)c(F)c(F)c6F)c6ccc3[nH]6)C=C5)C=C4)cc2)cc1
REMARK SMILES IDX 25 1 24 2 22 3 23 4 21 6 16 7 17 8 18 9 20 10 19 11 15 12
REMARK SMILES IDX 14 13 13 14 11 15 12 16 9 18 8 19 10 21 7 22 4 23 5 24 96 25
REMARK SMILES IDX 6 26 95 27 2 28 1 29 3 30 26 31 27 32 28 33 29 34 30 35
REMARK SMILES IDX 31 37 32 38 33 39 94 40 34 41 93 42 35 43 36 44 37 45 87 46
REMARK SMILES IDX 38 47 92 48 86 49 88 50 39 51 91 52 85 53 84 54 40 56 72 57
REMARK SMILES IDX 52 58 71 59 53 60 56 61 70 62 89 63 54 64 55 65 69 67 90 68
REMARK SMILES IDX 57 69 41 70 42 71 50 72 43 73 44 74 48 75 51 76 45 77 46 78
REMARK SMILES IDX 49 79 47 80 73 81 74 82 82 83 75 84 76 85 80 86 83 87 77 88
REMARK SMILES IDX 78 89 81 90 79 91 58 92 59 93 67 94 60 95 61 96 65 97 68 98
REMARK SMILES IDX 62 99 63 100 66 101 64 102
REMARK H PARENT 24 5 13 17 8 20 29 36 88 55 56 66
REMARK Flexibility Score: inf
ROOT
ATOM      1  C   UNL A   1      38.201  23.776  26.230  1.00  0.00     0.116 C 
ENDROOT
BRANCH   1   2
ATOM      2  N   UNL A   1      37.488  23.703  24.986  1.00  0.00    -0.352 N 
ATOM      3  C   UNL A   1      36.141  23.641  24.729  1.00  0.00     0.251 C 
ATOM      4  O   UNL A   1      35.826  23.691  23.535  1.00  0.00    -0.269 OA
ATOM      5  H   UNL A   1      38.060  23.695  24.185  1.00  0.00     0.163 HD
BRANCH   3   6
ATOM      6  C   UNL A   1      35.040  23.437  25.728  1.00  0.00     0.048 A 
ATOM      7  C   UNL A   1      33.908  24.214  26.010  1.00  0.00     0.007 A 
ATOM      8  C   UNL A   1      32.943  23.780  26.948  1.00  0.00     0.010 A 
ATOM      9  C   UNL A   1      33.089  22.577  27.625  1.00  0.00     0.001 A 
ATOM     10  C   UNL A   1      35.158  22.218  26.441  1.00  0.00     0.014 A 
ATOM     11  C   UNL A   1      34.207  21.796  27.381  1.00  0.00     0.001 A 
BRANCH   7  12
ATOM     12  C   UNL A   1      33.632  25.585  25.584  1.00  0.00     0.142 C 
ATOM     13  N   UNL A   1      34.134  26.151  24.534  1.00  0.00    -0.180 NA
BRANCH  13  14
ATOM     14  N   UNL A   1      33.638  27.423  24.232  1.00  0.00    -0.239 N 
ATOM     15  C   UNL A   1      32.285  27.740  24.317  1.00  0.00     0.329 C 
ATOM     16  O   UNL A   1      31.671  27.815  25.373  1.00  0.00    -0.262 OA
ATOM     17  H   UNL A   1      34.270  28.123  23.950  1.00  0.00     0.194 HD
BRANCH  15  18
ATOM     18  C   UNL A   1      31.540  27.808  22.979  1.00  0.00     0.315 C 
ATOM     19  N   UNL A   1      31.529  26.731  22.118  1.00  0.00    -0.318 N 
ATOM     20  H   UNL A   1      31.274  26.965  21.197  1.00  0.00     0.170 HD
ATOM     21  O   UNL A   1      31.066  28.884  22.616  1.00  0.00    -0.263 OA
BRANCH  19  22
ATOM     22  C   UNL A   1      31.810  25.365  22.296  1.00  0.00     0.041 A 
ATOM     23  C   UNL A   1      32.337  22.644  22.914  1.00  0.00    -0.045 A 
ATOM     24  C   UNL A   1      33.127  23.346  22.000  1.00  0.00     0.006 A 
ATOM     25  C   UNL A   1      31.263  23.323  23.504  1.00  0.00     0.006 A 
ATOM     26  C   UNL A   1      32.871  24.693  21.703  1.00  0.00     0.026 A 
ATOM     27  C   UNL A   1      31.007  24.666  23.202  1.00  0.00     0.026 A 
BRANCH  23  28
ATOM     28  C   UNL A   1      32.656  21.224  23.355  1.00  0.00     0.013 C 
ATOM     29  C   UNL A   1      32.101  20.831  24.729  1.00  0.00     0.012 C 
ATOM     30  C   UNL A   1      32.153  20.240  22.293  1.00  0.00     0.012 C 
ENDBRANCH  23  28
ENDBRANCH  19  22
ENDBRANCH  15  18
ENDBRANCH  13  14
ENDBRANCH   7  12
ENDBRANCH   3   6
ENDBRANCH   1   2
BRANCH   1  31
ATOM     31  C   UNL A   1      39.200  22.657  26.503  1.00  0.00     0.023 C 
BRANCH  31  32
ATOM     32  C   UNL A   1      39.110  21.354  25.705  1.00  0.00     0.023 C 
BRANCH  32  33
ATOM     33  C   UNL A   1      39.292  20.020  26.417  1.00  0.00     0.116 C 
BRANCH  33  34
ATOM     34  N   UNL A   1      40.398  19.206  25.940  1.00  0.00    -0.352 N 
ATOM     35  C   UNL A   1      41.754  19.392  26.056  1.00  0.00     0.251 C 
ATOM     36  H   UNL A   1      40.132  18.391  25.457  1.00  0.00     0.163 HD
ATOM     37  O   UNL A   1      42.549  18.506  25.752  1.00  0.00    -0.269 OA
BRANCH  35  38
ATOM     38  C   UNL A   1      42.282  20.696  26.491  1.00  0.00     0.039 A 
ATOM     39  C   UNL A   1      42.701  21.609  25.514  1.00  0.00     0.014 A 
ATOM     40  C   UNL A   1      42.355  21.027  27.843  1.00  0.00     0.014 A 
ATOM     41  C   UNL A   1      43.134  22.881  25.892  1.00  0.00     0.010 A 
ATOM     42  C   UNL A   1      42.708  22.318  28.212  1.00  0.00     0.010 A 
ATOM     43  C   UNL A   1      43.115  23.251  27.242  1.00  0.00    -0.014 A 
BRANCH  43  44
ATOM     44  C   UNL A   1      43.598  24.577  27.698  1.00  0.00     0.031 A 
ATOM     45  C   UNL A   1      42.583  25.618  28.077  1.00  0.00     0.074 A 
ATOM     46  C   UNL A   1      44.911  24.871  27.681  1.00  0.00     0.049 A 
ATOM     47  N   UNL A   1      42.745  26.895  28.312  1.00  0.00    -0.248 NA
ATOM     48  C   UNL A   1      41.184  25.165  28.156  1.00  0.00     0.031 C 
ATOM     49  C   UNL A   1      45.983  23.950  27.304  1.00  0.00     0.029 A 
ATOM     50  N   UNL A   1      45.565  26.043  27.968  1.00  0.00    -0.354 N 
ATOM     51  C   UNL A   1      41.468  27.402  28.517  1.00  0.00     0.074 A 
ATOM     52  C   UNL A   1      40.541  26.307  28.338  1.00  0.00     0.031 C 
ATOM     53  C   UNL A   1      47.162  24.589  27.389  1.00  0.00     0.029 A 
ATOM     54  C   UNL A   1      46.925  25.973  27.790  1.00  0.00     0.049 A 
ATOM     55  H   UNL A   1      45.102  26.857  28.273  1.00  0.00     0.167 HD
ATOM     56  C   UNL A   1      41.105  28.665  28.843  1.00  0.00     0.037 A 
ATOM     57  C   UNL A   1      47.866  26.928  27.926  1.00  0.00     0.037 A 
ATOM     58  C   UNL A   1      42.043  29.730  29.072  1.00  0.00     0.049 A 
ATOM     59  C   UNL A   1      47.441  28.311  28.344  1.00  0.00     0.074 A 
ATOM     60  C   UNL A   1      41.794  31.037  29.449  1.00  0.00     0.029 A 
ATOM     61  N   UNL A   1      43.420  29.598  28.959  1.00  0.00    -0.354 N 
ATOM     62  N   UNL A   1      46.234  28.777  28.561  1.00  0.00    -0.248 NA
ATOM     63  C   UNL A   1      48.510  29.298  28.550  1.00  0.00     0.031 C 
ATOM     64  C   UNL A   1      43.021  31.702  29.546  1.00  0.00     0.029 A 
ATOM     65  C   UNL A   1      44.035  30.798  29.268  1.00  0.00     0.049 A 
ATOM     66  H   UNL A   1      43.890  28.773  28.698  1.00  0.00     0.167 HD
ATOM     67  C   UNL A   1      46.400  30.096  28.960  1.00  0.00     0.074 A 
ATOM     68  C   UNL A   1      47.826  30.353  28.966  1.00  0.00     0.031 C 
ATOM     69  C   UNL A   1      45.459  31.014  29.291  1.00  0.00     0.037 A 
BRANCH  56  70
ATOM     70  C   UNL A   1      39.638  28.951  28.969  1.00  0.00     0.064 A 
ATOM     71  C   UNL A   1      38.865  29.345  27.864  1.00  0.00     0.173 A 
ATOM     72  C   UNL A   1      38.991  28.827  30.208  1.00  0.00     0.173 A 
ATOM     73  F   UNL A   1      39.437  29.495  26.660  1.00  0.00    -0.203 F 
ATOM     74  C   UNL A   1      37.512  29.638  28.003  1.00  0.00     0.198 A 
ATOM     75  C   UNL A   1      37.630  29.089  30.336  1.00  0.00     0.198 A 
ATOM     76  F   UNL A   1      39.681  28.452  31.296  1.00  0.00    -0.203 F 
ATOM     77  F   UNL A   1      36.810  30.071  26.947  1.00  0.00    -0.200 F 
ATOM     78  C   UNL A   1      36.893  29.504  29.237  1.00  0.00     0.200 A 
ATOM     79  F   UNL A   1      37.031  28.949  31.527  1.00  0.00    -0.200 F 
ATOM     80  F   UNL A   1      35.590  29.785  29.369  1.00  0.00    -0.200 F 
ENDBRANCH  56  70
BRANCH  57  81
ATOM     81  C   UNL A   1      49.299  26.603  27.701  1.00  0.00     0.064 A 
ATOM     82  C   UNL A   1      49.805  26.464  26.401  1.00  0.00     0.173 A 
ATOM     83  C   UNL A   1      50.187  26.415  28.769  1.00  0.00     0.173 A 
ATOM     84  F   UNL A   1      48.991  26.614  25.346  1.00  0.00    -0.203 F 
ATOM     85  C   UNL A   1      51.140  26.129  26.178  1.00  0.00     0.198 A 
ATOM     86  C   UNL A   1      51.528  26.106  28.545  1.00  0.00     0.198 A 
ATOM     87  F   UNL A   1      49.755  26.540  30.032  1.00  0.00    -0.203 F 
ATOM     88  F   UNL A   1      51.585  25.958  24.926  1.00  0.00    -0.200 F 
ATOM     89  C   UNL A   1      52.001  25.954  27.250  1.00  0.00     0.200 A 
ATOM     90  F   UNL A   1      52.361  25.951  29.583  1.00  0.00    -0.200 F 
ATOM     91  F   UNL A   1      53.284  25.634  27.036  1.00  0.00    -0.200 F 
ENDBRANCH  57  81
BRANCH  69  92
ATOM     92  C   UNL A   1      45.945  32.358  29.745  1.00  0.00     0.064 A 
ATOM     93  C   UNL A   1      46.128  33.419  28.846  1.00  0.00     0.173 A 
ATOM     94  C   UNL A   1      46.194  32.594  31.106  1.00  0.00     0.173 A 
ATOM     95  F   UNL A   1      45.916  33.236  27.534  1.00  0.00    -0.203 F 
ATOM     96  C   UNL A   1      46.569  34.661  29.291  1.00  0.00     0.198 A 
ATOM     97  C   UNL A   1      46.609  33.846  31.549  1.00  0.00     0.198 A 
ATOM     98  F   UNL A   1      46.027  31.613  32.004  1.00  0.00    -0.203 F 
ATOM     99  F   UNL A   1      46.783  35.649  28.410  1.00  0.00    -0.200 F 
ATOM    100  C   UNL A   1      46.803  34.876  30.641  1.00  0.00     0.200 A 
ATOM    101  F   UNL A   1      46.822  34.055  32.856  1.00  0.00    -0.200 F 
ATOM    102  F   UNL A   1      47.224  36.075  31.067  1.00  0.00    -0.200 F 
ENDBRANCH  69  92
ENDBRANCH  43  44
ENDBRANCH  35  38
ENDBRANCH  33  34
ENDBRANCH  32  33
ENDBRANCH  31  32
ENDBRANCH   1  31
TORSDOF 16
ENDMDL
MODEL 3
REMARK VINA RESULT:     -13.3      1.259      2.058
REMARK SMILES CC(C)c1ccc(NC(=O)C(=O)N/N=C/c2ccccc2C(=O)NCCCCNC(=O)c2ccc(-c3c4nc(c(-c5c(F)c(F)c(F)c(F)c5F)c5ccc([nH]5)c(-c5c(F)c(F)c(F)c(F)c5F)c5nc(c(-c6c(F)c(F)c(F)c(F)c6F)c6ccc3[nH]6)C=C5)C=C4)cc2)cc1
REMARK SMILES IDX 25 1 24 2 22 3 23 4 21 6 16 7 17 8 18 9 20 10 19 11 15 12
REMARK SMILES IDX 14 13 13 14 11 15 12 16 9 18 8 19 10 21 7 22 4 23 5 24 96 25
REMARK SMILES IDX 6 26 95 27 2 28 1 29 3 30 26 31 27 32 28 33 29 34 30 35
REMARK SMILES IDX 31 37 32 38 33 39 94 40 34 41 93 42 35 43 36 44 37 45 87 46
REMARK SMILES IDX 38 47 92 48 86 49 88 50 39 51 91 52 85 53 84 54 40 56 72 57
REMARK SMILES IDX 52 58 71 59 53 60 56 61 70 62 89 63 54 64 55 65 69 67 90 68
REMARK SMILES IDX 57 69 41 70 42 71 50 72 43 73 44 74 48 75 51 76 45 77 46 78
REMARK SMILES IDX 49 79 47 80 73 81 74 82 82 83 75 84 76 85 80 86 83 87 77 88
REMARK SMILES IDX 78 89 81 90 79 91 58 92 59 93 67 94 60 95 61 96 65 97 68 98
REMARK SMILES IDX 62 99 63 100 66 101 64 102
REMARK H PARENT 24 5 13 17 8 20 29 36 88 55 56 66
REMARK Flexibility Score: inf
ROOT
ATOM      1  C   UNL A   1      32.641  29.872  25.789  1.00  0.00     0.116 C 
ENDROOT
BRANCH   1   2
ATOM      2  N   UNL A   1      33.146  29.504  24.496  1.00  0.00    -0.352 N 
ATOM      3  C   UNL A   1      32.495  29.059  23.374  1.00  0.00     0.251 C 
ATOM      4  O   UNL A   1      33.201  28.921  22.368  1.00  0.00    -0.269 OA
ATOM      5  H   UNL A   1      34.123  29.584  24.400  1.00  0.00     0.163 HD
BRANCH   3   6
ATOM      6  C   UNL A   1      31.055  28.650  23.269  1.00  0.00     0.048 A 
ATOM      7  C   UNL A   1      30.400  27.491  23.710  1.00  0.00     0.007 A 
ATOM      8  C   UNL A   1      29.000  27.352  23.578  1.00  0.00     0.010 A 
ATOM      9  C   UNL A   1      28.228  28.352  23.001  1.00  0.00     0.001 A 
ATOM     10  C   UNL A   1      30.237  29.647  22.681  1.00  0.00     0.014 A 
ATOM     11  C   UNL A   1      28.850  29.501  22.539  1.00  0.00     0.001 A 
BRANCH   7  12
ATOM     12  C   UNL A   1      31.003  26.238  24.161  1.00  0.00     0.142 C 
ATOM     13  N   UNL A   1      31.685  25.431  23.414  1.00  0.00    -0.180 NA
BRANCH  13  14
ATOM     14  N   UNL A   1      32.287  24.354  24.073  1.00  0.00    -0.239 N 
ATOM     15  C   UNL A   1      31.611  23.573  25.006  1.00  0.00     0.329 C 
ATOM     16  O   UNL A   1      30.698  22.810  24.717  1.00  0.00    -0.262 OA
ATOM     17  H   UNL A   1      33.226  24.139  23.869  1.00  0.00     0.194 HD
BRANCH  15  18
ATOM     18  C   UNL A   1      31.947  23.862  26.474  1.00  0.00     0.315 C 
ATOM     19  N   UNL A   1      33.133  23.430  27.028  1.00  0.00    -0.318 N 
ATOM     20  H   UNL A   1      33.127  23.418  28.012  1.00  0.00     0.170 HD
ATOM     21  O   UNL A   1      31.084  24.363  27.193  1.00  0.00    -0.263 OA
BRANCH  19  22
ATOM     22  C   UNL A   1      34.349  23.006  26.465  1.00  0.00     0.041 A 
ATOM     23  C   UNL A   1      36.799  21.945  25.497  1.00  0.00    -0.045 A 
ATOM     24  C   UNL A   1      36.641  23.315  25.720  1.00  0.00     0.006 A 
ATOM     25  C   UNL A   1      35.702  21.111  25.750  1.00  0.00     0.006 A 
ATOM     26  C   UNL A   1      35.434  23.836  26.207  1.00  0.00     0.026 A 
ATOM     27  C   UNL A   1      34.496  21.635  26.232  1.00  0.00     0.026 A 
BRANCH  23  28
ATOM     28  C   UNL A   1      38.128  21.327  25.088  1.00  0.00     0.013 C 
ATOM     29  C   UNL A   1      39.301  21.628  26.029  1.00  0.00     0.012 C 
ATOM     30  C   UNL A   1      37.956  19.811  24.944  1.00  0.00     0.012 C 
ENDBRANCH  23  28
ENDBRANCH  19  22
ENDBRANCH  15  18
ENDBRANCH  13  14
ENDBRANCH   7  12
ENDBRANCH   3   6
ENDBRANCH   1   2
BRANCH   1  31
ATOM     31  C   UNL A   1      31.420  30.783  25.802  1.00  0.00     0.023 C 
BRANCH  31  32
ATOM     32  C   UNL A   1      31.344  31.929  26.814  1.00  0.00     0.023 C 
BRANCH  32  33
ATOM     33  C   UNL A   1      32.551  32.835  27.021  1.00  0.00     0.116 C 
BRANCH  33  34
ATOM     34  N   UNL A   1      32.273  34.106  27.667  1.00  0.00    -0.352 N 
ATOM     35  C   UNL A   1      33.029  34.839  28.549  1.00  0.00     0.251 C 
ATOM     36  H   UNL A   1      31.403  34.505  27.437  1.00  0.00     0.163 HD
ATOM     37  O   UNL A   1      32.718  35.987  28.857  1.00  0.00    -0.269 OA
BRANCH  35  38
ATOM     38  C   UNL A   1      34.203  34.228  29.195  1.00  0.00     0.039 A 
ATOM     39  C   UNL A   1      35.479  34.590  28.743  1.00  0.00     0.014 A 
ATOM     40  C   UNL A   1      34.057  33.320  30.242  1.00  0.00     0.014 A 
ATOM     41  C   UNL A   1      36.612  34.087  29.385  1.00  0.00     0.010 A 
ATOM     42  C   UNL A   1      35.181  32.885  30.931  1.00  0.00     0.010 A 
ATOM     43  C   UNL A   1      36.468  33.251  30.500  1.00  0.00    -0.014 A 
BRANCH  43  44
ATOM     44  C   UNL A   1      37.638  32.664  31.195  1.00  0.00     0.031 A 
ATOM     45  C   UNL A   1      38.377  31.538  30.529  1.00  0.00     0.074 A 
ATOM     46  C   UNL A   1      37.973  33.068  32.434  1.00  0.00     0.049 A 
ATOM     47  N   UNL A   1      39.294  30.739  31.013  1.00  0.00    -0.248 NA
ATOM     48  C   UNL A   1      37.995  31.240  29.138  1.00  0.00     0.031 C 
ATOM     49  C   UNL A   1      37.311  34.131  33.189  1.00  0.00     0.029 A 
ATOM     50  N   UNL A   1      38.945  32.610  33.288  1.00  0.00    -0.354 N 
ATOM     51  C   UNL A   1      39.558  29.820  30.005  1.00  0.00     0.074 A 
ATOM     52  C   UNL A   1      38.679  30.133  28.901  1.00  0.00     0.031 C 
ATOM     53  C   UNL A   1      37.899  34.248  34.392  1.00  0.00     0.029 A 
ATOM     54  C   UNL A   1      38.954  33.245  34.505  1.00  0.00     0.049 A 
ATOM     55  H   UNL A   1      39.577  31.892  33.050  1.00  0.00     0.167 HD
ATOM     56  C   UNL A   1      40.467  28.817  29.998  1.00  0.00     0.037 A 
ATOM     57  C   UNL A   1      39.723  33.028  35.590  1.00  0.00     0.037 A 
ATOM     58  C   UNL A   1      41.373  28.553  31.082  1.00  0.00     0.049 A 
ATOM     59  C   UNL A   1      40.765  31.942  35.535  1.00  0.00     0.074 A 
ATOM     60  C   UNL A   1      42.365  27.593  31.168  1.00  0.00     0.029 A 
ATOM     61  N   UNL A   1      41.404  29.273  32.269  1.00  0.00    -0.354 N 
ATOM     62  N   UNL A   1      41.027  31.094  34.570  1.00  0.00    -0.248 NA
ATOM     63  C   UNL A   1      41.628  31.792  36.715  1.00  0.00     0.031 C 
ATOM     64  C   UNL A   1      42.984  27.719  32.417  1.00  0.00     0.029 A 
ATOM     65  C   UNL A   1      42.404  28.784  33.090  1.00  0.00     0.049 A 
ATOM     66  H   UNL A   1      40.804  30.020  32.493  1.00  0.00     0.167 HD
ATOM     67  C   UNL A   1      42.103  30.334  35.010  1.00  0.00     0.074 A 
ATOM     68  C   UNL A   1      42.451  30.830  36.325  1.00  0.00     0.031 C 
ATOM     69  C   UNL A   1      42.744  29.317  34.385  1.00  0.00     0.037 A 
BRANCH  56  70
ATOM     70  C   UNL A   1      40.519  27.941  28.780  1.00  0.00     0.064 A 
ATOM     71  C   UNL A   1      41.290  28.285  27.657  1.00  0.00     0.173 A 
ATOM     72  C   UNL A   1      39.794  26.741  28.733  1.00  0.00     0.173 A 
ATOM     73  F   UNL A   1      41.988  29.430  27.643  1.00  0.00    -0.203 F 
ATOM     74  C   UNL A   1      41.304  27.479  26.523  1.00  0.00     0.198 A 
ATOM     75  C   UNL A   1      39.837  25.921  27.609  1.00  0.00     0.198 A 
ATOM     76  F   UNL A   1      39.043  26.364  29.779  1.00  0.00    -0.203 F 
ATOM     77  F   UNL A   1      41.998  27.858  25.442  1.00  0.00    -0.200 F 
ATOM     78  C   UNL A   1      40.582  26.294  26.501  1.00  0.00     0.200 A 
ATOM     79  F   UNL A   1      39.148  24.771  27.594  1.00  0.00    -0.200 F 
ATOM     80  F   UNL A   1      40.598  25.519  25.409  1.00  0.00    -0.200 F 
ENDBRANCH  56  70
BRANCH  57  81
ATOM     81  C   UNL A   1      39.564  33.875  36.801  1.00  0.00     0.064 A 
ATOM     82  C   UNL A   1      38.802  33.428  37.891  1.00  0.00     0.173 A 
ATOM     83  C   UNL A   1      40.155  35.143  36.896  1.00  0.00     0.173 A 
ATOM     84  F   UNL A   1      38.200  32.231  37.841  1.00  0.00    -0.203 F 
ATOM     85  C   UNL A   1      38.620  34.226  39.019  1.00  0.00     0.198 A 
ATOM     86  C   UNL A   1      39.994  35.929  38.036  1.00  0.00     0.198 A 
ATOM     87  F   UNL A   1      40.897  35.615  35.884  1.00  0.00    -0.203 F 
ATOM     88  F   UNL A   1      37.849  33.792  40.026  1.00  0.00    -0.200 F 
ATOM     89  C   UNL A   1      39.220  35.474  39.092  1.00  0.00     0.200 A 
ATOM     90  F   UNL A   1      40.585  37.129  38.110  1.00  0.00    -0.200 F 
ATOM     91  F   UNL A   1      39.046  36.240  40.178  1.00  0.00    -0.200 F 
ENDBRANCH  57  81
BRANCH  69  92
ATOM     92  C   UNL A   1      43.924  28.717  35.089  1.00  0.00     0.064 A 
ATOM     93  C   UNL A   1      43.779  27.671  36.012  1.00  0.00     0.173 A 
ATOM     94  C   UNL A   1      45.220  29.173  34.805  1.00  0.00     0.173 A 
ATOM     95  F   UNL A   1      42.558  27.212  36.325  1.00  0.00    -0.203 F 
ATOM     96  C   UNL A   1      44.889  27.122  36.646  1.00  0.00     0.198 A 
ATOM     97  C   UNL A   1      46.329  28.602  35.421  1.00  0.00     0.198 A 
ATOM     98  F   UNL A   1      45.411  30.166  33.924  1.00  0.00    -0.203 F 
ATOM     99  F   UNL A   1      44.725  26.154  37.560  1.00  0.00    -0.200 F 
ATOM    100  C   UNL A   1      46.163  27.582  36.346  1.00  0.00     0.200 A 
ATOM    101  F   UNL A   1      47.560  29.039  35.121  1.00  0.00    -0.200 F 
ATOM    102  F   UNL A   1      47.230  27.048  36.955  1.00  0.00    -0.200 F 
ENDBRANCH  69  92
ENDBRANCH  43  44
ENDBRANCH  35  38
ENDBRANCH  33  34
ENDBRANCH  32  33
ENDBRANCH  31  32
ENDBRANCH   1  31
TORSDOF 16
ENDMDL
