MODEL 1
REMARK VINA RESULT:     -14.3      0.000      0.000
REMARK SMILES Cc1ccc(CCC(=O)N2CCC3(CC2)[C@H](C(=O)NCCCCNC(=O)c2ccc(-c4c5nc(c(-c6c(F)c(F)c(F)c(F)c6F)c6ccc([nH]6)c(-c6c(F)c(F)c(F)c(F)c6F)c6nc(c(-c7c(F)c(F)c(F)c(F)c7F)c7ccc4[nH]7)C=C6)C=C5)cc2)CC(=O)N3C)cc1
REMARK SMILES IDX 21 1 20 2 19 3 17 4 18 5 16 7 8 8 9 9 10 10 11 11 15 12
REMARK SMILES IDX 12 13 14 14 13 15 93 16 90 17 91 18 94 19 92 20 7 21 6 22
REMARK SMILES IDX 5 23 1 24 2 25 3 26 96 27 4 28 95 29 22 30 23 31 24 32 25 33
REMARK SMILES IDX 26 35 27 36 28 37 89 38 29 39 88 40 30 41 31 42 32 43 82 44
REMARK SMILES IDX 33 45 87 46 81 47 83 48 34 49 86 50 80 51 79 52 35 54 67 55
REMARK SMILES IDX 47 56 66 57 48 58 51 59 65 60 84 61 49 62 50 63 64 65 85 66
REMARK SMILES IDX 52 67 36 68 37 69 45 70 38 71 39 72 43 73 46 74 40 75 41 76
REMARK SMILES IDX 44 77 42 78 68 79 69 80 77 81 70 82 71 83 75 84 78 85 72 86
REMARK SMILES IDX 73 87 76 88 74 89 53 90 54 91 62 92 55 93 56 94 60 95 63 96
REMARK SMILES IDX 57 97 58 98 61 99 59 100
REMARK H PARENT 19 6 24 34 83 53 51 64
REMARK Flexibility Score: inf
ROOT
ATOM      1  C   UNL A   1      34.562  29.135  26.814  1.00  0.00     0.023 C 
ENDROOT
BRANCH   1   2
ATOM      2  C   UNL A   1      33.783  28.945  25.500  1.00  0.00     0.116 C 
BRANCH   2   3
ATOM      3  N   UNL A   1      32.599  29.777  25.307  1.00  0.00    -0.356 N 
ATOM      4  C   UNL A   1      31.473  29.712  24.554  1.00  0.00     0.226 C 
ATOM      5  O   UNL A   1      30.629  30.589  24.787  1.00  0.00    -0.275 OA
ATOM      6  H   UNL A   1      32.624  30.588  25.864  1.00  0.00     0.163 HD
BRANCH   4   7
ATOM      7  C   UNL A   1      31.167  28.683  23.461  1.00  0.00     0.113 C 
ATOM      8  C   UNL A   1      31.741  23.769  25.361  1.00  0.00     0.222 C 
ATOM      9  O   UNL A   1      31.782  23.392  26.536  1.00  0.00    -0.275 OA
ATOM     10  N   UNL A   1      30.808  24.704  24.952  1.00  0.00    -0.343 N 
ATOM     11  C   UNL A   1      30.316  25.700  25.878  1.00  0.00     0.122 C 
ATOM     12  C   UNL A   1      30.295  24.880  23.619  1.00  0.00     0.122 C 
ATOM     13  C   UNL A   1      30.743  27.066  25.352  1.00  0.00     0.051 C 
ATOM     14  C   UNL A   1      30.791  26.188  23.008  1.00  0.00     0.051 C 
ATOM     15  C   UNL A   1      30.383  27.409  23.874  1.00  0.00     0.058 C 
ATOM     16  N   UNL A   1      29.015  27.815  23.492  1.00  0.00    -0.339 N 
ATOM     17  C   UNL A   1      30.410  29.305  22.301  1.00  0.00     0.116 C 
ATOM     18  C   UNL A   1      29.015  28.799  22.494  1.00  0.00     0.223 C 
ATOM     19  C   UNL A   1      27.797  27.047  23.686  1.00  0.00     0.147 C 
ATOM     20  O   UNL A   1      28.052  29.184  21.850  1.00  0.00    -0.275 OA
BRANCH   8  21
ATOM     21  C   UNL A   1      32.888  23.391  24.416  1.00  0.00     0.105 C 
BRANCH  21  22
ATOM     22  C   UNL A   1      33.997  24.404  24.085  1.00  0.00     0.045 C 
BRANCH  22  23
ATOM     23  C   UNL A   1      35.406  23.889  24.340  1.00  0.00    -0.047 A 
ATOM     24  C   UNL A   1      38.649  21.474  25.775  1.00  0.00     0.044 C 
ATOM     25  C   UNL A   1      37.647  22.433  25.203  1.00  0.00    -0.051 A 
ATOM     26  C   UNL A   1      37.184  23.520  25.951  1.00  0.00     0.004 A 
ATOM     27  C   UNL A   1      37.090  22.189  23.944  1.00  0.00     0.004 A 
ATOM     28  C   UNL A   1      36.093  24.270  25.503  1.00  0.00     0.004 A 
ATOM     29  C   UNL A   1      35.981  22.919  23.510  1.00  0.00     0.004 A 
ENDBRANCH  22  23
ENDBRANCH  21  22
ENDBRANCH   8  21
ENDBRANCH   4   7
ENDBRANCH   2   3
ENDBRANCH   1   2
BRANCH   1  30
ATOM     30  C   UNL A   1      34.118  30.291  27.720  1.00  0.00     0.023 C 
BRANCH  30  31
ATOM     31  C   UNL A   1      35.106  31.432  27.724  1.00  0.00     0.116 C 
BRANCH  31  32
ATOM     32  N   UNL A   1      35.545  31.847  29.050  1.00  0.00    -0.352 N 
ATOM     33  C   UNL A   1      36.374  31.174  29.930  1.00  0.00     0.251 C 
ATOM     34  H   UNL A   1      35.208  32.717  29.361  1.00  0.00     0.163 HD
ATOM     35  O   UNL A   1      36.592  31.608  31.055  1.00  0.00    -0.269 OA
BRANCH  33  36
ATOM     36  C   UNL A   1      37.100  29.985  29.432  1.00  0.00     0.039 A 
ATOM     37  C   UNL A   1      37.402  28.979  30.354  1.00  0.00     0.014 A 
ATOM     38  C   UNL A   1      37.727  30.029  28.188  1.00  0.00     0.014 A 
ATOM     39  C   UNL A   1      38.514  28.174  30.131  1.00  0.00     0.010 A 
ATOM     40  C   UNL A   1      38.899  29.319  28.026  1.00  0.00     0.010 A 
ATOM     41  C   UNL A   1      39.324  28.434  29.024  1.00  0.00    -0.014 A 
BRANCH  41  42
ATOM     42  C   UNL A   1      40.654  27.863  28.866  1.00  0.00     0.031 A 
ATOM     43  C   UNL A   1      40.791  26.429  28.540  1.00  0.00     0.074 A 
ATOM     44  C   UNL A   1      41.758  28.632  28.997  1.00  0.00     0.049 A 
ATOM     45  N   UNL A   1      41.785  25.694  28.907  1.00  0.00    -0.248 NA
ATOM     46  C   UNL A   1      39.774  25.696  27.798  1.00  0.00     0.031 C 
ATOM     47  C   UNL A   1      43.137  28.256  28.693  1.00  0.00     0.029 A 
ATOM     48  N   UNL A   1      41.872  29.881  29.633  1.00  0.00    -0.354 N 
ATOM     49  C   UNL A   1      41.678  24.488  28.252  1.00  0.00     0.074 A 
ATOM     50  C   UNL A   1      40.379  24.519  27.620  1.00  0.00     0.031 C 
ATOM     51  C   UNL A   1      43.966  29.048  29.390  1.00  0.00     0.029 A 
ATOM     52  C   UNL A   1      43.145  29.880  30.252  1.00  0.00     0.049 A 
ATOM     53  H   UNL A   1      41.205  30.606  29.646  1.00  0.00     0.167 HD
ATOM     54  C   UNL A   1      42.755  23.652  28.209  1.00  0.00     0.037 A 
ATOM     55  C   UNL A   1      43.285  30.000  31.603  1.00  0.00     0.037 A 
ATOM     56  C   UNL A   1      43.883  24.211  28.948  1.00  0.00     0.049 A 
ATOM     57  C   UNL A   1      43.983  28.827  32.246  1.00  0.00     0.074 A 
ATOM     58  C   UNL A   1      44.988  24.942  28.540  1.00  0.00     0.029 A 
ATOM     59  N   UNL A   1      43.811  24.344  30.329  1.00  0.00    -0.354 N 
ATOM     60  N   UNL A   1      44.127  27.668  31.667  1.00  0.00    -0.248 NA
ATOM     61  C   UNL A   1      44.526  28.846  33.601  1.00  0.00     0.031 C 
ATOM     62  C   UNL A   1      45.554  25.557  29.682  1.00  0.00     0.029 A 
ATOM     63  C   UNL A   1      44.808  25.184  30.785  1.00  0.00     0.049 A 
ATOM     64  H   UNL A   1      43.144  23.900  30.903  1.00  0.00     0.167 HD
ATOM     65  C   UNL A   1      44.727  26.795  32.535  1.00  0.00     0.074 A 
ATOM     66  C   UNL A   1      44.978  27.585  33.725  1.00  0.00     0.031 C 
ATOM     67  C   UNL A   1      44.946  25.490  32.200  1.00  0.00     0.037 A 
BRANCH  54  68
ATOM     68  C   UNL A   1      42.881  22.496  27.239  1.00  0.00     0.064 A 
ATOM     69  C   UNL A   1      42.096  21.332  27.392  1.00  0.00     0.173 A 
ATOM     70  C   UNL A   1      43.799  22.446  26.174  1.00  0.00     0.173 A 
ATOM     71  F   UNL A   1      41.089  21.275  28.273  1.00  0.00    -0.203 F 
ATOM     72  C   UNL A   1      42.316  20.172  26.643  1.00  0.00     0.198 A 
ATOM     73  C   UNL A   1      44.061  21.270  25.464  1.00  0.00     0.198 A 
ATOM     74  F   UNL A   1      44.429  23.549  25.750  1.00  0.00    -0.203 F 
ATOM     75  F   UNL A   1      41.546  19.094  26.847  1.00  0.00    -0.200 F 
ATOM     76  C   UNL A   1      43.330  20.127  25.710  1.00  0.00     0.200 A 
ATOM     77  F   UNL A   1      45.032  21.256  24.538  1.00  0.00    -0.200 F 
ATOM     78  F   UNL A   1      43.580  18.999  25.031  1.00  0.00    -0.200 F 
ENDBRANCH  54  68
BRANCH  55  79
ATOM     79  C   UNL A   1      42.209  30.814  32.227  1.00  0.00     0.064 A 
ATOM     80  C   UNL A   1      42.283  32.215  32.098  1.00  0.00     0.173 A 
ATOM     81  C   UNL A   1      40.971  30.258  32.566  1.00  0.00     0.173 A 
ATOM     82  F   UNL A   1      43.448  32.794  31.772  1.00  0.00    -0.203 F 
ATOM     83  C   UNL A   1      41.141  33.010  32.170  1.00  0.00     0.198 A 
ATOM     84  C   UNL A   1      39.833  31.062  32.658  1.00  0.00     0.198 A 
ATOM     85  F   UNL A   1      40.834  28.930  32.685  1.00  0.00    -0.203 F 
ATOM     86  F   UNL A   1      41.221  34.323  31.908  1.00  0.00    -0.200 F 
ATOM     87  C   UNL A   1      39.912  32.427  32.421  1.00  0.00     0.200 A 
ATOM     88  F   UNL A   1      38.637  30.498  32.882  1.00  0.00    -0.200 F 
ATOM     89  F   UNL A   1      38.798  33.174  32.391  1.00  0.00    -0.200 F 
ENDBRANCH  55  79
BRANCH  67  90
ATOM     90  C   UNL A   1      45.391  24.396  33.138  1.00  0.00     0.064 A 
ATOM     91  C   UNL A   1      44.600  23.286  33.472  1.00  0.00     0.173 A 
ATOM     92  C   UNL A   1      46.724  24.364  33.613  1.00  0.00     0.173 A 
ATOM     93  F   UNL A   1      43.357  23.145  32.993  1.00  0.00    -0.203 F 
ATOM     94  C   UNL A   1      45.089  22.246  34.269  1.00  0.00     0.198 A 
ATOM     95  C   UNL A   1      47.225  23.300  34.359  1.00  0.00     0.198 A 
ATOM     96  F   UNL A   1      47.587  25.356  33.346  1.00  0.00    -0.203 F 
ATOM     97  F   UNL A   1      44.285  21.223  34.593  1.00  0.00    -0.200 F 
ATOM     98  C   UNL A   1      46.403  22.246  34.699  1.00  0.00     0.200 A 
ATOM     99  F   UNL A   1      48.515  23.291  34.725  1.00  0.00    -0.200 F 
ATOM    100  F   UNL A   1      46.881  21.223  35.421  1.00  0.00    -0.200 F 
ENDBRANCH  67  90
ENDBRANCH  41  42
ENDBRANCH  33  36
ENDBRANCH  31  32
ENDBRANCH  30  31
ENDBRANCH   1  30
TORSDOF 14
ENDMDL
MODEL 2
REMARK VINA RESULT:     -14.0      3.765     10.250
REMARK SMILES Cc1ccc(CCC(=O)N2CCC3(CC2)[C@H](C(=O)NCCCCNC(=O)c2ccc(-c4c5nc(c(-c6c(F)c(F)c(F)c(F)c6F)c6ccc([nH]6)c(-c6c(F)c(F)c(F)c(F)c6F)c6nc(c(-c7c(F)c(F)c(F)c(F)c7F)c7ccc4[nH]7)C=C6)C=C5)cc2)CC(=O)N3C)cc1
REMARK SMILES IDX 21 1 20 2 19 3 17 4 18 5 16 7 8 8 9 9 10 10 11 11 15 12
REMARK SMILES IDX 12 13 14 14 13 15 93 16 90 17 91 18 94 19 92 20 7 21 6 22
REMARK SMILES IDX 5 23 1 24 2 25 3 26 96 27 4 28 95 29 22 30 23 31 24 32 25 33
REMARK SMILES IDX 26 35 27 36 28 37 89 38 29 39 88 40 30 41 31 42 32 43 82 44
REMARK SMILES IDX 33 45 87 46 81 47 83 48 34 49 86 50 80 51 79 52 35 54 67 55
REMARK SMILES IDX 47 56 66 57 48 58 51 59 65 60 84 61 49 62 50 63 64 65 85 66
REMARK SMILES IDX 52 67 36 68 37 69 45 70 38 71 39 72 43 73 46 74 40 75 41 76
REMARK SMILES IDX 44 77 42 78 68 79 69 80 77 81 70 82 71 83 75 84 78 85 72 86
REMARK SMILES IDX 73 87 76 88 74 89 53 90 54 91 62 92 55 93 56 94 60 95 63 96
REMARK SMILES IDX 57 97 58 98 61 99 59 100
REMARK H PARENT 19 6 24 34 83 53 51 64
REMARK Flexibility Score: inf
ROOT
ATOM      1  C   UNL A   1      38.031  23.672  26.173  1.00  0.00     0.023 C 
ENDROOT
BRANCH   1   2
ATOM      2  C   UNL A   1      36.631  23.167  25.775  1.00  0.00     0.116 C 
BRANCH   2   3
ATOM      3  N   UNL A   1      36.500  21.743  25.486  1.00  0.00    -0.356 N 
ATOM      4  C   UNL A   1      35.478  20.889  25.228  1.00  0.00     0.226 C 
ATOM      5  O   UNL A   1      35.815  19.744  24.899  1.00  0.00    -0.275 OA
ATOM      6  H   UNL A   1      37.373  21.288  25.474  1.00  0.00     0.163 HD
BRANCH   4   7
ATOM      7  C   UNL A   1      33.982  21.207  25.320  1.00  0.00     0.113 C 
ATOM      8  C   UNL A   1      32.884  25.633  22.619  1.00  0.00     0.222 C 
ATOM      9  O   UNL A   1      33.561  26.205  21.759  1.00  0.00    -0.275 OA
ATOM     10  N   UNL A   1      32.745  24.257  22.609  1.00  0.00    -0.343 N 
ATOM     11  C   UNL A   1      33.795  23.419  22.074  1.00  0.00     0.122 C 
ATOM     12  C   UNL A   1      31.660  23.499  23.174  1.00  0.00     0.122 C 
ATOM     13  C   UNL A   1      34.324  22.562  23.218  1.00  0.00     0.051 C 
ATOM     14  C   UNL A   1      32.121  22.709  24.397  1.00  0.00     0.051 C 
ATOM     15  C   UNL A   1      33.284  21.745  24.042  1.00  0.00     0.058 C 
ATOM     16  N   UNL A   1      32.705  20.489  23.519  1.00  0.00    -0.339 N 
ATOM     17  C   UNL A   1      33.180  20.004  25.783  1.00  0.00     0.116 C 
ATOM     18  C   UNL A   1      32.512  19.536  24.528  1.00  0.00     0.223 C 
ATOM     19  C   UNL A   1      31.961  20.328  22.283  1.00  0.00     0.147 C 
ATOM     20  O   UNL A   1      31.882  18.495  24.436  1.00  0.00    -0.275 OA
BRANCH   8  21
ATOM     21  C   UNL A   1      32.411  26.426  23.844  1.00  0.00     0.105 C 
BRANCH  21  22
ATOM     22  C   UNL A   1      32.952  26.098  25.247  1.00  0.00     0.045 C 
BRANCH  22  23
ATOM     23  C   UNL A   1      33.092  27.310  26.156  1.00  0.00    -0.047 A 
ATOM     24  C   UNL A   1      33.371  31.380  27.486  1.00  0.00     0.044 C 
ATOM     25  C   UNL A   1      33.307  29.909  27.200  1.00  0.00    -0.051 A 
ATOM     26  C   UNL A   1      34.457  29.193  26.854  1.00  0.00     0.004 A 
ATOM     27  C   UNL A   1      32.070  29.256  27.181  1.00  0.00     0.004 A 
ATOM     28  C   UNL A   1      34.354  27.885  26.371  1.00  0.00     0.004 A 
ATOM     29  C   UNL A   1      31.964  27.961  26.671  1.00  0.00     0.004 A 
ENDBRANCH  22  23
ENDBRANCH  21  22
ENDBRANCH   8  21
ENDBRANCH   4   7
ENDBRANCH   2   3
ENDBRANCH   1   2
BRANCH   1  30
ATOM     30  C   UNL A   1      39.122  22.609  26.357  1.00  0.00     0.023 C 
BRANCH  30  31
ATOM     31  C   UNL A   1      40.179  23.034  27.347  1.00  0.00     0.116 C 
BRANCH  31  32
ATOM     32  N   UNL A   1      41.411  23.524  26.743  1.00  0.00    -0.352 N 
ATOM     33  C   UNL A   1      41.737  24.822  26.392  1.00  0.00     0.251 C 
ATOM     34  H   UNL A   1      42.099  22.846  26.561  1.00  0.00     0.163 HD
ATOM     35  O   UNL A   1      42.786  25.078  25.810  1.00  0.00    -0.269 OA
BRANCH  33  36
ATOM     36  C   UNL A   1      40.852  25.913  26.854  1.00  0.00     0.039 A 
ATOM     37  C   UNL A   1      41.003  27.166  26.254  1.00  0.00     0.014 A 
ATOM     38  C   UNL A   1      40.144  25.770  28.045  1.00  0.00     0.014 A 
ATOM     39  C   UNL A   1      40.667  28.305  26.979  1.00  0.00     0.010 A 
ATOM     40  C   UNL A   1      39.927  26.896  28.812  1.00  0.00     0.010 A 
ATOM     41  C   UNL A   1      40.244  28.160  28.302  1.00  0.00    -0.014 A 
BRANCH  41  42
ATOM     42  C   UNL A   1      40.160  29.279  29.232  1.00  0.00     0.031 A 
ATOM     43  C   UNL A   1      39.062  30.256  29.091  1.00  0.00     0.074 A 
ATOM     44  C   UNL A   1      41.065  29.420  30.226  1.00  0.00     0.049 A 
ATOM     45  N   UNL A   1      39.153  31.500  29.413  1.00  0.00    -0.248 NA
ATOM     46  C   UNL A   1      37.767  29.900  28.524  1.00  0.00     0.031 C 
ATOM     47  C   UNL A   1      41.014  30.370  31.335  1.00  0.00     0.029 A 
ATOM     48  N   UNL A   1      42.343  28.842  30.324  1.00  0.00    -0.354 N 
ATOM     49  C   UNL A   1      37.891  32.045  29.345  1.00  0.00     0.074 A 
ATOM     50  C   UNL A   1      37.075  31.023  28.733  1.00  0.00     0.031 C 
ATOM     51  C   UNL A   1      42.258  30.557  31.803  1.00  0.00     0.029 A 
ATOM     52  C   UNL A   1      43.160  29.823  30.933  1.00  0.00     0.049 A 
ATOM     53  H   UNL A   1      42.613  27.942  30.028  1.00  0.00     0.167 HD
ATOM     54  C   UNL A   1      37.649  33.250  29.936  1.00  0.00     0.037 A 
ATOM     55  C   UNL A   1      44.247  30.347  30.298  1.00  0.00     0.037 A 
ATOM     56  C   UNL A   1      38.864  33.793  30.537  1.00  0.00     0.049 A 
ATOM     57  C   UNL A   1      44.174  31.841  30.104  1.00  0.00     0.074 A 
ATOM     58  C   UNL A   1      39.357  33.752  31.831  1.00  0.00     0.029 A 
ATOM     59  N   UNL A   1      39.918  34.196  29.726  1.00  0.00    -0.354 N 
ATOM     60  N   UNL A   1      43.069  32.527  30.198  1.00  0.00    -0.248 NA
ATOM     61  C   UNL A   1      45.318  32.672  29.742  1.00  0.00     0.031 C 
ATOM     62  C   UNL A   1      40.731  34.087  31.790  1.00  0.00     0.029 A 
ATOM     63  C   UNL A   1      41.069  34.353  30.475  1.00  0.00     0.049 A 
ATOM     64  H   UNL A   1      39.854  34.351  28.755  1.00  0.00     0.167 HD
ATOM     65  C   UNL A   1      43.317  33.837  29.891  1.00  0.00     0.074 A 
ATOM     66  C   UNL A   1      44.745  33.884  29.634  1.00  0.00     0.031 C 
ATOM     67  C   UNL A   1      42.318  34.766  29.857  1.00  0.00     0.037 A 
BRANCH  54  68
ATOM     68  C   UNL A   1      36.260  33.770  30.243  1.00  0.00     0.064 A 
ATOM     69  C   UNL A   1      35.386  34.160  29.204  1.00  0.00     0.173 A 
ATOM     70  C   UNL A   1      35.751  33.967  31.539  1.00  0.00     0.173 A 
ATOM     71  F   UNL A   1      35.670  33.914  27.919  1.00  0.00    -0.203 F 
ATOM     72  C   UNL A   1      34.180  34.823  29.444  1.00  0.00     0.198 A 
ATOM     73  C   UNL A   1      34.574  34.682  31.783  1.00  0.00     0.198 A 
ATOM     74  F   UNL A   1      36.348  33.424  32.608  1.00  0.00    -0.203 F 
ATOM     75  F   UNL A   1      33.401  35.181  28.414  1.00  0.00    -0.200 F 
ATOM     76  C   UNL A   1      33.795  35.125  30.734  1.00  0.00     0.200 A 
ATOM     77  F   UNL A   1      34.202  34.939  33.045  1.00  0.00    -0.200 F 
ATOM     78  F   UNL A   1      32.668  35.810  30.965  1.00  0.00    -0.200 F 
ENDBRANCH  54  68
BRANCH  55  79
ATOM     79  C   UNL A   1      44.893  29.385  29.366  1.00  0.00     0.064 A 
ATOM     80  C   UNL A   1      45.681  28.357  29.921  1.00  0.00     0.173 A 
ATOM     81  C   UNL A   1      44.439  29.217  28.054  1.00  0.00     0.173 A 
ATOM     82  F   UNL A   1      46.139  28.472  31.177  1.00  0.00    -0.203 F 
ATOM     83  C   UNL A   1      45.892  27.160  29.243  1.00  0.00     0.198 A 
ATOM     84  C   UNL A   1      44.670  28.022  27.369  1.00  0.00     0.198 A 
ATOM     85  F   UNL A   1      43.668  30.151  27.478  1.00  0.00    -0.203 F 
ATOM     86  F   UNL A   1      46.531  26.148  29.849  1.00  0.00    -0.200 F 
ATOM     87  C   UNL A   1      45.359  26.982  27.978  1.00  0.00     0.200 A 
ATOM     88  F   UNL A   1      44.139  27.840  26.151  1.00  0.00    -0.200 F 
ATOM     89  F   UNL A   1      45.473  25.796  27.364  1.00  0.00    -0.200 F 
ENDBRANCH  55  79
BRANCH  67  90
ATOM     90  C   UNL A   1      42.432  36.173  29.324  1.00  0.00     0.064 A 
ATOM     91  C   UNL A   1      43.178  37.185  29.947  1.00  0.00     0.173 A 
ATOM     92  C   UNL A   1      41.899  36.499  28.054  1.00  0.00     0.173 A 
ATOM     93  F   UNL A   1      43.824  36.966  31.100  1.00  0.00    -0.203 F 
ATOM     94  C   UNL A   1      43.335  38.448  29.367  1.00  0.00     0.198 A 
ATOM     95  C   UNL A   1      42.105  37.738  27.454  1.00  0.00     0.198 A 
ATOM     96  F   UNL A   1      41.182  35.611  27.347  1.00  0.00    -0.203 F 
ATOM     97  F   UNL A   1      44.026  39.395  30.017  1.00  0.00    -0.200 F 
ATOM     98  C   UNL A   1      42.811  38.719  28.117  1.00  0.00     0.200 A 
ATOM     99  F   UNL A   1      41.634  37.968  26.219  1.00  0.00    -0.200 F 
ATOM    100  F   UNL A   1      43.006  39.915  27.544  1.00  0.00    -0.200 F 
ENDBRANCH  67  90
ENDBRANCH  41  42
ENDBRANCH  33  36
ENDBRANCH  31  32
ENDBRANCH  30  31
ENDBRANCH   1  30
TORSDOF 14
ENDMDL
MODEL 3
REMARK VINA RESULT:     -13.6      3.359     10.253
REMARK SMILES Cc1ccc(CCC(=O)N2CCC3(CC2)[C@H](C(=O)NCCCCNC(=O)c2ccc(-c4c5nc(c(-c6c(F)c(F)c(F)c(F)c6F)c6ccc([nH]6)c(-c6c(F)c(F)c(F)c(F)c6F)c6nc(c(-c7c(F)c(F)c(F)c(F)c7F)c7ccc4[nH]7)C=C6)C=C5)cc2)CC(=O)N3C)cc1
REMARK SMILES IDX 21 1 20 2 19 3 17 4 18 5 16 7 8 8 9 9 10 10 11 11 15 12
REMARK SMILES IDX 12 13 14 14 13 15 93 16 90 17 91 18 94 19 92 20 7 21 6 22
REMARK SMILES IDX 5 23 1 24 2 25 3 26 96 27 4 28 95 29 22 30 23 31 24 32 25 33
REMARK SMILES IDX 26 35 27 36 28 37 89 38 29 39 88 40 30 41 31 42 32 43 82 44
REMARK SMILES IDX 33 45 87 46 81 47 83 48 34 49 86 50 80 51 79 52 35 54 67 55
REMARK SMILES IDX 47 56 66 57 48 58 51 59 65 60 84 61 49 62 50 63 64 65 85 66
REMARK SMILES IDX 52 67 36 68 37 69 45 70 38 71 39 72 43 73 46 74 40 75 41 76
REMARK SMILES IDX 44 77 42 78 68 79 69 80 77 81 70 82 71 83 75 84 78 85 72 86
REMARK SMILES IDX 73 87 76 88 74 89 53 90 54 91 62 92 55 93 56 94 60 95 63 96
REMARK SMILES IDX 57 97 58 98 61 99 59 100
REMARK H PARENT 19 6 24 34 83 53 51 64
REMARK Flexibility Score: inf
ROOT
ATOM      1  C   UNL A   1      36.913  21.680  24.565  1.00  0.00     0.023 C 
ENDROOT
BRANCH   1   2
ATOM      2  C   UNL A   1      35.540  21.263  25.124  1.00  0.00     0.116 C 
BRANCH   2   3
ATOM      3  N   UNL A   1      35.073  21.959  26.319  1.00  0.00    -0.356 N 
ATOM      4  C   UNL A   1      33.920  22.553  26.715  1.00  0.00     0.226 C 
ATOM      5  O   UNL A   1      33.896  22.928  27.896  1.00  0.00    -0.275 OA
ATOM      6  H   UNL A   1      35.771  22.009  27.012  1.00  0.00     0.163 HD
BRANCH   4   7
ATOM      7  C   UNL A   1      32.683  22.806  25.848  1.00  0.00     0.113 C 
ATOM      8  C   UNL A   1      32.709  27.785  24.031  1.00  0.00     0.222 C 
ATOM      9  O   UNL A   1      33.648  28.584  23.972  1.00  0.00    -0.275 OA
ATOM     10  N   UNL A   1      32.882  26.463  23.664  1.00  0.00    -0.343 N 
ATOM     11  C   UNL A   1      34.171  25.825  23.814  1.00  0.00     0.122 C 
ATOM     12  C   UNL A   1      31.862  25.558  23.202  1.00  0.00     0.122 C 
ATOM     13  C   UNL A   1      34.008  24.695  24.824  1.00  0.00     0.051 C 
ATOM     14  C   UNL A   1      31.585  24.470  24.237  1.00  0.00     0.051 C 
ATOM     15  C   UNL A   1      32.868  23.663  24.567  1.00  0.00     0.058 C 
ATOM     16  N   UNL A   1      33.016  22.590  23.561  1.00  0.00    -0.339 N 
ATOM     17  C   UNL A   1      32.027  21.507  25.414  1.00  0.00     0.116 C 
ATOM     18  C   UNL A   1      32.418  21.392  23.974  1.00  0.00     0.223 C 
ATOM     19  C   UNL A   1      33.278  22.763  22.143  1.00  0.00     0.147 C 
ATOM     20  O   UNL A   1      32.212  20.405  23.286  1.00  0.00    -0.275 OA
BRANCH   8  21
ATOM     21  C   UNL A   1      31.421  28.199  24.754  1.00  0.00     0.105 C 
BRANCH  21  22
ATOM     22  C   UNL A   1      31.028  29.682  24.869  1.00  0.00     0.045 C 
BRANCH  22  23
ATOM     23  C   UNL A   1      29.962  30.120  23.876  1.00  0.00    -0.047 A 
ATOM     24  C   UNL A   1      28.028  32.137  20.619  1.00  0.00     0.044 C 
ATOM     25  C   UNL A   1      28.536  31.357  21.796  1.00  0.00    -0.051 A 
ATOM     26  C   UNL A   1      28.520  31.905  23.083  1.00  0.00     0.004 A 
ATOM     27  C   UNL A   1      29.124  30.104  21.600  1.00  0.00     0.004 A 
ATOM     28  C   UNL A   1      29.197  31.269  24.127  1.00  0.00     0.004 A 
ATOM     29  C   UNL A   1      29.825  29.483  22.636  1.00  0.00     0.004 A 
ENDBRANCH  22  23
ENDBRANCH  21  22
ENDBRANCH   8  21
ENDBRANCH   4   7
ENDBRANCH   2   3
ENDBRANCH   1   2
BRANCH   1  30
ATOM     30  C   UNL A   1      38.100  21.621  25.535  1.00  0.00     0.023 C 
BRANCH  30  31
ATOM     31  C   UNL A   1      38.594  22.992  25.927  1.00  0.00     0.116 C 
BRANCH  31  32
ATOM     32  N   UNL A   1      40.000  23.042  26.306  1.00  0.00    -0.352 N 
ATOM     33  C   UNL A   1      40.734  24.132  26.740  1.00  0.00     0.251 C 
ATOM     34  H   UNL A   1      40.492  22.192  26.245  1.00  0.00     0.163 HD
ATOM     35  O   UNL A   1      41.939  24.044  26.945  1.00  0.00    -0.269 OA
BRANCH  33  36
ATOM     36  C   UNL A   1      40.004  25.372  27.080  1.00  0.00     0.039 A 
ATOM     37  C   UNL A   1      40.458  26.566  26.511  1.00  0.00     0.014 A 
ATOM     38  C   UNL A   1      39.126  25.383  28.161  1.00  0.00     0.014 A 
ATOM     39  C   UNL A   1      40.236  27.761  27.186  1.00  0.00     0.010 A 
ATOM     40  C   UNL A   1      39.012  26.546  28.894  1.00  0.00     0.010 A 
ATOM     41  C   UNL A   1      39.617  27.723  28.437  1.00  0.00    -0.014 A 
BRANCH  41  42
ATOM     42  C   UNL A   1      39.609  28.857  29.351  1.00  0.00     0.031 A 
ATOM     43  C   UNL A   1      38.595  29.917  29.178  1.00  0.00     0.074 A 
ATOM     44  C   UNL A   1      40.506  28.940  30.358  1.00  0.00     0.049 A 
ATOM     45  N   UNL A   1      38.782  31.155  29.486  1.00  0.00    -0.248 NA
ATOM     46  C   UNL A   1      37.286  29.658  28.595  1.00  0.00     0.031 C 
ATOM     47  C   UNL A   1      40.515  29.907  31.454  1.00  0.00     0.029 A 
ATOM     48  N   UNL A   1      41.732  28.263  30.485  1.00  0.00    -0.354 N 
ATOM     49  C   UNL A   1      37.568  31.799  29.390  1.00  0.00     0.074 A 
ATOM     50  C   UNL A   1      36.682  30.836  28.777  1.00  0.00     0.031 C 
ATOM     51  C   UNL A   1      41.763  30.000  31.939  1.00  0.00     0.029 A 
ATOM     52  C   UNL A   1      42.616  29.184  31.095  1.00  0.00     0.049 A 
ATOM     53  H   UNL A   1      41.933  27.340  30.205  1.00  0.00     0.167 HD
ATOM     54  C   UNL A   1      37.415  33.028  29.960  1.00  0.00     0.037 A 
ATOM     55  C   UNL A   1      43.751  29.609  30.471  1.00  0.00     0.037 A 
ATOM     56  C   UNL A   1      38.660  33.480  30.574  1.00  0.00     0.049 A 
ATOM     57  C   UNL A   1      43.802  31.101  30.256  1.00  0.00     0.074 A 
ATOM     58  C   UNL A   1      39.128  33.419  31.877  1.00  0.00     0.029 A 
ATOM     59  N   UNL A   1      39.757  33.786  29.776  1.00  0.00    -0.354 N 
ATOM     60  N   UNL A   1      42.755  31.875  30.323  1.00  0.00    -0.248 NA
ATOM     61  C   UNL A   1      45.015  31.833  29.902  1.00  0.00     0.031 C 
ATOM     62  C   UNL A   1      40.525  33.641  31.854  1.00  0.00     0.029 A 
ATOM     63  C   UNL A   1      40.904  33.860  30.541  1.00  0.00     0.049 A 
ATOM     64  H   UNL A   1      39.720  33.931  28.802  1.00  0.00     0.167 HD
ATOM     65  C   UNL A   1      43.113  33.157  30.002  1.00  0.00     0.074 A 
ATOM     66  C   UNL A   1      44.543  33.085  29.769  1.00  0.00     0.031 C 
ATOM     67  C   UNL A   1      42.192  34.163  29.939  1.00  0.00     0.037 A 
BRANCH  54  68
ATOM     68  C   UNL A   1      36.068  33.662  30.237  1.00  0.00     0.064 A 
ATOM     69  C   UNL A   1      35.291  34.200  29.187  1.00  0.00     0.173 A 
ATOM     70  C   UNL A   1      35.513  33.827  31.518  1.00  0.00     0.173 A 
ATOM     71  F   UNL A   1      35.618  34.008  27.902  1.00  0.00    -0.203 F 
ATOM     72  C   UNL A   1      34.142  34.962  29.415  1.00  0.00     0.198 A 
ATOM     73  C   UNL A   1      34.398  34.638  31.754  1.00  0.00     0.198 A 
ATOM     74  F   UNL A   1      35.998  33.162  32.575  1.00  0.00    -0.203 F 
ATOM     75  F   UNL A   1      33.457  35.459  28.376  1.00  0.00    -0.200 F 
ATOM     76  C   UNL A   1      33.722  35.220  30.703  1.00  0.00     0.200 A 
ATOM     77  F   UNL A   1      33.986  34.851  33.013  1.00  0.00    -0.200 F 
ATOM     78  F   UNL A   1      32.654  35.997  30.927  1.00  0.00    -0.200 F 
ENDBRANCH  54  68
BRANCH  55  79
ATOM     79  C   UNL A   1      44.332  28.585  29.563  1.00  0.00     0.064 A 
ATOM     80  C   UNL A   1      45.057  27.525  30.143  1.00  0.00     0.173 A 
ATOM     81  C   UNL A   1      43.864  28.413  28.256  1.00  0.00     0.173 A 
ATOM     82  F   UNL A   1      45.526  27.643  31.394  1.00  0.00    -0.203 F 
ATOM     83  C   UNL A   1      45.190  26.299  29.495  1.00  0.00     0.198 A 
ATOM     84  C   UNL A   1      44.017  27.188  27.603  1.00  0.00     0.198 A 
ATOM     85  F   UNL A   1      43.151  29.378  27.659  1.00  0.00    -0.203 F 
ATOM     86  F   UNL A   1      45.767  25.266  30.126  1.00  0.00    -0.200 F 
ATOM     87  C   UNL A   1      44.642  26.123  28.236  1.00  0.00     0.200 A 
ATOM     88  F   UNL A   1      43.471  27.008  26.391  1.00  0.00    -0.200 F 
ATOM     89  F   UNL A   1      44.679  24.916  27.653  1.00  0.00    -0.200 F 
ENDBRANCH  55  79
BRANCH  67  90
ATOM     90  C   UNL A   1      42.427  35.548  29.390  1.00  0.00     0.064 A 
ATOM     91  C   UNL A   1      43.124  36.552  30.079  1.00  0.00     0.173 A 
ATOM     92  C   UNL A   1      42.075  35.853  28.053  1.00  0.00     0.173 A 
ATOM     93  F   UNL A   1      43.607  36.347  31.311  1.00  0.00    -0.203 F 
ATOM     94  C   UNL A   1      43.403  37.791  29.492  1.00  0.00     0.198 A 
ATOM     95  C   UNL A   1      42.404  37.066  27.453  1.00  0.00     0.198 A 
ATOM     96  F   UNL A   1      41.423  34.969  27.281  1.00  0.00    -0.203 F 
ATOM     97  F   UNL A   1      44.040  38.733  30.202  1.00  0.00    -0.200 F 
ATOM     98  C   UNL A   1      43.055  38.042  28.177  1.00  0.00     0.200 A 
ATOM     99  F   UNL A   1      42.106  37.273  26.162  1.00  0.00    -0.200 F 
ATOM    100  F   UNL A   1      43.369  39.212  27.604  1.00  0.00    -0.200 F 
ENDBRANCH  67  90
ENDBRANCH  41  42
ENDBRANCH  33  36
ENDBRANCH  31  32
ENDBRANCH  30  31
ENDBRANCH   1  30
TORSDOF 14
ENDMDL
