MODEL 1
REMARK VINA RESULT:     -13.7      0.000      0.000
REMARK SMILES Cc1ccc([C@@H](C)Nc2ccccc2C(=O)NCCCCNC(=O)c2ccc(-c3c4nc(c(-c5c(F)c(F)c(F)c(F)c5F)c5ccc([nH]5)c(-c5c(F)c(F)c(F)c(F)c5F)c5nc(c(-c6c(F)c(F)c(F)c(F)c6F)c6ccc3[nH]6)C=C5)C=C4)cc2)cc1F
REMARK SMILES IDX 19 1 18 2 17 3 15 4 16 5 14 7 9 8 10 9 11 10 13 11 12 12
REMARK SMILES IDX 8 13 6 15 7 16 5 17 1 18 2 19 3 20 89 21 4 22 88 23 90 24
REMARK SMILES IDX 20 25 21 26 22 27 23 28 24 30 25 31 26 32 87 33 27 34 86 35
REMARK SMILES IDX 28 36 29 37 30 38 80 39 31 40 85 41 79 42 81 43 32 44 84 45
REMARK SMILES IDX 78 46 77 47 33 49 65 50 45 51 64 52 46 53 49 54 63 55 82 56
REMARK SMILES IDX 47 57 48 58 62 60 83 61 50 62 34 63 35 64 43 65 36 66 37 67
REMARK SMILES IDX 41 68 44 69 38 70 39 71 42 72 40 73 66 74 67 75 75 76 68 77
REMARK SMILES IDX 69 78 73 79 76 80 70 81 71 82 74 83 72 84 51 85 52 86 60 87
REMARK SMILES IDX 53 88 54 89 58 90 61 91 55 92 56 93 59 94 57 95
REMARK H PARENT 17 6 8 14 22 29 81 48 49 59
REMARK Flexibility Score: inf
ROOT
ATOM      1  C   UNL A   1      32.014  27.671  26.338  1.00  0.00     0.023 C 
ENDROOT
BRANCH   1   2
ATOM      2  C   UNL A   1      32.400  26.193  26.463  1.00  0.00     0.116 C 
BRANCH   2   3
ATOM      3  N   UNL A   1      31.340  25.287  26.869  1.00  0.00    -0.352 N 
ATOM      4  C   UNL A   1      31.294  23.907  26.782  1.00  0.00     0.253 C 
ATOM      5  O   UNL A   1      30.320  23.317  27.254  1.00  0.00    -0.269 OA
ATOM      6  H   UNL A   1      30.545  25.713  27.261  1.00  0.00     0.163 HD
BRANCH   4   7
ATOM      7  C   UNL A   1      32.333  23.116  26.072  1.00  0.00     0.062 A 
ATOM      8  C   UNL A   1      32.348  22.838  24.697  1.00  0.00     0.047 A 
ATOM      9  C   UNL A   1      33.277  21.876  24.238  1.00  0.00     0.026 A 
ATOM     10  C   UNL A   1      34.212  21.277  25.085  1.00  0.00     0.002 A 
ATOM     11  C   UNL A   1      33.328  22.564  26.908  1.00  0.00     0.016 A 
ATOM     12  C   UNL A   1      34.265  21.655  26.417  1.00  0.00     0.001 A 
BRANCH   8  13
ATOM     13  N   UNL A   1      31.566  23.455  23.722  1.00  0.00    -0.378 N 
ATOM     14  H   UNL A   1      30.643  23.137  23.594  1.00  0.00     0.161 HD
BRANCH  13  15
ATOM     15  C   UNL A   1      32.047  24.556  22.868  1.00  0.00     0.106 C 
ATOM     16  C   UNL A   1      33.441  25.052  23.219  1.00  0.00     0.036 C 
BRANCH  15  17
ATOM     17  C   UNL A   1      31.110  25.749  23.059  1.00  0.00    -0.023 A 
ATOM     18  C   UNL A   1      28.240  28.950  22.986  1.00  0.00     0.047 C 
ATOM     19  C   UNL A   1      29.292  27.898  23.145  1.00  0.00    -0.015 A 
ATOM     20  C   UNL A   1      30.568  28.071  22.597  1.00  0.00     0.007 A 
ATOM     21  C   UNL A   1      28.982  26.682  23.750  1.00  0.00     0.126 A 
ATOM     22  C   UNL A   1      31.467  27.004  22.547  1.00  0.00     0.006 A 
ATOM     23  C   UNL A   1      29.888  25.630  23.746  1.00  0.00     0.045 A 
ATOM     24  F   UNL A   1      27.775  26.488  24.299  1.00  0.00    -0.207 F 
ENDBRANCH  15  17
ENDBRANCH  13  15
ENDBRANCH   8  13
ENDBRANCH   4   7
ENDBRANCH   2   3
ENDBRANCH   1   2
BRANCH   1  25
ATOM     25  C   UNL A   1      33.016  28.643  25.699  1.00  0.00     0.023 C 
BRANCH  25  26
ATOM     26  C   UNL A   1      34.258  28.973  26.511  1.00  0.00     0.116 C 
BRANCH  26  27
ATOM     27  N   UNL A   1      34.285  30.326  27.062  1.00  0.00    -0.352 N 
ATOM     28  C   UNL A   1      35.135  30.819  28.039  1.00  0.00     0.251 C 
ATOM     29  H   UNL A   1      33.625  30.959  26.696  1.00  0.00     0.163 HD
ATOM     30  O   UNL A   1      34.888  31.852  28.639  1.00  0.00    -0.269 OA
BRANCH  28  31
ATOM     31  C   UNL A   1      36.388  30.086  28.307  1.00  0.00     0.039 A 
ATOM     32  C   UNL A   1      36.612  29.387  29.502  1.00  0.00     0.014 A 
ATOM     33  C   UNL A   1      37.373  30.160  27.331  1.00  0.00     0.014 A 
ATOM     34  C   UNL A   1      37.831  28.731  29.685  1.00  0.00     0.010 A 
ATOM     35  C   UNL A   1      38.496  29.396  27.439  1.00  0.00     0.010 A 
ATOM     36  C   UNL A   1      38.762  28.751  28.644  1.00  0.00    -0.014 A 
BRANCH  36  37
ATOM     37  C   UNL A   1      40.088  28.168  28.700  1.00  0.00     0.031 A 
ATOM     38  C   UNL A   1      40.260  26.736  28.461  1.00  0.00     0.074 A 
ATOM     39  C   UNL A   1      41.111  29.040  28.838  1.00  0.00     0.049 A 
ATOM     40  N   UNL A   1      41.189  26.022  28.988  1.00  0.00    -0.248 NA
ATOM     41  C   UNL A   1      39.341  25.969  27.625  1.00  0.00     0.031 C 
ATOM     42  C   UNL A   1      42.540  28.858  28.647  1.00  0.00     0.029 A 
ATOM     43  N   UNL A   1      40.999  30.354  29.329  1.00  0.00    -0.354 N 
ATOM     44  C   UNL A   1      41.205  24.826  28.302  1.00  0.00     0.074 A 
ATOM     45  C   UNL A   1      39.940  24.773  27.607  1.00  0.00     0.031 C 
ATOM     46  C   UNL A   1      43.182  29.862  29.279  1.00  0.00     0.029 A 
ATOM     47  C   UNL A   1      42.184  30.609  30.035  1.00  0.00     0.049 A 
ATOM     48  H   UNL A   1      40.242  30.970  29.201  1.00  0.00     0.167 HD
ATOM     49  C   UNL A   1      42.381  24.136  28.225  1.00  0.00     0.037 A 
ATOM     50  C   UNL A   1      42.112  30.695  31.399  1.00  0.00     0.037 A 
ATOM     51  C   UNL A   1      43.440  24.883  28.912  1.00  0.00     0.049 A 
ATOM     52  C   UNL A   1      42.834  29.569  32.103  1.00  0.00     0.074 A 
ATOM     53  C   UNL A   1      44.431  25.743  28.463  1.00  0.00     0.029 A 
ATOM     54  N   UNL A   1      43.334  25.114  30.273  1.00  0.00    -0.354 N 
ATOM     55  N   UNL A   1      43.258  28.480  31.523  1.00  0.00    -0.248 NA
ATOM     56  C   UNL A   1      43.050  29.555  33.544  1.00  0.00     0.031 C 
ATOM     57  C   UNL A   1      44.928  26.475  29.580  1.00  0.00     0.029 A 
ATOM     58  C   UNL A   1      44.253  26.049  30.710  1.00  0.00     0.049 A 
ATOM     59  H   UNL A   1      42.681  24.667  30.858  1.00  0.00     0.167 HD
ATOM     60  C   UNL A   1      43.773  27.626  32.459  1.00  0.00     0.074 A 
ATOM     61  C   UNL A   1      43.582  28.334  33.716  1.00  0.00     0.031 C 
ATOM     62  C   UNL A   1      44.285  26.399  32.125  1.00  0.00     0.037 A 
BRANCH  49  63
ATOM     63  C   UNL A   1      42.663  22.991  27.269  1.00  0.00     0.064 A 
ATOM     64  C   UNL A   1      42.036  21.737  27.455  1.00  0.00     0.173 A 
ATOM     65  C   UNL A   1      43.543  23.042  26.171  1.00  0.00     0.173 A 
ATOM     66  F   UNL A   1      41.085  21.558  28.380  1.00  0.00    -0.203 F 
ATOM     67  C   UNL A   1      42.353  20.612  26.689  1.00  0.00     0.198 A 
ATOM     68  C   UNL A   1      43.892  21.906  25.429  1.00  0.00     0.198 A 
ATOM     69  F   UNL A   1      44.049  24.200  25.732  1.00  0.00    -0.203 F 
ATOM     70  F   UNL A   1      41.729  19.450  26.929  1.00  0.00    -0.200 F 
ATOM     71  C   UNL A   1      43.305  20.687  25.696  1.00  0.00     0.200 A 
ATOM     72  F   UNL A   1      44.799  22.005  24.445  1.00  0.00    -0.200 F 
ATOM     73  F   UNL A   1      43.630  19.601  24.982  1.00  0.00    -0.200 F 
ENDBRANCH  49  63
BRANCH  50  74
ATOM     74  C   UNL A   1      40.797  31.264  31.853  1.00  0.00     0.064 A 
ATOM     75  C   UNL A   1      39.854  30.388  32.428  1.00  0.00     0.173 A 
ATOM     76  C   UNL A   1      40.679  32.628  32.161  1.00  0.00     0.173 A 
ATOM     77  F   UNL A   1      39.894  29.077  32.139  1.00  0.00    -0.203 F 
ATOM     78  C   UNL A   1      38.963  30.834  33.403  1.00  0.00     0.198 A 
ATOM     79  C   UNL A   1      39.770  33.067  33.128  1.00  0.00     0.198 A 
ATOM     80  F   UNL A   1      41.517  33.521  31.620  1.00  0.00    -0.203 F 
ATOM     81  F   UNL A   1      38.149  29.972  34.023  1.00  0.00    -0.200 F 
ATOM     82  C   UNL A   1      38.959  32.161  33.790  1.00  0.00     0.200 A 
ATOM     83  F   UNL A   1      39.737  34.362  33.471  1.00  0.00    -0.200 F 
ATOM     84  F   UNL A   1      38.193  32.556  34.815  1.00  0.00    -0.200 F 
ENDBRANCH  50  74
BRANCH  62  85
ATOM     85  C   UNL A   1      44.818  25.389  33.118  1.00  0.00     0.064 A 
ATOM     86  C   UNL A   1      44.008  24.724  34.049  1.00  0.00     0.173 A 
ATOM     87  C   UNL A   1      46.199  25.083  33.206  1.00  0.00     0.173 A 
ATOM     88  F   UNL A   1      42.728  25.079  34.233  1.00  0.00    -0.203 F 
ATOM     89  C   UNL A   1      44.502  23.701  34.862  1.00  0.00     0.198 A 
ATOM     90  C   UNL A   1      46.701  24.105  34.059  1.00  0.00     0.198 A 
ATOM     91  F   UNL A   1      47.125  25.709  32.470  1.00  0.00    -0.203 F 
ATOM     92  F   UNL A   1      43.663  23.025  35.660  1.00  0.00    -0.200 F 
ATOM     93  C   UNL A   1      45.847  23.381  34.855  1.00  0.00     0.200 A 
ATOM     94  F   UNL A   1      48.021  23.865  34.084  1.00  0.00    -0.200 F 
ATOM     95  F   UNL A   1      46.319  22.396  35.630  1.00  0.00    -0.200 F 
ENDBRANCH  62  85
ENDBRANCH  36  37
ENDBRANCH  28  31
ENDBRANCH  26  27
ENDBRANCH  25  26
ENDBRANCH   1  25
TORSDOF 14
ENDMDL
MODEL 2
REMARK VINA RESULT:     -13.4      1.291      1.765
REMARK SMILES Cc1ccc([C@@H](C)Nc2ccccc2C(=O)NCCCCNC(=O)c2ccc(-c3c4nc(c(-c5c(F)c(F)c(F)c(F)c5F)c5ccc([nH]5)c(-c5c(F)c(F)c(F)c(F)c5F)c5nc(c(-c6c(F)c(F)c(F)c(F)c6F)c6ccc3[nH]6)C=C5)C=C4)cc2)cc1F
REMARK SMILES IDX 19 1 18 2 17 3 15 4 16 5 14 7 9 8 10 9 11 10 13 11 12 12
REMARK SMILES IDX 8 13 6 15 7 16 5 17 1 18 2 19 3 20 89 21 4 22 88 23 90 24
REMARK SMILES IDX 20 25 21 26 22 27 23 28 24 30 25 31 26 32 87 33 27 34 86 35
REMARK SMILES IDX 28 36 29 37 30 38 80 39 31 40 85 41 79 42 81 43 32 44 84 45
REMARK SMILES IDX 78 46 77 47 33 49 65 50 45 51 64 52 46 53 49 54 63 55 82 56
REMARK SMILES IDX 47 57 48 58 62 60 83 61 50 62 34 63 35 64 43 65 36 66 37 67
REMARK SMILES IDX 41 68 44 69 38 70 39 71 42 72 40 73 66 74 67 75 75 76 68 77
REMARK SMILES IDX 69 78 73 79 76 80 70 81 71 82 74 83 72 84 51 85 52 86 60 87
REMARK SMILES IDX 53 88 54 89 58 90 61 91 55 92 56 93 59 94 57 95
REMARK H PARENT 17 6 8 14 22 29 81 48 49 59
REMARK Flexibility Score: inf
ROOT
ATOM      1  C   UNL A   1      33.658  28.239  24.603  1.00  0.00     0.023 C 
ENDROOT
BRANCH   1   2
ATOM      2  C   UNL A   1      33.687  26.763  24.190  1.00  0.00     0.116 C 
BRANCH   2   3
ATOM      3  N   UNL A   1      33.678  26.498  22.761  1.00  0.00    -0.352 N 
ATOM      4  C   UNL A   1      33.220  25.382  22.086  1.00  0.00     0.253 C 
ATOM      5  O   UNL A   1      33.240  25.386  20.854  1.00  0.00    -0.269 OA
ATOM      6  H   UNL A   1      34.051  27.212  22.195  1.00  0.00     0.163 HD
BRANCH   4   7
ATOM      7  C   UNL A   1      32.779  24.148  22.789  1.00  0.00     0.062 A 
ATOM      8  C   UNL A   1      31.590  24.008  23.520  1.00  0.00     0.047 A 
ATOM      9  C   UNL A   1      31.450  22.848  24.317  1.00  0.00     0.026 A 
ATOM     10  C   UNL A   1      32.403  21.827  24.324  1.00  0.00     0.002 A 
ATOM     11  C   UNL A   1      33.703  23.081  22.743  1.00  0.00     0.016 A 
ATOM     12  C   UNL A   1      33.514  21.926  23.501  1.00  0.00     0.001 A 
BRANCH   8  13
ATOM     13  N   UNL A   1      30.502  24.880  23.503  1.00  0.00    -0.378 N 
ATOM     14  H   UNL A   1      29.781  24.712  22.855  1.00  0.00     0.161 HD
BRANCH  13  15
ATOM     15  C   UNL A   1      30.374  26.040  24.402  1.00  0.00     0.106 C 
ATOM     16  C   UNL A   1      29.522  25.783  25.635  1.00  0.00     0.036 C 
BRANCH  15  17
ATOM     17  C   UNL A   1      29.680  27.164  23.631  1.00  0.00    -0.023 A 
ATOM     18  C   UNL A   1      27.773  30.670  22.034  1.00  0.00     0.047 C 
ATOM     19  C   UNL A   1      28.400  29.378  22.454  1.00  0.00    -0.015 A 
ATOM     20  C   UNL A   1      27.654  28.404  23.127  1.00  0.00     0.007 A 
ATOM     21  C   UNL A   1      29.767  29.173  22.279  1.00  0.00     0.126 A 
ATOM     22  C   UNL A   1      28.289  27.309  23.717  1.00  0.00     0.006 A 
ATOM     23  C   UNL A   1      30.399  28.063  22.822  1.00  0.00     0.045 A 
ATOM     24  F   UNL A   1      30.509  30.078  21.626  1.00  0.00    -0.207 F 
ENDBRANCH  15  17
ENDBRANCH  13  15
ENDBRANCH   8  13
ENDBRANCH   4   7
ENDBRANCH   2   3
ENDBRANCH   1   2
BRANCH   1  25
ATOM     25  C   UNL A   1      33.049  28.612  25.961  1.00  0.00     0.023 C 
BRANCH  25  26
ATOM     26  C   UNL A   1      34.025  28.888  27.094  1.00  0.00     0.116 C 
BRANCH  26  27
ATOM     27  N   UNL A   1      34.116  30.290  27.493  1.00  0.00    -0.352 N 
ATOM     28  C   UNL A   1      35.057  30.867  28.331  1.00  0.00     0.251 C 
ATOM     29  H   UNL A   1      33.431  30.894  27.124  1.00  0.00     0.163 HD
ATOM     30  O   UNL A   1      34.876  31.961  28.839  1.00  0.00    -0.269 OA
BRANCH  28  31
ATOM     31  C   UNL A   1      36.322  30.142  28.561  1.00  0.00     0.039 A 
ATOM     32  C   UNL A   1      36.592  29.452  29.751  1.00  0.00     0.014 A 
ATOM     33  C   UNL A   1      37.273  30.216  27.551  1.00  0.00     0.014 A 
ATOM     34  C   UNL A   1      37.819  28.803  29.896  1.00  0.00     0.010 A 
ATOM     35  C   UNL A   1      38.403  29.459  27.625  1.00  0.00     0.010 A 
ATOM     36  C   UNL A   1      38.714  28.822  28.824  1.00  0.00    -0.014 A 
BRANCH  36  37
ATOM     37  C   UNL A   1      40.045  28.247  28.838  1.00  0.00     0.031 A 
ATOM     38  C   UNL A   1      40.217  26.816  28.589  1.00  0.00     0.074 A 
ATOM     39  C   UNL A   1      41.067  29.124  28.948  1.00  0.00     0.049 A 
ATOM     40  N   UNL A   1      41.166  26.106  29.086  1.00  0.00    -0.248 NA
ATOM     41  C   UNL A   1      39.278  26.047  27.779  1.00  0.00     0.031 C 
ATOM     42  C   UNL A   1      42.489  28.952  28.714  1.00  0.00     0.029 A 
ATOM     43  N   UNL A   1      40.962  30.436  29.446  1.00  0.00    -0.354 N 
ATOM     44  C   UNL A   1      41.169  24.913  28.395  1.00  0.00     0.074 A 
ATOM     45  C   UNL A   1      39.883  24.854  27.739  1.00  0.00     0.031 C 
ATOM     46  C   UNL A   1      43.145  29.957  29.330  1.00  0.00     0.029 A 
ATOM     47  C   UNL A   1      42.166  30.695  30.118  1.00  0.00     0.049 A 
ATOM     48  H   UNL A   1      40.198  31.048  29.344  1.00  0.00     0.167 HD
ATOM     49  C   UNL A   1      42.345  24.230  28.280  1.00  0.00     0.037 A 
ATOM     50  C   UNL A   1      42.135  30.777  31.484  1.00  0.00     0.037 A 
ATOM     51  C   UNL A   1      43.420  24.980  28.938  1.00  0.00     0.049 A 
ATOM     52  C   UNL A   1      42.883  29.652  32.162  1.00  0.00     0.074 A 
ATOM     53  C   UNL A   1      44.393  25.847  28.463  1.00  0.00     0.029 A 
ATOM     54  N   UNL A   1      43.354  25.207  30.302  1.00  0.00    -0.354 N 
ATOM     55  N   UNL A   1      43.296  28.568  31.565  1.00  0.00    -0.248 NA
ATOM     56  C   UNL A   1      43.143  29.636  33.595  1.00  0.00     0.031 C 
ATOM     57  C   UNL A   1      44.918  26.579  29.566  1.00  0.00     0.029 A 
ATOM     58  C   UNL A   1      44.281  26.146  30.715  1.00  0.00     0.049 A 
ATOM     59  H   UNL A   1      42.722  24.754  30.905  1.00  0.00     0.167 HD
ATOM     60  C   UNL A   1      43.844  27.714  32.482  1.00  0.00     0.074 A 
ATOM     61  C   UNL A   1      43.687  28.418  33.747  1.00  0.00     0.031 C 
ATOM     62  C   UNL A   1      44.353  26.492  32.129  1.00  0.00     0.037 A 
BRANCH  49  63
ATOM     63  C   UNL A   1      42.604  23.089  27.313  1.00  0.00     0.064 A 
ATOM     64  C   UNL A   1      42.029  21.818  27.540  1.00  0.00     0.173 A 
ATOM     65  C   UNL A   1      43.415  23.162  26.164  1.00  0.00     0.173 A 
ATOM     66  F   UNL A   1      41.141  21.615  28.520  1.00  0.00    -0.203 F 
ATOM     67  C   UNL A   1      42.334  20.699  26.759  1.00  0.00     0.198 A 
ATOM     68  C   UNL A   1      43.755  22.034  25.406  1.00  0.00     0.198 A 
ATOM     69  F   UNL A   1      43.859  24.333  25.693  1.00  0.00    -0.203 F 
ATOM     70  F   UNL A   1      41.762  19.520  27.039  1.00  0.00    -0.200 F 
ATOM     71  C   UNL A   1      43.223  20.798  25.711  1.00  0.00     0.200 A 
ATOM     72  F   UNL A   1      44.598  22.156  24.369  1.00  0.00    -0.200 F 
ATOM     73  F   UNL A   1      43.538  19.720  24.981  1.00  0.00    -0.200 F 
ENDBRANCH  49  63
BRANCH  50  74
ATOM     74  C   UNL A   1      40.831  31.337  31.979  1.00  0.00     0.064 A 
ATOM     75  C   UNL A   1      39.912  30.454  32.582  1.00  0.00     0.173 A 
ATOM     76  C   UNL A   1      40.713  32.700  32.292  1.00  0.00     0.173 A 
ATOM     77  F   UNL A   1      39.951  29.144  32.291  1.00  0.00    -0.203 F 
ATOM     78  C   UNL A   1      39.048  30.894  33.584  1.00  0.00     0.198 A 
ATOM     79  C   UNL A   1      39.832  33.132  33.287  1.00  0.00     0.198 A 
ATOM     80  F   UNL A   1      41.528  33.598  31.725  1.00  0.00    -0.203 F 
ATOM     81  F   UNL A   1      38.260  30.026  34.229  1.00  0.00    -0.200 F 
ATOM     82  C   UNL A   1      39.048  32.220  33.973  1.00  0.00     0.200 A 
ATOM     83  F   UNL A   1      39.801  34.427  33.632  1.00  0.00    -0.200 F 
ATOM     84  F   UNL A   1      38.312  32.609  35.022  1.00  0.00    -0.200 F 
ENDBRANCH  50  74
BRANCH  62  85
ATOM     85  C   UNL A   1      44.922  25.482  33.102  1.00  0.00     0.064 A 
ATOM     86  C   UNL A   1      44.140  24.793  34.040  1.00  0.00     0.173 A 
ATOM     87  C   UNL A   1      46.309  25.200  33.162  1.00  0.00     0.173 A 
ATOM     88  F   UNL A   1      42.857  25.123  34.251  1.00  0.00    -0.203 F 
ATOM     89  C   UNL A   1      44.667  23.770  34.834  1.00  0.00     0.198 A 
ATOM     90  C   UNL A   1      46.844  24.222  33.996  1.00  0.00     0.198 A 
ATOM     91  F   UNL A   1      47.211  25.849  32.417  1.00  0.00    -0.203 F 
ATOM     92  F   UNL A   1      43.854  23.072  35.639  1.00  0.00    -0.200 F 
ATOM     93  C   UNL A   1      46.017  23.475  34.800  1.00  0.00     0.200 A 
ATOM     94  F   UNL A   1      48.168  24.006  33.996  1.00  0.00    -0.200 F 
ATOM     95  F   UNL A   1      46.520  22.491  35.556  1.00  0.00    -0.200 F 
ENDBRANCH  62  85
ENDBRANCH  36  37
ENDBRANCH  28  31
ENDBRANCH  26  27
ENDBRANCH  25  26
ENDBRANCH   1  25
TORSDOF 14
ENDMDL
MODEL 3
REMARK VINA RESULT:     -13.4      3.467      9.255
REMARK SMILES Cc1ccc([C@@H](C)Nc2ccccc2C(=O)NCCCCNC(=O)c2ccc(-c3c4nc(c(-c5c(F)c(F)c(F)c(F)c5F)c5ccc([nH]5)c(-c5c(F)c(F)c(F)c(F)c5F)c5nc(c(-c6c(F)c(F)c(F)c(F)c6F)c6ccc3[nH]6)C=C5)C=C4)cc2)cc1F
REMARK SMILES IDX 19 1 18 2 17 3 15 4 16 5 14 7 9 8 10 9 11 10 13 11 12 12
REMARK SMILES IDX 8 13 6 15 7 16 5 17 1 18 2 19 3 20 89 21 4 22 88 23 90 24
REMARK SMILES IDX 20 25 21 26 22 27 23 28 24 30 25 31 26 32 87 33 27 34 86 35
REMARK SMILES IDX 28 36 29 37 30 38 80 39 31 40 85 41 79 42 81 43 32 44 84 45
REMARK SMILES IDX 78 46 77 47 33 49 65 50 45 51 64 52 46 53 49 54 63 55 82 56
REMARK SMILES IDX 47 57 48 58 62 60 83 61 50 62 34 63 35 64 43 65 36 66 37 67
REMARK SMILES IDX 41 68 44 69 38 70 39 71 42 72 40 73 66 74 67 75 75 76 68 77
REMARK SMILES IDX 69 78 73 79 76 80 70 81 71 82 74 83 72 84 51 85 52 86 60 87
REMARK SMILES IDX 53 88 54 89 58 90 61 91 55 92 56 93 59 94 57 95
REMARK H PARENT 17 6 8 14 22 29 81 48 49 59
REMARK Flexibility Score: inf
ROOT
ATOM      1  C   UNL A   1      34.703  23.712  25.388  1.00  0.00     0.023 C 
ENDROOT
BRANCH   1   2
ATOM      2  C   UNL A   1      33.870  25.000  25.392  1.00  0.00     0.116 C 
BRANCH   2   3
ATOM      3  N   UNL A   1      33.792  25.715  24.130  1.00  0.00    -0.352 N 
ATOM      4  C   UNL A   1      33.636  27.071  23.906  1.00  0.00     0.253 C 
ATOM      5  O   UNL A   1      33.665  27.486  22.747  1.00  0.00    -0.269 OA
ATOM      6  H   UNL A   1      33.860  25.157  23.321  1.00  0.00     0.163 HD
BRANCH   4   7
ATOM      7  C   UNL A   1      33.355  28.034  25.003  1.00  0.00     0.062 A 
ATOM      8  C   UNL A   1      32.514  29.152  24.911  1.00  0.00     0.047 A 
ATOM      9  C   UNL A   1      32.553  30.085  25.972  1.00  0.00     0.026 A 
ATOM     10  C   UNL A   1      33.324  29.881  27.119  1.00  0.00     0.002 A 
ATOM     11  C   UNL A   1      34.075  27.796  26.195  1.00  0.00     0.016 A 
ATOM     12  C   UNL A   1      34.056  28.711  27.248  1.00  0.00     0.001 A 
BRANCH   8  13
ATOM     13  N   UNL A   1      31.598  29.414  23.892  1.00  0.00    -0.378 N 
ATOM     14  H   UNL A   1      31.916  29.894  23.093  1.00  0.00     0.161 HD
BRANCH  13  15
ATOM     15  C   UNL A   1      30.181  29.015  23.949  1.00  0.00     0.106 C 
ATOM     16  C   UNL A   1      29.884  27.677  23.291  1.00  0.00     0.036 C 
BRANCH  15  17
ATOM     17  C   UNL A   1      29.364  30.057  23.184  1.00  0.00    -0.023 A 
ATOM     18  C   UNL A   1      27.652  33.174  20.768  1.00  0.00     0.047 C 
ATOM     19  C   UNL A   1      28.106  32.072  21.672  1.00  0.00    -0.015 A 
ATOM     20  C   UNL A   1      28.607  32.352  22.949  1.00  0.00     0.007 A 
ATOM     21  C   UNL A   1      28.137  30.757  21.214  1.00  0.00     0.126 A 
ATOM     22  C   UNL A   1      29.237  31.355  23.696  1.00  0.00     0.006 A 
ATOM     23  C   UNL A   1      28.721  29.750  21.970  1.00  0.00     0.045 A 
ATOM     24  F   UNL A   1      27.651  30.450  20.004  1.00  0.00    -0.207 F 
ENDBRANCH  15  17
ENDBRANCH  13  15
ENDBRANCH   8  13
ENDBRANCH   4   7
ENDBRANCH   2   3
ENDBRANCH   1   2
BRANCH   1  25
ATOM     25  C   UNL A   1      36.051  23.705  26.122  1.00  0.00     0.023 C 
BRANCH  25  26
ATOM     26  C   UNL A   1      37.299  23.754  25.256  1.00  0.00     0.116 C 
BRANCH  26  27
ATOM     27  N   UNL A   1      38.352  22.820  25.649  1.00  0.00    -0.352 N 
ATOM     28  C   UNL A   1      39.582  23.126  26.209  1.00  0.00     0.251 C 
ATOM     29  H   UNL A   1      38.165  21.865  25.501  1.00  0.00     0.163 HD
ATOM     30  O   UNL A   1      40.497  22.320  26.221  1.00  0.00    -0.269 OA
BRANCH  28  31
ATOM     31  C   UNL A   1      39.749  24.449  26.842  1.00  0.00     0.039 A 
ATOM     32  C   UNL A   1      40.381  25.521  26.197  1.00  0.00     0.014 A 
ATOM     33  C   UNL A   1      39.290  24.575  28.147  1.00  0.00     0.014 A 
ATOM     34  C   UNL A   1      40.513  26.736  26.871  1.00  0.00     0.010 A 
ATOM     35  C   UNL A   1      39.277  25.798  28.748  1.00  0.00     0.010 A 
ATOM     36  C   UNL A   1      39.959  26.854  28.148  1.00  0.00    -0.014 A 
BRANCH  36  37
ATOM     37  C   UNL A   1      40.058  28.025  28.996  1.00  0.00     0.031 A 
ATOM     38  C   UNL A   1      39.070  29.096  28.871  1.00  0.00     0.074 A 
ATOM     39  C   UNL A   1      41.004  27.978  29.960  1.00  0.00     0.049 A 
ATOM     40  N   UNL A   1      39.313  30.335  29.109  1.00  0.00    -0.248 NA
ATOM     41  C   UNL A   1      37.708  28.849  28.407  1.00  0.00     0.031 C 
ATOM     42  C   UNL A   1      41.199  28.809  31.135  1.00  0.00     0.029 A 
ATOM     43  N   UNL A   1      42.125  27.127  29.958  1.00  0.00    -0.354 N 
ATOM     44  C   UNL A   1      38.091  30.971  29.177  1.00  0.00     0.074 A 
ATOM     45  C   UNL A   1      37.157  30.059  28.559  1.00  0.00     0.031 C 
ATOM     46  C   UNL A   1      42.469  28.650  31.561  1.00  0.00     0.029 A 
ATOM     47  C   UNL A   1      43.165  27.849  30.562  1.00  0.00     0.049 A 
ATOM     48  H   UNL A   1      42.169  26.209  29.605  1.00  0.00     0.167 HD
ATOM     49  C   UNL A   1      37.982  32.089  29.952  1.00  0.00     0.037 A 
ATOM     50  C   UNL A   1      44.195  28.276  29.768  1.00  0.00     0.037 A 
ATOM     51  C   UNL A   1      39.267  32.369  30.603  1.00  0.00     0.049 A 
ATOM     52  C   UNL A   1      44.253  29.780  29.632  1.00  0.00     0.074 A 
ATOM     53  C   UNL A   1      39.766  32.085  31.865  1.00  0.00     0.029 A 
ATOM     54  N   UNL A   1      40.372  32.668  29.824  1.00  0.00    -0.354 N 
ATOM     55  N   UNL A   1      43.301  30.597  29.990  1.00  0.00    -0.248 NA
ATOM     56  C   UNL A   1      45.368  30.467  28.994  1.00  0.00     0.031 C 
ATOM     57  C   UNL A   1      41.182  32.239  31.832  1.00  0.00     0.029 A 
ATOM     58  C   UNL A   1      41.544  32.634  30.556  1.00  0.00     0.049 A 
ATOM     59  H   UNL A   1      40.328  32.878  28.864  1.00  0.00     0.167 HD
ATOM     60  C   UNL A   1      43.630  31.877  29.636  1.00  0.00     0.074 A 
ATOM     61  C   UNL A   1      44.922  31.733  28.980  1.00  0.00     0.031 C 
ATOM     62  C   UNL A   1      42.803  32.940  29.889  1.00  0.00     0.037 A 
BRANCH  49  63
ATOM     63  C   UNL A   1      36.677  32.726  30.392  1.00  0.00     0.064 A 
ATOM     64  C   UNL A   1      35.948  33.546  29.500  1.00  0.00     0.173 A 
ATOM     65  C   UNL A   1      36.094  32.594  31.667  1.00  0.00     0.173 A 
ATOM     66  F   UNL A   1      36.304  33.677  28.217  1.00  0.00    -0.203 F 
ATOM     67  C   UNL A   1      34.810  34.261  29.887  1.00  0.00     0.198 A 
ATOM     68  C   UNL A   1      34.979  33.342  32.069  1.00  0.00     0.198 A 
ATOM     69  F   UNL A   1      36.538  31.694  32.552  1.00  0.00    -0.203 F 
ATOM     70  F   UNL A   1      34.176  35.031  28.993  1.00  0.00    -0.200 F 
ATOM     71  C   UNL A   1      34.344  34.185  31.181  1.00  0.00     0.200 A 
ATOM     72  F   UNL A   1      34.519  33.231  33.325  1.00  0.00    -0.200 F 
ATOM     73  F   UNL A   1      33.271  34.894  31.560  1.00  0.00    -0.200 F 
ENDBRANCH  49  63
BRANCH  50  74
ATOM     74  C   UNL A   1      44.464  27.319  28.641  1.00  0.00     0.064 A 
ATOM     75  C   UNL A   1      44.086  27.701  27.338  1.00  0.00     0.173 A 
ATOM     76  C   UNL A   1      45.460  26.339  28.760  1.00  0.00     0.173 A 
ATOM     77  F   UNL A   1      43.111  28.607  27.160  1.00  0.00    -0.203 F 
ATOM     78  C   UNL A   1      44.803  27.259  26.226  1.00  0.00     0.198 A 
ATOM     79  C   UNL A   1      46.162  25.890  27.637  1.00  0.00     0.198 A 
ATOM     80  F   UNL A   1      45.840  25.901  29.967  1.00  0.00    -0.203 F 
ATOM     81  F   UNL A   1      44.507  27.717  25.004  1.00  0.00    -0.200 F 
ATOM     82  C   UNL A   1      45.872  26.398  26.382  1.00  0.00     0.200 A 
ATOM     83  F   UNL A   1      47.170  25.020  27.785  1.00  0.00    -0.200 F 
ATOM     84  F   UNL A   1      46.634  26.081  25.327  1.00  0.00    -0.200 F 
ENDBRANCH  50  74
BRANCH  62  85
ATOM     85  C   UNL A   1      43.086  34.368  29.475  1.00  0.00     0.064 A 
ATOM     86  C   UNL A   1      43.154  34.783  28.137  1.00  0.00     0.173 A 
ATOM     87  C   UNL A   1      43.352  35.383  30.427  1.00  0.00     0.173 A 
ATOM     88  F   UNL A   1      43.148  33.893  27.134  1.00  0.00    -0.203 F 
ATOM     89  C   UNL A   1      43.283  36.129  27.786  1.00  0.00     0.198 A 
ATOM     90  C   UNL A   1      43.540  36.716  30.074  1.00  0.00     0.198 A 
ATOM     91  F   UNL A   1      43.437  35.138  31.739  1.00  0.00    -0.203 F 
ATOM     92  F   UNL A   1      43.238  36.483  26.494  1.00  0.00    -0.200 F 
ATOM     93  C   UNL A   1      43.461  37.097  28.756  1.00  0.00     0.200 A 
ATOM     94  F   UNL A   1      43.783  37.625  31.030  1.00  0.00    -0.200 F 
ATOM     95  F   UNL A   1      43.578  38.388  28.419  1.00  0.00    -0.200 F 
ENDBRANCH  62  85
ENDBRANCH  36  37
ENDBRANCH  28  31
ENDBRANCH  26  27
ENDBRANCH  25  26
ENDBRANCH   1  25
TORSDOF 14
ENDMDL
