MODEL 1
REMARK VINA RESULT:     -13.4      0.000      0.000
REMARK SMILES CS(=O)(=O)c1ccc(/C=C(/C(=O)NCCCCNC(=O)c2ccc(-c3c4nc(c(-c5c(F)c(F)c(F)c(F)c5F)c5ccc([nH]5)c(-c5c(F)c(F)c(F)c(F)c5F)c5nc(c(-c6c(F)c(F)c(F)c(F)c6F)c6ccc3[nH]6)C=C5)C=C4)cc2)c2ccc(-c3ccc(F)cc3F)cc2)cc1
REMARK SMILES IDX 15 1 14 2 13 3 11 4 12 5 10 7 9 8 8 9 5 10 6 11 99 12 7 13
REMARK SMILES IDX 98 14 2 15 1 16 3 17 4 18 84 19 85 20 97 21 86 22 96 23
REMARK SMILES IDX 87 24 88 25 89 26 94 27 90 28 93 29 95 30 91 31 92 32 16 33
REMARK SMILES IDX 17 34 18 35 19 36 20 38 21 39 22 40 83 41 23 42 82 43 24 44
REMARK SMILES IDX 25 45 26 46 76 47 27 48 81 49 75 50 77 51 28 52 80 53 74 54
REMARK SMILES IDX 73 55 29 57 61 58 41 59 60 60 42 61 45 62 59 63 78 64 43 65
REMARK SMILES IDX 44 66 58 68 79 69 46 70 30 71 31 72 39 73 32 74 33 75 37 76
REMARK SMILES IDX 40 77 34 78 35 79 38 80 36 81 62 82 63 83 71 84 64 85 65 86
REMARK SMILES IDX 69 87 72 88 66 89 67 90 70 91 68 92 47 93 48 94 56 95 49 96
REMARK SMILES IDX 50 97 54 98 57 99 51 100 52 101 55 102 53 103
REMARK H PARENT 13 6 18 37 77 56 45 67
REMARK Flexibility Score: inf
ROOT
ATOM      1  C   UNL A   1      41.345  21.189  26.195  1.00  0.00     0.023 C 
ENDROOT
BRANCH   1   2
ATOM      2  C   UNL A   1      40.056  21.463  26.973  1.00  0.00     0.116 C 
BRANCH   2   3
ATOM      3  N   UNL A   1      39.633  22.829  26.758  1.00  0.00    -0.352 N 
ATOM      4  C   UNL A   1      38.530  23.396  26.206  1.00  0.00     0.251 C 
ATOM      5  O   UNL A   1      38.557  24.627  26.115  1.00  0.00    -0.269 OA
ATOM      6  H   UNL A   1      40.287  23.491  27.081  1.00  0.00     0.163 HD
BRANCH   4   7
ATOM      7  C   UNL A   1      37.292  22.624  25.798  1.00  0.00     0.047 C 
ATOM      8  C   UNL A   1      37.334  21.351  25.335  1.00  0.00     0.022 C 
BRANCH   8   9
ATOM      9  C   UNL A   1      36.236  20.408  25.005  1.00  0.00    -0.025 A 
ATOM     10  C   UNL A   1      34.256  18.466  24.530  1.00  0.00     0.067 A 
ATOM     11  C   UNL A   1      33.906  19.813  24.606  1.00  0.00     0.021 A 
ATOM     12  C   UNL A   1      35.592  18.080  24.625  1.00  0.00     0.021 A 
ATOM     13  C   UNL A   1      34.899  20.777  24.813  1.00  0.00     0.009 A 
ATOM     14  C   UNL A   1      36.572  19.048  24.870  1.00  0.00     0.009 A 
BRANCH  10  15
ATOM     15  S   UNL A   1      33.005  17.236  24.240  1.00  0.00     0.175 S 
ATOM     16  C   UNL A   1      33.573  15.826  25.155  1.00  0.00     0.163 C 
ATOM     17  O   UNL A   1      33.049  16.908  22.829  1.00  0.00    -0.224 OA
ATOM     18  O   UNL A   1      31.779  17.701  24.861  1.00  0.00    -0.224 OA
ENDBRANCH  10  15
ENDBRANCH   8   9
BRANCH   7  19
ATOM     19  C   UNL A   1      36.028  23.399  25.727  1.00  0.00    -0.013 A 
ATOM     20  C   UNL A   1      35.766  24.110  24.548  1.00  0.00     0.009 A 
ATOM     21  C   UNL A   1      35.043  23.352  26.718  1.00  0.00     0.009 A 
ATOM     22  C   UNL A   1      34.521  24.694  24.327  1.00  0.00     0.009 A 
ATOM     23  C   UNL A   1      33.781  23.917  26.479  1.00  0.00     0.009 A 
ATOM     24  C   UNL A   1      33.485  24.564  25.263  1.00  0.00    -0.015 A 
BRANCH  24  25
ATOM     25  C   UNL A   1      32.129  25.047  24.935  1.00  0.00     0.018 A 
ATOM     26  C   UNL A   1      31.582  26.146  25.632  1.00  0.00     0.015 A 
ATOM     27  C   UNL A   1      31.335  24.460  23.937  1.00  0.00     0.133 A 
ATOM     28  C   UNL A   1      30.295  26.613  25.357  1.00  0.00     0.040 A 
ATOM     29  C   UNL A   1      30.052  24.921  23.653  1.00  0.00     0.079 A 
ATOM     30  F   UNL A   1      31.796  23.415  23.231  1.00  0.00    -0.206 F 
ATOM     31  C   UNL A   1      29.542  25.992  24.371  1.00  0.00     0.126 A 
ATOM     32  F   UNL A   1      28.306  26.436  24.109  1.00  0.00    -0.207 F 
ENDBRANCH  24  25
ENDBRANCH   7  19
ENDBRANCH   4   7
ENDBRANCH   2   3
ENDBRANCH   1   2
BRANCH   1  33
ATOM     33  C   UNL A   1      41.573  19.707  25.868  1.00  0.00     0.023 C 
BRANCH  33  34
ATOM     34  C   UNL A   1      42.971  19.188  26.183  1.00  0.00     0.116 C 
BRANCH  34  35
ATOM     35  N   UNL A   1      43.694  18.746  25.001  1.00  0.00    -0.352 N 
ATOM     36  C   UNL A   1      44.535  19.466  24.190  1.00  0.00     0.251 C 
ATOM     37  H   UNL A   1      43.562  17.803  24.748  1.00  0.00     0.163 HD
ATOM     38  O   UNL A   1      44.974  18.977  23.155  1.00  0.00    -0.269 OA
BRANCH  36  39
ATOM     39  C   UNL A   1      44.873  20.854  24.558  1.00  0.00     0.039 A 
ATOM     40  C   UNL A   1      44.470  21.892  23.716  1.00  0.00     0.014 A 
ATOM     41  C   UNL A   1      45.547  21.128  25.751  1.00  0.00     0.014 A 
ATOM     42  C   UNL A   1      44.687  23.215  24.104  1.00  0.00     0.010 A 
ATOM     43  C   UNL A   1      45.695  22.446  26.170  1.00  0.00     0.010 A 
ATOM     44  C   UNL A   1      45.266  23.501  25.352  1.00  0.00    -0.014 A 
BRANCH  44  45
ATOM     45  C   UNL A   1      45.422  24.900  25.820  1.00  0.00     0.031 A 
ATOM     46  C   UNL A   1      46.769  25.563  25.780  1.00  0.00     0.074 A 
ATOM     47  C   UNL A   1      44.363  25.547  26.345  1.00  0.00     0.049 A 
ATOM     48  N   UNL A   1      47.121  26.751  26.203  1.00  0.00    -0.248 NA
ATOM     49  C   UNL A   1      47.877  24.777  25.213  1.00  0.00     0.031 C 
ATOM     50  C   UNL A   1      43.017  24.989  26.487  1.00  0.00     0.029 A 
ATOM     51  N   UNL A   1      44.255  26.812  26.868  1.00  0.00    -0.354 N 
ATOM     52  C   UNL A   1      48.485  26.847  25.965  1.00  0.00     0.074 A 
ATOM     53  C   UNL A   1      48.911  25.578  25.415  1.00  0.00     0.031 C 
ATOM     54  C   UNL A   1      42.213  25.915  27.035  1.00  0.00     0.029 A 
ATOM     55  C   UNL A   1      42.994  27.114  27.321  1.00  0.00     0.049 A 
ATOM     56  H   UNL A   1      45.009  27.443  26.912  1.00  0.00     0.167 HD
ATOM     57  C   UNL A   1      49.304  27.909  26.164  1.00  0.00     0.037 A 
ATOM     58  C   UNL A   1      42.524  28.230  27.910  1.00  0.00     0.037 A 
ATOM     59  C   UNL A   1      48.869  29.175  26.691  1.00  0.00     0.049 A 
ATOM     60  C   UNL A   1      43.458  29.390  28.129  1.00  0.00     0.074 A 
ATOM     61  C   UNL A   1      49.608  30.331  26.875  1.00  0.00     0.029 A 
ATOM     62  N   UNL A   1      47.580  29.451  27.124  1.00  0.00    -0.354 N 
ATOM     63  N   UNL A   1      44.730  29.497  27.831  1.00  0.00    -0.248 NA
ATOM     64  C   UNL A   1      42.887  30.588  28.760  1.00  0.00     0.031 C 
ATOM     65  C   UNL A   1      48.779  31.288  27.467  1.00  0.00     0.029 A 
ATOM     66  C   UNL A   1      47.509  30.750  27.597  1.00  0.00     0.049 A 
ATOM     67  H   UNL A   1      46.828  28.816  27.098  1.00  0.00     0.167 HD
ATOM     68  C   UNL A   1      45.104  30.781  28.205  1.00  0.00     0.074 A 
ATOM     69  C   UNL A   1      43.920  31.421  28.741  1.00  0.00     0.031 C 
ATOM     70  C   UNL A   1      46.318  31.376  28.116  1.00  0.00     0.037 A 
BRANCH  57  71
ATOM     71  C   UNL A   1      50.753  27.745  25.807  1.00  0.00     0.064 A 
ATOM     72  C   UNL A   1      51.214  27.929  24.494  1.00  0.00     0.173 A 
ATOM     73  C   UNL A   1      51.701  27.441  26.796  1.00  0.00     0.173 A 
ATOM     74  F   UNL A   1      50.349  28.209  23.508  1.00  0.00    -0.203 F 
ATOM     75  C   UNL A   1      52.562  27.785  24.180  1.00  0.00     0.198 A 
ATOM     76  C   UNL A   1      53.054  27.331  26.484  1.00  0.00     0.198 A 
ATOM     77  F   UNL A   1      51.317  27.260  28.068  1.00  0.00    -0.203 F 
ATOM     78  F   UNL A   1      52.971  27.915  22.909  1.00  0.00    -0.200 F 
ATOM     79  C   UNL A   1      53.482  27.494  25.176  1.00  0.00     0.200 A 
ATOM     80  F   UNL A   1      53.942  27.064  27.451  1.00  0.00    -0.200 F 
ATOM     81  F   UNL A   1      54.782  27.365  24.874  1.00  0.00    -0.200 F 
ENDBRANCH  57  71
BRANCH  58  82
ATOM     82  C   UNL A   1      41.095  28.315  28.315  1.00  0.00     0.064 A 
ATOM     83  C   UNL A   1      40.135  28.866  27.454  1.00  0.00     0.173 A 
ATOM     84  C   UNL A   1      40.663  27.862  29.570  1.00  0.00     0.173 A 
ATOM     85  F   UNL A   1      40.502  29.331  26.251  1.00  0.00    -0.203 F 
ATOM     86  C   UNL A   1      38.802  28.982  27.843  1.00  0.00     0.198 A 
ATOM     87  C   UNL A   1      39.324  27.950  29.945  1.00  0.00     0.198 A 
ATOM     88  F   UNL A   1      41.540  27.321  30.428  1.00  0.00    -0.203 F 
ATOM     89  F   UNL A   1      37.915  29.560  27.022  1.00  0.00    -0.200 F 
ATOM     90  C   UNL A   1      38.396  28.519  29.086  1.00  0.00     0.200 A 
ATOM     91  F   UNL A   1      38.934  27.488  31.140  1.00  0.00    -0.200 F 
ATOM     92  F   UNL A   1      37.114  28.631  29.458  1.00  0.00    -0.200 F 
ENDBRANCH  58  82
BRANCH  70  93
ATOM     93  C   UNL A   1      46.421  32.805  28.565  1.00  0.00     0.064 A 
ATOM     94  C   UNL A   1      46.772  33.144  29.880  1.00  0.00     0.173 A 
ATOM     95  C   UNL A   1      46.208  33.851  27.653  1.00  0.00     0.173 A 
ATOM     96  F   UNL A   1      46.971  32.181  30.794  1.00  0.00    -0.203 F 
ATOM     97  C   UNL A   1      46.878  34.475  30.273  1.00  0.00     0.198 A 
ATOM     98  C   UNL A   1      46.349  35.180  28.040  1.00  0.00     0.198 A 
ATOM     99  F   UNL A   1      45.878  33.582  26.381  1.00  0.00    -0.203 F 
ATOM    100  F   UNL A   1      47.165  34.776  31.547  1.00  0.00    -0.200 F 
ATOM    101  C   UNL A   1      46.676  35.492  29.351  1.00  0.00     0.200 A 
ATOM    102  F   UNL A   1      46.168  36.160  27.143  1.00  0.00    -0.200 F 
ATOM    103  F   UNL A   1      46.789  36.772  29.728  1.00  0.00    -0.200 F 
ENDBRANCH  70  93
ENDBRANCH  44  45
ENDBRANCH  36  39
ENDBRANCH  34  35
ENDBRANCH  33  34
ENDBRANCH   1  33
TORSDOF 15
ENDMDL
MODEL 2
REMARK VINA RESULT:     -12.9      6.765     12.128
REMARK SMILES CS(=O)(=O)c1ccc(/C=C(/C(=O)NCCCCNC(=O)c2ccc(-c3c4nc(c(-c5c(F)c(F)c(F)c(F)c5F)c5ccc([nH]5)c(-c5c(F)c(F)c(F)c(F)c5F)c5nc(c(-c6c(F)c(F)c(F)c(F)c6F)c6ccc3[nH]6)C=C5)C=C4)cc2)c2ccc(-c3ccc(F)cc3F)cc2)cc1
REMARK SMILES IDX 15 1 14 2 13 3 11 4 12 5 10 7 9 8 8 9 5 10 6 11 99 12 7 13
REMARK SMILES IDX 98 14 2 15 1 16 3 17 4 18 84 19 85 20 97 21 86 22 96 23
REMARK SMILES IDX 87 24 88 25 89 26 94 27 90 28 93 29 95 30 91 31 92 32 16 33
REMARK SMILES IDX 17 34 18 35 19 36 20 38 21 39 22 40 83 41 23 42 82 43 24 44
REMARK SMILES IDX 25 45 26 46 76 47 27 48 81 49 75 50 77 51 28 52 80 53 74 54
REMARK SMILES IDX 73 55 29 57 61 58 41 59 60 60 42 61 45 62 59 63 78 64 43 65
REMARK SMILES IDX 44 66 58 68 79 69 46 70 30 71 31 72 39 73 32 74 33 75 37 76
REMARK SMILES IDX 40 77 34 78 35 79 38 80 36 81 62 82 63 83 71 84 64 85 65 86
REMARK SMILES IDX 69 87 72 88 66 89 67 90 70 91 68 92 47 93 48 94 56 95 49 96
REMARK SMILES IDX 50 97 54 98 57 99 51 100 52 101 55 102 53 103
REMARK H PARENT 13 6 18 37 77 56 45 67
REMARK Flexibility Score: inf
ROOT
ATOM      1  C   UNL A   1      34.327  33.330  28.017  1.00  0.00     0.023 C 
ENDROOT
BRANCH   1   2
ATOM      2  C   UNL A   1      33.947  32.025  28.719  1.00  0.00     0.116 C 
BRANCH   2   3
ATOM      3  N   UNL A   1      34.897  30.988  28.378  1.00  0.00    -0.352 N 
ATOM      4  C   UNL A   1      34.855  29.906  27.560  1.00  0.00     0.251 C 
ATOM      5  O   UNL A   1      35.854  29.182  27.590  1.00  0.00    -0.269 OA
ATOM      6  H   UNL A   1      35.761  31.090  28.839  1.00  0.00     0.163 HD
BRANCH   4   7
ATOM      7  C   UNL A   1      33.723  29.615  26.595  1.00  0.00     0.047 C 
ATOM      8  C   UNL A   1      32.660  30.439  26.432  1.00  0.00     0.022 C 
BRANCH   8   9
ATOM      9  C   UNL A   1      31.535  30.382  25.466  1.00  0.00    -0.025 A 
ATOM     10  C   UNL A   1      29.445  30.501  23.585  1.00  0.00     0.067 A 
ATOM     11  C   UNL A   1      30.233  29.356  23.678  1.00  0.00     0.021 A 
ATOM     12  C   UNL A   1      29.645  31.566  24.463  1.00  0.00     0.021 A 
ATOM     13  C   UNL A   1      31.252  29.290  24.635  1.00  0.00     0.009 A 
ATOM     14  C   UNL A   1      30.691  31.505  25.390  1.00  0.00     0.009 A 
BRANCH  10  15
ATOM     15  S   UNL A   1      28.131  30.583  22.391  1.00  0.00     0.175 S 
ATOM     16  C   UNL A   1      28.086  32.293  21.922  1.00  0.00     0.163 C 
ATOM     17  O   UNL A   1      26.899  30.272  23.090  1.00  0.00    -0.224 OA
ATOM     18  O   UNL A   1      28.543  29.817  21.230  1.00  0.00    -0.224 OA
ENDBRANCH  10  15
ENDBRANCH   8   9
BRANCH   7  19
ATOM     19  C   UNL A   1      33.719  28.266  25.976  1.00  0.00    -0.013 A 
ATOM     20  C   UNL A   1      33.153  27.214  26.711  1.00  0.00     0.009 A 
ATOM     21  C   UNL A   1      34.135  28.023  24.664  1.00  0.00     0.009 A 
ATOM     22  C   UNL A   1      32.932  25.971  26.124  1.00  0.00     0.009 A 
ATOM     23  C   UNL A   1      33.883  26.777  24.068  1.00  0.00     0.009 A 
ATOM     24  C   UNL A   1      33.242  25.742  24.775  1.00  0.00    -0.015 A 
BRANCH  24  25
ATOM     25  C   UNL A   1      32.847  24.473  24.133  1.00  0.00     0.018 A 
ATOM     26  C   UNL A   1      33.814  23.472  23.890  1.00  0.00     0.015 A 
ATOM     27  C   UNL A   1      31.527  24.198  23.743  1.00  0.00     0.133 A 
ATOM     28  C   UNL A   1      33.474  22.271  23.266  1.00  0.00     0.040 A 
ATOM     29  C   UNL A   1      31.178  23.001  23.124  1.00  0.00     0.079 A 
ATOM     30  F   UNL A   1      30.557  25.103  23.950  1.00  0.00    -0.206 F 
ATOM     31  C   UNL A   1      32.157  22.049  22.886  1.00  0.00     0.126 A 
ATOM     32  F   UNL A   1      31.831  20.898  22.284  1.00  0.00    -0.207 F 
ENDBRANCH  24  25
ENDBRANCH   7  19
ENDBRANCH   4   7
ENDBRANCH   2   3
ENDBRANCH   1   2
BRANCH   1  33
ATOM     33  C   UNL A   1      33.223  34.395  28.041  1.00  0.00     0.023 C 
BRANCH  33  34
ATOM     34  C   UNL A   1      33.596  35.689  28.756  1.00  0.00     0.116 C 
BRANCH  34  35
ATOM     35  N   UNL A   1      32.821  35.913  29.968  1.00  0.00    -0.352 N 
ATOM     36  C   UNL A   1      33.002  35.368  31.214  1.00  0.00     0.251 C 
ATOM     37  H   UNL A   1      32.065  36.539  29.881  1.00  0.00     0.163 HD
ATOM     38  O   UNL A   1      32.185  35.566  32.106  1.00  0.00    -0.269 OA
BRANCH  36  39
ATOM     39  C   UNL A   1      34.174  34.505  31.457  1.00  0.00     0.039 A 
ATOM     40  C   UNL A   1      35.435  34.956  31.064  1.00  0.00     0.014 A 
ATOM     41  C   UNL A   1      34.030  33.278  32.108  1.00  0.00     0.014 A 
ATOM     42  C   UNL A   1      36.565  34.202  31.383  1.00  0.00     0.010 A 
ATOM     43  C   UNL A   1      35.162  32.565  32.490  1.00  0.00     0.010 A 
ATOM     44  C   UNL A   1      36.439  33.021  32.133  1.00  0.00    -0.014 A 
BRANCH  44  45
ATOM     45  C   UNL A   1      37.635  32.254  32.559  1.00  0.00     0.031 A 
ATOM     46  C   UNL A   1      38.317  32.581  33.857  1.00  0.00     0.074 A 
ATOM     47  C   UNL A   1      38.144  31.309  31.744  1.00  0.00     0.049 A 
ATOM     48  N   UNL A   1      39.408  32.071  34.371  1.00  0.00    -0.248 NA
ATOM     49  C   UNL A   1      37.709  33.642  34.675  1.00  0.00     0.031 C 
ATOM     50  C   UNL A   1      37.601  30.939  30.437  1.00  0.00     0.029 A 
ATOM     51  N   UNL A   1      39.240  30.495  31.891  1.00  0.00    -0.354 N 
ATOM     52  C   UNL A   1      39.620  32.755  35.560  1.00  0.00     0.074 A 
ATOM     53  C   UNL A   1      38.581  33.757  35.664  1.00  0.00     0.031 C 
ATOM     54  C   UNL A   1      38.350  29.955  29.912  1.00  0.00     0.029 A 
ATOM     55  C   UNL A   1      39.448  29.655  30.825  1.00  0.00     0.049 A 
ATOM     56  H   UNL A   1      39.821  30.512  32.686  1.00  0.00     0.167 HD
ATOM     57  C   UNL A   1      40.582  32.550  36.493  1.00  0.00     0.037 A 
ATOM     58  C   UNL A   1      40.421  28.749  30.606  1.00  0.00     0.037 A 
ATOM     59  C   UNL A   1      41.599  31.537  36.392  1.00  0.00     0.049 A 
ATOM     60  C   UNL A   1      41.482  28.549  31.654  1.00  0.00     0.074 A 
ATOM     61  C   UNL A   1      42.582  31.210  37.310  1.00  0.00     0.029 A 
ATOM     62  N   UNL A   1      41.769  30.692  35.305  1.00  0.00    -0.354 N 
ATOM     63  N   UNL A   1      41.630  29.150  32.809  1.00  0.00    -0.248 NA
ATOM     64  C   UNL A   1      42.509  27.537  31.370  1.00  0.00     0.031 C 
ATOM     65  C   UNL A   1      43.377  30.202  36.756  1.00  0.00     0.029 A 
ATOM     66  C   UNL A   1      42.855  29.860  35.519  1.00  0.00     0.049 A 
ATOM     67  H   UNL A   1      41.201  30.685  34.501  1.00  0.00     0.167 HD
ATOM     68  C   UNL A   1      42.742  28.569  33.404  1.00  0.00     0.074 A 
ATOM     69  C   UNL A   1      43.224  27.557  32.486  1.00  0.00     0.031 C 
ATOM     70  C   UNL A   1      43.314  28.849  34.600  1.00  0.00     0.037 A 
BRANCH  57  71
ATOM     71  C   UNL A   1      40.576  33.436  37.705  1.00  0.00     0.064 A 
ATOM     72  C   UNL A   1      39.697  33.213  38.776  1.00  0.00     0.173 A 
ATOM     73  C   UNL A   1      41.486  34.498  37.816  1.00  0.00     0.173 A 
ATOM     74  F   UNL A   1      38.798  32.219  38.716  1.00  0.00    -0.203 F 
ATOM     75  C   UNL A   1      39.710  34.036  39.899  1.00  0.00     0.198 A 
ATOM     76  C   UNL A   1      41.519  35.299  38.955  1.00  0.00     0.198 A 
ATOM     77  F   UNL A   1      42.352  34.754  36.824  1.00  0.00    -0.203 F 
ATOM     78  F   UNL A   1      38.826  33.834  40.887  1.00  0.00    -0.200 F 
ATOM     79  C   UNL A   1      40.626  35.073  39.991  1.00  0.00     0.200 A 
ATOM     80  F   UNL A   1      42.415  36.291  39.048  1.00  0.00    -0.200 F 
ATOM     81  F   UNL A   1      40.644  35.859  41.076  1.00  0.00    -0.200 F 
ENDBRANCH  57  71
BRANCH  58  82
ATOM     82  C   UNL A   1      40.426  27.948  29.353  1.00  0.00     0.064 A 
ATOM     83  C   UNL A   1      41.190  28.347  28.247  1.00  0.00     0.173 A 
ATOM     84  C   UNL A   1      39.660  26.780  29.230  1.00  0.00     0.173 A 
ATOM     85  F   UNL A   1      41.924  29.468  28.309  1.00  0.00    -0.203 F 
ATOM     86  C   UNL A   1      41.169  27.620  27.058  1.00  0.00     0.198 A 
ATOM     87  C   UNL A   1      39.665  26.037  28.050  1.00  0.00     0.198 A 
ATOM     88  F   UNL A   1      38.916  26.350  30.260  1.00  0.00    -0.203 F 
ATOM     89  F   UNL A   1      41.868  28.053  26.000  1.00  0.00    -0.200 F 
ATOM     90  C   UNL A   1      40.411  26.464  26.962  1.00  0.00     0.200 A 
ATOM     91  F   UNL A   1      38.943  24.912  27.967  1.00  0.00    -0.200 F 
ATOM     92  F   UNL A   1      40.392  25.766  25.819  1.00  0.00    -0.200 F 
ENDBRANCH  58  82
BRANCH  70  93
ATOM     93  C   UNL A   1      44.499  28.021  35.009  1.00  0.00     0.064 A 
ATOM     94  C   UNL A   1      45.813  28.423  34.733  1.00  0.00     0.173 A 
ATOM     95  C   UNL A   1      44.314  26.829  35.727  1.00  0.00     0.173 A 
ATOM     96  F   UNL A   1      46.042  29.547  34.037  1.00  0.00    -0.203 F 
ATOM     97  C   UNL A   1      46.899  27.650  35.136  1.00  0.00     0.198 A 
ATOM     98  C   UNL A   1      45.402  26.075  36.158  1.00  0.00     0.198 A 
ATOM     99  F   UNL A   1      43.078  26.402  36.025  1.00  0.00    -0.203 F 
ATOM    100  F   UNL A   1      48.144  28.028  34.817  1.00  0.00    -0.200 F 
ATOM    101  C   UNL A   1      46.693  26.481  35.856  1.00  0.00     0.200 A 
ATOM    102  F   UNL A   1      45.201  24.955  36.867  1.00  0.00    -0.200 F 
ATOM    103  F   UNL A   1      47.739  25.744  36.251  1.00  0.00    -0.200 F 
ENDBRANCH  70  93
ENDBRANCH  44  45
ENDBRANCH  36  39
ENDBRANCH  34  35
ENDBRANCH  33  34
ENDBRANCH   1  33
TORSDOF 15
ENDMDL
MODEL 3
REMARK VINA RESULT:     -12.8      0.961      2.182
REMARK SMILES CS(=O)(=O)c1ccc(/C=C(/C(=O)NCCCCNC(=O)c2ccc(-c3c4nc(c(-c5c(F)c(F)c(F)c(F)c5F)c5ccc([nH]5)c(-c5c(F)c(F)c(F)c(F)c5F)c5nc(c(-c6c(F)c(F)c(F)c(F)c6F)c6ccc3[nH]6)C=C5)C=C4)cc2)c2ccc(-c3ccc(F)cc3F)cc2)cc1
REMARK SMILES IDX 15 1 14 2 13 3 11 4 12 5 10 7 9 8 8 9 5 10 6 11 99 12 7 13
REMARK SMILES IDX 98 14 2 15 1 16 3 17 4 18 84 19 85 20 97 21 86 22 96 23
REMARK SMILES IDX 87 24 88 25 89 26 94 27 90 28 93 29 95 30 91 31 92 32 16 33
REMARK SMILES IDX 17 34 18 35 19 36 20 38 21 39 22 40 83 41 23 42 82 43 24 44
REMARK SMILES IDX 25 45 26 46 76 47 27 48 81 49 75 50 77 51 28 52 80 53 74 54
REMARK SMILES IDX 73 55 29 57 61 58 41 59 60 60 42 61 45 62 59 63 78 64 43 65
REMARK SMILES IDX 44 66 58 68 79 69 46 70 30 71 31 72 39 73 32 74 33 75 37 76
REMARK SMILES IDX 40 77 34 78 35 79 38 80 36 81 62 82 63 83 71 84 64 85 65 86
REMARK SMILES IDX 69 87 72 88 66 89 67 90 70 91 68 92 47 93 48 94 56 95 49 96
REMARK SMILES IDX 50 97 54 98 57 99 51 100 52 101 55 102 53 103
REMARK H PARENT 13 6 18 37 77 56 45 67
REMARK Flexibility Score: inf
ROOT
ATOM      1  C   UNL A   1      41.205  21.492  26.316  1.00  0.00     0.023 C 
ENDROOT
BRANCH   1   2
ATOM      2  C   UNL A   1      39.860  21.671  27.025  1.00  0.00     0.116 C 
BRANCH   2   3
ATOM      3  N   UNL A   1      39.386  23.026  26.843  1.00  0.00    -0.352 N 
ATOM      4  C   UNL A   1      38.302  23.569  26.232  1.00  0.00     0.251 C 
ATOM      5  O   UNL A   1      38.273  24.803  26.205  1.00  0.00    -0.269 OA
ATOM      6  H   UNL A   1      39.977  23.700  27.251  1.00  0.00     0.163 HD
BRANCH   4   7
ATOM      7  C   UNL A   1      37.142  22.762  25.686  1.00  0.00     0.047 C 
ATOM      8  C   UNL A   1      37.186  21.417  25.530  1.00  0.00     0.022 C 
BRANCH   8   9
ATOM      9  C   UNL A   1      36.127  20.457  25.130  1.00  0.00    -0.025 A 
ATOM     10  C   UNL A   1      34.231  18.474  24.504  1.00  0.00     0.067 A 
ATOM     11  C   UNL A   1      33.818  19.785  24.731  1.00  0.00     0.021 A 
ATOM     12  C   UNL A   1      35.587  18.151  24.522  1.00  0.00     0.021 A 
ATOM     13  C   UNL A   1      34.767  20.773  25.013  1.00  0.00     0.009 A 
ATOM     14  C   UNL A   1      36.525  19.138  24.843  1.00  0.00     0.009 A 
BRANCH  10  15
ATOM     15  S   UNL A   1      33.035  17.217  24.117  1.00  0.00     0.175 S 
ATOM     16  C   UNL A   1      32.324  17.761  22.585  1.00  0.00     0.163 C 
ATOM     17  O   UNL A   1      32.009  17.276  25.139  1.00  0.00    -0.224 OA
ATOM     18  O   UNL A   1      33.759  15.986  23.856  1.00  0.00    -0.224 OA
ENDBRANCH  10  15
ENDBRANCH   8   9
BRANCH   7  19
ATOM     19  C   UNL A   1      36.008  23.538  25.125  1.00  0.00    -0.013 A 
ATOM     20  C   UNL A   1      35.212  24.267  26.020  1.00  0.00     0.009 A 
ATOM     21  C   UNL A   1      35.777  23.675  23.754  1.00  0.00     0.009 A 
ATOM     22  C   UNL A   1      34.260  25.171  25.555  1.00  0.00     0.009 A 
ATOM     23  C   UNL A   1      34.838  24.609  23.290  1.00  0.00     0.009 A 
ATOM     24  C   UNL A   1      34.091  25.402  24.182  1.00  0.00    -0.015 A 
BRANCH  24  25
ATOM     25  C   UNL A   1      33.197  26.483  23.721  1.00  0.00     0.018 A 
ATOM     26  C   UNL A   1      33.555  27.833  23.926  1.00  0.00     0.015 A 
ATOM     27  C   UNL A   1      31.979  26.234  23.069  1.00  0.00     0.133 A 
ATOM     28  C   UNL A   1      32.721  28.876  23.519  1.00  0.00     0.040 A 
ATOM     29  C   UNL A   1      31.142  27.267  22.656  1.00  0.00     0.079 A 
ATOM     30  F   UNL A   1      31.580  24.973  22.836  1.00  0.00    -0.206 F 
ATOM     31  C   UNL A   1      31.519  28.581  22.890  1.00  0.00     0.126 A 
ATOM     32  F   UNL A   1      30.716  29.580  22.504  1.00  0.00    -0.207 F 
ENDBRANCH  24  25
ENDBRANCH   7  19
ENDBRANCH   4   7
ENDBRANCH   2   3
ENDBRANCH   1   2
BRANCH   1  33
ATOM     33  C   UNL A   1      41.437  20.077  25.769  1.00  0.00     0.023 C 
BRANCH  33  34
ATOM     34  C   UNL A   1      42.733  19.417  26.227  1.00  0.00     0.116 C 
BRANCH  34  35
ATOM     35  N   UNL A   1      43.540  18.920  25.123  1.00  0.00    -0.352 N 
ATOM     36  C   UNL A   1      44.469  19.592  24.369  1.00  0.00     0.251 C 
ATOM     37  H   UNL A   1      43.399  17.975  24.884  1.00  0.00     0.163 HD
ATOM     38  O   UNL A   1      44.979  19.061  23.389  1.00  0.00    -0.269 OA
BRANCH  36  39
ATOM     39  C   UNL A   1      44.819  20.979  24.730  1.00  0.00     0.039 A 
ATOM     40  C   UNL A   1      44.396  22.018  23.900  1.00  0.00     0.014 A 
ATOM     41  C   UNL A   1      45.525  21.250  25.905  1.00  0.00     0.014 A 
ATOM     42  C   UNL A   1      44.625  23.340  24.283  1.00  0.00     0.010 A 
ATOM     43  C   UNL A   1      45.687  22.568  26.320  1.00  0.00     0.010 A 
ATOM     44  C   UNL A   1      45.237  23.624  25.515  1.00  0.00    -0.014 A 
BRANCH  44  45
ATOM     45  C   UNL A   1      45.408  25.023  25.981  1.00  0.00     0.031 A 
ATOM     46  C   UNL A   1      46.761  25.672  25.937  1.00  0.00     0.074 A 
ATOM     47  C   UNL A   1      44.356  25.681  26.505  1.00  0.00     0.049 A 
ATOM     48  N   UNL A   1      47.126  26.858  26.357  1.00  0.00    -0.248 NA
ATOM     49  C   UNL A   1      47.860  24.874  25.371  1.00  0.00     0.031 C 
ATOM     50  C   UNL A   1      43.005  25.137  26.650  1.00  0.00     0.029 A 
ATOM     51  N   UNL A   1      44.261  26.948  27.026  1.00  0.00    -0.354 N 
ATOM     52  C   UNL A   1      48.490  26.940  26.117  1.00  0.00     0.074 A 
ATOM     53  C   UNL A   1      48.902  25.666  25.570  1.00  0.00     0.031 C 
ATOM     54  C   UNL A   1      42.210  26.072  27.197  1.00  0.00     0.029 A 
ATOM     55  C   UNL A   1      43.004  27.264  27.480  1.00  0.00     0.049 A 
ATOM     56  H   UNL A   1      45.021  27.572  27.068  1.00  0.00     0.167 HD
ATOM     57  C   UNL A   1      49.320  27.993  26.313  1.00  0.00     0.037 A 
ATOM     58  C   UNL A   1      42.546  28.386  28.067  1.00  0.00     0.037 A 
ATOM     59  C   UNL A   1      48.899  29.265  26.838  1.00  0.00     0.049 A 
ATOM     60  C   UNL A   1      43.492  29.537  28.282  1.00  0.00     0.074 A 
ATOM     61  C   UNL A   1      49.649  30.414  27.019  1.00  0.00     0.029 A 
ATOM     62  N   UNL A   1      47.613  29.554  27.272  1.00  0.00    -0.354 N 
ATOM     63  N   UNL A   1      44.764  29.631  27.983  1.00  0.00    -0.248 NA
ATOM     64  C   UNL A   1      42.934  30.742  28.911  1.00  0.00     0.031 C 
ATOM     65  C   UNL A   1      48.830  31.381  27.610  1.00  0.00     0.029 A 
ATOM     66  C   UNL A   1      47.555  30.856  27.743  1.00  0.00     0.049 A 
ATOM     67  H   UNL A   1      46.855  28.927  27.248  1.00  0.00     0.167 HD
ATOM     68  C   UNL A   1      45.151  30.911  28.354  1.00  0.00     0.074 A 
ATOM     69  C   UNL A   1      43.974  31.564  28.889  1.00  0.00     0.031 C 
ATOM     70  C   UNL A   1      46.372  31.494  28.262  1.00  0.00     0.037 A 
BRANCH  57  71
ATOM     71  C   UNL A   1      50.767  27.815  25.955  1.00  0.00     0.064 A 
ATOM     72  C   UNL A   1      51.730  27.485  26.921  1.00  0.00     0.173 A 
ATOM     73  C   UNL A   1      51.192  27.934  24.623  1.00  0.00     0.173 A 
ATOM     74  F   UNL A   1      51.380  27.370  28.211  1.00  0.00    -0.203 F 
ATOM     75  C   UNL A   1      53.066  27.311  26.573  1.00  0.00     0.198 A 
ATOM     76  C   UNL A   1      52.524  27.726  24.273  1.00  0.00     0.198 A 
ATOM     77  F   UNL A   1      50.313  28.242  23.657  1.00  0.00    -0.203 F 
ATOM     78  F   UNL A   1      53.976  27.047  27.522  1.00  0.00    -0.200 F 
ATOM     79  C   UNL A   1      53.461  27.424  25.248  1.00  0.00     0.200 A 
ATOM     80  F   UNL A   1      52.900  27.822  22.990  1.00  0.00    -0.200 F 
ATOM     81  F   UNL A   1      54.747  27.248  24.913  1.00  0.00    -0.200 F 
ENDBRANCH  57  71
BRANCH  58  82
ATOM     82  C   UNL A   1      41.119  28.486  28.474  1.00  0.00     0.064 A 
ATOM     83  C   UNL A   1      40.700  28.059  29.742  1.00  0.00     0.173 A 
ATOM     84  C   UNL A   1      40.145  28.996  27.603  1.00  0.00     0.173 A 
ATOM     85  F   UNL A   1      41.591  27.546  30.603  1.00  0.00    -0.203 F 
ATOM     86  C   UNL A   1      39.358  28.116  30.114  1.00  0.00     0.198 A 
ATOM     87  C   UNL A   1      38.808  29.081  27.988  1.00  0.00     0.198 A 
ATOM     88  F   UNL A   1      40.492  29.424  26.380  1.00  0.00    -0.203 F 
ATOM     89  F   UNL A   1      38.979  27.653  31.313  1.00  0.00    -0.200 F 
ATOM     90  C   UNL A   1      38.414  28.631  29.239  1.00  0.00     0.200 A 
ATOM     91  F   UNL A   1      37.901  29.594  27.146  1.00  0.00    -0.200 F 
ATOM     92  F   UNL A   1      37.125  28.686  29.599  1.00  0.00    -0.200 F 
ENDBRANCH  58  82
BRANCH  70  93
ATOM     93  C   UNL A   1      46.489  32.923  28.708  1.00  0.00     0.064 A 
ATOM     94  C   UNL A   1      46.236  33.993  27.838  1.00  0.00     0.173 A 
ATOM     95  C   UNL A   1      46.819  33.224  30.039  1.00  0.00     0.173 A 
ATOM     96  F   UNL A   1      45.932  33.759  26.552  1.00  0.00    -0.203 F 
ATOM     97  C   UNL A   1      46.335  35.312  28.275  1.00  0.00     0.198 A 
ATOM     98  C   UNL A   1      46.883  34.541  30.483  1.00  0.00     0.198 A 
ATOM     99  F   UNL A   1      47.063  32.238  30.915  1.00  0.00    -0.203 F 
ATOM    100  F   UNL A   1      46.138  36.318  27.414  1.00  0.00    -0.200 F 
ATOM    101  C   UNL A   1      46.650  35.584  29.599  1.00  0.00     0.200 A 
ATOM    102  F   UNL A   1      47.172  34.802  31.765  1.00  0.00    -0.200 F 
ATOM    103  F   UNL A   1      46.734  36.853  30.021  1.00  0.00    -0.200 F 
ENDBRANCH  70  93
ENDBRANCH  44  45
ENDBRANCH  36  39
ENDBRANCH  34  35
ENDBRANCH  33  34
ENDBRANCH   1  33
TORSDOF 15
ENDMDL
