MODEL 1
REMARK VINA RESULT:     -12.4      0.000      0.000
REMARK SMILES Cc1ccc(N2CC[C@H]([NH+]3CCOCC3)[C@H](CCC(=O)NCCCCNC(=O)c3ccc(-c4c5nc(c(-c6c(F)c(F)c(F)c(F)c6F)c6ccc([nH]6)c(-c6c(F)c(F)c(F)c(F)c6F)c6nc(c(-c7c(F)c(F)c(F)c(F)c7F)c7ccc4[nH]7)C=C6)C=C5)cc3)C2)nc1
REMARK SMILES IDX 23 1 22 2 21 3 19 4 20 5 18 7 17 8 16 9 6 10 7 11 92 12 8 13
REMARK SMILES IDX 9 14 5 15 1 16 2 17 3 18 94 19 4 20 93 21 10 22 11 23 15 24
REMARK SMILES IDX 12 26 14 27 13 28 24 29 25 30 26 31 27 32 28 34 29 35 30 36
REMARK SMILES IDX 91 37 31 38 90 39 32 40 33 41 34 42 84 43 35 44 89 45 83 46
REMARK SMILES IDX 85 47 36 48 88 49 82 50 81 51 37 53 69 54 49 55 68 56 50 57
REMARK SMILES IDX 53 58 67 59 86 60 51 61 52 62 66 64 87 65 54 66 38 67 39 68
REMARK SMILES IDX 47 69 40 70 41 71 45 72 48 73 42 74 43 75 46 76 44 77 70 78
REMARK SMILES IDX 71 79 79 80 72 81 73 82 77 83 80 84 74 85 75 86 78 87 76 88
REMARK SMILES IDX 55 89 56 90 64 91 57 92 58 93 62 94 65 95 59 96 60 97 63 98
REMARK SMILES IDX 61 99
REMARK H PARENT 21 6 10 25 26 33 85 52 53 63
REMARK Flexibility Score: inf
ROOT
ATOM      1  C   UNL A   1      34.552  32.600  28.959  1.00  0.00     0.023 C 
ENDROOT
BRANCH   1   2
ATOM      2  C   UNL A   1      34.922  31.783  27.712  1.00  0.00     0.116 C 
BRANCH   2   3
ATOM      3  N   UNL A   1      34.506  30.405  27.894  1.00  0.00    -0.356 N 
ATOM      4  C   UNL A   1      33.489  29.721  27.293  1.00  0.00     0.220 C 
ATOM      5  O   UNL A   1      33.163  28.632  27.770  1.00  0.00    -0.275 OA
ATOM      6  H   UNL A   1      35.034  29.889  28.544  1.00  0.00     0.163 HD
BRANCH   4   7
ATOM      7  C   UNL A   1      32.823  30.262  26.038  1.00  0.00     0.100 C 
BRANCH   7   8
ATOM      8  C   UNL A   1      32.601  29.249  24.893  1.00  0.00     0.021 C 
BRANCH   8   9
ATOM      9  C   UNL A   1      31.176  28.665  24.816  1.00  0.00     0.067 C 
ATOM     10  N   UNL A   1      31.327  26.225  24.339  1.00  0.00    -0.356 N 
ATOM     11  C   UNL A   1      30.549  26.328  23.121  1.00  0.00     0.124 C 
ATOM     12  C   UNL A   1      31.115  27.219  25.376  1.00  0.00     0.127 C 
ATOM     13  C   UNL A   1      30.731  27.701  22.486  1.00  0.00     0.087 C 
ATOM     14  C   UNL A   1      30.333  28.779  23.496  1.00  0.00     0.190 C 
BRANCH  10  15
ATOM     15  C   UNL A   1      32.544  25.578  24.255  1.00  0.00     0.128 A 
ATOM     16  C   UNL A   1      36.158  23.337  24.039  1.00  0.00     0.046 C 
ATOM     17  C   UNL A   1      34.902  24.137  24.157  1.00  0.00    -0.033 A 
ATOM     18  C   UNL A   1      34.627  24.922  25.271  1.00  0.00     0.009 A 
ATOM     19  C   UNL A   1      33.964  24.137  23.135  1.00  0.00     0.117 A 
ATOM     20  C   UNL A   1      33.444  25.656  25.315  1.00  0.00     0.047 A 
ATOM     21  N   UNL A   1      32.799  24.818  23.172  1.00  0.00    -0.239 NA
ENDBRANCH  10  15
BRANCH  14  22
ATOM     22  N   UNL A   1      30.120  30.141  22.964  1.00  0.00    -0.328 N 
ATOM     23  C   UNL A   1      29.293  31.008  23.841  1.00  0.00     0.291 C 
ATOM     24  C   UNL A   1      29.670  30.290  21.571  1.00  0.00     0.291 C 
ATOM     25  H   UNL A   1      31.089  30.460  22.958  1.00  0.00     0.348 HD
ATOM     26  C   UNL A   1      27.784  31.061  23.526  1.00  0.00     0.221 C 
ATOM     27  C   UNL A   1      28.158  30.347  21.332  1.00  0.00     0.221 C 
ATOM     28  O   UNL A   1      27.544  31.346  22.147  1.00  0.00    -0.370 OA
ENDBRANCH  14  22
ENDBRANCH   8   9
ENDBRANCH   7   8
ENDBRANCH   4   7
ENDBRANCH   2   3
ENDBRANCH   1   2
BRANCH   1  29
ATOM     29  C   UNL A   1      33.635  33.774  28.679  1.00  0.00     0.023 C 
BRANCH  29  30
ATOM     30  C   UNL A   1      34.061  35.023  29.429  1.00  0.00     0.116 C 
BRANCH  30  31
ATOM     31  N   UNL A   1      32.980  35.632  30.200  1.00  0.00    -0.352 N 
ATOM     32  C   UNL A   1      32.821  35.658  31.570  1.00  0.00     0.251 C 
ATOM     33  H   UNL A   1      32.278  36.081  29.677  1.00  0.00     0.163 HD
ATOM     34  O   UNL A   1      31.827  36.129  32.092  1.00  0.00    -0.269 OA
BRANCH  32  35
ATOM     35  C   UNL A   1      33.883  35.034  32.387  1.00  0.00     0.039 A 
ATOM     36  C   UNL A   1      33.701  33.727  32.838  1.00  0.00     0.014 A 
ATOM     37  C   UNL A   1      35.112  35.682  32.522  1.00  0.00     0.014 A 
ATOM     38  C   UNL A   1      34.800  33.020  33.325  1.00  0.00     0.010 A 
ATOM     39  C   UNL A   1      36.220  34.944  32.908  1.00  0.00     0.010 A 
ATOM     40  C   UNL A   1      36.079  33.601  33.297  1.00  0.00    -0.014 A 
BRANCH  40  41
ATOM     41  C   UNL A   1      37.297  32.824  33.637  1.00  0.00     0.031 A 
ATOM     42  C   UNL A   1      38.034  33.124  34.910  1.00  0.00     0.074 A 
ATOM     43  C   UNL A   1      37.795  31.934  32.756  1.00  0.00     0.049 A 
ATOM     44  N   UNL A   1      39.184  32.662  35.329  1.00  0.00    -0.248 NA
ATOM     45  C   UNL A   1      37.416  34.108  35.814  1.00  0.00     0.031 C 
ATOM     46  C   UNL A   1      37.205  31.603  31.456  1.00  0.00     0.029 A 
ATOM     47  N   UNL A   1      38.924  31.156  32.813  1.00  0.00    -0.354 N 
ATOM     48  C   UNL A   1      39.437  33.317  36.526  1.00  0.00     0.074 A 
ATOM     49  C   UNL A   1      38.352  34.249  36.739  1.00  0.00     0.031 C 
ATOM     50  C   UNL A   1      37.965  30.675  30.852  1.00  0.00     0.029 A 
ATOM     51  C   UNL A   1      39.115  30.376  31.697  1.00  0.00     0.049 A 
ATOM     52  H   UNL A   1      39.541  31.157  33.580  1.00  0.00     0.167 HD
ATOM     53  C   UNL A   1      40.468  33.137  37.383  1.00  0.00     0.037 A 
ATOM     54  C   UNL A   1      40.113  29.525  31.388  1.00  0.00     0.037 A 
ATOM     55  C   UNL A   1      41.518  32.174  37.191  1.00  0.00     0.049 A 
ATOM     56  C   UNL A   1      41.243  29.338  32.363  1.00  0.00     0.074 A 
ATOM     57  C   UNL A   1      42.552  31.845  38.047  1.00  0.00     0.029 A 
ATOM     58  N   UNL A   1      41.663  31.384  36.060  1.00  0.00    -0.354 N 
ATOM     59  N   UNL A   1      41.430  29.903  33.530  1.00  0.00    -0.248 NA
ATOM     60  C   UNL A   1      42.304  28.395  31.977  1.00  0.00     0.031 C 
ATOM     61  C   UNL A   1      43.349  30.884  37.416  1.00  0.00     0.029 A 
ATOM     62  C   UNL A   1      42.788  30.587  36.184  1.00  0.00     0.049 A 
ATOM     63  H   UNL A   1      41.057  31.390  35.284  1.00  0.00     0.167 HD
ATOM     64  C   UNL A   1      42.615  29.376  34.026  1.00  0.00     0.074 A 
ATOM     65  C   UNL A   1      43.096  28.431  33.039  1.00  0.00     0.031 C 
ATOM     66  C   UNL A   1      43.249  29.652  35.190  1.00  0.00     0.037 A 
BRANCH  53  67
ATOM     67  C   UNL A   1      40.498  33.991  38.616  1.00  0.00     0.064 A 
ATOM     68  C   UNL A   1      41.201  35.205  38.651  1.00  0.00     0.173 A 
ATOM     69  C   UNL A   1      39.796  33.603  39.766  1.00  0.00     0.173 A 
ATOM     70  F   UNL A   1      41.901  35.611  37.581  1.00  0.00    -0.203 F 
ATOM     71  C   UNL A   1      41.224  35.985  39.803  1.00  0.00     0.198 A 
ATOM     72  C   UNL A   1      39.798  34.402  40.907  1.00  0.00     0.198 A 
ATOM     73  F   UNL A   1      39.107  32.453  39.783  1.00  0.00    -0.203 F 
ATOM     74  F   UNL A   1      41.945  37.115  39.830  1.00  0.00    -0.200 F 
ATOM     75  C   UNL A   1      40.517  35.586  40.928  1.00  0.00     0.200 A 
ATOM     76  F   UNL A   1      39.105  34.020  41.990  1.00  0.00    -0.200 F 
ATOM     77  F   UNL A   1      40.536  36.342  42.035  1.00  0.00    -0.200 F 
ENDBRANCH  53  67
BRANCH  54  78
ATOM     78  C   UNL A   1      40.082  28.775  30.105  1.00  0.00     0.064 A 
ATOM     79  C   UNL A   1      40.661  29.313  28.947  1.00  0.00     0.173 A 
ATOM     80  C   UNL A   1      39.473  27.516  30.007  1.00  0.00     0.173 A 
ATOM     81  F   UNL A   1      41.235  30.524  28.987  1.00  0.00    -0.203 F 
ATOM     82  C   UNL A   1      40.619  28.625  27.736  1.00  0.00     0.198 A 
ATOM     83  C   UNL A   1      39.453  26.818  28.801  1.00  0.00     0.198 A 
ATOM     84  F   UNL A   1      38.907  26.958  31.087  1.00  0.00    -0.203 F 
ATOM     85  F   UNL A   1      41.146  29.179  26.636  1.00  0.00    -0.200 F 
ATOM     86  C   UNL A   1      40.021  27.376  27.665  1.00  0.00     0.200 A 
ATOM     87  F   UNL A   1      38.885  25.606  28.738  1.00  0.00    -0.200 F 
ATOM     88  F   UNL A   1      39.984  26.714  26.501  1.00  0.00    -0.200 F 
ENDBRANCH  54  78
BRANCH  66  89
ATOM     89  C   UNL A   1      44.524  28.916  35.472  1.00  0.00     0.064 A 
ATOM     90  C   UNL A   1      44.521  27.673  36.120  1.00  0.00     0.173 A 
ATOM     91  C   UNL A   1      45.754  29.430  35.034  1.00  0.00     0.173 A 
ATOM     92  F   UNL A   1      43.371  27.150  36.570  1.00  0.00    -0.203 F 
ATOM     93  C   UNL A   1      45.707  26.975  36.330  1.00  0.00     0.198 A 
ATOM     94  C   UNL A   1      46.934  28.717  35.223  1.00  0.00     0.198 A 
ATOM     95  F   UNL A   1      45.807  30.613  34.404  1.00  0.00    -0.203 F 
ATOM     96  F   UNL A   1      45.686  25.803  36.981  1.00  0.00    -0.200 F 
ATOM     97  C   UNL A   1      46.910  27.493  35.874  1.00  0.00     0.200 A 
ATOM     98  F   UNL A   1      48.094  29.212  34.770  1.00  0.00    -0.200 F 
ATOM     99  F   UNL A   1      48.049  26.811  36.065  1.00  0.00    -0.200 F 
ENDBRANCH  66  89
ENDBRANCH  40  41
ENDBRANCH  32  35
ENDBRANCH  30  31
ENDBRANCH  29  30
ENDBRANCH   1  29
TORSDOF 15
ENDMDL
MODEL 2
REMARK VINA RESULT:     -12.3      2.005      4.124
REMARK SMILES Cc1ccc(N2CC[C@H]([NH+]3CCOCC3)[C@H](CCC(=O)NCCCCNC(=O)c3ccc(-c4c5nc(c(-c6c(F)c(F)c(F)c(F)c6F)c6ccc([nH]6)c(-c6c(F)c(F)c(F)c(F)c6F)c6nc(c(-c7c(F)c(F)c(F)c(F)c7F)c7ccc4[nH]7)C=C6)C=C5)cc3)C2)nc1
REMARK SMILES IDX 23 1 22 2 21 3 19 4 20 5 18 7 17 8 16 9 6 10 7 11 92 12 8 13
REMARK SMILES IDX 9 14 5 15 1 16 2 17 3 18 94 19 4 20 93 21 10 22 11 23 15 24
REMARK SMILES IDX 12 26 14 27 13 28 24 29 25 30 26 31 27 32 28 34 29 35 30 36
REMARK SMILES IDX 91 37 31 38 90 39 32 40 33 41 34 42 84 43 35 44 89 45 83 46
REMARK SMILES IDX 85 47 36 48 88 49 82 50 81 51 37 53 69 54 49 55 68 56 50 57
REMARK SMILES IDX 53 58 67 59 86 60 51 61 52 62 66 64 87 65 54 66 38 67 39 68
REMARK SMILES IDX 47 69 40 70 41 71 45 72 48 73 42 74 43 75 46 76 44 77 70 78
REMARK SMILES IDX 71 79 79 80 72 81 73 82 77 83 80 84 74 85 75 86 78 87 76 88
REMARK SMILES IDX 55 89 56 90 64 91 57 92 58 93 62 94 65 95 59 96 60 97 63 98
REMARK SMILES IDX 61 99
REMARK H PARENT 21 6 10 25 26 33 85 52 53 63
REMARK Flexibility Score: inf
ROOT
ATOM      1  C   UNL A   1      32.663  30.697  26.245  1.00  0.00     0.023 C 
ENDROOT
BRANCH   1   2
ATOM      2  C   UNL A   1      33.175  29.652  27.247  1.00  0.00     0.116 C 
BRANCH   2   3
ATOM      3  N   UNL A   1      32.127  28.685  27.517  1.00  0.00    -0.356 N 
ATOM      4  C   UNL A   1      31.948  27.434  27.001  1.00  0.00     0.220 C 
ATOM      5  O   UNL A   1      30.863  26.881  27.187  1.00  0.00    -0.275 OA
ATOM      6  H   UNL A   1      31.447  28.973  28.167  1.00  0.00     0.163 HD
BRANCH   4   7
ATOM      7  C   UNL A   1      33.078  26.727  26.270  1.00  0.00     0.100 C 
BRANCH   7   8
ATOM      8  C   UNL A   1      32.991  25.185  26.210  1.00  0.00     0.021 C 
BRANCH   8   9
ATOM      9  C   UNL A   1      33.680  24.549  24.984  1.00  0.00     0.067 C 
ATOM     10  N   UNL A   1      32.844  25.660  22.919  1.00  0.00    -0.356 N 
ATOM     11  C   UNL A   1      32.348  24.422  22.350  1.00  0.00     0.124 C 
ATOM     12  C   UNL A   1      33.942  25.591  23.865  1.00  0.00     0.127 C 
ATOM     13  C   UNL A   1      31.944  23.453  23.454  1.00  0.00     0.087 C 
ATOM     14  C   UNL A   1      33.143  23.207  24.371  1.00  0.00     0.190 C 
BRANCH  10  15
ATOM     15  C   UNL A   1      31.964  26.723  22.974  1.00  0.00     0.128 A 
ATOM     16  C   UNL A   1      29.388  30.090  23.377  1.00  0.00     0.046 C 
ATOM     17  C   UNL A   1      30.258  28.882  23.251  1.00  0.00    -0.033 A 
ATOM     18  C   UNL A   1      29.797  27.604  23.550  1.00  0.00     0.009 A 
ATOM     19  C   UNL A   1      31.568  28.996  22.809  1.00  0.00     0.117 A 
ATOM     20  C   UNL A   1      30.654  26.516  23.400  1.00  0.00     0.047 A 
ATOM     21  N   UNL A   1      32.422  27.957  22.685  1.00  0.00    -0.239 NA
ENDBRANCH  10  15
BRANCH  14  22
ATOM     22  N   UNL A   1      33.051  22.052  25.288  1.00  0.00    -0.328 N 
ATOM     23  C   UNL A   1      34.368  21.514  25.715  1.00  0.00     0.291 C 
ATOM     24  C   UNL A   1      32.166  20.933  24.925  1.00  0.00     0.291 C 
ATOM     25  H   UNL A   1      32.582  22.509  26.070  1.00  0.00     0.348 HD
ATOM     26  C   UNL A   1      34.925  20.333  24.895  1.00  0.00     0.221 C 
ATOM     27  C   UNL A   1      32.787  19.789  24.120  1.00  0.00     0.221 C 
ATOM     28  O   UNL A   1      33.962  19.286  24.759  1.00  0.00    -0.370 OA
ENDBRANCH  14  22
ENDBRANCH   8   9
ENDBRANCH   7   8
ENDBRANCH   4   7
ENDBRANCH   2   3
ENDBRANCH   1   2
BRANCH   1  29
ATOM     29  C   UNL A   1      31.994  31.895  26.889  1.00  0.00     0.023 C 
BRANCH  29  30
ATOM     30  C   UNL A   1      32.989  32.781  27.618  1.00  0.00     0.116 C 
BRANCH  30  31
ATOM     31  N   UNL A   1      32.526  34.156  27.785  1.00  0.00    -0.352 N 
ATOM     32  C   UNL A   1      33.010  35.119  28.646  1.00  0.00     0.251 C 
ATOM     33  H   UNL A   1      31.775  34.430  27.211  1.00  0.00     0.163 HD
ATOM     34  O   UNL A   1      32.481  36.211  28.751  1.00  0.00    -0.269 OA
BRANCH  32  35
ATOM     35  C   UNL A   1      34.168  34.754  29.488  1.00  0.00     0.039 A 
ATOM     36  C   UNL A   1      33.936  34.239  30.762  1.00  0.00     0.014 A 
ATOM     37  C   UNL A   1      35.447  34.747  28.927  1.00  0.00     0.014 A 
ATOM     38  C   UNL A   1      34.978  33.601  31.435  1.00  0.00     0.010 A 
ATOM     39  C   UNL A   1      36.449  34.022  29.552  1.00  0.00     0.010 A 
ATOM     40  C   UNL A   1      36.221  33.427  30.804  1.00  0.00    -0.014 A 
BRANCH  40  41
ATOM     41  C   UNL A   1      37.295  32.602  31.410  1.00  0.00     0.031 A 
ATOM     42  C   UNL A   1      37.804  32.941  32.781  1.00  0.00     0.074 A 
ATOM     43  C   UNL A   1      37.881  31.626  30.689  1.00  0.00     0.049 A 
ATOM     44  N   UNL A   1      38.820  32.440  33.434  1.00  0.00    -0.248 NA
ATOM     45  C   UNL A   1      37.102  34.020  33.497  1.00  0.00     0.031 C 
ATOM     46  C   UNL A   1      37.519  31.244  29.322  1.00  0.00     0.029 A 
ATOM     47  N   UNL A   1      38.921  30.786  31.001  1.00  0.00    -0.354 N 
ATOM     48  C   UNL A   1      38.894  33.158  34.620  1.00  0.00     0.074 A 
ATOM     49  C   UNL A   1      37.859  34.166  34.573  1.00  0.00     0.031 C 
ATOM     50  C   UNL A   1      38.308  30.233  28.923  1.00  0.00     0.029 A 
ATOM     51  C   UNL A   1      39.257  29.922  29.986  1.00  0.00     0.049 A 
ATOM     52  H   UNL A   1      39.383  30.801  31.870  1.00  0.00     0.167 HD
ATOM     53  C   UNL A   1      39.733  32.973  35.665  1.00  0.00     0.037 A 
ATOM     54  C   UNL A   1      40.231  28.993  29.918  1.00  0.00     0.037 A 
ATOM     55  C   UNL A   1      40.728  31.937  35.727  1.00  0.00     0.049 A 
ATOM     56  C   UNL A   1      41.145  28.803  31.098  1.00  0.00     0.074 A 
ATOM     57  C   UNL A   1      41.560  31.604  36.780  1.00  0.00     0.029 A 
ATOM     58  N   UNL A   1      41.022  31.065  34.690  1.00  0.00    -0.354 N 
ATOM     59  N   UNL A   1      41.153  29.433  32.247  1.00  0.00    -0.248 NA
ATOM     60  C   UNL A   1      42.187  27.774  30.971  1.00  0.00     0.031 C 
ATOM     61  C   UNL A   1      42.388  30.556  36.365  1.00  0.00     0.029 A 
ATOM     62  C   UNL A   1      42.044  30.211  35.068  1.00  0.00     0.049 A 
ATOM     63  H   UNL A   1      40.571  31.055  33.814  1.00  0.00     0.167 HD
ATOM     64  C   UNL A   1      42.185  28.869  32.985  1.00  0.00     0.074 A 
ATOM     65  C   UNL A   1      42.770  27.833  32.160  1.00  0.00     0.031 C 
ATOM     66  C   UNL A   1      42.611  29.185  34.232  1.00  0.00     0.037 A 
BRANCH  53  67
ATOM     67  C   UNL A   1      39.597  33.904  36.832  1.00  0.00     0.064 A 
ATOM     68  C   UNL A   1      40.208  35.168  36.839  1.00  0.00     0.173 A 
ATOM     69  C   UNL A   1      38.827  33.540  37.946  1.00  0.00     0.173 A 
ATOM     70  F   UNL A   1      40.967  35.556  35.804  1.00  0.00    -0.203 F 
ATOM     71  C   UNL A   1      40.077  36.020  37.931  1.00  0.00     0.198 A 
ATOM     72  C   UNL A   1      38.674  34.409  39.024  1.00  0.00     0.198 A 
ATOM     73  F   UNL A   1      38.221  32.344  37.989  1.00  0.00    -0.203 F 
ATOM     74  F   UNL A   1      40.711  37.201  37.937  1.00  0.00    -0.200 F 
ATOM     75  C   UNL A   1      39.305  35.643  39.020  1.00  0.00     0.200 A 
ATOM     76  F   UNL A   1      37.919  34.046  40.071  1.00  0.00    -0.200 F 
ATOM     77  F   UNL A   1      39.175  36.468  40.068  1.00  0.00    -0.200 F 
ENDBRANCH  53  67
BRANCH  54  78
ATOM     78  C   UNL A   1      40.383  28.162  28.696  1.00  0.00     0.064 A 
ATOM     79  C   UNL A   1      39.736  26.923  28.587  1.00  0.00     0.173 A 
ATOM     80  C   UNL A   1      41.175  28.581  27.617  1.00  0.00     0.173 A 
ATOM     81  F   UNL A   1      38.985  26.469  29.603  1.00  0.00    -0.203 F 
ATOM     82  C   UNL A   1      39.887  26.128  27.453  1.00  0.00     0.198 A 
ATOM     83  C   UNL A   1      41.306  27.797  26.473  1.00  0.00     0.198 A 
ATOM     84  F   UNL A   1      41.812  29.760  27.670  1.00  0.00    -0.203 F 
ATOM     85  F   UNL A   1      39.290  24.931  27.392  1.00  0.00    -0.200 F 
ATOM     86  C   UNL A   1      40.667  26.568  26.394  1.00  0.00     0.200 A 
ATOM     87  F   UNL A   1      42.050  28.231  25.446  1.00  0.00    -0.200 F 
ATOM     88  F   UNL A   1      40.810  25.806  25.302  1.00  0.00    -0.200 F 
ENDBRANCH  54  78
BRANCH  66  89
ATOM     89  C   UNL A   1      43.755  28.393  34.789  1.00  0.00     0.064 A 
ATOM     90  C   UNL A   1      43.545  27.179  35.459  1.00  0.00     0.173 A 
ATOM     91  C   UNL A   1      45.078  28.821  34.597  1.00  0.00     0.173 A 
ATOM     92  F   UNL A   1      42.297  26.738  35.680  1.00  0.00    -0.203 F 
ATOM     93  C   UNL A   1      44.618  26.427  35.927  1.00  0.00     0.198 A 
ATOM     94  C   UNL A   1      46.149  28.053  35.044  1.00  0.00     0.198 A 
ATOM     95  F   UNL A   1      45.329  29.973  33.957  1.00  0.00    -0.203 F 
ATOM     96  F   UNL A   1      44.395  25.286  36.594  1.00  0.00    -0.200 F 
ATOM     97  C   UNL A   1      45.919  26.860  35.711  1.00  0.00     0.200 A 
ATOM     98  F   UNL A   1      47.405  28.466  34.822  1.00  0.00    -0.200 F 
ATOM     99  F   UNL A   1      46.951  26.127  36.150  1.00  0.00    -0.200 F 
ENDBRANCH  66  89
ENDBRANCH  40  41
ENDBRANCH  32  35
ENDBRANCH  30  31
ENDBRANCH  29  30
ENDBRANCH   1  29
TORSDOF 15
ENDMDL
MODEL 3
REMARK VINA RESULT:     -12.2      2.206      8.353
REMARK SMILES Cc1ccc(N2CC[C@H]([NH+]3CCOCC3)[C@H](CCC(=O)NCCCCNC(=O)c3ccc(-c4c5nc(c(-c6c(F)c(F)c(F)c(F)c6F)c6ccc([nH]6)c(-c6c(F)c(F)c(F)c(F)c6F)c6nc(c(-c7c(F)c(F)c(F)c(F)c7F)c7ccc4[nH]7)C=C6)C=C5)cc3)C2)nc1
REMARK SMILES IDX 23 1 22 2 21 3 19 4 20 5 18 7 17 8 16 9 6 10 7 11 92 12 8 13
REMARK SMILES IDX 9 14 5 15 1 16 2 17 3 18 94 19 4 20 93 21 10 22 11 23 15 24
REMARK SMILES IDX 12 26 14 27 13 28 24 29 25 30 26 31 27 32 28 34 29 35 30 36
REMARK SMILES IDX 91 37 31 38 90 39 32 40 33 41 34 42 84 43 35 44 89 45 83 46
REMARK SMILES IDX 85 47 36 48 88 49 82 50 81 51 37 53 69 54 49 55 68 56 50 57
REMARK SMILES IDX 53 58 67 59 86 60 51 61 52 62 66 64 87 65 54 66 38 67 39 68
REMARK SMILES IDX 47 69 40 70 41 71 45 72 48 73 42 74 43 75 46 76 44 77 70 78
REMARK SMILES IDX 71 79 79 80 72 81 73 82 77 83 80 84 74 85 75 86 78 87 76 88
REMARK SMILES IDX 55 89 56 90 64 91 57 92 58 93 62 94 65 95 59 96 60 97 63 98
REMARK SMILES IDX 61 99
REMARK H PARENT 21 6 10 25 26 33 85 52 53 63
REMARK Flexibility Score: inf
ROOT
ATOM      1  C   UNL A   1      31.164  30.737  25.285  1.00  0.00     0.023 C 
ENDROOT
BRANCH   1   2
ATOM      2  C   UNL A   1      32.172  29.667  25.729  1.00  0.00     0.116 C 
BRANCH   2   3
ATOM      3  N   UNL A   1      31.478  28.615  26.447  1.00  0.00    -0.356 N 
ATOM      4  C   UNL A   1      31.768  27.283  26.527  1.00  0.00     0.220 C 
ATOM      5  O   UNL A   1      30.911  26.531  26.995  1.00  0.00    -0.275 OA
ATOM      6  H   UNL A   1      30.683  28.903  26.951  1.00  0.00     0.163 HD
BRANCH   4   7
ATOM      7  C   UNL A   1      33.131  26.758  26.104  1.00  0.00     0.100 C 
BRANCH   7   8
ATOM      8  C   UNL A   1      33.310  25.224  26.136  1.00  0.00     0.021 C 
BRANCH   8   9
ATOM      9  C   UNL A   1      34.051  24.636  24.917  1.00  0.00     0.067 C 
ATOM     10  N   UNL A   1      32.836  25.287  22.842  1.00  0.00    -0.356 N 
ATOM     11  C   UNL A   1      32.620  23.912  22.436  1.00  0.00     0.124 C 
ATOM     12  C   UNL A   1      33.979  25.582  23.688  1.00  0.00     0.127 C 
ATOM     13  C   UNL A   1      32.536  23.003  23.654  1.00  0.00     0.087 C 
ATOM     14  C   UNL A   1      33.817  23.147  24.479  1.00  0.00     0.190 C 
BRANCH  10  15
ATOM     15  C   UNL A   1      31.730  26.113  22.879  1.00  0.00     0.128 A 
ATOM     16  C   UNL A   1      28.456  28.817  23.187  1.00  0.00     0.046 C 
ATOM     17  C   UNL A   1      29.581  27.838  23.104  1.00  0.00    -0.033 A 
ATOM     18  C   UNL A   1      29.494  26.564  23.654  1.00  0.00     0.009 A 
ATOM     19  C   UNL A   1      30.759  28.167  22.450  1.00  0.00     0.117 A 
ATOM     20  C   UNL A   1      30.574  25.692  23.531  1.00  0.00     0.047 A 
ATOM     21  N   UNL A   1      31.826  27.346  22.346  1.00  0.00    -0.239 NA
ENDBRANCH  10  15
BRANCH  14  22
ATOM     22  N   UNL A   1      34.069  22.111  25.502  1.00  0.00    -0.328 N 
ATOM     23  C   UNL A   1      35.508  21.852  25.756  1.00  0.00     0.291 C 
ATOM     24  C   UNL A   1      33.358  20.826  25.392  1.00  0.00     0.291 C 
ATOM     25  H   UNL A   1      33.642  22.575  26.303  1.00  0.00     0.348 HD
ATOM     26  C   UNL A   1      36.147  20.689  24.970  1.00  0.00     0.221 C 
ATOM     27  C   UNL A   1      34.054  19.712  24.606  1.00  0.00     0.221 C 
ATOM     28  O   UNL A   1      35.380  19.490  25.089  1.00  0.00    -0.370 OA
ENDBRANCH  14  22
ENDBRANCH   8   9
ENDBRANCH   7   8
ENDBRANCH   4   7
ENDBRANCH   2   3
ENDBRANCH   1   2
BRANCH   1  29
ATOM     29  C   UNL A   1      31.016  31.889  26.260  1.00  0.00     0.023 C 
BRANCH  29  30
ATOM     30  C   UNL A   1      32.341  32.275  26.893  1.00  0.00     0.116 C 
BRANCH  30  31
ATOM     31  N   UNL A   1      32.336  33.615  27.472  1.00  0.00    -0.352 N 
ATOM     32  C   UNL A   1      33.301  34.206  28.263  1.00  0.00     0.251 C 
ATOM     33  H   UNL A   1      31.547  34.167  27.273  1.00  0.00     0.163 HD
ATOM     34  O   UNL A   1      33.142  35.307  28.756  1.00  0.00    -0.269 OA
BRANCH  32  35
ATOM     35  C   UNL A   1      34.521  33.420  28.541  1.00  0.00     0.039 A 
ATOM     36  C   UNL A   1      35.762  34.049  28.443  1.00  0.00     0.014 A 
ATOM     37  C   UNL A   1      34.401  32.137  29.080  1.00  0.00     0.014 A 
ATOM     38  C   UNL A   1      36.880  33.430  29.000  1.00  0.00     0.010 A 
ATOM     39  C   UNL A   1      35.492  31.575  29.724  1.00  0.00     0.010 A 
ATOM     40  C   UNL A   1      36.739  32.223  29.706  1.00  0.00    -0.014 A 
BRANCH  40  41
ATOM     41  C   UNL A   1      37.866  31.626  30.463  1.00  0.00     0.031 A 
ATOM     42  C   UNL A   1      38.730  30.588  29.809  1.00  0.00     0.074 A 
ATOM     43  C   UNL A   1      38.041  31.934  31.764  1.00  0.00     0.049 A 
ATOM     44  N   UNL A   1      39.674  29.847  30.330  1.00  0.00    -0.248 NA
ATOM     45  C   UNL A   1      38.470  30.316  28.385  1.00  0.00     0.031 C 
ATOM     46  C   UNL A   1      37.225  32.879  32.531  1.00  0.00     0.029 A 
ATOM     47  N   UNL A   1      38.954  31.470  32.678  1.00  0.00    -0.354 N 
ATOM     48  C   UNL A   1      40.097  29.008  29.309  1.00  0.00     0.074 A 
ATOM     49  C   UNL A   1      39.272  29.288  28.156  1.00  0.00     0.031 C 
ATOM     50  C   UNL A   1      37.688  32.940  33.790  1.00  0.00     0.029 A 
ATOM     51  C   UNL A   1      38.804  32.011  33.933  1.00  0.00     0.049 A 
ATOM     52  H   UNL A   1      39.650  30.811  32.456  1.00  0.00     0.167 HD
ATOM     53  C   UNL A   1      41.104  28.103  29.326  1.00  0.00     0.037 A 
ATOM     54  C   UNL A   1      39.484  31.774  35.072  1.00  0.00     0.037 A 
ATOM     55  C   UNL A   1      41.953  27.863  30.460  1.00  0.00     0.049 A 
ATOM     56  C   UNL A   1      40.603  30.769  35.060  1.00  0.00     0.074 A 
ATOM     57  C   UNL A   1      43.061  27.040  30.548  1.00  0.00     0.029 A 
ATOM     58  N   UNL A   1      41.787  28.449  31.707  1.00  0.00    -0.354 N 
ATOM     59  N   UNL A   1      41.049  30.039  34.067  1.00  0.00    -0.248 NA
ATOM     60  C   UNL A   1      41.313  30.552  36.329  1.00  0.00     0.031 C 
ATOM     61  C   UNL A   1      43.541  27.096  31.860  1.00  0.00     0.029 A 
ATOM     62  C   UNL A   1      42.756  27.984  32.579  1.00  0.00     0.049 A 
ATOM     63  H   UNL A   1      41.083  29.099  31.937  1.00  0.00     0.167 HD
ATOM     64  C   UNL A   1      42.098  29.291  34.583  1.00  0.00     0.074 A 
ATOM     65  C   UNL A   1      42.235  29.667  35.974  1.00  0.00     0.031 C 
ATOM     66  C   UNL A   1      42.875  28.373  33.960  1.00  0.00     0.037 A 
BRANCH  53  67
ATOM     67  C   UNL A   1      41.348  27.319  28.071  1.00  0.00     0.064 A 
ATOM     68  C   UNL A   1      42.215  27.784  27.071  1.00  0.00     0.173 A 
ATOM     69  C   UNL A   1      40.728  26.076  27.879  1.00  0.00     0.173 A 
ATOM     70  F   UNL A   1      42.819  28.975  27.202  1.00  0.00    -0.203 F 
ATOM     71  C   UNL A   1      42.429  27.048  25.910  1.00  0.00     0.198 A 
ATOM     72  C   UNL A   1      40.968  25.328  26.728  1.00  0.00     0.198 A 
ATOM     73  F   UNL A   1      39.892  25.585  28.805  1.00  0.00    -0.203 F 
ATOM     74  F   UNL A   1      43.220  27.537  24.945  1.00  0.00    -0.200 F 
ATOM     75  C   UNL A   1      41.810  25.817  25.742  1.00  0.00     0.200 A 
ATOM     76  F   UNL A   1      40.378  24.134  26.573  1.00  0.00    -0.200 F 
ATOM     77  F   UNL A   1      42.022  25.107  24.625  1.00  0.00    -0.200 F 
ENDBRANCH  53  67
BRANCH  54  78
ATOM     78  C   UNL A   1      39.135  32.511  36.314  1.00  0.00     0.064 A 
ATOM     79  C   UNL A   1      38.234  31.968  37.240  1.00  0.00     0.173 A 
ATOM     80  C   UNL A   1      39.687  33.768  36.600  1.00  0.00     0.173 A 
ATOM     81  F   UNL A   1      37.662  30.778  36.999  1.00  0.00    -0.203 F 
ATOM     82  C   UNL A   1      37.886  32.661  38.398  1.00  0.00     0.198 A 
ATOM     83  C   UNL A   1      39.358  34.449  37.771  1.00  0.00     0.198 A 
ATOM     84  F   UNL A   1      40.557  34.329  35.748  1.00  0.00    -0.203 F 
ATOM     85  F   UNL A   1      36.992  32.136  39.247  1.00  0.00    -0.200 F 
ATOM     86  C   UNL A   1      38.453  33.897  38.666  1.00  0.00     0.200 A 
ATOM     87  F   UNL A   1      39.917  35.638  38.032  1.00  0.00    -0.200 F 
ATOM     88  F   UNL A   1      38.122  34.561  39.781  1.00  0.00    -0.200 F 
ENDBRANCH  54  78
BRANCH  66  89
ATOM     89  C   UNL A   1      43.953  27.719  34.772  1.00  0.00     0.064 A 
ATOM     90  C   UNL A   1      43.737  26.495  35.421  1.00  0.00     0.173 A 
ATOM     91  C   UNL A   1      45.232  28.291  34.850  1.00  0.00     0.173 A 
ATOM     92  F   UNL A   1      42.525  25.918  35.387  1.00  0.00    -0.203 F 
ATOM     93  C   UNL A   1      44.760  25.872  36.129  1.00  0.00     0.198 A 
ATOM     94  C   UNL A   1      46.259  27.652  35.537  1.00  0.00     0.198 A 
ATOM     95  F   UNL A   1      45.489  29.458  34.240  1.00  0.00    -0.203 F 
ATOM     96  F   UNL A   1      44.523  24.719  36.770  1.00  0.00    -0.200 F 
ATOM     97  C   UNL A   1      46.022  26.447  36.179  1.00  0.00     0.200 A 
ATOM     98  F   UNL A   1      47.481  28.201  35.573  1.00  0.00    -0.200 F 
ATOM     99  F   UNL A   1      47.010  25.837  36.850  1.00  0.00    -0.200 F 
ENDBRANCH  66  89
ENDBRANCH  40  41
ENDBRANCH  32  35
ENDBRANCH  30  31
ENDBRANCH  29  30
ENDBRANCH   1  29
TORSDOF 15
ENDMDL
