MODEL 1
REMARK VINA RESULT:     -12.5      0.000      0.000
REMARK SMILES CCn1cc(S(=O)(=O)Nc2c(C)cc(C)cc2C(=O)NCCCCNC(=O)c2ccc(-c3c4nc(c(-c5c(F)c(F)c(F)c(F)c5F)c5ccc([nH]5)c(-c5c(F)c(F)c(F)c(F)c5F)c5nc(c(-c6c(F)c(F)c(F)c(F)c6F)c6ccc3[nH]6)C=C5)C=C4)cc2)cn1
REMARK SMILES IDX 21 1 20 2 18 3 19 4 17 6 10 7 11 8 12 9 13 10 16 11 14 12
REMARK SMILES IDX 15 13 9 14 6 16 7 17 8 18 5 19 3 20 4 21 92 22 91 23 2 24
REMARK SMILES IDX 1 25 22 26 23 27 24 28 25 29 26 30 27 32 28 33 29 34 90 35
REMARK SMILES IDX 30 36 89 37 31 38 32 39 33 40 83 41 34 42 88 43 82 44 84 45
REMARK SMILES IDX 35 46 87 47 81 48 80 49 36 51 68 52 48 53 67 54 49 55 52 56
REMARK SMILES IDX 66 57 85 58 50 59 51 60 65 62 86 63 53 64 37 65 38 66 46 67
REMARK SMILES IDX 39 68 40 69 44 70 47 71 41 72 42 73 45 74 43 75 69 76 70 77
REMARK SMILES IDX 78 78 71 79 72 80 76 81 79 82 73 83 74 84 77 85 75 86 54 87
REMARK SMILES IDX 55 88 63 89 56 90 57 91 61 92 64 93 58 94 59 95 62 96 60 97
REMARK H PARENT 20 5 9 15 25 31 84 50 52 61
REMARK Flexibility Score: inf
ROOT
ATOM      1  C   UNL A   1      33.851  23.332  25.501  1.00  0.00     0.116 C 
ENDROOT
BRANCH   1   2
ATOM      2  N   UNL A   1      32.704  23.968  26.081  1.00  0.00    -0.352 N 
ATOM      3  C   UNL A   1      32.392  25.307  26.148  1.00  0.00     0.253 C 
ATOM      4  O   UNL A   1      31.332  25.560  26.734  1.00  0.00    -0.269 OA
ATOM      5  H   UNL A   1      32.046  23.360  26.489  1.00  0.00     0.163 HD
BRANCH   3   6
ATOM      6  C   UNL A   1      33.200  26.483  25.622  1.00  0.00     0.064 A 
ATOM      7  C   UNL A   1      33.536  26.857  24.290  1.00  0.00     0.065 A 
ATOM      8  C   UNL A   1      33.960  28.192  24.026  1.00  0.00    -0.026 A 
ATOM      9  C   UNL A   1      34.176  28.763  22.645  1.00  0.00     0.046 C 
ATOM     10  C   UNL A   1      34.242  29.064  25.091  1.00  0.00     0.009 A 
ATOM     11  C   UNL A   1      33.509  27.409  26.657  1.00  0.00     0.019 A 
ATOM     12  C   UNL A   1      34.045  28.677  26.410  1.00  0.00    -0.050 A 
ATOM     13  C   UNL A   1      34.399  29.613  27.528  1.00  0.00     0.044 C 
BRANCH   7  14
ATOM     14  N   UNL A   1      33.382  25.964  23.175  1.00  0.00    -0.278 N 
ATOM     15  H   UNL A   1      34.166  25.480  22.829  1.00  0.00     0.180 HD
BRANCH  14  16
ATOM     16  S   UNL A   1      31.851  25.724  22.436  1.00  0.00     0.265 S 
ATOM     17  O   UNL A   1      31.315  24.537  23.068  1.00  0.00    -0.201 OA
ATOM     18  O   UNL A   1      32.018  25.761  21.000  1.00  0.00    -0.201 OA
BRANCH  16  19
ATOM     19  C   UNL A   1      30.655  26.913  22.720  1.00  0.00     0.125 A 
ATOM     20  N   UNL A   1      29.487  28.732  23.018  1.00  0.00    -0.272 N 
ATOM     21  C   UNL A   1      30.536  28.220  22.299  1.00  0.00     0.131 A 
ATOM     22  N   UNL A   1      28.789  27.789  23.677  1.00  0.00    -0.180 NA
ATOM     23  C   UNL A   1      29.508  26.678  23.496  1.00  0.00     0.157 A 
BRANCH  20  24
ATOM     24  C   UNL A   1      29.139  30.130  23.206  1.00  0.00     0.141 C 
ATOM     25  C   UNL A   1      27.642  30.392  23.126  1.00  0.00     0.029 C 
ENDBRANCH  20  24
ENDBRANCH  16  19
ENDBRANCH  14  16
ENDBRANCH   7  14
ENDBRANCH   3   6
ENDBRANCH   1   2
BRANCH   1  26
ATOM     26  C   UNL A   1      35.190  23.489  26.216  1.00  0.00     0.023 C 
BRANCH  26  27
ATOM     27  C   UNL A   1      36.482  23.346  25.414  1.00  0.00     0.023 C 
BRANCH  27  28
ATOM     28  C   UNL A   1      37.775  23.623  26.169  1.00  0.00     0.116 C 
BRANCH  28  29
ATOM     29  N   UNL A   1      38.688  22.491  26.288  1.00  0.00    -0.352 N 
ATOM     30  C   UNL A   1      40.067  22.556  26.444  1.00  0.00     0.251 C 
ATOM     31  H   UNL A   1      38.288  21.591  26.254  1.00  0.00     0.163 HD
ATOM     32  O   UNL A   1      40.792  21.593  26.287  1.00  0.00    -0.269 OA
BRANCH  30  33
ATOM     33  C   UNL A   1      40.637  23.873  26.794  1.00  0.00     0.039 A 
ATOM     34  C   UNL A   1      40.268  25.020  26.090  1.00  0.00     0.014 A 
ATOM     35  C   UNL A   1      41.404  23.953  27.953  1.00  0.00     0.014 A 
ATOM     36  C   UNL A   1      40.565  26.268  26.638  1.00  0.00     0.010 A 
ATOM     37  C   UNL A   1      41.585  25.181  28.550  1.00  0.00     0.010 A 
ATOM     38  C   UNL A   1      41.180  26.350  27.898  1.00  0.00    -0.014 A 
BRANCH  38  39
ATOM     39  C   UNL A   1      41.258  27.639  28.598  1.00  0.00     0.031 A 
ATOM     40  C   UNL A   1      42.388  28.547  28.215  1.00  0.00     0.074 A 
ATOM     41  C   UNL A   1      40.253  28.131  29.356  1.00  0.00     0.049 A 
ATOM     42  N   UNL A   1      43.267  29.100  28.989  1.00  0.00    -0.248 NA
ATOM     43  C   UNL A   1      42.584  28.853  26.789  1.00  0.00     0.031 C 
ATOM     44  C   UNL A   1      38.929  27.545  29.595  1.00  0.00     0.029 A 
ATOM     45  N   UNL A   1      40.161  29.347  29.969  1.00  0.00    -0.354 N 
ATOM     46  C   UNL A   1      44.042  29.934  28.181  1.00  0.00     0.074 A 
ATOM     47  C   UNL A   1      43.645  29.663  26.824  1.00  0.00     0.031 C 
ATOM     48  C   UNL A   1      38.097  28.494  30.072  1.00  0.00     0.029 A 
ATOM     49  C   UNL A   1      38.869  29.692  30.342  1.00  0.00     0.049 A 
ATOM     50  H   UNL A   1      40.939  29.925  30.133  1.00  0.00     0.167 HD
ATOM     51  C   UNL A   1      44.830  30.917  28.707  1.00  0.00     0.037 A 
ATOM     52  C   UNL A   1      38.445  30.887  30.814  1.00  0.00     0.037 A 
ATOM     53  C   UNL A   1      45.071  30.703  30.109  1.00  0.00     0.049 A 
ATOM     54  C   UNL A   1      39.626  31.611  31.335  1.00  0.00     0.074 A 
ATOM     55  C   UNL A   1      45.657  29.702  30.859  1.00  0.00     0.029 A 
ATOM     56  N   UNL A   1      44.392  31.482  31.012  1.00  0.00    -0.354 N 
ATOM     57  N   UNL A   1      40.292  31.255  32.397  1.00  0.00    -0.248 NA
ATOM     58  C   UNL A   1      40.311  32.537  30.450  1.00  0.00     0.031 C 
ATOM     59  C   UNL A   1      44.890  29.644  32.061  1.00  0.00     0.029 A 
ATOM     60  C   UNL A   1      43.919  30.643  31.985  1.00  0.00     0.049 A 
ATOM     61  H   UNL A   1      44.269  32.457  30.968  1.00  0.00     0.167 HD
ATOM     62  C   UNL A   1      41.611  31.544  32.093  1.00  0.00     0.074 A 
ATOM     63  C   UNL A   1      41.545  32.450  30.950  1.00  0.00     0.031 C 
ATOM     64  C   UNL A   1      42.630  30.800  32.614  1.00  0.00     0.037 A 
BRANCH  51  65
ATOM     65  C   UNL A   1      45.119  32.252  28.053  1.00  0.00     0.064 A 
ATOM     66  C   UNL A   1      44.052  33.142  27.798  1.00  0.00     0.173 A 
ATOM     67  C   UNL A   1      46.326  32.551  27.389  1.00  0.00     0.173 A 
ATOM     68  F   UNL A   1      42.851  32.955  28.368  1.00  0.00    -0.203 F 
ATOM     69  C   UNL A   1      44.160  34.185  26.874  1.00  0.00     0.198 A 
ATOM     70  C   UNL A   1      46.446  33.627  26.507  1.00  0.00     0.198 A 
ATOM     71  F   UNL A   1      47.398  31.756  27.474  1.00  0.00    -0.203 F 
ATOM     72  F   UNL A   1      43.079  34.915  26.561  1.00  0.00    -0.200 F 
ATOM     73  C   UNL A   1      45.355  34.420  26.220  1.00  0.00     0.200 A 
ATOM     74  F   UNL A   1      47.608  33.830  25.872  1.00  0.00    -0.200 F 
ATOM     75  F   UNL A   1      45.443  35.373  25.283  1.00  0.00    -0.200 F 
ENDBRANCH  51  65
BRANCH  52  76
ATOM     76  C   UNL A   1      37.125  31.528  30.634  1.00  0.00     0.064 A 
ATOM     77  C   UNL A   1      36.261  31.726  31.722  1.00  0.00     0.173 A 
ATOM     78  C   UNL A   1      36.798  32.199  29.440  1.00  0.00     0.173 A 
ATOM     79  F   UNL A   1      36.525  31.153  32.906  1.00  0.00    -0.203 F 
ATOM     80  C   UNL A   1      35.151  32.568  31.629  1.00  0.00     0.198 A 
ATOM     81  C   UNL A   1      35.683  33.032  29.345  1.00  0.00     0.198 A 
ATOM     82  F   UNL A   1      37.604  32.132  28.370  1.00  0.00    -0.203 F 
ATOM     83  F   UNL A   1      34.384  32.784  32.707  1.00  0.00    -0.200 F 
ATOM     84  C   UNL A   1      34.869  33.229  30.445  1.00  0.00     0.200 A 
ATOM     85  F   UNL A   1      35.438  33.689  28.202  1.00  0.00    -0.200 F 
ATOM     86  F   UNL A   1      33.840  34.084  30.374  1.00  0.00    -0.200 F 
ENDBRANCH  52  76
BRANCH  64  87
ATOM     87  C   UNL A   1      42.315  29.887  33.764  1.00  0.00     0.064 A 
ATOM     88  C   UNL A   1      41.831  28.574  33.623  1.00  0.00     0.173 A 
ATOM     89  C   UNL A   1      42.629  30.320  35.059  1.00  0.00     0.173 A 
ATOM     90  F   UNL A   1      41.612  28.044  32.413  1.00  0.00    -0.203 F 
ATOM     91  C   UNL A   1      41.613  27.760  34.732  1.00  0.00     0.198 A 
ATOM     92  C   UNL A   1      42.449  29.490  36.163  1.00  0.00     0.198 A 
ATOM     93  F   UNL A   1      43.152  31.541  35.252  1.00  0.00    -0.203 F 
ATOM     94  F   UNL A   1      41.126  26.521  34.571  1.00  0.00    -0.200 F 
ATOM     95  C   UNL A   1      41.926  28.218  36.000  1.00  0.00     0.200 A 
ATOM     96  F   UNL A   1      42.802  29.919  37.382  1.00  0.00    -0.200 F 
ATOM     97  F   UNL A   1      41.749  27.423  37.066  1.00  0.00    -0.200 F 
ENDBRANCH  64  87
ENDBRANCH  38  39
ENDBRANCH  30  33
ENDBRANCH  28  29
ENDBRANCH  27  28
ENDBRANCH  26  27
ENDBRANCH   1  26
TORSDOF 15
ENDMDL
MODEL 2
REMARK VINA RESULT:     -12.5      3.027      8.179
REMARK SMILES CCn1cc(S(=O)(=O)Nc2c(C)cc(C)cc2C(=O)NCCCCNC(=O)c2ccc(-c3c4nc(c(-c5c(F)c(F)c(F)c(F)c5F)c5ccc([nH]5)c(-c5c(F)c(F)c(F)c(F)c5F)c5nc(c(-c6c(F)c(F)c(F)c(F)c6F)c6ccc3[nH]6)C=C5)C=C4)cc2)cn1
REMARK SMILES IDX 21 1 20 2 18 3 19 4 17 6 10 7 11 8 12 9 13 10 16 11 14 12
REMARK SMILES IDX 15 13 9 14 6 16 7 17 8 18 5 19 3 20 4 21 92 22 91 23 2 24
REMARK SMILES IDX 1 25 22 26 23 27 24 28 25 29 26 30 27 32 28 33 29 34 90 35
REMARK SMILES IDX 30 36 89 37 31 38 32 39 33 40 83 41 34 42 88 43 82 44 84 45
REMARK SMILES IDX 35 46 87 47 81 48 80 49 36 51 68 52 48 53 67 54 49 55 52 56
REMARK SMILES IDX 66 57 85 58 50 59 51 60 65 62 86 63 53 64 37 65 38 66 46 67
REMARK SMILES IDX 39 68 40 69 44 70 47 71 41 72 42 73 45 74 43 75 69 76 70 77
REMARK SMILES IDX 78 78 71 79 72 80 76 81 79 82 73 83 74 84 77 85 75 86 54 87
REMARK SMILES IDX 55 88 63 89 56 90 57 91 61 92 64 93 58 94 59 95 62 96 60 97
REMARK H PARENT 20 5 9 15 25 31 84 50 52 61
REMARK Flexibility Score: inf
ROOT
ATOM      1  C   UNL A   1      32.645  30.018  25.927  1.00  0.00     0.116 C 
ENDROOT
BRANCH   1   2
ATOM      2  N   UNL A   1      33.250  29.626  24.688  1.00  0.00    -0.352 N 
ATOM      3  C   UNL A   1      33.483  28.362  24.195  1.00  0.00     0.253 C 
ATOM      4  O   UNL A   1      34.046  28.335  23.093  1.00  0.00    -0.269 OA
ATOM      5  H   UNL A   1      33.540  30.365  24.107  1.00  0.00     0.163 HD
BRANCH   3   6
ATOM      6  C   UNL A   1      33.159  27.028  24.849  1.00  0.00     0.064 A 
ATOM      7  C   UNL A   1      31.909  26.393  25.096  1.00  0.00     0.065 A 
ATOM      8  C   UNL A   1      31.878  24.993  25.361  1.00  0.00    -0.026 A 
ATOM      9  C   UNL A   1      30.615  24.172  25.465  1.00  0.00     0.046 C 
ATOM     10  C   UNL A   1      33.075  24.291  25.581  1.00  0.00     0.009 A 
ATOM     11  C   UNL A   1      34.336  26.266  25.089  1.00  0.00     0.019 A 
ATOM     12  C   UNL A   1      34.308  24.921  25.474  1.00  0.00    -0.050 A 
ATOM     13  C   UNL A   1      35.568  24.158  25.760  1.00  0.00     0.044 C 
BRANCH   7  14
ATOM     14  N   UNL A   1      30.657  27.093  25.003  1.00  0.00    -0.278 N 
ATOM     15  H   UNL A   1      30.306  27.564  25.793  1.00  0.00     0.180 HD
BRANCH  14  16
ATOM     16  S   UNL A   1      29.764  27.120  23.538  1.00  0.00     0.265 S 
ATOM     17  O   UNL A   1      28.646  26.229  23.767  1.00  0.00    -0.201 OA
ATOM     18  O   UNL A   1      30.669  26.871  22.438  1.00  0.00    -0.201 OA
BRANCH  16  19
ATOM     19  C   UNL A   1      29.023  28.599  23.105  1.00  0.00     0.125 A 
ATOM     20  N   UNL A   1      28.487  30.675  22.697  1.00  0.00    -0.272 N 
ATOM     21  C   UNL A   1      29.545  29.803  22.682  1.00  0.00     0.131 A 
ATOM     22  N   UNL A   1      27.301  30.063  22.863  1.00  0.00    -0.180 NA
ATOM     23  C   UNL A   1      27.632  28.794  23.116  1.00  0.00     0.157 A 
BRANCH  20  24
ATOM     24  C   UNL A   1      28.534  32.127  22.653  1.00  0.00     0.141 C 
ATOM     25  C   UNL A   1      28.054  32.703  21.329  1.00  0.00     0.029 C 
ENDBRANCH  20  24
ENDBRANCH  16  19
ENDBRANCH  14  16
ENDBRANCH   7  14
ENDBRANCH   3   6
ENDBRANCH   1   2
BRANCH   1  26
ATOM     26  C   UNL A   1      33.335  29.596  27.222  1.00  0.00     0.023 C 
BRANCH  26  27
ATOM     27  C   UNL A   1      34.859  29.517  27.260  1.00  0.00     0.023 C 
BRANCH  27  28
ATOM     28  C   UNL A   1      35.591  30.814  27.576  1.00  0.00     0.116 C 
BRANCH  28  29
ATOM     29  N   UNL A   1      34.916  31.703  28.517  1.00  0.00    -0.352 N 
ATOM     30  C   UNL A   1      35.175  31.816  29.877  1.00  0.00     0.251 C 
ATOM     31  H   UNL A   1      34.206  32.281  28.151  1.00  0.00     0.163 HD
ATOM     32  O   UNL A   1      34.422  32.383  30.644  1.00  0.00    -0.269 OA
BRANCH  30  33
ATOM     33  C   UNL A   1      36.417  31.188  30.373  1.00  0.00     0.039 A 
ATOM     34  C   UNL A   1      36.460  29.824  30.665  1.00  0.00     0.014 A 
ATOM     35  C   UNL A   1      37.574  31.961  30.364  1.00  0.00     0.014 A 
ATOM     36  C   UNL A   1      37.703  29.210  30.817  1.00  0.00     0.010 A 
ATOM     37  C   UNL A   1      38.798  31.330  30.392  1.00  0.00     0.010 A 
ATOM     38  C   UNL A   1      38.878  29.955  30.628  1.00  0.00    -0.014 A 
BRANCH  38  39
ATOM     39  C   UNL A   1      40.175  29.271  30.525  1.00  0.00     0.031 A 
ATOM     40  C   UNL A   1      40.908  29.020  31.809  1.00  0.00     0.074 A 
ATOM     41  C   UNL A   1      40.600  28.657  29.399  1.00  0.00     0.049 A 
ATOM     42  N   UNL A   1      42.124  29.345  32.112  1.00  0.00    -0.248 NA
ATOM     43  C   UNL A   1      40.188  28.349  32.904  1.00  0.00     0.031 C 
ATOM     44  C   UNL A   1      39.887  28.507  28.126  1.00  0.00     0.029 A 
ATOM     45  N   UNL A   1      41.725  27.909  29.205  1.00  0.00    -0.354 N 
ATOM     46  C   UNL A   1      42.380  28.805  33.374  1.00  0.00     0.074 A 
ATOM     47  C   UNL A   1      41.123  28.294  33.855  1.00  0.00     0.031 C 
ATOM     48  C   UNL A   1      40.464  27.527  27.400  1.00  0.00     0.029 A 
ATOM     49  C   UNL A   1      41.682  27.113  28.069  1.00  0.00     0.049 A 
ATOM     50  H   UNL A   1      42.496  27.933  29.815  1.00  0.00     0.167 HD
ATOM     51  C   UNL A   1      43.651  28.660  33.852  1.00  0.00     0.037 A 
ATOM     52  C   UNL A   1      42.566  26.155  27.708  1.00  0.00     0.037 A 
ATOM     53  C   UNL A   1      44.583  29.479  33.122  1.00  0.00     0.049 A 
ATOM     54  C   UNL A   1      43.831  26.412  28.431  1.00  0.00     0.074 A 
ATOM     55  C   UNL A   1      44.723  30.834  32.892  1.00  0.00     0.029 A 
ATOM     56  N   UNL A   1      45.410  28.870  32.213  1.00  0.00    -0.354 N 
ATOM     57  N   UNL A   1      44.610  27.432  28.204  1.00  0.00    -0.248 NA
ATOM     58  C   UNL A   1      44.054  25.724  29.692  1.00  0.00     0.031 C 
ATOM     59  C   UNL A   1      45.213  30.932  31.555  1.00  0.00     0.029 A 
ATOM     60  C   UNL A   1      45.385  29.633  31.077  1.00  0.00     0.049 A 
ATOM     61  H   UNL A   1      45.924  28.041  32.353  1.00  0.00     0.167 HD
ATOM     62  C   UNL A   1      45.096  27.782  29.452  1.00  0.00     0.074 A 
ATOM     63  C   UNL A   1      44.832  26.623  30.299  1.00  0.00     0.031 C 
ATOM     64  C   UNL A   1      45.405  29.078  29.745  1.00  0.00     0.037 A 
BRANCH  51  65
ATOM     65  C   UNL A   1      44.125  27.541  34.755  1.00  0.00     0.064 A 
ATOM     66  C   UNL A   1      43.900  26.201  34.371  1.00  0.00     0.173 A 
ATOM     67  C   UNL A   1      44.493  27.730  36.103  1.00  0.00     0.173 A 
ATOM     68  F   UNL A   1      43.537  25.899  33.115  1.00  0.00    -0.203 F 
ATOM     69  C   UNL A   1      43.943  25.148  35.291  1.00  0.00     0.198 A 
ATOM     70  C   UNL A   1      44.588  26.669  37.006  1.00  0.00     0.198 A 
ATOM     71  F   UNL A   1      44.664  28.948  36.628  1.00  0.00    -0.203 F 
ATOM     72  F   UNL A   1      43.584  23.914  34.909  1.00  0.00    -0.200 F 
ATOM     73  C   UNL A   1      44.276  25.385  36.611  1.00  0.00     0.200 A 
ATOM     74  F   UNL A   1      44.899  26.920  38.286  1.00  0.00    -0.200 F 
ATOM     75  F   UNL A   1      44.250  24.392  37.509  1.00  0.00    -0.200 F 
ENDBRANCH  51  65
BRANCH  52  76
ATOM     76  C   UNL A   1      42.311  24.909  26.954  1.00  0.00     0.064 A 
ATOM     77  C   UNL A   1      43.070  24.579  25.821  1.00  0.00     0.173 A 
ATOM     78  C   UNL A   1      41.496  23.890  27.485  1.00  0.00     0.173 A 
ATOM     79  F   UNL A   1      43.900  25.482  25.279  1.00  0.00    -0.203 F 
ATOM     80  C   UNL A   1      43.039  23.296  25.268  1.00  0.00     0.198 A 
ATOM     81  C   UNL A   1      41.458  22.613  26.927  1.00  0.00     0.198 A 
ATOM     82  F   UNL A   1      40.794  24.087  28.610  1.00  0.00    -0.203 F 
ATOM     83  F   UNL A   1      43.825  22.998  24.226  1.00  0.00    -0.200 F 
ATOM     84  C   UNL A   1      42.241  22.311  25.829  1.00  0.00     0.200 A 
ATOM     85  F   UNL A   1      40.705  21.660  27.496  1.00  0.00    -0.200 F 
ATOM     86  F   UNL A   1      42.257  21.065  25.336  1.00  0.00    -0.200 F 
ENDBRANCH  52  76
BRANCH  64  87
ATOM     87  C   UNL A   1      45.519  30.048  28.603  1.00  0.00     0.064 A 
ATOM     88  C   UNL A   1      44.430  30.733  28.036  1.00  0.00     0.173 A 
ATOM     89  C   UNL A   1      46.800  30.385  28.145  1.00  0.00     0.173 A 
ATOM     90  F   UNL A   1      43.185  30.553  28.492  1.00  0.00    -0.203 F 
ATOM     91  C   UNL A   1      44.614  31.663  27.014  1.00  0.00     0.198 A 
ATOM     92  C   UNL A   1      46.984  31.343  27.153  1.00  0.00     0.198 A 
ATOM     93  F   UNL A   1      47.883  29.808  28.691  1.00  0.00    -0.203 F 
ATOM     94  F   UNL A   1      43.555  32.283  26.472  1.00  0.00    -0.200 F 
ATOM     95  C   UNL A   1      45.891  31.970  26.577  1.00  0.00     0.200 A 
ATOM     96  F   UNL A   1      48.225  31.674  26.769  1.00  0.00    -0.200 F 
ATOM     97  F   UNL A   1      46.071  32.889  25.618  1.00  0.00    -0.200 F 
ENDBRANCH  64  87
ENDBRANCH  38  39
ENDBRANCH  30  33
ENDBRANCH  28  29
ENDBRANCH  27  28
ENDBRANCH  26  27
ENDBRANCH   1  26
TORSDOF 15
ENDMDL
MODEL 3
REMARK VINA RESULT:     -12.4      3.330      8.707
REMARK SMILES CCn1cc(S(=O)(=O)Nc2c(C)cc(C)cc2C(=O)NCCCCNC(=O)c2ccc(-c3c4nc(c(-c5c(F)c(F)c(F)c(F)c5F)c5ccc([nH]5)c(-c5c(F)c(F)c(F)c(F)c5F)c5nc(c(-c6c(F)c(F)c(F)c(F)c6F)c6ccc3[nH]6)C=C5)C=C4)cc2)cn1
REMARK SMILES IDX 21 1 20 2 18 3 19 4 17 6 10 7 11 8 12 9 13 10 16 11 14 12
REMARK SMILES IDX 15 13 9 14 6 16 7 17 8 18 5 19 3 20 4 21 92 22 91 23 2 24
REMARK SMILES IDX 1 25 22 26 23 27 24 28 25 29 26 30 27 32 28 33 29 34 90 35
REMARK SMILES IDX 30 36 89 37 31 38 32 39 33 40 83 41 34 42 88 43 82 44 84 45
REMARK SMILES IDX 35 46 87 47 81 48 80 49 36 51 68 52 48 53 67 54 49 55 52 56
REMARK SMILES IDX 66 57 85 58 50 59 51 60 65 62 86 63 53 64 37 65 38 66 46 67
REMARK SMILES IDX 39 68 40 69 44 70 47 71 41 72 42 73 45 74 43 75 69 76 70 77
REMARK SMILES IDX 78 78 71 79 72 80 76 81 79 82 73 83 74 84 77 85 75 86 54 87
REMARK SMILES IDX 55 88 63 89 56 90 57 91 61 92 64 93 58 94 59 95 62 96 60 97
REMARK H PARENT 20 5 9 15 25 31 84 50 52 61
REMARK Flexibility Score: inf
ROOT
ATOM      1  C   UNL A   1      34.024  28.667  26.455  1.00  0.00     0.116 C 
ENDROOT
BRANCH   1   2
ATOM      2  N   UNL A   1      34.201  28.953  25.061  1.00  0.00    -0.352 N 
ATOM      3  C   UNL A   1      33.490  28.485  23.979  1.00  0.00     0.253 C 
ATOM      4  O   UNL A   1      33.890  28.897  22.883  1.00  0.00    -0.269 OA
ATOM      5  H   UNL A   1      34.935  29.574  24.848  1.00  0.00     0.163 HD
BRANCH   3   6
ATOM      6  C   UNL A   1      32.316  27.519  23.979  1.00  0.00     0.064 A 
ATOM      7  C   UNL A   1      32.203  26.193  24.484  1.00  0.00     0.065 A 
ATOM      8  C   UNL A   1      30.909  25.643  24.717  1.00  0.00    -0.026 A 
ATOM      9  C   UNL A   1      30.654  24.325  25.410  1.00  0.00     0.046 C 
ATOM     10  C   UNL A   1      29.765  26.317  24.261  1.00  0.00     0.009 A 
ATOM     11  C   UNL A   1      31.121  28.151  23.533  1.00  0.00     0.019 A 
ATOM     12  C   UNL A   1      29.859  27.559  23.645  1.00  0.00    -0.050 A 
ATOM     13  C   UNL A   1      28.624  28.235  23.126  1.00  0.00     0.044 C 
BRANCH   7  14
ATOM     14  N   UNL A   1      33.349  25.409  24.855  1.00  0.00    -0.278 N 
ATOM     15  H   UNL A   1      33.748  25.527  25.747  1.00  0.00     0.180 HD
BRANCH  14  16
ATOM     16  S   UNL A   1      34.034  24.270  23.769  1.00  0.00     0.265 S 
ATOM     17  O   UNL A   1      35.341  23.973  24.316  1.00  0.00    -0.201 OA
ATOM     18  O   UNL A   1      33.918  24.785  22.423  1.00  0.00    -0.201 OA
BRANCH  16  19
ATOM     19  C   UNL A   1      33.278  22.739  23.667  1.00  0.00     0.125 A 
ATOM     20  N   UNL A   1      32.658  20.653  23.835  1.00  0.00    -0.272 N 
ATOM     21  C   UNL A   1      33.214  21.683  24.550  1.00  0.00     0.131 A 
ATOM     22  N   UNL A   1      32.150  21.047  22.652  1.00  0.00    -0.180 NA
ATOM     23  C   UNL A   1      32.535  22.322  22.551  1.00  0.00     0.157 A 
BRANCH  20  24
ATOM     24  C   UNL A   1      32.656  19.240  24.169  1.00  0.00     0.141 C 
ATOM     25  C   UNL A   1      34.016  18.728  24.620  1.00  0.00     0.029 C 
ENDBRANCH  20  24
ENDBRANCH  16  19
ENDBRANCH  14  16
ENDBRANCH   7  14
ENDBRANCH   3   6
ENDBRANCH   1   2
BRANCH   1  26
ATOM     26  C   UNL A   1      32.956  29.450  27.213  1.00  0.00     0.023 C 
BRANCH  26  27
ATOM     27  C   UNL A   1      33.057  30.972  27.280  1.00  0.00     0.023 C 
BRANCH  27  28
ATOM     28  C   UNL A   1      34.394  31.535  27.744  1.00  0.00     0.116 C 
BRANCH  28  29
ATOM     29  N   UNL A   1      34.408  32.088  29.094  1.00  0.00    -0.352 N 
ATOM     30  C   UNL A   1      35.323  31.793  30.097  1.00  0.00     0.251 C 
ATOM     31  H   UNL A   1      33.699  32.735  29.318  1.00  0.00     0.163 HD
ATOM     32  O   UNL A   1      35.140  32.089  31.262  1.00  0.00    -0.269 OA
BRANCH  30  33
ATOM     33  C   UNL A   1      36.546  31.070  29.692  1.00  0.00     0.039 A 
ATOM     34  C   UNL A   1      37.764  31.740  29.570  1.00  0.00     0.014 A 
ATOM     35  C   UNL A   1      36.475  29.682  29.614  1.00  0.00     0.014 A 
ATOM     36  C   UNL A   1      38.939  30.990  29.505  1.00  0.00     0.010 A 
ATOM     37  C   UNL A   1      37.640  28.950  29.674  1.00  0.00     0.010 A 
ATOM     38  C   UNL A   1      38.881  29.591  29.609  1.00  0.00    -0.014 A 
BRANCH  38  39
ATOM     39  C   UNL A   1      40.113  28.816  29.806  1.00  0.00     0.031 A 
ATOM     40  C   UNL A   1      40.542  28.579  31.223  1.00  0.00     0.074 A 
ATOM     41  C   UNL A   1      40.714  28.118  28.817  1.00  0.00     0.049 A 
ATOM     42  N   UNL A   1      41.690  28.835  31.765  1.00  0.00    -0.248 NA
ATOM     43  C   UNL A   1      39.560  28.016  32.164  1.00  0.00     0.031 C 
ATOM     44  C   UNL A   1      40.272  27.953  27.428  1.00  0.00     0.029 A 
ATOM     45  N   UNL A   1      41.793  27.285  28.891  1.00  0.00    -0.354 N 
ATOM     46  C   UNL A   1      41.635  28.342  33.071  1.00  0.00     0.074 A 
ATOM     47  C   UNL A   1      40.269  27.944  33.293  1.00  0.00     0.031 C 
ATOM     48  C   UNL A   1      40.908  26.900  26.875  1.00  0.00     0.029 A 
ATOM     49  C   UNL A   1      41.925  26.438  27.800  1.00  0.00     0.049 A 
ATOM     50  H   UNL A   1      42.420  27.286  29.649  1.00  0.00     0.167 HD
ATOM     51  C   UNL A   1      42.764  28.135  33.810  1.00  0.00     0.037 A 
ATOM     52  C   UNL A   1      42.787  25.403  27.667  1.00  0.00     0.037 A 
ATOM     53  C   UNL A   1      43.887  28.849  33.265  1.00  0.00     0.049 A 
ATOM     54  C   UNL A   1      43.890  25.609  28.632  1.00  0.00     0.074 A 
ATOM     55  C   UNL A   1      44.177  30.178  33.023  1.00  0.00     0.029 A 
ATOM     56  N   UNL A   1      44.836  28.139  32.574  1.00  0.00    -0.354 N 
ATOM     57  N   UNL A   1      44.776  26.560  28.538  1.00  0.00    -0.248 NA
ATOM     58  C   UNL A   1      43.792  24.972  29.934  1.00  0.00     0.031 C 
ATOM     59  C   UNL A   1      44.941  30.174  31.818  1.00  0.00     0.029 A 
ATOM     60  C   UNL A   1      45.107  28.844  31.432  1.00  0.00     0.049 A 
ATOM     61  H   UNL A   1      45.243  27.286  32.847  1.00  0.00     0.167 HD
ATOM     62  C   UNL A   1      45.018  26.938  29.848  1.00  0.00     0.074 A 
ATOM     63  C   UNL A   1      44.494  25.844  30.661  1.00  0.00     0.031 C 
ATOM     64  C   UNL A   1      45.360  28.223  30.154  1.00  0.00     0.037 A 
BRANCH  51  65
ATOM     65  C   UNL A   1      42.951  27.033  34.832  1.00  0.00     0.064 A 
ATOM     66  C   UNL A   1      43.117  27.373  36.193  1.00  0.00     0.173 A 
ATOM     67  C   UNL A   1      43.290  25.707  34.495  1.00  0.00     0.173 A 
ATOM     68  F   UNL A   1      42.834  28.610  36.630  1.00  0.00    -0.203 F 
ATOM     69  C   UNL A   1      43.673  26.484  37.117  1.00  0.00     0.198 A 
ATOM     70  C   UNL A   1      43.795  24.804  35.434  1.00  0.00     0.198 A 
ATOM     71  F   UNL A   1      43.256  25.264  33.233  1.00  0.00    -0.203 F 
ATOM     72  F   UNL A   1      43.941  26.899  38.364  1.00  0.00    -0.200 F 
ATOM     73  C   UNL A   1      44.022  25.203  36.734  1.00  0.00     0.200 A 
ATOM     74  F   UNL A   1      44.140  23.570  35.040  1.00  0.00    -0.200 F 
ATOM     75  F   UNL A   1      44.619  24.372  37.598  1.00  0.00    -0.200 F 
ENDBRANCH  51  65
BRANCH  52  76
ATOM     76  C   UNL A   1      42.598  24.142  26.920  1.00  0.00     0.064 A 
ATOM     77  C   UNL A   1      43.434  23.803  25.845  1.00  0.00     0.173 A 
ATOM     78  C   UNL A   1      41.763  23.120  27.415  1.00  0.00     0.173 A 
ATOM     79  F   UNL A   1      44.286  24.709  25.342  1.00  0.00    -0.203 F 
ATOM     80  C   UNL A   1      43.455  22.511  25.314  1.00  0.00     0.198 A 
ATOM     81  C   UNL A   1      41.778  21.834  26.878  1.00  0.00     0.198 A 
ATOM     82  F   UNL A   1      40.987  23.327  28.488  1.00  0.00    -0.203 F 
ATOM     83  F   UNL A   1      44.312  22.207  24.330  1.00  0.00    -0.200 F 
ATOM     84  C   UNL A   1      42.635  21.524  25.839  1.00  0.00     0.200 A 
ATOM     85  F   UNL A   1      41.002  20.880  27.414  1.00  0.00    -0.200 F 
ATOM     86  F   UNL A   1      42.699  20.271  25.370  1.00  0.00    -0.200 F 
ENDBRANCH  52  76
BRANCH  64  87
ATOM     87  C   UNL A   1      45.784  29.124  29.029  1.00  0.00     0.064 A 
ATOM     88  C   UNL A   1      44.897  29.887  28.250  1.00  0.00     0.173 A 
ATOM     89  C   UNL A   1      47.156  29.310  28.810  1.00  0.00     0.173 A 
ATOM     90  F   UNL A   1      43.578  29.853  28.469  1.00  0.00    -0.203 F 
ATOM     91  C   UNL A   1      45.363  30.747  27.257  1.00  0.00     0.198 A 
ATOM     92  C   UNL A   1      47.620  30.200  27.846  1.00  0.00     0.198 A 
ATOM     93  F   UNL A   1      48.052  28.655  29.565  1.00  0.00    -0.203 F 
ATOM     94  F   UNL A   1      44.494  31.444  26.510  1.00  0.00    -0.200 F 
ATOM     95  C   UNL A   1      46.724  30.905  27.060  1.00  0.00     0.200 A 
ATOM     96  F   UNL A   1      48.938  30.388  27.694  1.00  0.00    -0.200 F 
ATOM     97  F   UNL A   1      47.174  31.758  26.127  1.00  0.00    -0.200 F 
ENDBRANCH  64  87
ENDBRANCH  38  39
ENDBRANCH  30  33
ENDBRANCH  28  29
ENDBRANCH  27  28
ENDBRANCH  26  27
ENDBRANCH   1  26
TORSDOF 15
ENDMDL
