MODEL 1
REMARK VINA RESULT:     -13.0      0.000      0.000
REMARK SMILES O=C(Cc1ccccc1C(=O)NCCCCNC(=O)c1ccc(-c2c3nc(c(-c4c(F)c(F)c(F)c(F)c4F)c4ccc([nH]4)c(-c4c(F)c(F)c(F)c(F)c4F)c4nc(c(-c5c(F)c(F)c(F)c(F)c5F)c5ccc2[nH]5)C=C4)C=C3)cc1)Nc1cccc(OC[C@@H]2CCCO2)c1
REMARK SMILES IDX 10 1 11 2 12 3 9 5 4 6 5 7 6 8 8 9 7 10 3 11 2 12 1 13 83 14
REMARK SMILES IDX 84 16 85 17 96 18 86 19 88 20 87 21 89 22 90 23 91 24 92 25
REMARK SMILES IDX 95 26 93 27 94 28 13 29 14 30 15 31 16 32 17 33 18 34 19 36
REMARK SMILES IDX 20 37 21 38 82 39 22 40 81 41 23 42 24 43 25 44 75 45 26 46
REMARK SMILES IDX 80 47 74 48 76 49 27 50 79 51 73 52 72 53 28 55 60 56 40 57
REMARK SMILES IDX 59 58 41 59 44 60 58 61 77 62 42 63 43 64 57 66 78 67 45 68
REMARK SMILES IDX 29 69 30 70 38 71 31 72 32 73 36 74 39 75 33 76 34 77 37 78
REMARK SMILES IDX 35 79 61 80 62 81 70 82 63 83 64 84 68 85 71 86 65 87 66 88
REMARK SMILES IDX 69 89 67 90 46 91 47 92 55 93 48 94 49 95 53 96 56 97 50 98
REMARK SMILES IDX 51 99 54 100 52 101
REMARK H PARENT 12 4 83 15 17 35 76 54 44 65
REMARK Flexibility Score: inf
ROOT
ATOM      1  C   UNL A   1      31.289  27.677  22.371  1.00  0.00     0.251 C 
ATOM      2  O   UNL A   1      31.372  26.794  21.514  1.00  0.00    -0.269 OA
ATOM      3  N   UNL A   1      32.405  27.919  23.134  1.00  0.00    -0.352 N 
ATOM      4  H   UNL A   1      33.139  27.277  22.998  1.00  0.00     0.163 HD
ENDROOT
BRANCH   1   5
ATOM      5  C   UNL A   1      29.968  28.373  22.514  1.00  0.00     0.043 A 
ATOM      6  C   UNL A   1      28.811  27.940  23.190  1.00  0.00    -0.026 A 
ATOM      7  C   UNL A   1      27.675  28.794  23.202  1.00  0.00     0.005 A 
ATOM      8  C   UNL A   1      27.698  30.073  22.661  1.00  0.00     0.000 A 
ATOM      9  C   UNL A   1      29.977  29.693  22.001  1.00  0.00     0.014 A 
ATOM     10  C   UNL A   1      28.862  30.535  22.079  1.00  0.00     0.001 A 
BRANCH   6  11
ATOM     11  C   UNL A   1      28.571  26.628  23.876  1.00  0.00     0.136 C 
BRANCH  11  12
ATOM     12  C   UNL A   1      29.670  25.790  24.461  1.00  0.00     0.228 C 
ATOM     13  O   UNL A   1      29.905  25.999  25.653  1.00  0.00    -0.274 OA
ATOM     14  N   UNL A   1      30.352  24.890  23.677  1.00  0.00    -0.326 N 
ATOM     15  H   UNL A   1      30.126  24.851  22.719  1.00  0.00     0.169 HD
BRANCH  14  16
ATOM     16  C   UNL A   1      31.360  24.014  24.156  1.00  0.00     0.044 A 
ATOM     17  C   UNL A   1      32.502  24.570  24.733  1.00  0.00     0.026 A 
ATOM     18  C   UNL A   1      31.215  22.620  24.140  1.00  0.00     0.072 A 
ATOM     19  C   UNL A   1      33.411  23.745  25.400  1.00  0.00     0.006 A 
ATOM     20  C   UNL A   1      32.059  21.800  24.881  1.00  0.00     0.121 A 
ATOM     21  C   UNL A   1      33.166  22.374  25.505  1.00  0.00     0.046 A 
BRANCH  20  22
ATOM     22  O   UNL A   1      31.866  20.473  25.135  1.00  0.00    -0.491 OA
BRANCH  22  23
ATOM     23  C   UNL A   1      32.903  19.678  25.723  1.00  0.00     0.261 C 
BRANCH  23  24
ATOM     24  C   UNL A   1      33.530  18.599  24.823  1.00  0.00     0.156 C 
ATOM     25  C   UNL A   1      32.845  18.339  23.498  1.00  0.00     0.038 C 
ATOM     26  O   UNL A   1      33.630  17.313  25.467  1.00  0.00    -0.375 OA
ATOM     27  C   UNL A   1      33.364  16.980  23.126  1.00  0.00     0.031 C 
ATOM     28  C   UNL A   1      33.368  16.299  24.478  1.00  0.00     0.161 C 
ENDBRANCH  23  24
ENDBRANCH  22  23
ENDBRANCH  20  22
ENDBRANCH  14  16
ENDBRANCH  11  12
ENDBRANCH   6  11
ENDBRANCH   1   5
BRANCH   3  29
ATOM     29  C   UNL A   1      32.688  28.952  24.101  1.00  0.00     0.116 C 
BRANCH  29  30
ATOM     30  C   UNL A   1      31.706  29.077  25.258  1.00  0.00     0.023 C 
BRANCH  30  31
ATOM     31  C   UNL A   1      31.490  30.463  25.867  1.00  0.00     0.023 C 
BRANCH  31  32
ATOM     32  C   UNL A   1      32.380  30.885  27.034  1.00  0.00     0.116 C 
BRANCH  32  33
ATOM     33  N   UNL A   1      32.589  32.320  27.166  1.00  0.00    -0.352 N 
ATOM     34  C   UNL A   1      33.687  33.020  27.626  1.00  0.00     0.251 C 
ATOM     35  H   UNL A   1      31.828  32.879  26.885  1.00  0.00     0.163 HD
ATOM     36  O   UNL A   1      33.673  34.239  27.657  1.00  0.00    -0.269 OA
BRANCH  34  37
ATOM     37  C   UNL A   1      34.879  32.291  28.122  1.00  0.00     0.039 A 
ATOM     38  C   UNL A   1      36.079  32.993  28.280  1.00  0.00     0.014 A 
ATOM     39  C   UNL A   1      34.814  30.937  28.452  1.00  0.00     0.014 A 
ATOM     40  C   UNL A   1      37.179  32.366  28.875  1.00  0.00     0.010 A 
ATOM     41  C   UNL A   1      35.886  30.331  29.100  1.00  0.00     0.010 A 
ATOM     42  C   UNL A   1      37.070  31.046  29.337  1.00  0.00    -0.014 A 
BRANCH  42  43
ATOM     43  C   UNL A   1      38.157  30.397  30.115  1.00  0.00     0.031 A 
ATOM     44  C   UNL A   1      38.407  30.795  31.541  1.00  0.00     0.074 A 
ATOM     45  C   UNL A   1      38.989  29.537  29.494  1.00  0.00     0.049 A 
ATOM     46  N   UNL A   1      39.374  30.431  32.344  1.00  0.00    -0.248 NA
ATOM     47  C   UNL A   1      37.462  31.754  32.131  1.00  0.00     0.031 C 
ATOM     48  C   UNL A   1      38.888  29.124  28.094  1.00  0.00     0.029 A 
ATOM     49  N   UNL A   1      40.101  28.877  29.954  1.00  0.00    -0.354 N 
ATOM     50  C   UNL A   1      39.164  31.129  33.526  1.00  0.00     0.074 A 
ATOM     51  C   UNL A   1      38.007  31.973  33.319  1.00  0.00     0.031 C 
ATOM     52  C   UNL A   1      39.890  28.275  27.811  1.00  0.00     0.029 A 
ATOM     53  C   UNL A   1      40.721  28.109  28.999  1.00  0.00     0.049 A 
ATOM     54  H   UNL A   1      40.424  28.947  30.883  1.00  0.00     0.167 HD
ATOM     55  C   UNL A   1      39.861  31.054  34.685  1.00  0.00     0.037 A 
ATOM     56  C   UNL A   1      41.840  27.363  29.072  1.00  0.00     0.037 A 
ATOM     57  C   UNL A   1      40.998  30.196  34.892  1.00  0.00     0.049 A 
ATOM     58  C   UNL A   1      42.588  27.289  30.375  1.00  0.00     0.074 A 
ATOM     59  C   UNL A   1      41.729  29.996  36.050  1.00  0.00     0.029 A 
ATOM     60  N   UNL A   1      41.571  29.398  33.913  1.00  0.00    -0.354 N 
ATOM     61  N   UNL A   1      42.332  27.888  31.511  1.00  0.00    -0.248 NA
ATOM     62  C   UNL A   1      43.778  26.425  30.407  1.00  0.00     0.031 C 
ATOM     63  C   UNL A   1      42.768  29.105  35.762  1.00  0.00     0.029 A 
ATOM     64  C   UNL A   1      42.659  28.716  34.436  1.00  0.00     0.049 A 
ATOM     65  H   UNL A   1      41.253  29.326  32.984  1.00  0.00     0.167 HD
ATOM     66  C   UNL A   1      43.306  27.456  32.399  1.00  0.00     0.074 A 
ATOM     67  C   UNL A   1      44.153  26.531  31.674  1.00  0.00     0.031 C 
ATOM     68  C   UNL A   1      43.483  27.793  33.700  1.00  0.00     0.037 A 
BRANCH  55  69
ATOM     69  C   UNL A   1      39.403  31.918  35.824  1.00  0.00     0.064 A 
ATOM     70  C   UNL A   1      38.394  31.497  36.703  1.00  0.00     0.173 A 
ATOM     71  C   UNL A   1      40.002  33.165  36.060  1.00  0.00     0.173 A 
ATOM     72  F   UNL A   1      37.784  30.317  36.514  1.00  0.00    -0.203 F 
ATOM     73  C   UNL A   1      37.981  32.304  37.759  1.00  0.00     0.198 A 
ATOM     74  C   UNL A   1      39.605  33.957  37.135  1.00  0.00     0.198 A 
ATOM     75  F   UNL A   1      40.976  33.613  35.254  1.00  0.00    -0.203 F 
ATOM     76  F   UNL A   1      36.983  31.900  38.558  1.00  0.00    -0.200 F 
ATOM     77  C   UNL A   1      38.590  33.530  37.979  1.00  0.00     0.200 A 
ATOM     78  F   UNL A   1      40.205  35.135  37.354  1.00  0.00    -0.200 F 
ATOM     79  F   UNL A   1      38.197  34.302  39.000  1.00  0.00    -0.200 F 
ENDBRANCH  55  69
BRANCH  56  80
ATOM     80  C   UNL A   1      42.301  26.599  27.884  1.00  0.00     0.064 A 
ATOM     81  C   UNL A   1      43.227  27.155  26.990  1.00  0.00     0.173 A 
ATOM     82  C   UNL A   1      41.830  25.306  27.615  1.00  0.00     0.173 A 
ATOM     83  F   UNL A   1      43.691  28.396  27.195  1.00  0.00    -0.203 F 
ATOM     84  C   UNL A   1      43.650  26.456  25.861  1.00  0.00     0.198 A 
ATOM     85  C   UNL A   1      42.272  24.597  26.499  1.00  0.00     0.198 A 
ATOM     86  F   UNL A   1      40.947  24.727  28.441  1.00  0.00    -0.203 F 
ATOM     87  F   UNL A   1      44.502  27.028  25.001  1.00  0.00    -0.200 F 
ATOM     88  C   UNL A   1      43.175  25.176  25.619  1.00  0.00     0.200 A 
ATOM     89  F   UNL A   1      41.822  23.356  26.275  1.00  0.00    -0.200 F 
ATOM     90  F   UNL A   1      43.584  24.502  24.535  1.00  0.00    -0.200 F 
ENDBRANCH  56  80
BRANCH  68  91
ATOM     91  C   UNL A   1      44.616  27.134  34.431  1.00  0.00     0.064 A 
ATOM     92  C   UNL A   1      45.898  27.700  34.463  1.00  0.00     0.173 A 
ATOM     93  C   UNL A   1      44.404  25.943  35.141  1.00  0.00     0.173 A 
ATOM     94  F   UNL A   1      46.155  28.829  33.786  1.00  0.00    -0.203 F 
ATOM     95  C   UNL A   1      46.933  27.085  35.161  1.00  0.00     0.198 A 
ATOM     96  C   UNL A   1      45.434  25.345  35.861  1.00  0.00     0.198 A 
ATOM     97  F   UNL A   1      43.193  25.365  35.146  1.00  0.00    -0.203 F 
ATOM     98  F   UNL A   1      48.162  27.618  35.142  1.00  0.00    -0.200 F 
ATOM     99  C   UNL A   1      46.699  25.912  35.866  1.00  0.00     0.200 A 
ATOM    100  F   UNL A   1      45.202  24.219  36.550  1.00  0.00    -0.200 F 
ATOM    101  F   UNL A   1      47.696  25.325  36.542  1.00  0.00    -0.200 F 
ENDBRANCH  68  91
ENDBRANCH  42  43
ENDBRANCH  34  37
ENDBRANCH  32  33
ENDBRANCH  31  32
ENDBRANCH  30  31
ENDBRANCH  29  30
ENDBRANCH   3  29
TORSDOF 17
ENDMDL
MODEL 2
REMARK VINA RESULT:     -12.7      1.386      2.623
REMARK SMILES O=C(Cc1ccccc1C(=O)NCCCCNC(=O)c1ccc(-c2c3nc(c(-c4c(F)c(F)c(F)c(F)c4F)c4ccc([nH]4)c(-c4c(F)c(F)c(F)c(F)c4F)c4nc(c(-c5c(F)c(F)c(F)c(F)c5F)c5ccc2[nH]5)C=C4)C=C3)cc1)Nc1cccc(OC[C@@H]2CCCO2)c1
REMARK SMILES IDX 10 1 11 2 12 3 9 5 4 6 5 7 6 8 8 9 7 10 3 11 2 12 1 13 83 14
REMARK SMILES IDX 84 16 85 17 96 18 86 19 88 20 87 21 89 22 90 23 91 24 92 25
REMARK SMILES IDX 95 26 93 27 94 28 13 29 14 30 15 31 16 32 17 33 18 34 19 36
REMARK SMILES IDX 20 37 21 38 82 39 22 40 81 41 23 42 24 43 25 44 75 45 26 46
REMARK SMILES IDX 80 47 74 48 76 49 27 50 79 51 73 52 72 53 28 55 60 56 40 57
REMARK SMILES IDX 59 58 41 59 44 60 58 61 77 62 42 63 43 64 57 66 78 67 45 68
REMARK SMILES IDX 29 69 30 70 38 71 31 72 32 73 36 74 39 75 33 76 34 77 37 78
REMARK SMILES IDX 35 79 61 80 62 81 70 82 63 83 64 84 68 85 71 86 65 87 66 88
REMARK SMILES IDX 69 89 67 90 46 91 47 92 55 93 48 94 49 95 53 96 56 97 50 98
REMARK SMILES IDX 51 99 54 100 52 101
REMARK H PARENT 12 4 83 15 17 35 76 54 44 65
REMARK Flexibility Score: inf
ROOT
ATOM      1  C   UNL A   1      32.317  26.883  22.575  1.00  0.00     0.251 C 
ATOM      2  O   UNL A   1      32.473  26.104  21.631  1.00  0.00    -0.269 OA
ATOM      3  N   UNL A   1      33.351  26.997  23.473  1.00  0.00    -0.352 N 
ATOM      4  H   UNL A   1      34.082  26.351  23.338  1.00  0.00     0.163 HD
ENDROOT
BRANCH   1   5
ATOM      5  C   UNL A   1      31.004  27.600  22.664  1.00  0.00     0.043 A 
ATOM      6  C   UNL A   1      29.859  27.256  23.408  1.00  0.00    -0.026 A 
ATOM      7  C   UNL A   1      28.728  28.114  23.344  1.00  0.00     0.005 A 
ATOM      8  C   UNL A   1      28.745  29.322  22.659  1.00  0.00     0.000 A 
ATOM      9  C   UNL A   1      31.008  28.852  22.002  1.00  0.00     0.014 A 
ATOM     10  C   UNL A   1      29.900  29.705  22.004  1.00  0.00     0.001 A 
BRANCH   6  11
ATOM     11  C   UNL A   1      29.627  26.033  24.245  1.00  0.00     0.136 C 
BRANCH  11  12
ATOM     12  C   UNL A   1      30.465  24.793  24.142  1.00  0.00     0.228 C 
ATOM     13  O   UNL A   1      30.279  24.122  23.125  1.00  0.00    -0.274 OA
ATOM     14  N   UNL A   1      31.342  24.460  25.148  1.00  0.00    -0.326 N 
ATOM     15  H   UNL A   1      31.363  25.034  25.948  1.00  0.00     0.169 HD
BRANCH  14  16
ATOM     16  C   UNL A   1      32.218  23.345  25.110  1.00  0.00     0.044 A 
ATOM     17  C   UNL A   1      31.683  22.074  25.322  1.00  0.00     0.026 A 
ATOM     18  C   UNL A   1      33.577  23.467  24.794  1.00  0.00     0.072 A 
ATOM     19  C   UNL A   1      32.469  20.944  25.085  1.00  0.00     0.006 A 
ATOM     20  C   UNL A   1      34.342  22.353  24.462  1.00  0.00     0.121 A 
ATOM     21  C   UNL A   1      33.779  21.087  24.619  1.00  0.00     0.046 A 
BRANCH  20  22
ATOM     22  O   UNL A   1      35.589  22.375  23.907  1.00  0.00    -0.491 OA
BRANCH  22  23
ATOM     23  C   UNL A   1      36.571  23.322  24.344  1.00  0.00     0.261 C 
BRANCH  23  24
ATOM     24  C   UNL A   1      37.379  22.938  25.597  1.00  0.00     0.156 C 
ATOM     25  C   UNL A   1      38.344  23.977  26.125  1.00  0.00     0.038 C 
ATOM     26  O   UNL A   1      38.159  21.738  25.422  1.00  0.00    -0.375 OA
ATOM     27  C   UNL A   1      39.271  23.156  26.975  1.00  0.00     0.031 C 
ATOM     28  C   UNL A   1      39.404  21.910  26.125  1.00  0.00     0.161 C 
ENDBRANCH  23  24
ENDBRANCH  22  23
ENDBRANCH  20  22
ENDBRANCH  14  16
ENDBRANCH  11  12
ENDBRANCH   6  11
ENDBRANCH   1   5
BRANCH   3  29
ATOM     29  C   UNL A   1      33.550  27.899  24.581  1.00  0.00     0.116 C 
BRANCH  29  30
ATOM     30  C   UNL A   1      32.457  27.913  25.642  1.00  0.00     0.023 C 
BRANCH  30  31
ATOM     31  C   UNL A   1      31.850  29.262  26.025  1.00  0.00     0.023 C 
BRANCH  31  32
ATOM     32  C   UNL A   1      32.375  29.961  27.278  1.00  0.00     0.116 C 
BRANCH  32  33
ATOM     33  N   UNL A   1      32.546  31.401  27.158  1.00  0.00    -0.352 N 
ATOM     34  C   UNL A   1      33.648  32.190  27.423  1.00  0.00     0.251 C 
ATOM     35  H   UNL A   1      31.753  31.890  26.838  1.00  0.00     0.163 HD
ATOM     36  O   UNL A   1      33.599  33.397  27.253  1.00  0.00    -0.269 OA
BRANCH  34  37
ATOM     37  C   UNL A   1      34.891  31.579  27.953  1.00  0.00     0.039 A 
ATOM     38  C   UNL A   1      36.007  32.397  28.164  1.00  0.00     0.014 A 
ATOM     39  C   UNL A   1      34.954  30.220  28.263  1.00  0.00     0.014 A 
ATOM     40  C   UNL A   1      37.143  31.877  28.791  1.00  0.00     0.010 A 
ATOM     41  C   UNL A   1      36.059  29.716  28.942  1.00  0.00     0.010 A 
ATOM     42  C   UNL A   1      37.154  30.545  29.232  1.00  0.00    -0.014 A 
BRANCH  42  43
ATOM     43  C   UNL A   1      38.274  29.997  30.040  1.00  0.00     0.031 A 
ATOM     44  C   UNL A   1      38.484  30.462  31.452  1.00  0.00     0.074 A 
ATOM     45  C   UNL A   1      39.166  29.172  29.458  1.00  0.00     0.049 A 
ATOM     46  N   UNL A   1      39.465  30.192  32.275  1.00  0.00    -0.248 NA
ATOM     47  C   UNL A   1      37.472  31.377  32.000  1.00  0.00     0.031 C 
ATOM     48  C   UNL A   1      39.106  28.702  28.073  1.00  0.00     0.029 A 
ATOM     49  N   UNL A   1      40.315  28.604  29.949  1.00  0.00    -0.354 N 
ATOM     50  C   UNL A   1      39.198  30.917  33.429  1.00  0.00     0.074 A 
ATOM     51  C   UNL A   1      37.991  31.675  33.183  1.00  0.00     0.031 C 
ATOM     52  C   UNL A   1      40.164  27.912  27.828  1.00  0.00     0.029 A 
ATOM     53  C   UNL A   1      40.993  27.844  29.028  1.00  0.00     0.049 A 
ATOM     54  H   UNL A   1      40.623  28.728  30.877  1.00  0.00     0.167 HD
ATOM     55  C   UNL A   1      39.888  30.930  34.595  1.00  0.00     0.037 A 
ATOM     56  C   UNL A   1      42.157  27.177  29.135  1.00  0.00     0.037 A 
ATOM     57  C   UNL A   1      41.077  30.157  34.841  1.00  0.00     0.049 A 
ATOM     58  C   UNL A   1      42.896  27.199  30.445  1.00  0.00     0.074 A 
ATOM     59  C   UNL A   1      41.808  30.048  36.011  1.00  0.00     0.029 A 
ATOM     60  N   UNL A   1      41.710  29.363  33.896  1.00  0.00    -0.354 N 
ATOM     61  N   UNL A   1      42.591  27.821  31.557  1.00  0.00    -0.248 NA
ATOM     62  C   UNL A   1      44.140  26.417  30.518  1.00  0.00     0.031 C 
ATOM     63  C   UNL A   1      42.907  29.217  35.763  1.00  0.00     0.029 A 
ATOM     64  C   UNL A   1      42.835  28.774  34.452  1.00  0.00     0.049 A 
ATOM     65  H   UNL A   1      41.406  29.237  32.969  1.00  0.00     0.167 HD
ATOM     66  C   UNL A   1      43.583  27.486  32.467  1.00  0.00     0.074 A 
ATOM     67  C   UNL A   1      44.496  26.594  31.782  1.00  0.00     0.031 C 
ATOM     68  C   UNL A   1      43.725  27.882  33.756  1.00  0.00     0.037 A 
BRANCH  55  69
ATOM     69  C   UNL A   1      39.364  31.803  35.698  1.00  0.00     0.064 A 
ATOM     70  C   UNL A   1      38.429  31.325  36.629  1.00  0.00     0.173 A 
ATOM     71  C   UNL A   1      39.825  33.120  35.847  1.00  0.00     0.173 A 
ATOM     72  F   UNL A   1      37.951  30.076  36.524  1.00  0.00    -0.203 F 
ATOM     73  C   UNL A   1      37.954  32.141  37.651  1.00  0.00     0.198 A 
ATOM     74  C   UNL A   1      39.368  33.924  36.888  1.00  0.00     0.198 A 
ATOM     75  F   UNL A   1      40.723  33.625  34.989  1.00  0.00    -0.203 F 
ATOM     76  F   UNL A   1      37.027  31.677  38.500  1.00  0.00    -0.200 F 
ATOM     77  C   UNL A   1      38.428  33.437  37.785  1.00  0.00     0.200 A 
ATOM     78  F   UNL A   1      39.837  35.172  37.025  1.00  0.00    -0.200 F 
ATOM     79  F   UNL A   1      37.975  34.219  38.774  1.00  0.00    -0.200 F 
ENDBRANCH  55  69
BRANCH  56  80
ATOM     80  C   UNL A   1      42.679  26.401  27.980  1.00  0.00     0.064 A 
ATOM     81  C   UNL A   1      42.374  25.041  27.835  1.00  0.00     0.173 A 
ATOM     82  C   UNL A   1      43.492  26.996  27.004  1.00  0.00     0.173 A 
ATOM     83  F   UNL A   1      41.617  24.424  28.754  1.00  0.00    -0.203 F 
ATOM     84  C   UNL A   1      42.877  24.299  26.768  1.00  0.00     0.198 A 
ATOM     85  C   UNL A   1      43.973  26.259  25.923  1.00  0.00     0.198 A 
ATOM     86  F   UNL A   1      43.809  28.295  27.094  1.00  0.00    -0.203 F 
ATOM     87  F   UNL A   1      42.604  22.990  26.677  1.00  0.00    -0.200 F 
ATOM     88  C   UNL A   1      43.672  24.909  25.811  1.00  0.00     0.200 A 
ATOM     89  F   UNL A   1      44.731  26.855  24.993  1.00  0.00    -0.200 F 
ATOM     90  F   UNL A   1      44.153  24.197  24.783  1.00  0.00    -0.200 F 
ENDBRANCH  56  80
BRANCH  68  91
ATOM     91  C   UNL A   1      44.892  27.325  34.519  1.00  0.00     0.064 A 
ATOM     92  C   UNL A   1      44.807  26.105  35.205  1.00  0.00     0.173 A 
ATOM     93  C   UNL A   1      46.120  28.003  34.530  1.00  0.00     0.173 A 
ATOM     94  F   UNL A   1      43.649  25.428  35.238  1.00  0.00    -0.203 F 
ATOM     95  C   UNL A   1      45.904  25.594  35.892  1.00  0.00     0.198 A 
ATOM     96  C   UNL A   1      47.223  27.475  35.195  1.00  0.00     0.198 A 
ATOM     97  F   UNL A   1      46.253  29.171  33.885  1.00  0.00    -0.203 F 
ATOM     98  F   UNL A   1      45.789  24.449  36.578  1.00  0.00    -0.200 F 
ATOM     99  C   UNL A   1      47.113  26.276  35.881  1.00  0.00     0.200 A 
ATOM    100  F   UNL A   1      48.392  28.130  35.174  1.00  0.00    -0.200 F 
ATOM    101  F   UNL A   1      48.170  25.779  36.539  1.00  0.00    -0.200 F 
ENDBRANCH  68  91
ENDBRANCH  42  43
ENDBRANCH  34  37
ENDBRANCH  32  33
ENDBRANCH  31  32
ENDBRANCH  30  31
ENDBRANCH  29  30
ENDBRANCH   3  29
TORSDOF 17
ENDMDL
MODEL 3
REMARK VINA RESULT:     -12.5      4.504     10.838
REMARK SMILES O=C(Cc1ccccc1C(=O)NCCCCNC(=O)c1ccc(-c2c3nc(c(-c4c(F)c(F)c(F)c(F)c4F)c4ccc([nH]4)c(-c4c(F)c(F)c(F)c(F)c4F)c4nc(c(-c5c(F)c(F)c(F)c(F)c5F)c5ccc2[nH]5)C=C4)C=C3)cc1)Nc1cccc(OC[C@@H]2CCCO2)c1
REMARK SMILES IDX 10 1 11 2 12 3 9 5 4 6 5 7 6 8 8 9 7 10 3 11 2 12 1 13 83 14
REMARK SMILES IDX 84 16 85 17 96 18 86 19 88 20 87 21 89 22 90 23 91 24 92 25
REMARK SMILES IDX 95 26 93 27 94 28 13 29 14 30 15 31 16 32 17 33 18 34 19 36
REMARK SMILES IDX 20 37 21 38 82 39 22 40 81 41 23 42 24 43 25 44 75 45 26 46
REMARK SMILES IDX 80 47 74 48 76 49 27 50 79 51 73 52 72 53 28 55 60 56 40 57
REMARK SMILES IDX 59 58 41 59 44 60 58 61 77 62 42 63 43 64 57 66 78 67 45 68
REMARK SMILES IDX 29 69 30 70 38 71 31 72 32 73 36 74 39 75 33 76 34 77 37 78
REMARK SMILES IDX 35 79 61 80 62 81 70 82 63 83 64 84 68 85 71 86 65 87 66 88
REMARK SMILES IDX 69 89 67 90 46 91 47 92 55 93 48 94 49 95 53 96 56 97 50 98
REMARK SMILES IDX 51 99 54 100 52 101
REMARK H PARENT 12 4 83 15 17 35 76 54 44 65
REMARK Flexibility Score: inf
ROOT
ATOM      1  C   UNL A   1      32.135  24.010  26.054  1.00  0.00     0.251 C 
ATOM      2  O   UNL A   1      31.702  23.719  27.172  1.00  0.00    -0.269 OA
ATOM      3  N   UNL A   1      33.131  23.215  25.540  1.00  0.00    -0.352 N 
ATOM      4  H   UNL A   1      33.487  22.548  26.170  1.00  0.00     0.163 HD
ENDROOT
BRANCH   1   5
ATOM      5  C   UNL A   1      31.554  25.220  25.386  1.00  0.00     0.043 A 
ATOM      6  C   UNL A   1      32.143  26.483  25.180  1.00  0.00    -0.026 A 
ATOM      7  C   UNL A   1      31.392  27.477  24.497  1.00  0.00     0.005 A 
ATOM      8  C   UNL A   1      30.146  27.218  23.940  1.00  0.00     0.000 A 
ATOM      9  C   UNL A   1      30.299  24.972  24.779  1.00  0.00     0.014 A 
ATOM     10  C   UNL A   1      29.607  25.953  24.061  1.00  0.00     0.001 A 
BRANCH   6  11
ATOM     11  C   UNL A   1      33.480  26.973  25.652  1.00  0.00     0.136 C 
BRANCH  11  12
ATOM     12  C   UNL A   1      33.647  28.110  26.618  1.00  0.00     0.228 C 
ATOM     13  O   UNL A   1      32.771  28.192  27.481  1.00  0.00    -0.274 OA
ATOM     14  N   UNL A   1      34.702  28.983  26.491  1.00  0.00    -0.326 N 
ATOM     15  H   UNL A   1      35.308  28.862  25.724  1.00  0.00     0.169 HD
BRANCH  14  16
ATOM     16  C   UNL A   1      34.975  30.044  27.391  1.00  0.00     0.044 A 
ATOM     17  C   UNL A   1      35.995  29.873  28.328  1.00  0.00     0.026 A 
ATOM     18  C   UNL A   1      34.314  31.277  27.323  1.00  0.00     0.072 A 
ATOM     19  C   UNL A   1      36.430  30.964  29.084  1.00  0.00     0.006 A 
ATOM     20  C   UNL A   1      34.800  32.393  27.998  1.00  0.00     0.121 A 
ATOM     21  C   UNL A   1      35.859  32.224  28.888  1.00  0.00     0.046 A 
BRANCH  20  22
ATOM     22  O   UNL A   1      34.389  33.681  27.813  1.00  0.00    -0.491 OA
BRANCH  22  23
ATOM     23  C   UNL A   1      33.279  34.212  28.548  1.00  0.00     0.261 C 
BRANCH  23  24
ATOM     24  C   UNL A   1      33.620  35.195  29.683  1.00  0.00     0.156 C 
ATOM     25  C   UNL A   1      34.020  34.586  31.010  1.00  0.00     0.038 C 
ATOM     26  O   UNL A   1      32.545  36.107  29.984  1.00  0.00    -0.375 OA
ATOM     27  C   UNL A   1      33.801  35.723  31.967  1.00  0.00     0.031 C 
ATOM     28  C   UNL A   1      32.528  36.321  31.408  1.00  0.00     0.161 C 
ENDBRANCH  23  24
ENDBRANCH  22  23
ENDBRANCH  20  22
ENDBRANCH  14  16
ENDBRANCH  11  12
ENDBRANCH   6  11
ENDBRANCH   1   5
BRANCH   3  29
ATOM     29  C   UNL A   1      33.745  23.190  24.235  1.00  0.00     0.116 C 
BRANCH  29  30
ATOM     30  C   UNL A   1      35.121  22.543  24.151  1.00  0.00     0.023 C 
BRANCH  30  31
ATOM     31  C   UNL A   1      36.310  23.313  24.725  1.00  0.00     0.023 C 
BRANCH  31  32
ATOM     32  C   UNL A   1      36.819  22.926  26.112  1.00  0.00     0.116 C 
BRANCH  32  33
ATOM     33  N   UNL A   1      37.905  21.957  26.126  1.00  0.00    -0.352 N 
ATOM     34  C   UNL A   1      39.229  22.111  26.487  1.00  0.00     0.251 C 
ATOM     35  H   UNL A   1      37.658  21.051  25.832  1.00  0.00     0.163 HD
ATOM     36  O   UNL A   1      39.997  21.165  26.435  1.00  0.00    -0.269 OA
BRANCH  34  37
ATOM     37  C   UNL A   1      39.737  23.440  26.905  1.00  0.00     0.039 A 
ATOM     38  C   UNL A   1      40.595  23.516  28.008  1.00  0.00     0.014 A 
ATOM     39  C   UNL A   1      39.393  24.599  26.207  1.00  0.00     0.014 A 
ATOM     40  C   UNL A   1      41.197  24.735  28.338  1.00  0.00     0.010 A 
ATOM     41  C   UNL A   1      40.038  25.797  26.496  1.00  0.00     0.010 A 
ATOM     42  C   UNL A   1      40.962  25.871  27.550  1.00  0.00    -0.014 A 
BRANCH  42  43
ATOM     43  C   UNL A   1      41.700  27.142  27.769  1.00  0.00     0.031 A 
ATOM     44  C   UNL A   1      43.104  27.298  27.258  1.00  0.00     0.074 A 
ATOM     45  C   UNL A   1      41.145  28.105  28.529  1.00  0.00     0.049 A 
ATOM     46  N   UNL A   1      43.950  28.278  27.448  1.00  0.00    -0.248 NA
ATOM     47  C   UNL A   1      43.637  26.188  26.454  1.00  0.00     0.031 C 
ATOM     48  C   UNL A   1      39.814  28.042  29.137  1.00  0.00     0.029 A 
ATOM     49  N   UNL A   1      41.641  29.316  28.946  1.00  0.00    -0.354 N 
ATOM     50  C   UNL A   1      45.118  27.896  26.803  1.00  0.00     0.074 A 
ATOM     51  C   UNL A   1      44.889  26.575  26.258  1.00  0.00     0.031 C 
ATOM     52  C   UNL A   1      39.596  29.165  29.840  1.00  0.00     0.029 A 
ATOM     53  C   UNL A   1      40.781  30.013  29.760  1.00  0.00     0.049 A 
ATOM     54  H   UNL A   1      42.529  29.653  28.685  1.00  0.00     0.167 HD
ATOM     55  C   UNL A   1      46.270  28.595  26.660  1.00  0.00     0.037 A 
ATOM     56  C   UNL A   1      40.937  31.199  30.378  1.00  0.00     0.037 A 
ATOM     57  C   UNL A   1      46.484  29.918  27.185  1.00  0.00     0.049 A 
ATOM     58  C   UNL A   1      42.221  31.960  30.193  1.00  0.00     0.074 A 
ATOM     59  C   UNL A   1      47.589  30.738  27.035  1.00  0.00     0.029 A 
ATOM     60  N   UNL A   1      45.573  30.612  27.968  1.00  0.00    -0.354 N 
ATOM     61  N   UNL A   1      43.290  31.627  29.512  1.00  0.00    -0.248 NA
ATOM     62  C   UNL A   1      42.318  33.268  30.857  1.00  0.00     0.031 C 
ATOM     63  C   UNL A   1      47.362  31.914  27.758  1.00  0.00     0.029 A 
ATOM     64  C   UNL A   1      46.098  31.845  28.323  1.00  0.00     0.049 A 
ATOM     65  H   UNL A   1      44.685  30.279  28.232  1.00  0.00     0.167 HD
ATOM     66  C   UNL A   1      44.172  32.690  29.640  1.00  0.00     0.074 A 
ATOM     67  C   UNL A   1      43.509  33.687  30.455  1.00  0.00     0.031 C 
ATOM     68  C   UNL A   1      45.419  32.828  29.127  1.00  0.00     0.037 A 
BRANCH  55  69
ATOM     69  C   UNL A   1      47.384  27.944  25.894  1.00  0.00     0.064 A 
ATOM     70  C   UNL A   1      47.408  27.948  24.491  1.00  0.00     0.173 A 
ATOM     71  C   UNL A   1      48.455  27.338  26.567  1.00  0.00     0.173 A 
ATOM     72  F   UNL A   1      46.403  28.507  23.800  1.00  0.00    -0.203 F 
ATOM     73  C   UNL A   1      48.449  27.345  23.790  1.00  0.00     0.198 A 
ATOM     74  C   UNL A   1      49.509  26.761  25.863  1.00  0.00     0.198 A 
ATOM     75  F   UNL A   1      48.485  27.311  27.908  1.00  0.00    -0.203 F 
ATOM     76  F   UNL A   1      48.427  27.322  22.451  1.00  0.00    -0.200 F 
ATOM     77  C   UNL A   1      49.501  26.758  24.476  1.00  0.00     0.200 A 
ATOM     78  F   UNL A   1      50.532  26.206  26.527  1.00  0.00    -0.200 F 
ATOM     79  F   UNL A   1      50.507  26.185  23.800  1.00  0.00    -0.200 F 
ENDBRANCH  55  69
BRANCH  56  80
ATOM     80  C   UNL A   1      39.834  31.757  31.203  1.00  0.00     0.064 A 
ATOM     81  C   UNL A   1      39.583  31.264  32.491  1.00  0.00     0.173 A 
ATOM     82  C   UNL A   1      39.008  32.785  30.725  1.00  0.00     0.173 A 
ATOM     83  F   UNL A   1      40.333  30.268  32.983  1.00  0.00    -0.203 F 
ATOM     84  C   UNL A   1      38.537  31.765  33.264  1.00  0.00     0.198 A 
ATOM     85  C   UNL A   1      37.978  33.303  31.509  1.00  0.00     0.198 A 
ATOM     86  F   UNL A   1      39.209  33.294  29.502  1.00  0.00    -0.203 F 
ATOM     87  F   UNL A   1      38.294  31.247  34.475  1.00  0.00    -0.200 F 
ATOM     88  C   UNL A   1      37.738  32.787  32.774  1.00  0.00     0.200 A 
ATOM     89  F   UNL A   1      37.216  34.299  31.038  1.00  0.00    -0.200 F 
ATOM     90  F   UNL A   1      36.734  33.270  33.518  1.00  0.00    -0.200 F 
ENDBRANCH  56  80
BRANCH  68  91
ATOM     91  C   UNL A   1      46.135  34.117  29.405  1.00  0.00     0.064 A 
ATOM     92  C   UNL A   1      46.982  34.263  30.513  1.00  0.00     0.173 A 
ATOM     93  C   UNL A   1      46.003  35.205  28.529  1.00  0.00     0.173 A 
ATOM     94  F   UNL A   1      47.128  33.258  31.389  1.00  0.00    -0.203 F 
ATOM     95  C   UNL A   1      47.653  35.461  30.746  1.00  0.00     0.198 A 
ATOM     96  C   UNL A   1      46.697  36.391  28.750  1.00  0.00     0.198 A 
ATOM     97  F   UNL A   1      45.208  35.112  27.452  1.00  0.00    -0.203 F 
ATOM     98  F   UNL A   1      48.422  35.595  31.834  1.00  0.00    -0.200 F 
ATOM     99  C   UNL A   1      47.515  36.521  29.860  1.00  0.00     0.200 A 
ATOM    100  F   UNL A   1      46.571  37.409  27.887  1.00  0.00    -0.200 F 
ATOM    101  F   UNL A   1      48.167  37.670  30.083  1.00  0.00    -0.200 F 
ENDBRANCH  68  91
ENDBRANCH  42  43
ENDBRANCH  34  37
ENDBRANCH  32  33
ENDBRANCH  31  32
ENDBRANCH  30  31
ENDBRANCH  29  30
ENDBRANCH   3  29
TORSDOF 17
ENDMDL
