MODEL 1
REMARK VINA RESULT:     -11.9      0.000      0.000
REMARK SMILES COc1ccc(Br)cc1S(=O)(=O)N(C)CC(=O)NCCCCNC(=O)c1ccc(-c2c3nc(c(-c4c(F)c(F)c(F)c(F)c4F)c4ccc([nH]4)c(-c4c(F)c(F)c(F)c(F)c4F)c4nc(c(-c5c(F)c(F)c(F)c(F)c5F)c5ccc2[nH]5)C=C4)C=C3)cc1
REMARK SMILES IDX 19 1 18 2 16 3 17 4 15 6 13 7 14 8 10 9 11 10 12 11 9 12
REMARK SMILES IDX 3 13 4 14 5 15 8 16 6 17 7 18 2 19 1 20 20 21 21 22 22 23
REMARK SMILES IDX 23 24 24 25 25 27 26 28 27 29 88 30 28 31 87 32 29 33 30 34
REMARK SMILES IDX 31 35 81 36 32 37 86 38 80 39 82 40 33 41 85 42 79 43 78 44
REMARK SMILES IDX 34 46 66 47 46 48 65 49 47 50 50 51 64 52 83 53 48 54 49 55
REMARK SMILES IDX 63 57 84 58 51 59 35 60 36 61 44 62 37 63 38 64 42 65 45 66
REMARK SMILES IDX 39 67 40 68 43 69 41 70 67 71 68 72 76 73 69 74 70 75 74 76
REMARK SMILES IDX 77 77 71 78 72 79 75 80 73 81 52 82 53 83 61 84 54 85 55 86
REMARK SMILES IDX 59 87 62 88 56 89 57 90 60 91 58 92
REMARK H PARENT 18 5 23 26 82 45 50 56
REMARK Flexibility Score: inf
ROOT
ATOM      1  C   UNL A   1      32.217  29.926  25.387  1.00  0.00     0.116 C 
ENDROOT
BRANCH   1   2
ATOM      2  N   UNL A   1      31.130  29.787  24.441  1.00  0.00    -0.355 N 
ATOM      3  C   UNL A   1      30.804  28.759  23.599  1.00  0.00     0.235 C 
ATOM      4  O   UNL A   1      29.756  28.874  22.958  1.00  0.00    -0.274 OA
ATOM      5  H   UNL A   1      30.523  30.561  24.395  1.00  0.00     0.163 HD
BRANCH   3   6
ATOM      6  C   UNL A   1      31.666  27.499  23.487  1.00  0.00     0.202 C 
BRANCH   6   7
ATOM      7  N   UNL A   1      31.460  26.394  24.489  1.00  0.00    -0.191 NA
ATOM      8  C   UNL A   1      30.055  26.250  24.869  1.00  0.00     0.125 C 
BRANCH   7   9
ATOM      9  S   UNL A   1      32.699  26.321  25.650  1.00  0.00     0.247 S 
ATOM     10  O   UNL A   1      32.153  26.841  26.890  1.00  0.00    -0.207 OA
ATOM     11  O   UNL A   1      33.838  26.970  25.032  1.00  0.00    -0.207 OA
BRANCH   9  12
ATOM     12  C   UNL A   1      33.283  24.697  26.088  1.00  0.00     0.125 A 
ATOM     13  C   UNL A   1      32.662  23.722  26.870  1.00  0.00     0.138 A 
ATOM     14  C   UNL A   1      33.373  22.544  27.179  1.00  0.00     0.049 A 
ATOM     15  C   UNL A   1      34.689  22.350  26.757  1.00  0.00     0.019 A 
ATOM     16  C   UNL A   1      34.611  24.478  25.645  1.00  0.00     0.041 A 
ATOM     17  C   UNL A   1      35.304  23.322  25.985  1.00  0.00     0.019 A 
ATOM     18  Br  UNL A   1      37.087  23.083  25.410  1.00  0.00    -0.051 Br
BRANCH  13  19
ATOM     19  O   UNL A   1      31.372  23.850  27.288  1.00  0.00    -0.495 OA
ATOM     20  C   UNL A   1      30.434  22.994  26.626  1.00  0.00     0.278 C 
ENDBRANCH  13  19
ENDBRANCH   9  12
ENDBRANCH   7   9
ENDBRANCH   6   7
ENDBRANCH   3   6
ENDBRANCH   1   2
BRANCH   1  21
ATOM     21  C   UNL A   1      31.770  30.535  26.716  1.00  0.00     0.023 C 
BRANCH  21  22
ATOM     22  C   UNL A   1      31.569  32.048  26.718  1.00  0.00     0.023 C 
BRANCH  22  23
ATOM     23  C   UNL A   1      32.749  32.834  27.271  1.00  0.00     0.116 C 
BRANCH  23  24
ATOM     24  N   UNL A   1      32.408  34.199  27.652  1.00  0.00    -0.352 N 
ATOM     25  C   UNL A   1      32.989  35.008  28.596  1.00  0.00     0.251 C 
ATOM     26  H   UNL A   1      31.653  34.597  27.160  1.00  0.00     0.163 HD
ATOM     27  O   UNL A   1      32.511  36.113  28.835  1.00  0.00    -0.269 OA
BRANCH  25  28
ATOM     28  C   UNL A   1      34.154  34.522  29.366  1.00  0.00     0.039 A 
ATOM     29  C   UNL A   1      33.929  33.936  30.615  1.00  0.00     0.014 A 
ATOM     30  C   UNL A   1      35.451  34.612  28.855  1.00  0.00     0.014 A 
ATOM     31  C   UNL A   1      34.996  33.370  31.314  1.00  0.00     0.010 A 
ATOM     32  C   UNL A   1      36.500  33.983  29.517  1.00  0.00     0.010 A 
ATOM     33  C   UNL A   1      36.280  33.354  30.750  1.00  0.00    -0.014 A 
BRANCH  33  34
ATOM     34  C   UNL A   1      37.401  32.664  31.430  1.00  0.00     0.031 A 
ATOM     35  C   UNL A   1      38.097  31.509  30.770  1.00  0.00     0.074 A 
ATOM     36  C   UNL A   1      37.739  33.035  32.681  1.00  0.00     0.049 A 
ATOM     37  N   UNL A   1      39.075  30.766  31.222  1.00  0.00    -0.248 NA
ATOM     38  C   UNL A   1      37.606  31.115  29.441  1.00  0.00     0.031 C 
ATOM     39  C   UNL A   1      37.077  34.081  33.461  1.00  0.00     0.029 A 
ATOM     40  N   UNL A   1      38.720  32.565  33.516  1.00  0.00    -0.354 N 
ATOM     41  C   UNL A   1      39.296  29.803  30.247  1.00  0.00     0.074 A 
ATOM     42  C   UNL A   1      38.326  30.029  29.199  1.00  0.00     0.031 C 
ATOM     43  C   UNL A   1      37.687  34.192  34.653  1.00  0.00     0.029 A 
ATOM     44  C   UNL A   1      38.769  33.217  34.724  1.00  0.00     0.049 A 
ATOM     45  H   UNL A   1      39.329  31.831  33.274  1.00  0.00     0.167 HD
ATOM     46  C   UNL A   1      40.240  28.831  30.222  1.00  0.00     0.037 A 
ATOM     47  C   UNL A   1      39.607  33.053  35.764  1.00  0.00     0.037 A 
ATOM     48  C   UNL A   1      41.234  28.640  31.242  1.00  0.00     0.049 A 
ATOM     49  C   UNL A   1      40.705  32.032  35.669  1.00  0.00     0.074 A 
ATOM     50  C   UNL A   1      42.286  27.741  31.269  1.00  0.00     0.029 A 
ATOM     51  N   UNL A   1      41.301  29.369  32.421  1.00  0.00    -0.354 N 
ATOM     52  N   UNL A   1      40.962  31.184  34.704  1.00  0.00    -0.248 NA
ATOM     53  C   UNL A   1      41.638  31.958  36.801  1.00  0.00     0.031 C 
ATOM     54  C   UNL A   1      42.978  27.913  32.474  1.00  0.00     0.029 A 
ATOM     55  C   UNL A   1      42.374  28.937  33.184  1.00  0.00     0.049 A 
ATOM     56  H   UNL A   1      40.679  30.088  32.676  1.00  0.00     0.167 HD
ATOM     57  C   UNL A   1      42.092  30.486  35.102  1.00  0.00     0.074 A 
ATOM     58  C   UNL A   1      42.484  31.024  36.389  1.00  0.00     0.031 C 
ATOM     59  C   UNL A   1      42.746  29.486  34.462  1.00  0.00     0.037 A 
BRANCH  46  60
ATOM     60  C   UNL A   1      40.243  27.910  29.039  1.00  0.00     0.064 A 
ATOM     61  C   UNL A   1      39.521  26.708  29.046  1.00  0.00     0.173 A 
ATOM     62  C   UNL A   1      40.963  28.241  27.882  1.00  0.00     0.173 A 
ATOM     63  F   UNL A   1      38.831  26.341  30.136  1.00  0.00    -0.203 F 
ATOM     64  C   UNL A   1      39.542  25.854  27.945  1.00  0.00     0.198 A 
ATOM     65  C   UNL A   1      40.962  27.396  26.774  1.00  0.00     0.198 A 
ATOM     66  F   UNL A   1      41.668  29.380  27.825  1.00  0.00    -0.203 F 
ATOM     67  F   UNL A   1      38.884  24.688  27.992  1.00  0.00    -0.200 F 
ATOM     68  C   UNL A   1      40.258  26.201  26.810  1.00  0.00     0.200 A 
ATOM     69  F   UNL A   1      41.649  27.734  25.675  1.00  0.00    -0.200 F 
ATOM     70  F   UNL A   1      40.277  25.379  25.752  1.00  0.00    -0.200 F 
ENDBRANCH  46  60
BRANCH  47  71
ATOM     71  C   UNL A   1      39.474  33.922  36.959  1.00  0.00     0.064 A 
ATOM     72  C   UNL A   1      40.086  35.181  36.997  1.00  0.00     0.173 A 
ATOM     73  C   UNL A   1      38.723  33.520  38.073  1.00  0.00     0.173 A 
ATOM     74  F   UNL A   1      40.826  35.597  35.959  1.00  0.00    -0.203 F 
ATOM     75  C   UNL A   1      39.966  36.004  38.115  1.00  0.00     0.198 A 
ATOM     76  C   UNL A   1      38.589  34.353  39.183  1.00  0.00     0.198 A 
ATOM     77  F   UNL A   1      38.114  32.326  38.078  1.00  0.00    -0.203 F 
ATOM     78  F   UNL A   1      40.588  37.190  38.140  1.00  0.00    -0.200 F 
ATOM     79  C   UNL A   1      39.214  35.591  39.205  1.00  0.00     0.200 A 
ATOM     80  F   UNL A   1      37.853  33.955  40.230  1.00  0.00    -0.200 F 
ATOM     81  F   UNL A   1      39.096  36.384  40.278  1.00  0.00    -0.200 F 
ENDBRANCH  47  71
BRANCH  59  82
ATOM     82  C   UNL A   1      43.957  28.924  35.140  1.00  0.00     0.064 A 
ATOM     83  C   UNL A   1      45.234  29.455  34.911  1.00  0.00     0.173 A 
ATOM     84  C   UNL A   1      43.835  27.859  36.044  1.00  0.00     0.173 A 
ATOM     85  F   UNL A   1      45.398  30.465  34.042  1.00  0.00    -0.203 F 
ATOM     86  C   UNL A   1      46.351  28.924  35.546  1.00  0.00     0.198 A 
ATOM     87  C   UNL A   1      44.953  27.344  36.692  1.00  0.00     0.198 A 
ATOM     88  F   UNL A   1      42.633  27.320  36.297  1.00  0.00    -0.203 F 
ATOM     89  F   UNL A   1      47.569  29.419  35.281  1.00  0.00    -0.200 F 
ATOM     90  C   UNL A   1      46.210  27.871  36.439  1.00  0.00     0.200 A 
ATOM     91  F   UNL A   1      44.815  26.331  37.560  1.00  0.00    -0.200 F 
ATOM     92  F   UNL A   1      47.289  27.360  37.048  1.00  0.00    -0.200 F 
ENDBRANCH  59  82
ENDBRANCH  33  34
ENDBRANCH  25  28
ENDBRANCH  23  24
ENDBRANCH  22  23
ENDBRANCH  21  22
ENDBRANCH   1  21
TORSDOF 15
ENDMDL
MODEL 2
REMARK VINA RESULT:     -11.7      0.768      7.379
REMARK SMILES COc1ccc(Br)cc1S(=O)(=O)N(C)CC(=O)NCCCCNC(=O)c1ccc(-c2c3nc(c(-c4c(F)c(F)c(F)c(F)c4F)c4ccc([nH]4)c(-c4c(F)c(F)c(F)c(F)c4F)c4nc(c(-c5c(F)c(F)c(F)c(F)c5F)c5ccc2[nH]5)C=C4)C=C3)cc1
REMARK SMILES IDX 19 1 18 2 16 3 17 4 15 6 13 7 14 8 10 9 11 10 12 11 9 12
REMARK SMILES IDX 3 13 4 14 5 15 8 16 6 17 7 18 2 19 1 20 20 21 21 22 22 23
REMARK SMILES IDX 23 24 24 25 25 27 26 28 27 29 88 30 28 31 87 32 29 33 30 34
REMARK SMILES IDX 31 35 81 36 32 37 86 38 80 39 82 40 33 41 85 42 79 43 78 44
REMARK SMILES IDX 34 46 66 47 46 48 65 49 47 50 50 51 64 52 83 53 48 54 49 55
REMARK SMILES IDX 63 57 84 58 51 59 35 60 36 61 44 62 37 63 38 64 42 65 45 66
REMARK SMILES IDX 39 67 40 68 43 69 41 70 67 71 68 72 76 73 69 74 70 75 74 76
REMARK SMILES IDX 77 77 71 78 72 79 75 80 73 81 52 82 53 83 61 84 54 85 55 86
REMARK SMILES IDX 59 87 62 88 56 89 57 90 60 91 58 92
REMARK H PARENT 18 5 23 26 82 45 50 56
REMARK Flexibility Score: inf
ROOT
ATOM      1  C   UNL A   1      31.381  30.102  25.294  1.00  0.00     0.116 C 
ENDROOT
BRANCH   1   2
ATOM      2  N   UNL A   1      30.851  29.765  23.989  1.00  0.00    -0.355 N 
ATOM      3  C   UNL A   1      30.398  28.576  23.488  1.00  0.00     0.235 C 
ATOM      4  O   UNL A   1      29.910  28.598  22.355  1.00  0.00    -0.274 OA
ATOM      5  H   UNL A   1      30.809  30.519  23.356  1.00  0.00     0.163 HD
BRANCH   3   6
ATOM      6  C   UNL A   1      30.443  27.282  24.306  1.00  0.00     0.202 C 
BRANCH   6   7
ATOM      7  N   UNL A   1      31.695  26.445  24.261  1.00  0.00    -0.191 NA
ATOM      8  C   UNL A   1      31.562  25.305  23.356  1.00  0.00     0.125 C 
BRANCH   7   9
ATOM      9  S   UNL A   1      32.428  26.280  25.786  1.00  0.00     0.247 S 
ATOM     10  O   UNL A   1      31.407  26.543  26.781  1.00  0.00    -0.207 OA
ATOM     11  O   UNL A   1      33.616  27.109  25.729  1.00  0.00    -0.207 OA
BRANCH   9  12
ATOM     12  C   UNL A   1      33.027  24.656  26.206  1.00  0.00     0.125 A 
ATOM     13  C   UNL A   1      32.394  23.647  26.932  1.00  0.00     0.138 A 
ATOM     14  C   UNL A   1      33.116  22.477  27.243  1.00  0.00     0.049 A 
ATOM     15  C   UNL A   1      34.454  22.322  26.876  1.00  0.00     0.019 A 
ATOM     16  C   UNL A   1      34.380  24.478  25.819  1.00  0.00     0.041 A 
ATOM     17  C   UNL A   1      35.082  23.328  26.160  1.00  0.00     0.019 A 
ATOM     18  Br  UNL A   1      36.893  23.142  25.661  1.00  0.00    -0.051 Br
BRANCH  13  19
ATOM     19  O   UNL A   1      31.084  23.736  27.294  1.00  0.00    -0.495 OA
ATOM     20  C   UNL A   1      30.206  22.831  26.615  1.00  0.00     0.278 C 
ENDBRANCH  13  19
ENDBRANCH   9  12
ENDBRANCH   7   9
ENDBRANCH   6   7
ENDBRANCH   3   6
ENDBRANCH   1   2
BRANCH   1  21
ATOM     21  C   UNL A   1      31.010  31.517  25.736  1.00  0.00     0.023 C 
BRANCH  21  22
ATOM     22  C   UNL A   1      31.460  31.913  27.139  1.00  0.00     0.023 C 
BRANCH  22  23
ATOM     23  C   UNL A   1      32.670  32.835  27.172  1.00  0.00     0.116 C 
BRANCH  23  24
ATOM     24  N   UNL A   1      32.358  34.185  27.626  1.00  0.00    -0.352 N 
ATOM     25  C   UNL A   1      32.976  34.941  28.590  1.00  0.00     0.251 C 
ATOM     26  H   UNL A   1      31.595  34.615  27.176  1.00  0.00     0.163 HD
ATOM     27  O   UNL A   1      32.520  36.039  28.894  1.00  0.00    -0.269 OA
BRANCH  25  28
ATOM     28  C   UNL A   1      34.156  34.406  29.302  1.00  0.00     0.039 A 
ATOM     29  C   UNL A   1      33.949  33.654  30.462  1.00  0.00     0.014 A 
ATOM     30  C   UNL A   1      35.451  34.613  28.820  1.00  0.00     0.014 A 
ATOM     31  C   UNL A   1      35.034  33.044  31.093  1.00  0.00     0.010 A 
ATOM     32  C   UNL A   1      36.521  33.945  29.405  1.00  0.00     0.010 A 
ATOM     33  C   UNL A   1      36.321  33.152  30.544  1.00  0.00    -0.014 A 
BRANCH  33  34
ATOM     34  C   UNL A   1      37.466  32.425  31.140  1.00  0.00     0.031 A 
ATOM     35  C   UNL A   1      37.958  32.778  32.514  1.00  0.00     0.074 A 
ATOM     36  C   UNL A   1      38.109  31.495  30.407  1.00  0.00     0.049 A 
ATOM     37  N   UNL A   1      38.961  32.274  33.187  1.00  0.00    -0.248 NA
ATOM     38  C   UNL A   1      37.254  33.865  33.209  1.00  0.00     0.031 C 
ATOM     39  C   UNL A   1      37.781  31.130  29.029  1.00  0.00     0.029 A 
ATOM     40  N   UNL A   1      39.178  30.695  30.719  1.00  0.00    -0.354 N 
ATOM     41  C   UNL A   1      39.024  32.998  34.368  1.00  0.00     0.074 A 
ATOM     42  C   UNL A   1      37.985  34.004  34.305  1.00  0.00     0.031 C 
ATOM     43  C   UNL A   1      38.615  30.159  28.621  1.00  0.00     0.029 A 
ATOM     44  C   UNL A   1      39.542  29.846  29.703  1.00  0.00     0.049 A 
ATOM     45  H   UNL A   1      39.640  30.727  31.588  1.00  0.00     0.167 HD
ATOM     46  C   UNL A   1      39.859  32.825  35.421  1.00  0.00     0.037 A 
ATOM     47  C   UNL A   1      40.508  28.911  29.659  1.00  0.00     0.037 A 
ATOM     48  C   UNL A   1      40.858  31.794  35.502  1.00  0.00     0.049 A 
ATOM     49  C   UNL A   1      41.358  28.675  30.875  1.00  0.00     0.074 A 
ATOM     50  C   UNL A   1      41.695  31.480  36.558  1.00  0.00     0.029 A 
ATOM     51  N   UNL A   1      41.150  30.902  34.481  1.00  0.00    -0.354 N 
ATOM     52  N   UNL A   1      41.350  29.307  32.023  1.00  0.00    -0.248 NA
ATOM     53  C   UNL A   1      42.338  27.584  30.795  1.00  0.00     0.031 C 
ATOM     54  C   UNL A   1      42.509  30.410  36.167  1.00  0.00     0.029 A 
ATOM     55  C   UNL A   1      42.159  30.040  34.880  1.00  0.00     0.049 A 
ATOM     56  H   UNL A   1      40.705  30.883  33.602  1.00  0.00     0.167 HD
ATOM     57  C   UNL A   1      42.310  28.684  32.807  1.00  0.00     0.074 A 
ATOM     58  C   UNL A   1      42.867  27.610  32.010  1.00  0.00     0.031 C 
ATOM     59  C   UNL A   1      42.698  28.977  34.072  1.00  0.00     0.037 A 
BRANCH  46  60
ATOM     60  C   UNL A   1      39.713  33.770  36.576  1.00  0.00     0.064 A 
ATOM     61  C   UNL A   1      38.905  33.458  37.679  1.00  0.00     0.173 A 
ATOM     62  C   UNL A   1      40.400  34.993  36.586  1.00  0.00     0.173 A 
ATOM     63  F   UNL A   1      38.216  32.308  37.707  1.00  0.00    -0.203 F 
ATOM     64  C   UNL A   1      38.768  34.349  38.740  1.00  0.00     0.198 A 
ATOM     65  C   UNL A   1      40.279  35.872  37.660  1.00  0.00     0.198 A 
ATOM     66  F   UNL A   1      41.185  35.336  35.555  1.00  0.00    -0.203 F 
ATOM     67  F   UNL A   1      37.953  34.052  39.761  1.00  0.00    -0.200 F 
ATOM     68  C   UNL A   1      39.458  35.552  38.732  1.00  0.00     0.200 A 
ATOM     69  F   UNL A   1      40.950  37.030  37.654  1.00  0.00    -0.200 F 
ATOM     70  F   UNL A   1      39.324  36.409  39.753  1.00  0.00    -0.200 F 
ENDBRANCH  46  60
BRANCH  47  71
ATOM     71  C   UNL A   1      40.678  28.087  28.438  1.00  0.00     0.064 A 
ATOM     72  C   UNL A   1      41.490  28.528  27.386  1.00  0.00     0.173 A 
ATOM     73  C   UNL A   1      40.048  26.842  28.305  1.00  0.00     0.173 A 
ATOM     74  F   UNL A   1      42.099  29.721  27.465  1.00  0.00    -0.203 F 
ATOM     75  C   UNL A   1      41.655  27.760  26.235  1.00  0.00     0.198 A 
ATOM     76  C   UNL A   1      40.229  26.067  27.160  1.00  0.00     0.198 A 
ATOM     77  F   UNL A   1      39.266  26.376  29.289  1.00  0.00    -0.203 F 
ATOM     78  F   UNL A   1      42.412  28.220  25.229  1.00  0.00    -0.200 F 
ATOM     79  C   UNL A   1      41.028  26.529  26.125  1.00  0.00     0.200 A 
ATOM     80  F   UNL A   1      39.630  24.872  27.062  1.00  0.00    -0.200 F 
ATOM     81  F   UNL A   1      41.190  25.790  25.020  1.00  0.00    -0.200 F 
ENDBRANCH  47  71
BRANCH  59  82
ATOM     82  C   UNL A   1      43.765  28.114  34.670  1.00  0.00     0.064 A 
ATOM     83  C   UNL A   1      43.451  26.918  35.330  1.00  0.00     0.173 A 
ATOM     84  C   UNL A   1      45.115  28.477  34.565  1.00  0.00     0.173 A 
ATOM     85  F   UNL A   1      42.171  26.540  35.468  1.00  0.00    -0.203 F 
ATOM     86  C   UNL A   1      44.450  26.125  35.883  1.00  0.00     0.198 A 
ATOM     87  C   UNL A   1      46.114  27.671  35.102  1.00  0.00     0.198 A 
ATOM     88  F   UNL A   1      45.465  29.611  33.940  1.00  0.00    -0.203 F 
ATOM     89  F   UNL A   1      44.125  25.006  36.547  1.00  0.00    -0.200 F 
ATOM     90  C   UNL A   1      45.781  26.499  35.766  1.00  0.00     0.200 A 
ATOM     91  F   UNL A   1      47.400  28.029  34.983  1.00  0.00    -0.200 F 
ATOM     92  F   UNL A   1      46.743  25.734  36.302  1.00  0.00    -0.200 F 
ENDBRANCH  59  82
ENDBRANCH  33  34
ENDBRANCH  25  28
ENDBRANCH  23  24
ENDBRANCH  22  23
ENDBRANCH  21  22
ENDBRANCH   1  21
TORSDOF 15
ENDMDL
MODEL 3
REMARK VINA RESULT:     -11.6      5.702      9.949
REMARK SMILES COc1ccc(Br)cc1S(=O)(=O)N(C)CC(=O)NCCCCNC(=O)c1ccc(-c2c3nc(c(-c4c(F)c(F)c(F)c(F)c4F)c4ccc([nH]4)c(-c4c(F)c(F)c(F)c(F)c4F)c4nc(c(-c5c(F)c(F)c(F)c(F)c5F)c5ccc2[nH]5)C=C4)C=C3)cc1
REMARK SMILES IDX 19 1 18 2 16 3 17 4 15 6 13 7 14 8 10 9 11 10 12 11 9 12
REMARK SMILES IDX 3 13 4 14 5 15 8 16 6 17 7 18 2 19 1 20 20 21 21 22 22 23
REMARK SMILES IDX 23 24 24 25 25 27 26 28 27 29 88 30 28 31 87 32 29 33 30 34
REMARK SMILES IDX 31 35 81 36 32 37 86 38 80 39 82 40 33 41 85 42 79 43 78 44
REMARK SMILES IDX 34 46 66 47 46 48 65 49 47 50 50 51 64 52 83 53 48 54 49 55
REMARK SMILES IDX 63 57 84 58 51 59 35 60 36 61 44 62 37 63 38 64 42 65 45 66
REMARK SMILES IDX 39 67 40 68 43 69 41 70 67 71 68 72 76 73 69 74 70 75 74 76
REMARK SMILES IDX 77 77 71 78 72 79 75 80 73 81 52 82 53 83 61 84 54 85 55 86
REMARK SMILES IDX 59 87 62 88 56 89 57 90 60 91 58 92
REMARK H PARENT 18 5 23 26 82 45 50 56
REMARK Flexibility Score: inf
ROOT
ATOM      1  C   UNL A   1      35.670  20.695  25.298  1.00  0.00     0.116 C 
ENDROOT
BRANCH   1   2
ATOM      2  N   UNL A   1      34.348  20.110  25.377  1.00  0.00    -0.355 N 
ATOM      3  C   UNL A   1      33.177  20.460  24.763  1.00  0.00     0.235 C 
ATOM      4  O   UNL A   1      32.208  19.718  24.946  1.00  0.00    -0.274 OA
ATOM      5  H   UNL A   1      34.280  19.329  25.973  1.00  0.00     0.163 HD
BRANCH   3   6
ATOM      6  C   UNL A   1      33.076  21.683  23.849  1.00  0.00     0.202 C 
BRANCH   6   7
ATOM      7  N   UNL A   1      32.900  23.041  24.478  1.00  0.00    -0.191 NA
ATOM      8  C   UNL A   1      31.516  23.506  24.406  1.00  0.00     0.125 C 
BRANCH   7   9
ATOM      9  S   UNL A   1      34.200  24.087  24.155  1.00  0.00     0.247 S 
ATOM     10  O   UNL A   1      34.775  23.675  22.889  1.00  0.00    -0.207 OA
ATOM     11  O   UNL A   1      35.009  24.073  25.358  1.00  0.00    -0.207 OA
BRANCH   9  12
ATOM     12  C   UNL A   1      33.793  25.803  23.901  1.00  0.00     0.125 A 
ATOM     13  C   UNL A   1      33.652  26.504  22.704  1.00  0.00     0.138 A 
ATOM     14  C   UNL A   1      33.440  27.897  22.752  1.00  0.00     0.049 A 
ATOM     15  C   UNL A   1      33.406  28.592  23.963  1.00  0.00     0.019 A 
ATOM     16  C   UNL A   1      33.734  26.516  25.125  1.00  0.00     0.041 A 
ATOM     17  C   UNL A   1      33.551  27.894  25.150  1.00  0.00     0.019 A 
ATOM     18  Br  UNL A   1      33.516  28.815  26.798  1.00  0.00    -0.051 Br
BRANCH  13  19
ATOM     19  O   UNL A   1      33.654  25.873  21.497  1.00  0.00    -0.495 OA
ATOM     20  C   UNL A   1      32.357  25.644  20.932  1.00  0.00     0.278 C 
ENDBRANCH  13  19
ENDBRANCH   9  12
ENDBRANCH   7   9
ENDBRANCH   6   7
ENDBRANCH   3   6
ENDBRANCH   1   2
BRANCH   1  21
ATOM     21  C   UNL A   1      36.757  19.663  25.001  1.00  0.00     0.023 C 
BRANCH  21  22
ATOM     22  C   UNL A   1      38.144  20.227  24.702  1.00  0.00     0.023 C 
BRANCH  22  23
ATOM     23  C   UNL A   1      39.088  20.228  25.896  1.00  0.00     0.116 C 
BRANCH  23  24
ATOM     24  N   UNL A   1      40.122  19.204  25.817  1.00  0.00    -0.352 N 
ATOM     25  C   UNL A   1      41.476  19.320  26.011  1.00  0.00     0.251 C 
ATOM     26  H   UNL A   1      39.803  18.300  25.594  1.00  0.00     0.163 HD
ATOM     27  O   UNL A   1      42.207  18.352  25.825  1.00  0.00    -0.269 OA
BRANCH  25  28
ATOM     28  C   UNL A   1      42.057  20.626  26.388  1.00  0.00     0.039 A 
ATOM     29  C   UNL A   1      42.370  21.533  25.372  1.00  0.00     0.014 A 
ATOM     30  C   UNL A   1      42.263  20.972  27.726  1.00  0.00     0.014 A 
ATOM     31  C   UNL A   1      42.816  22.813  25.701  1.00  0.00     0.010 A 
ATOM     32  C   UNL A   1      42.635  22.270  28.056  1.00  0.00     0.010 A 
ATOM     33  C   UNL A   1      42.911  23.203  27.046  1.00  0.00    -0.014 A 
BRANCH  33  34
ATOM     34  C   UNL A   1      43.280  24.591  27.412  1.00  0.00     0.031 A 
ATOM     35  C   UNL A   1      44.713  25.034  27.360  1.00  0.00     0.074 A 
ATOM     36  C   UNL A   1      42.326  25.427  27.865  1.00  0.00     0.049 A 
ATOM     37  N   UNL A   1      45.230  26.196  27.670  1.00  0.00    -0.248 NA
ATOM     38  C   UNL A   1      45.701  24.030  26.939  1.00  0.00     0.031 C 
ATOM     39  C   UNL A   1      40.916  25.083  28.046  1.00  0.00     0.029 A 
ATOM     40  N   UNL A   1      42.404  26.737  28.263  1.00  0.00    -0.354 N 
ATOM     41  C   UNL A   1      46.601  26.054  27.508  1.00  0.00     0.074 A 
ATOM     42  C   UNL A   1      46.841  24.684  27.111  1.00  0.00     0.031 C 
ATOM     43  C   UNL A   1      40.255  26.163  28.495  1.00  0.00     0.029 A 
ATOM     44  C   UNL A   1      41.197  27.266  28.646  1.00  0.00     0.049 A 
ATOM     45  H   UNL A   1      43.245  27.249  28.273  1.00  0.00     0.167 HD
ATOM     46  C   UNL A   1      47.569  26.990  27.655  1.00  0.00     0.037 A 
ATOM     47  C   UNL A   1      40.886  28.508  29.060  1.00  0.00     0.037 A 
ATOM     48  C   UNL A   1      47.323  28.363  28.002  1.00  0.00     0.049 A 
ATOM     49  C   UNL A   1      41.964  29.553  29.122  1.00  0.00     0.074 A 
ATOM     50  C   UNL A   1      48.224  29.409  28.091  1.00  0.00     0.029 A 
ATOM     51  N   UNL A   1      46.074  28.884  28.312  1.00  0.00    -0.354 N 
ATOM     52  N   UNL A   1      43.245  29.431  28.879  1.00  0.00    -0.248 NA
ATOM     53  C   UNL A   1      41.548  30.910  29.498  1.00  0.00     0.031 C 
ATOM     54  C   UNL A   1      47.524  30.559  28.476  1.00  0.00     0.029 A 
ATOM     55  C   UNL A   1      46.183  30.235  28.598  1.00  0.00     0.049 A 
ATOM     56  H   UNL A   1      45.235  28.369  28.325  1.00  0.00     0.167 HD
ATOM     57  C   UNL A   1      43.788  30.695  29.058  1.00  0.00     0.074 A 
ATOM     58  C   UNL A   1      42.692  31.574  29.411  1.00  0.00     0.031 C 
ATOM     59  C   UNL A   1      45.079  31.092  28.946  1.00  0.00     0.037 A 
BRANCH  46  60
ATOM     60  C   UNL A   1      48.985  26.554  27.426  1.00  0.00     0.064 A 
ATOM     61  C   UNL A   1      49.832  26.229  28.496  1.00  0.00     0.173 A 
ATOM     62  C   UNL A   1      49.494  26.445  26.124  1.00  0.00     0.173 A 
ATOM     63  F   UNL A   1      49.395  26.334  29.759  1.00  0.00    -0.203 F 
ATOM     64  C   UNL A   1      51.150  25.837  28.272  1.00  0.00     0.198 A 
ATOM     65  C   UNL A   1      50.806  26.029  25.903  1.00  0.00     0.198 A 
ATOM     66  F   UNL A   1      48.723  26.743  25.069  1.00  0.00    -0.203 F 
ATOM     67  F   UNL A   1      51.955  25.578  29.310  1.00  0.00    -0.200 F 
ATOM     68  C   UNL A   1      51.632  25.732  26.976  1.00  0.00     0.200 A 
ATOM     69  F   UNL A   1      51.270  25.922  24.651  1.00  0.00    -0.200 F 
ATOM     70  F   UNL A   1      52.901  25.356  26.762  1.00  0.00    -0.200 F 
ENDBRANCH  46  60
BRANCH  47  71
ATOM     71  C   UNL A   1      39.478  28.844  29.385  1.00  0.00     0.064 A 
ATOM     72  C   UNL A   1      38.612  29.326  28.395  1.00  0.00     0.173 A 
ATOM     73  C   UNL A   1      38.970  28.675  30.680  1.00  0.00     0.173 A 
ATOM     74  F   UNL A   1      39.063  29.517  27.147  1.00  0.00    -0.203 F 
ATOM     75  C   UNL A   1      37.288  29.643  28.693  1.00  0.00     0.198 A 
ATOM     76  C   UNL A   1      37.640  28.976  30.971  1.00  0.00     0.198 A 
ATOM     77  F   UNL A   1      39.760  28.210  31.658  1.00  0.00    -0.203 F 
ATOM     78  F   UNL A   1      36.489  30.133  27.736  1.00  0.00    -0.200 F 
ATOM     79  C   UNL A   1      36.803  29.463  29.979  1.00  0.00     0.200 A 
ATOM     80  F   UNL A   1      37.170  28.791  32.213  1.00  0.00    -0.200 F 
ATOM     81  F   UNL A   1      35.529  29.765  30.263  1.00  0.00    -0.200 F 
ENDBRANCH  47  71
BRANCH  59  82
ATOM     82  C   UNL A   1      45.367  32.540  29.192  1.00  0.00     0.064 A 
ATOM     83  C   UNL A   1      45.279  33.487  28.162  1.00  0.00     0.173 A 
ATOM     84  C   UNL A   1      45.713  32.988  30.475  1.00  0.00     0.173 A 
ATOM     85  F   UNL A   1      44.966  33.101  26.916  1.00  0.00    -0.203 F 
ATOM     86  C   UNL A   1      45.550  34.830  28.403  1.00  0.00     0.198 A 
ATOM     87  C   UNL A   1      45.964  34.335  30.717  1.00  0.00     0.198 A 
ATOM     88  F   UNL A   1      45.808  32.119  31.493  1.00  0.00    -0.203 F 
ATOM     89  F   UNL A   1      45.502  35.713  27.395  1.00  0.00    -0.200 F 
ATOM     90  C   UNL A   1      45.889  35.253  29.681  1.00  0.00     0.200 A 
ATOM     91  F   UNL A   1      46.285  34.745  31.952  1.00  0.00    -0.200 F 
ATOM     92  F   UNL A   1      46.152  36.548  29.910  1.00  0.00    -0.200 F 
ENDBRANCH  59  82
ENDBRANCH  33  34
ENDBRANCH  25  28
ENDBRANCH  23  24
ENDBRANCH  22  23
ENDBRANCH  21  22
ENDBRANCH   1  21
TORSDOF 15
ENDMDL
