MODEL 1
REMARK VINA RESULT:     -13.6      0.000      0.000
REMARK SMILES CCn1nc(C(=O)NCCCCNC(=O)c2ccc(-c3c4nc(c(-c5c(F)c(F)c(F)c(F)c5F)c5ccc([nH]5)c(-c5c(F)c(F)c(F)c(F)c5F)c5nc(c(-c6c(F)c(F)c(F)c(F)c6F)c6ccc3[nH]6)C=C5)C=C4)cc2)c2c1CC[C@H]([NH2+]Cc1nn(CC)c3ccccc13)C2
REMARK SMILES IDX 9 1 8 2 6 3 7 4 5 6 3 7 4 8 80 9 79 10 81 11 97 12 82 13
REMARK SMILES IDX 83 14 2 15 1 16 84 17 85 20 86 21 87 22 96 23 88 24 91 25
REMARK SMILES IDX 95 26 92 27 94 28 93 29 89 30 90 31 10 32 11 33 12 34 13 35
REMARK SMILES IDX 14 36 15 38 16 39 17 40 78 41 18 42 77 43 19 44 20 45 21 46
REMARK SMILES IDX 71 47 22 48 76 49 70 50 72 51 23 52 75 53 69 54 68 55 24 57
REMARK SMILES IDX 56 58 36 59 55 60 37 61 40 62 54 63 73 64 38 65 39 66 53 68
REMARK SMILES IDX 74 69 41 70 25 71 26 72 34 73 27 74 28 75 32 76 35 77 29 78
REMARK SMILES IDX 30 79 33 80 31 81 57 82 58 83 66 84 59 85 60 86 64 87 67 88
REMARK SMILES IDX 61 89 62 90 65 91 63 92 42 93 43 94 51 95 44 96 45 97 49 98
REMARK SMILES IDX 52 99 46 100 47 101 50 102 48 103
REMARK H PARENT 8 5 84 18 84 19 13 37 72 56 40 67
REMARK Flexibility Score: inf
ROOT
ATOM      1  C   UNL A   1      34.183  29.943  26.916  1.00  0.00     0.116 C 
ENDROOT
BRANCH   1   2
ATOM      2  N   UNL A   1      33.158  29.122  27.596  1.00  0.00    -0.351 N 
ATOM      3  C   UNL A   1      32.081  28.314  27.127  1.00  0.00     0.272 C 
ATOM      4  O   UNL A   1      31.396  27.808  28.023  1.00  0.00    -0.267 OA
ATOM      5  H   UNL A   1      33.236  29.135  28.577  1.00  0.00     0.163 HD
BRANCH   3   6
ATOM      6  C   UNL A   1      31.753  28.021  25.678  1.00  0.00     0.153 A 
ATOM      7  N   UNL A   1      30.884  28.221  23.689  1.00  0.00    -0.269 N 
ATOM      8  N   UNL A   1      31.028  28.858  24.891  1.00  0.00    -0.167 NA
ATOM      9  C   UNL A   1      31.417  26.967  23.697  1.00  0.00     0.043 A 
ATOM     10  C   UNL A   1      31.990  26.853  24.928  1.00  0.00     0.012 A 
ATOM     11  C   UNL A   1      31.452  25.866  22.700  1.00  0.00     0.062 C 
ATOM     12  C   UNL A   1      32.605  25.632  25.364  1.00  0.00     0.105 C 
ATOM     13  C   UNL A   1      31.363  24.478  23.428  1.00  0.00     0.072 C 
ATOM     14  C   UNL A   1      32.128  24.325  24.787  1.00  0.00     0.187 C 
BRANCH   7  15
ATOM     15  C   UNL A   1      30.257  28.923  22.582  1.00  0.00     0.141 C 
ATOM     16  C   UNL A   1      28.748  29.008  22.750  1.00  0.00     0.029 C 
ENDBRANCH   7  15
BRANCH  14  17
ATOM     17  N   UNL A   1      31.408  23.556  25.850  1.00  0.00    -0.338 N 
ATOM     18  H   UNL A   1      30.512  24.012  26.016  1.00  0.00     0.346 HD
ATOM     19  H   UNL A   1      32.024  23.553  26.663  1.00  0.00     0.346 HD
BRANCH  17  20
ATOM     20  C   UNL A   1      31.140  22.107  25.526  1.00  0.00     0.320 C 
BRANCH  20  21
ATOM     21  C   UNL A   1      32.410  21.219  25.131  1.00  0.00     0.124 A 
ATOM     22  N   UNL A   1      33.590  21.485  25.733  1.00  0.00    -0.171 NA
ATOM     23  C   UNL A   1      32.628  20.055  24.225  1.00  0.00     0.029 A 
ATOM     24  N   UNL A   1      34.400  20.490  25.290  1.00  0.00    -0.265 N 
ATOM     25  C   UNL A   1      33.713  19.409  24.799  1.00  0.00     0.069 A 
ATOM     26  C   UNL A   1      32.172  19.394  23.052  1.00  0.00     0.012 A 
ATOM     27  C   UNL A   1      34.149  18.100  24.503  1.00  0.00     0.028 A 
ATOM     28  C   UNL A   1      32.653  18.137  22.635  1.00  0.00     0.001 A 
ATOM     29  C   UNL A   1      33.597  17.471  23.391  1.00  0.00     0.002 A 
BRANCH  24  30
ATOM     30  C   UNL A   1      35.797  20.713  24.934  1.00  0.00     0.141 C 
ATOM     31  C   UNL A   1      36.076  22.049  24.208  1.00  0.00     0.029 C 
ENDBRANCH  24  30
ENDBRANCH  20  21
ENDBRANCH  17  20
ENDBRANCH  14  17
ENDBRANCH   3   6
ENDBRANCH   1   2
BRANCH   1  32
ATOM     32  C   UNL A   1      35.441  30.514  27.628  1.00  0.00     0.023 C 
BRANCH  32  33
ATOM     33  C   UNL A   1      35.494  32.079  28.081  1.00  0.00     0.023 C 
BRANCH  33  34
ATOM     34  C   UNL A   1      34.316  32.856  28.785  1.00  0.00     0.116 C 
BRANCH  34  35
ATOM     35  N   UNL A   1      34.297  32.962  30.246  1.00  0.00    -0.352 N 
ATOM     36  C   UNL A   1      35.082  32.341  31.233  1.00  0.00     0.251 C 
ATOM     37  H   UNL A   1      33.614  33.578  30.599  1.00  0.00     0.163 HD
ATOM     38  O   UNL A   1      34.698  32.409  32.391  1.00  0.00    -0.269 OA
BRANCH  36  39
ATOM     39  C   UNL A   1      36.393  31.640  30.979  1.00  0.00     0.039 A 
ATOM     40  C   UNL A   1      37.554  32.334  30.617  1.00  0.00     0.014 A 
ATOM     41  C   UNL A   1      36.466  30.260  30.923  1.00  0.00     0.014 A 
ATOM     42  C   UNL A   1      38.737  31.636  30.277  1.00  0.00     0.010 A 
ATOM     43  C   UNL A   1      37.612  29.548  30.565  1.00  0.00     0.010 A 
ATOM     44  C   UNL A   1      38.770  30.228  30.246  1.00  0.00    -0.014 A 
BRANCH  44  45
ATOM     45  C   UNL A   1      40.046  29.486  30.152  1.00  0.00     0.031 A 
ATOM     46  C   UNL A   1      40.680  29.253  31.482  1.00  0.00     0.074 A 
ATOM     47  C   UNL A   1      40.543  28.819  29.081  1.00  0.00     0.049 A 
ATOM     48  N   UNL A   1      41.826  29.676  31.902  1.00  0.00    -0.248 NA
ATOM     49  C   UNL A   1      39.900  28.544  32.509  1.00  0.00     0.031 C 
ATOM     50  C   UNL A   1      39.912  28.617  27.773  1.00  0.00     0.029 A 
ATOM     51  N   UNL A   1      41.705  28.089  28.963  1.00  0.00    -0.354 N 
ATOM     52  C   UNL A   1      41.992  29.150  33.181  1.00  0.00     0.074 A 
ATOM     53  C   UNL A   1      40.724  28.586  33.556  1.00  0.00     0.031 C 
ATOM     54  C   UNL A   1      40.594  27.679  27.074  1.00  0.00     0.029 A 
ATOM     55  C   UNL A   1      41.787  27.300  27.814  1.00  0.00     0.049 A 
ATOM     56  H   UNL A   1      42.423  28.122  29.636  1.00  0.00     0.167 HD
ATOM     57  C   UNL A   1      43.234  29.028  33.724  1.00  0.00     0.037 A 
ATOM     58  C   UNL A   1      42.748  26.392  27.489  1.00  0.00     0.037 A 
ATOM     59  C   UNL A   1      44.183  29.857  33.023  1.00  0.00     0.049 A 
ATOM     60  C   UNL A   1      43.946  26.706  28.296  1.00  0.00     0.074 A 
ATOM     61  C   UNL A   1      44.311  31.208  32.768  1.00  0.00     0.029 A 
ATOM     62  N   UNL A   1      45.023  29.227  32.143  1.00  0.00    -0.354 N 
ATOM     63  N   UNL A   1      44.702  27.748  28.113  1.00  0.00    -0.248 NA
ATOM     64  C   UNL A   1      44.132  26.010  29.559  1.00  0.00     0.031 C 
ATOM     65  C   UNL A   1      44.874  31.289  31.458  1.00  0.00     0.029 A 
ATOM     66  C   UNL A   1      45.114  29.989  31.012  1.00  0.00     0.049 A 
ATOM     67  H   UNL A   1      45.482  28.370  32.298  1.00  0.00     0.167 HD
ATOM     68  C   UNL A   1      45.092  28.111  29.388  1.00  0.00     0.074 A 
ATOM     69  C   UNL A   1      44.846  26.931  30.209  1.00  0.00     0.031 C 
ATOM     70  C   UNL A   1      45.290  29.425  29.696  1.00  0.00     0.037 A 
BRANCH  57  71
ATOM     71  C   UNL A   1      43.688  27.857  34.576  1.00  0.00     0.064 A 
ATOM     72  C   UNL A   1      43.558  26.551  34.052  1.00  0.00     0.173 A 
ATOM     73  C   UNL A   1      43.905  27.927  35.969  1.00  0.00     0.173 A 
ATOM     74  F   UNL A   1      43.349  26.358  32.741  1.00  0.00    -0.203 F 
ATOM     75  C   UNL A   1      43.518  25.422  34.875  1.00  0.00     0.198 A 
ATOM     76  C   UNL A   1      43.917  26.792  36.780  1.00  0.00     0.198 A 
ATOM     77  F   UNL A   1      44.001  29.089  36.624  1.00  0.00    -0.203 F 
ATOM     78  F   UNL A   1      43.233  24.224  34.347  1.00  0.00    -0.200 F 
ATOM     79  C   UNL A   1      43.684  25.546  36.241  1.00  0.00     0.200 A 
ATOM     80  F   UNL A   1      44.067  26.933  38.105  1.00  0.00    -0.200 F 
ATOM     81  F   UNL A   1      43.568  24.478  37.041  1.00  0.00    -0.200 F 
ENDBRANCH  57  71
BRANCH  58  82
ATOM     82  C   UNL A   1      42.695  25.147  26.675  1.00  0.00     0.064 A 
ATOM     83  C   UNL A   1      43.520  24.974  25.544  1.00  0.00     0.173 A 
ATOM     84  C   UNL A   1      42.073  23.986  27.167  1.00  0.00     0.173 A 
ATOM     85  F   UNL A   1      44.186  26.015  25.024  1.00  0.00    -0.203 F 
ATOM     86  C   UNL A   1      43.745  23.714  24.976  1.00  0.00     0.198 A 
ATOM     87  C   UNL A   1      42.292  22.729  26.594  1.00  0.00     0.198 A 
ATOM     88  F   UNL A   1      41.325  24.030  28.278  1.00  0.00    -0.203 F 
ATOM     89  F   UNL A   1      44.602  23.582  23.953  1.00  0.00    -0.200 F 
ATOM     90  C   UNL A   1      43.142  22.590  25.512  1.00  0.00     0.200 A 
ATOM     91  F   UNL A   1      41.734  21.643  27.146  1.00  0.00    -0.200 F 
ATOM     92  F   UNL A   1      43.416  21.373  25.020  1.00  0.00    -0.200 F 
ENDBRANCH  58  82
BRANCH  70  93
ATOM     93  C   UNL A   1      45.489  30.386  28.559  1.00  0.00     0.064 A 
ATOM     94  C   UNL A   1      44.453  30.996  27.830  1.00  0.00     0.173 A 
ATOM     95  C   UNL A   1      46.803  30.778  28.266  1.00  0.00     0.173 A 
ATOM     96  F   UNL A   1      43.167  30.749  28.110  1.00  0.00    -0.203 F 
ATOM     97  C   UNL A   1      44.730  31.918  26.822  1.00  0.00     0.198 A 
ATOM     98  C   UNL A   1      47.072  31.730  27.290  1.00  0.00     0.198 A 
ATOM     99  F   UNL A   1      47.830  30.260  28.959  1.00  0.00    -0.203 F 
ATOM    100  F   UNL A   1      43.728  32.470  26.121  1.00  0.00    -0.200 F 
ATOM    101  C   UNL A   1      46.038  32.291  26.559  1.00  0.00     0.200 A 
ATOM    102  F   UNL A   1      48.336  32.120  27.072  1.00  0.00    -0.200 F 
ATOM    103  F   UNL A   1      46.302  33.206  25.616  1.00  0.00    -0.200 F 
ENDBRANCH  70  93
ENDBRANCH  44  45
ENDBRANCH  36  39
ENDBRANCH  34  35
ENDBRANCH  33  34
ENDBRANCH  32  33
ENDBRANCH   1  32
TORSDOF 16
ENDMDL
MODEL 2
REMARK VINA RESULT:     -13.5      3.385      9.313
REMARK SMILES CCn1nc(C(=O)NCCCCNC(=O)c2ccc(-c3c4nc(c(-c5c(F)c(F)c(F)c(F)c5F)c5ccc([nH]5)c(-c5c(F)c(F)c(F)c(F)c5F)c5nc(c(-c6c(F)c(F)c(F)c(F)c6F)c6ccc3[nH]6)C=C5)C=C4)cc2)c2c1CC[C@H]([NH2+]Cc1nn(CC)c3ccccc13)C2
REMARK SMILES IDX 9 1 8 2 6 3 7 4 5 6 3 7 4 8 80 9 79 10 81 11 97 12 82 13
REMARK SMILES IDX 83 14 2 15 1 16 84 17 85 20 86 21 87 22 96 23 88 24 91 25
REMARK SMILES IDX 95 26 92 27 94 28 93 29 89 30 90 31 10 32 11 33 12 34 13 35
REMARK SMILES IDX 14 36 15 38 16 39 17 40 78 41 18 42 77 43 19 44 20 45 21 46
REMARK SMILES IDX 71 47 22 48 76 49 70 50 72 51 23 52 75 53 69 54 68 55 24 57
REMARK SMILES IDX 56 58 36 59 55 60 37 61 40 62 54 63 73 64 38 65 39 66 53 68
REMARK SMILES IDX 74 69 41 70 25 71 26 72 34 73 27 74 28 75 32 76 35 77 29 78
REMARK SMILES IDX 30 79 33 80 31 81 57 82 58 83 66 84 59 85 60 86 64 87 67 88
REMARK SMILES IDX 61 89 62 90 65 91 63 92 42 93 43 94 51 95 44 96 45 97 49 98
REMARK SMILES IDX 52 99 46 100 47 101 50 102 48 103
REMARK H PARENT 8 5 84 18 84 19 13 37 72 56 40 67
REMARK Flexibility Score: inf
ROOT
ATOM      1  C   UNL A   1      37.925  22.307  25.812  1.00  0.00     0.116 C 
ENDROOT
BRANCH   1   2
ATOM      2  N   UNL A   1      37.451  22.742  24.480  1.00  0.00    -0.351 N 
ATOM      3  C   UNL A   1      36.197  22.649  23.808  1.00  0.00     0.272 C 
ATOM      4  O   UNL A   1      36.202  23.096  22.655  1.00  0.00    -0.267 OA
ATOM      5  H   UNL A   1      38.146  23.190  23.946  1.00  0.00     0.163 HD
BRANCH   3   6
ATOM      6  C   UNL A   1      34.913  22.097  24.391  1.00  0.00     0.153 A 
ATOM      7  N   UNL A   1      33.419  20.665  25.076  1.00  0.00    -0.269 N 
ATOM      8  N   UNL A   1      34.704  20.774  24.620  1.00  0.00    -0.167 NA
ATOM      9  C   UNL A   1      32.762  21.858  25.069  1.00  0.00     0.043 A 
ATOM     10  C   UNL A   1      33.704  22.759  24.675  1.00  0.00     0.012 A 
ATOM     11  C   UNL A   1      31.364  22.255  25.383  1.00  0.00     0.062 C 
ATOM     12  C   UNL A   1      33.384  24.143  24.469  1.00  0.00     0.105 C 
ATOM     13  C   UNL A   1      30.914  23.426  24.438  1.00  0.00     0.072 C 
ATOM     14  C   UNL A   1      31.977  24.522  24.089  1.00  0.00     0.187 C 
BRANCH   7  15
ATOM     15  C   UNL A   1      32.933  19.374  25.535  1.00  0.00     0.141 C 
ATOM     16  C   UNL A   1      32.528  18.479  24.374  1.00  0.00     0.029 C 
ENDBRANCH   7  15
BRANCH  14  17
ATOM     17  N   UNL A   1      31.966  25.003  22.672  1.00  0.00    -0.338 N 
ATOM     18  H   UNL A   1      31.002  24.992  22.343  1.00  0.00     0.346 HD
ATOM     19  H   UNL A   1      32.582  24.375  22.155  1.00  0.00     0.346 HD
BRANCH  17  20
ATOM     20  C   UNL A   1      32.515  26.391  22.459  1.00  0.00     0.320 C 
BRANCH  20  21
ATOM     21  C   UNL A   1      31.771  27.577  23.231  1.00  0.00     0.124 A 
ATOM     22  N   UNL A   1      32.508  28.392  24.018  1.00  0.00    -0.171 NA
ATOM     23  C   UNL A   1      30.365  28.074  23.275  1.00  0.00     0.029 A 
ATOM     24  N   UNL A   1      31.620  29.346  24.401  1.00  0.00    -0.265 N 
ATOM     25  C   UNL A   1      30.515  29.416  23.592  1.00  0.00     0.069 A 
ATOM     26  C   UNL A   1      28.999  27.709  23.128  1.00  0.00     0.012 A 
ATOM     27  C   UNL A   1      29.520  30.409  23.480  1.00  0.00     0.028 A 
ATOM     28  C   UNL A   1      27.944  28.643  23.125  1.00  0.00     0.001 A 
ATOM     29  C   UNL A   1      28.213  29.992  23.245  1.00  0.00     0.002 A 
BRANCH  24  30
ATOM     30  C   UNL A   1      31.596  29.899  25.751  1.00  0.00     0.141 C 
ATOM     31  C   UNL A   1      31.780  28.861  26.881  1.00  0.00     0.029 C 
ENDBRANCH  24  30
ENDBRANCH  20  21
ENDBRANCH  17  20
ENDBRANCH  14  17
ENDBRANCH   3   6
ENDBRANCH   1   2
BRANCH   1  32
ATOM     32  C   UNL A   1      39.304  21.634  26.057  1.00  0.00     0.023 C 
BRANCH  32  33
ATOM     33  C   UNL A   1      40.288  22.176  27.237  1.00  0.00     0.023 C 
BRANCH  33  34
ATOM     34  C   UNL A   1      41.837  21.895  27.322  1.00  0.00     0.116 C 
BRANCH  34  35
ATOM     35  N   UNL A   1      42.702  22.286  26.207  1.00  0.00    -0.352 N 
ATOM     36  C   UNL A   1      42.965  23.542  25.632  1.00  0.00     0.251 C 
ATOM     37  H   UNL A   1      43.185  21.538  25.786  1.00  0.00     0.163 HD
ATOM     38  O   UNL A   1      43.531  23.565  24.550  1.00  0.00    -0.269 OA
BRANCH  36  39
ATOM     39  C   UNL A   1      42.646  24.870  26.274  1.00  0.00     0.039 A 
ATOM     40  C   UNL A   1      41.705  25.754  25.733  1.00  0.00     0.014 A 
ATOM     41  C   UNL A   1      43.396  25.351  27.331  1.00  0.00     0.014 A 
ATOM     42  C   UNL A   1      41.512  27.038  26.296  1.00  0.00     0.010 A 
ATOM     43  C   UNL A   1      43.245  26.621  27.888  1.00  0.00     0.010 A 
ATOM     44  C   UNL A   1      42.290  27.481  27.384  1.00  0.00    -0.014 A 
BRANCH  44  45
ATOM     45  C   UNL A   1      41.931  28.697  28.146  1.00  0.00     0.031 A 
ATOM     46  C   UNL A   1      42.906  29.809  27.953  1.00  0.00     0.074 A 
ATOM     47  C   UNL A   1      40.754  28.976  28.761  1.00  0.00     0.049 A 
ATOM     48  N   UNL A   1      43.645  30.381  28.845  1.00  0.00    -0.248 NA
ATOM     49  C   UNL A   1      43.163  30.279  26.583  1.00  0.00     0.031 C 
ATOM     50  C   UNL A   1      39.530  28.171  28.772  1.00  0.00     0.029 A 
ATOM     51  N   UNL A   1      40.370  30.106  29.448  1.00  0.00    -0.354 N 
ATOM     52  C   UNL A   1      44.338  31.395  28.186  1.00  0.00     0.074 A 
ATOM     53  C   UNL A   1      44.112  31.194  26.781  1.00  0.00     0.031 C 
ATOM     54  C   UNL A   1      38.501  28.906  29.256  1.00  0.00     0.029 A 
ATOM     55  C   UNL A   1      39.003  30.189  29.718  1.00  0.00     0.049 A 
ATOM     56  H   UNL A   1      41.009  30.801  29.727  1.00  0.00     0.167 HD
ATOM     57  C   UNL A   1      44.851  32.448  28.880  1.00  0.00     0.037 A 
ATOM     58  C   UNL A   1      38.320  31.231  30.268  1.00  0.00     0.037 A 
ATOM     59  C   UNL A   1      44.944  32.138  30.286  1.00  0.00     0.049 A 
ATOM     60  C   UNL A   1      39.301  32.077  30.982  1.00  0.00     0.074 A 
ATOM     61  C   UNL A   1      45.593  31.185  31.043  1.00  0.00     0.029 A 
ATOM     62  N   UNL A   1      43.984  32.678  31.101  1.00  0.00    -0.354 N 
ATOM     63  N   UNL A   1      39.901  31.735  32.084  1.00  0.00    -0.248 NA
ATOM     64  C   UNL A   1      39.879  33.210  30.278  1.00  0.00     0.031 C 
ATOM     65  C   UNL A   1      44.701  30.890  32.118  1.00  0.00     0.029 A 
ATOM     66  C   UNL A   1      43.587  31.721  31.992  1.00  0.00     0.049 A 
ATOM     67  H   UNL A   1      43.639  33.599  31.054  1.00  0.00     0.167 HD
ATOM     68  C   UNL A   1      41.167  32.275  31.961  1.00  0.00     0.074 A 
ATOM     69  C   UNL A   1      41.046  33.290  30.920  1.00  0.00     0.031 C 
ATOM     70  C   UNL A   1      42.241  31.633  32.504  1.00  0.00     0.037 A 
BRANCH  57  71
ATOM     71  C   UNL A   1      44.854  33.883  28.386  1.00  0.00     0.064 A 
ATOM     72  C   UNL A   1      46.072  34.599  28.400  1.00  0.00     0.173 A 
ATOM     73  C   UNL A   1      43.693  34.673  28.242  1.00  0.00     0.173 A 
ATOM     74  F   UNL A   1      47.242  33.956  28.532  1.00  0.00    -0.203 F 
ATOM     75  C   UNL A   1      46.110  35.996  28.400  1.00  0.00     0.198 A 
ATOM     76  C   UNL A   1      43.741  36.066  28.189  1.00  0.00     0.198 A 
ATOM     77  F   UNL A   1      42.462  34.152  28.258  1.00  0.00    -0.203 F 
ATOM     78  F   UNL A   1      47.278  36.629  28.575  1.00  0.00    -0.200 F 
ATOM     79  C   UNL A   1      44.943  36.729  28.309  1.00  0.00     0.200 A 
ATOM     80  F   UNL A   1      42.596  36.761  28.112  1.00  0.00    -0.200 F 
ATOM     81  F   UNL A   1      44.969  38.066  28.387  1.00  0.00    -0.200 F 
ENDBRANCH  57  71
BRANCH  58  82
ATOM     82  C   UNL A   1      36.915  31.691  30.097  1.00  0.00     0.064 A 
ATOM     83  C   UNL A   1      36.066  31.886  31.207  1.00  0.00     0.173 A 
ATOM     84  C   UNL A   1      36.478  32.249  28.883  1.00  0.00     0.173 A 
ATOM     85  F   UNL A   1      36.415  31.425  32.418  1.00  0.00    -0.203 F 
ATOM     86  C   UNL A   1      34.885  32.631  31.116  1.00  0.00     0.198 A 
ATOM     87  C   UNL A   1      35.293  32.986  28.791  1.00  0.00     0.198 A 
ATOM     88  F   UNL A   1      37.243  32.179  27.785  1.00  0.00    -0.203 F 
ATOM     89  F   UNL A   1      34.150  32.863  32.214  1.00  0.00    -0.200 F 
ATOM     90  C   UNL A   1      34.507  33.194  29.909  1.00  0.00     0.200 A 
ATOM     91  F   UNL A   1      34.958  33.559  27.626  1.00  0.00    -0.200 F 
ATOM     92  F   UNL A   1      33.418  33.973  29.835  1.00  0.00    -0.200 F 
ENDBRANCH  58  82
BRANCH  70  93
ATOM     93  C   UNL A   1      41.975  30.602  33.563  1.00  0.00     0.064 A 
ATOM     94  C   UNL A   1      41.644  29.258  33.312  1.00  0.00     0.173 A 
ATOM     95  C   UNL A   1      42.167  30.982  34.899  1.00  0.00     0.173 A 
ATOM     96  F   UNL A   1      41.535  28.791  32.063  1.00  0.00    -0.203 F 
ATOM     97  C   UNL A   1      41.465  28.356  34.360  1.00  0.00     0.198 A 
ATOM     98  C   UNL A   1      42.030  30.068  35.937  1.00  0.00     0.198 A 
ATOM     99  F   UNL A   1      42.526  32.242  35.195  1.00  0.00    -0.203 F 
ATOM    100  F   UNL A   1      41.124  27.084  34.101  1.00  0.00    -0.200 F 
ATOM    101  C   UNL A   1      41.667  28.759  35.669  1.00  0.00     0.200 A 
ATOM    102  F   UNL A   1      42.272  30.454  37.198  1.00  0.00    -0.200 F 
ATOM    103  F   UNL A   1      41.533  27.881  36.674  1.00  0.00    -0.200 F 
ENDBRANCH  70  93
ENDBRANCH  44  45
ENDBRANCH  36  39
ENDBRANCH  34  35
ENDBRANCH  33  34
ENDBRANCH  32  33
ENDBRANCH   1  32
TORSDOF 16
ENDMDL
MODEL 3
REMARK VINA RESULT:     -13.5      3.077      9.197
REMARK SMILES CCn1nc(C(=O)NCCCCNC(=O)c2ccc(-c3c4nc(c(-c5c(F)c(F)c(F)c(F)c5F)c5ccc([nH]5)c(-c5c(F)c(F)c(F)c(F)c5F)c5nc(c(-c6c(F)c(F)c(F)c(F)c6F)c6ccc3[nH]6)C=C5)C=C4)cc2)c2c1CC[C@H]([NH2+]Cc1nn(CC)c3ccccc13)C2
REMARK SMILES IDX 9 1 8 2 6 3 7 4 5 6 3 7 4 8 80 9 79 10 81 11 97 12 82 13
REMARK SMILES IDX 83 14 2 15 1 16 84 17 85 20 86 21 87 22 96 23 88 24 91 25
REMARK SMILES IDX 95 26 92 27 94 28 93 29 89 30 90 31 10 32 11 33 12 34 13 35
REMARK SMILES IDX 14 36 15 38 16 39 17 40 78 41 18 42 77 43 19 44 20 45 21 46
REMARK SMILES IDX 71 47 22 48 76 49 70 50 72 51 23 52 75 53 69 54 68 55 24 57
REMARK SMILES IDX 56 58 36 59 55 60 37 61 40 62 54 63 73 64 38 65 39 66 53 68
REMARK SMILES IDX 74 69 41 70 25 71 26 72 34 73 27 74 28 75 32 76 35 77 29 78
REMARK SMILES IDX 30 79 33 80 31 81 57 82 58 83 66 84 59 85 60 86 64 87 67 88
REMARK SMILES IDX 61 89 62 90 65 91 63 92 42 93 43 94 51 95 44 96 45 97 49 98
REMARK SMILES IDX 52 99 46 100 47 101 50 102 48 103
REMARK H PARENT 8 5 84 18 84 19 13 37 72 56 40 67
REMARK Flexibility Score: inf
ROOT
ATOM      1  C   UNL A   1      39.095  21.075  25.759  1.00  0.00     0.116 C 
ENDROOT
BRANCH   1   2
ATOM      2  N   UNL A   1      38.466  22.392  26.000  1.00  0.00    -0.351 N 
ATOM      3  C   UNL A   1      37.142  22.893  25.822  1.00  0.00     0.272 C 
ATOM      4  O   UNL A   1      37.010  24.091  26.097  1.00  0.00    -0.267 OA
ATOM      5  H   UNL A   1      39.091  23.063  26.358  1.00  0.00     0.163 HD
BRANCH   3   6
ATOM      6  C   UNL A   1      35.940  22.090  25.374  1.00  0.00     0.153 A 
ATOM      7  N   UNL A   1      34.725  20.397  24.734  1.00  0.00    -0.269 N 
ATOM      8  N   UNL A   1      35.959  20.741  25.211  1.00  0.00    -0.167 NA
ATOM      9  C   UNL A   1      33.936  21.483  24.501  1.00  0.00     0.043 A 
ATOM     10  C   UNL A   1      34.680  22.539  24.933  1.00  0.00     0.012 A 
ATOM     11  C   UNL A   1      32.577  21.653  23.924  1.00  0.00     0.062 C 
ATOM     12  C   UNL A   1      34.224  23.892  24.791  1.00  0.00     0.105 C 
ATOM     13  C   UNL A   1      32.505  22.989  23.103  1.00  0.00     0.072 C 
ATOM     14  C   UNL A   1      33.270  24.231  23.676  1.00  0.00     0.187 C 
BRANCH   7  15
ATOM     15  C   UNL A   1      34.388  18.992  24.577  1.00  0.00     0.141 C 
ATOM     16  C   UNL A   1      35.606  18.097  24.751  1.00  0.00     0.029 C 
ENDBRANCH   7  15
BRANCH  14  17
ATOM     17  N   UNL A   1      33.981  25.074  22.664  1.00  0.00    -0.338 N 
ATOM     18  H   UNL A   1      34.262  24.470  21.892  1.00  0.00     0.346 HD
ATOM     19  H   UNL A   1      34.765  25.503  23.155  1.00  0.00     0.346 HD
BRANCH  17  20
ATOM     20  C   UNL A   1      33.173  26.213  22.093  1.00  0.00     0.320 C 
BRANCH  20  21
ATOM     21  C   UNL A   1      32.513  27.216  23.149  1.00  0.00     0.124 A 
ATOM     22  N   UNL A   1      31.315  27.765  22.849  1.00  0.00    -0.171 NA
ATOM     23  C   UNL A   1      32.897  27.707  24.504  1.00  0.00     0.029 A 
ATOM     24  N   UNL A   1      30.984  28.435  23.983  1.00  0.00    -0.265 N 
ATOM     25  C   UNL A   1      31.675  28.007  25.088  1.00  0.00     0.069 A 
ATOM     26  C   UNL A   1      33.986  27.974  25.377  1.00  0.00     0.012 A 
ATOM     27  C   UNL A   1      31.449  28.240  26.460  1.00  0.00     0.028 A 
ATOM     28  C   UNL A   1      33.825  28.328  26.732  1.00  0.00     0.001 A 
ATOM     29  C   UNL A   1      32.561  28.405  27.281  1.00  0.00     0.002 A 
BRANCH  24  30
ATOM     30  C   UNL A   1      30.341  29.744  23.963  1.00  0.00     0.141 C 
ATOM     31  C   UNL A   1      28.985  29.790  23.222  1.00  0.00     0.029 C 
ENDBRANCH  24  30
ENDBRANCH  20  21
ENDBRANCH  17  20
ENDBRANCH  14  17
ENDBRANCH   3   6
ENDBRANCH   1   2
BRANCH   1  32
ATOM     32  C   UNL A   1      40.405  20.607  26.451  1.00  0.00     0.023 C 
BRANCH  32  33
ATOM     33  C   UNL A   1      41.154  19.245  25.963  1.00  0.00     0.023 C 
BRANCH  33  34
ATOM     34  C   UNL A   1      42.636  18.848  26.328  1.00  0.00     0.116 C 
BRANCH  34  35
ATOM     35  N   UNL A   1      43.709  19.113  25.368  1.00  0.00    -0.352 N 
ATOM     36  C   UNL A   1      44.223  20.319  24.859  1.00  0.00     0.251 C 
ATOM     37  H   UNL A   1      44.150  18.305  25.018  1.00  0.00     0.163 HD
ATOM     38  O   UNL A   1      44.951  20.259  23.879  1.00  0.00    -0.269 OA
BRANCH  36  39
ATOM     39  C   UNL A   1      43.985  21.682  25.460  1.00  0.00     0.039 A 
ATOM     40  C   UNL A   1      43.018  22.561  24.959  1.00  0.00     0.014 A 
ATOM     41  C   UNL A   1      44.832  22.195  26.426  1.00  0.00     0.014 A 
ATOM     42  C   UNL A   1      42.897  23.874  25.475  1.00  0.00     0.010 A 
ATOM     43  C   UNL A   1      44.753  23.493  26.932  1.00  0.00     0.010 A 
ATOM     44  C   UNL A   1      43.774  24.350  26.469  1.00  0.00    -0.014 A 
BRANCH  44  45
ATOM     45  C   UNL A   1      43.504  25.607  27.199  1.00  0.00     0.031 A 
ATOM     46  C   UNL A   1      44.449  26.702  26.835  1.00  0.00     0.074 A 
ATOM     47  C   UNL A   1      42.406  25.926  27.930  1.00  0.00     0.049 A 
ATOM     48  N   UNL A   1      45.286  27.318  27.602  1.00  0.00    -0.248 NA
ATOM     49  C   UNL A   1      44.546  27.095  25.420  1.00  0.00     0.031 C 
ATOM     50  C   UNL A   1      41.192  25.129  28.126  1.00  0.00     0.029 A 
ATOM     51  N   UNL A   1      42.103  27.094  28.594  1.00  0.00    -0.354 N 
ATOM     52  C   UNL A   1      45.897  28.290  26.813  1.00  0.00     0.074 A 
ATOM     53  C   UNL A   1      45.511  28.014  25.456  1.00  0.00     0.031 C 
ATOM     54  C   UNL A   1      40.225  25.895  28.685  1.00  0.00     0.029 A 
ATOM     55  C   UNL A   1      40.776  27.199  29.015  1.00  0.00     0.049 A 
ATOM     56  H   UNL A   1      42.769  27.800  28.758  1.00  0.00     0.167 HD
ATOM     57  C   UNL A   1      46.486  29.377  27.384  1.00  0.00     0.037 A 
ATOM     58  C   UNL A   1      40.161  28.274  29.581  1.00  0.00     0.037 A 
ATOM     59  C   UNL A   1      46.741  29.145  28.784  1.00  0.00     0.049 A 
ATOM     60  C   UNL A   1      41.216  29.152  30.129  1.00  0.00     0.074 A 
ATOM     61  C   UNL A   1      47.475  28.231  29.513  1.00  0.00     0.029 A 
ATOM     62  N   UNL A   1      45.882  29.733  29.674  1.00  0.00    -0.354 N 
ATOM     63  N   UNL A   1      41.939  28.868  31.172  1.00  0.00    -0.248 NA
ATOM     64  C   UNL A   1      41.708  30.242  29.302  1.00  0.00     0.031 C 
ATOM     65  C   UNL A   1      46.713  28.000  30.698  1.00  0.00     0.029 A 
ATOM     66  C   UNL A   1      45.591  28.828  30.656  1.00  0.00     0.049 A 
ATOM     67  H   UNL A   1      45.532  30.652  29.616  1.00  0.00     0.167 HD
ATOM     68  C   UNL A   1      43.183  29.393  30.874  1.00  0.00     0.074 A 
ATOM     69  C   UNL A   1      42.941  30.350  29.800  1.00  0.00     0.031 C 
ATOM     70  C   UNL A   1      44.313  28.776  31.324  1.00  0.00     0.037 A 
BRANCH  57  71
ATOM     71  C   UNL A   1      46.430  30.783  26.814  1.00  0.00     0.064 A 
ATOM     72  C   UNL A   1      47.605  31.568  26.839  1.00  0.00     0.173 A 
ATOM     73  C   UNL A   1      45.235  31.496  26.582  1.00  0.00     0.173 A 
ATOM     74  F   UNL A   1      48.802  31.001  27.052  1.00  0.00    -0.203 F 
ATOM     75  C   UNL A   1      47.566  32.963  26.765  1.00  0.00     0.198 A 
ATOM     76  C   UNL A   1      45.207  32.885  26.457  1.00  0.00     0.198 A 
ATOM     77  F   UNL A   1      44.035  30.906  26.577  1.00  0.00    -0.203 F 
ATOM     78  F   UNL A   1      48.688  33.670  26.953  1.00  0.00    -0.200 F 
ATOM     79  C   UNL A   1      46.365  33.621  26.589  1.00  0.00     0.200 A 
ATOM     80  F   UNL A   1      44.030  33.508  26.298  1.00  0.00    -0.200 F 
ATOM     81  F   UNL A   1      46.313  34.960  26.597  1.00  0.00    -0.200 F 
ENDBRANCH  57  71
BRANCH  58  82
ATOM     82  C   UNL A   1      38.744  28.731  29.549  1.00  0.00     0.064 A 
ATOM     83  C   UNL A   1      38.015  28.946  30.737  1.00  0.00     0.173 A 
ATOM     84  C   UNL A   1      38.183  29.268  28.377  1.00  0.00     0.173 A 
ATOM     85  F   UNL A   1      38.487  28.505  31.913  1.00  0.00    -0.203 F 
ATOM     86  C   UNL A   1      36.829  29.689  30.755  1.00  0.00     0.198 A 
ATOM     87  C   UNL A   1      36.994  30.003  28.395  1.00  0.00     0.198 A 
ATOM     88  F   UNL A   1      38.831  29.179  27.207  1.00  0.00    -0.203 F 
ATOM     89  F   UNL A   1      36.211  29.940  31.919  1.00  0.00    -0.200 F 
ATOM     90  C   UNL A   1      36.328  30.231  29.585  1.00  0.00     0.200 A 
ATOM     91  F   UNL A   1      36.539  30.556  27.262  1.00  0.00    -0.200 F 
ATOM     92  F   UNL A   1      35.236  31.009  29.610  1.00  0.00    -0.200 F 
ENDBRANCH  58  82
BRANCH  70  93
ATOM     93  C   UNL A   1      44.172  27.806  32.462  1.00  0.00     0.064 A 
ATOM     94  C   UNL A   1      44.015  26.416  32.319  1.00  0.00     0.173 A 
ATOM     95  C   UNL A   1      44.306  28.312  33.763  1.00  0.00     0.173 A 
ATOM     96  F   UNL A   1      43.973  25.842  31.110  1.00  0.00    -0.203 F 
ATOM     97  C   UNL A   1      43.944  25.584  33.435  1.00  0.00     0.198 A 
ATOM     98  C   UNL A   1      44.279  27.472  34.870  1.00  0.00     0.198 A 
ATOM     99  F   UNL A   1      44.502  29.626  33.957  1.00  0.00    -0.203 F 
ATOM    100  F   UNL A   1      43.767  24.263  33.278  1.00  0.00    -0.200 F 
ATOM    101  C   UNL A   1      44.085  26.111  34.708  1.00  0.00     0.200 A 
ATOM    102  F   UNL A   1      44.462  27.983  36.096  1.00  0.00    -0.200 F 
ATOM    103  F   UNL A   1      44.056  25.305  35.779  1.00  0.00    -0.200 F 
ENDBRANCH  70  93
ENDBRANCH  44  45
ENDBRANCH  36  39
ENDBRANCH  34  35
ENDBRANCH  33  34
ENDBRANCH  32  33
ENDBRANCH   1  32
TORSDOF 16
ENDMDL
