MODEL 1
REMARK VINA RESULT:     -13.3      0.000      0.000
REMARK SMILES O=C1NC(=O)/C(=C/c2ccc(OCc3cn(-c4ccc(C(=O)NCCCCNC(=O)c5ccc(-c6c7nc(c(-c8c(F)c(F)c(F)c(F)c8F)c8ccc([nH]8)c(-c8c(F)c(F)c(F)c(F)c8F)c8nc(c(-c9c(F)c(F)c(F)c(F)c9F)c9ccc6[nH]9)C=C8)C=C7)cc5)cc4)nn3)cc2)S1
REMARK SMILES IDX 24 1 23 2 21 3 22 4 20 6 17 7 18 8 95 9 19 10 94 11 16 12
REMARK SMILES IDX 14 13 15 14 97 15 96 16 13 17 12 18 11 19 8 20 9 21 99 22
REMARK SMILES IDX 10 23 98 24 7 25 1 26 2 27 3 28 100 29 4 30 6 32 5 33 25 34
REMARK SMILES IDX 26 35 27 36 28 37 29 38 30 40 31 41 32 42 93 43 33 44 92 45
REMARK SMILES IDX 34 46 35 47 36 48 86 49 37 50 91 51 85 52 87 53 38 54 90 55
REMARK SMILES IDX 84 56 83 57 39 59 71 60 51 61 70 62 52 63 55 64 69 65 88 66
REMARK SMILES IDX 53 67 54 68 68 70 89 71 56 72 40 73 41 74 49 75 42 76 43 77
REMARK SMILES IDX 47 78 50 79 44 80 45 81 48 82 46 83 72 84 73 85 81 86 74 87
REMARK SMILES IDX 75 88 79 89 82 90 76 91 77 92 80 93 78 94 57 95 58 96 66 97
REMARK SMILES IDX 59 98 60 99 64 100 67 101 61 102 62 103 65 104 63 105
REMARK H PARENT 23 5 3 31 28 39 87 58 55 69
REMARK Flexibility Score: inf
ROOT
ATOM      1  C   UNL A   1      42.616  18.854  25.864  1.00  0.00     0.116 C 
ENDROOT
BRANCH   1   2
ATOM      2  N   UNL A   1      42.864  19.927  26.805  1.00  0.00    -0.352 N 
ATOM      3  C   UNL A   1      42.125  21.009  27.212  1.00  0.00     0.251 C 
ATOM      4  O   UNL A   1      42.646  21.750  28.048  1.00  0.00    -0.269 OA
ATOM      5  H   UNL A   1      43.744  19.868  27.242  1.00  0.00     0.163 HD
BRANCH   3   6
ATOM      6  C   UNL A   1      40.732  21.295  26.755  1.00  0.00     0.039 A 
ATOM      7  C   UNL A   1      38.172  21.701  25.663  1.00  0.00     0.066 A 
ATOM      8  C   UNL A   1      38.763  20.435  25.598  1.00  0.00     0.029 A 
ATOM      9  C   UNL A   1      38.818  22.740  26.330  1.00  0.00     0.029 A 
ATOM     10  C   UNL A   1      40.049  20.248  26.113  1.00  0.00     0.016 A 
ATOM     11  C   UNL A   1      40.064  22.512  26.920  1.00  0.00     0.016 A 
BRANCH   7  12
ATOM     12  N   UNL A   1      36.913  21.918  25.069  1.00  0.00    -0.220 N 
ATOM     13  C   UNL A   1      35.245  22.549  23.814  1.00  0.00     0.120 A 
ATOM     14  C   UNL A   1      36.617  22.620  23.923  1.00  0.00     0.144 A 
ATOM     15  N   UNL A   1      34.769  21.789  24.851  1.00  0.00    -0.131 NA
ATOM     16  N   UNL A   1      35.788  21.381  25.584  1.00  0.00    -0.062 NA
BRANCH  13  17
ATOM     17  C   UNL A   1      34.320  23.046  22.752  1.00  0.00     0.289 C 
BRANCH  17  18
ATOM     18  O   UNL A   1      32.917  22.948  23.053  1.00  0.00    -0.487 OA
BRANCH  18  19
ATOM     19  C   UNL A   1      32.146  24.074  22.952  1.00  0.00     0.119 A 
ATOM     20  C   UNL A   1      30.919  26.601  22.833  1.00  0.00    -0.024 A 
ATOM     21  C   UNL A   1      32.039  26.326  22.044  1.00  0.00     0.012 A 
ATOM     22  C   UNL A   1      30.362  25.575  23.599  1.00  0.00     0.012 A 
ATOM     23  C   UNL A   1      32.653  25.069  22.112  1.00  0.00     0.047 A 
ATOM     24  C   UNL A   1      30.954  24.311  23.631  1.00  0.00     0.047 A 
BRANCH  20  25
ATOM     25  C   UNL A   1      30.321  27.937  22.852  1.00  0.00     0.029 C 
ATOM     26  O   UNL A   1      31.925  31.089  26.447  1.00  0.00    -0.261 OA
ATOM     27  C   UNL A   1      31.387  30.502  25.511  1.00  0.00     0.290 C 
ATOM     28  N   UNL A   1      30.389  30.993  24.743  1.00  0.00    -0.282 N 
ATOM     29  S   UNL A   1      31.817  28.893  24.977  1.00  0.00    -0.022 SA
ATOM     30  C   UNL A   1      29.909  30.210  23.735  1.00  0.00     0.265 C 
ATOM     31  H   UNL A   1      30.018  31.891  24.907  1.00  0.00     0.174 HD
ATOM     32  C   UNL A   1      30.627  28.907  23.726  1.00  0.00     0.083 C 
ATOM     33  O   UNL A   1      29.016  30.529  22.970  1.00  0.00    -0.268 OA
ENDBRANCH  20  25
ENDBRANCH  18  19
ENDBRANCH  17  18
ENDBRANCH  13  17
ENDBRANCH   7  12
ENDBRANCH   3   6
ENDBRANCH   1   2
BRANCH   1  34
ATOM     34  C   UNL A   1      43.850  18.581  24.997  1.00  0.00     0.023 C 
BRANCH  34  35
ATOM     35  C   UNL A   1      45.192  18.688  25.737  1.00  0.00     0.023 C 
BRANCH  35  36
ATOM     36  C   UNL A   1      46.038  19.896  25.348  1.00  0.00     0.116 C 
BRANCH  36  37
ATOM     37  N   UNL A   1      45.714  20.413  24.018  1.00  0.00    -0.352 N 
ATOM     38  C   UNL A   1      44.880  21.466  23.691  1.00  0.00     0.251 C 
ATOM     39  H   UNL A   1      46.143  19.954  23.261  1.00  0.00     0.163 HD
ATOM     40  O   UNL A   1      44.382  21.565  22.577  1.00  0.00    -0.269 OA
BRANCH  38  41
ATOM     41  C   UNL A   1      44.617  22.489  24.714  1.00  0.00     0.039 A 
ATOM     42  C   UNL A   1      45.558  22.814  25.692  1.00  0.00     0.014 A 
ATOM     43  C   UNL A   1      43.401  23.160  24.637  1.00  0.00     0.014 A 
ATOM     44  C   UNL A   1      45.294  23.885  26.542  1.00  0.00     0.010 A 
ATOM     45  C   UNL A   1      43.218  24.312  25.355  1.00  0.00     0.010 A 
ATOM     46  C   UNL A   1      44.128  24.645  26.350  1.00  0.00    -0.014 A 
BRANCH  46  47
ATOM     47  C   UNL A   1      43.886  25.856  27.124  1.00  0.00     0.031 A 
ATOM     48  C   UNL A   1      44.800  26.994  26.825  1.00  0.00     0.074 A 
ATOM     49  C   UNL A   1      42.785  26.019  27.890  1.00  0.00     0.049 A 
ATOM     50  N   UNL A   1      45.635  27.564  27.630  1.00  0.00    -0.248 NA
ATOM     51  C   UNL A   1      44.873  27.492  25.441  1.00  0.00     0.031 C 
ATOM     52  C   UNL A   1      41.632  25.126  28.050  1.00  0.00     0.029 A 
ATOM     53  N   UNL A   1      42.421  27.102  28.623  1.00  0.00    -0.354 N 
ATOM     54  C   UNL A   1      46.220  28.604  26.912  1.00  0.00     0.074 A 
ATOM     55  C   UNL A   1      45.828  28.419  25.538  1.00  0.00     0.031 C 
ATOM     56  C   UNL A   1      40.610  25.803  28.619  1.00  0.00     0.029 A 
ATOM     57  C   UNL A   1      41.091  27.110  29.021  1.00  0.00     0.049 A 
ATOM     58  H   UNL A   1      43.049  27.824  28.856  1.00  0.00     0.167 HD
ATOM     59  C   UNL A   1      46.806  29.658  27.547  1.00  0.00     0.037 A 
ATOM     60  C   UNL A   1      40.432  28.141  29.607  1.00  0.00     0.037 A 
ATOM     61  C   UNL A   1      47.092  29.346  28.924  1.00  0.00     0.049 A 
ATOM     62  C   UNL A   1      41.462  29.040  30.191  1.00  0.00     0.074 A 
ATOM     63  C   UNL A   1      47.847  28.368  29.547  1.00  0.00     0.029 A 
ATOM     64  N   UNL A   1      46.246  29.825  29.895  1.00  0.00    -0.354 N 
ATOM     65  N   UNL A   1      42.226  28.703  31.195  1.00  0.00    -0.248 NA
ATOM     66  C   UNL A   1      41.976  30.108  29.344  1.00  0.00     0.031 C 
ATOM     67  C   UNL A   1      47.053  27.949  30.656  1.00  0.00     0.029 A 
ATOM     68  C   UNL A   1      45.917  28.757  30.693  1.00  0.00     0.049 A 
ATOM     69  H   UNL A   1      45.936  30.754  29.999  1.00  0.00     0.167 HD
ATOM     70  C   UNL A   1      43.481  29.192  30.862  1.00  0.00     0.074 A 
ATOM     71  C   UNL A   1      43.250  30.111  29.748  1.00  0.00     0.031 C 
ATOM     72  C   UNL A   1      44.622  28.592  31.312  1.00  0.00     0.037 A 
BRANCH  59  73
ATOM     73  C   UNL A   1      46.814  31.068  27.019  1.00  0.00     0.064 A 
ATOM     74  C   UNL A   1      48.012  31.810  27.030  1.00  0.00     0.173 A 
ATOM     75  C   UNL A   1      45.639  31.812  26.772  1.00  0.00     0.173 A 
ATOM     76  F   UNL A   1      49.184  31.211  27.286  1.00  0.00    -0.203 F 
ATOM     77  C   UNL A   1      48.021  33.199  26.866  1.00  0.00     0.198 A 
ATOM     78  C   UNL A   1      45.658  33.188  26.555  1.00  0.00     0.198 A 
ATOM     79  F   UNL A   1      44.423  31.259  26.847  1.00  0.00    -0.203 F 
ATOM     80  F   UNL A   1      49.168  33.877  27.003  1.00  0.00    -0.200 F 
ATOM     81  C   UNL A   1      46.845  33.886  26.631  1.00  0.00     0.200 A 
ATOM     82  F   UNL A   1      44.504  33.838  26.351  1.00  0.00    -0.200 F 
ATOM     83  F   UNL A   1      46.843  35.221  26.529  1.00  0.00    -0.200 F 
ENDBRANCH  59  73
BRANCH  60  84
ATOM     84  C   UNL A   1      39.018  28.546  29.413  1.00  0.00     0.064 A 
ATOM     85  C   UNL A   1      38.156  28.719  30.508  1.00  0.00     0.173 A 
ATOM     86  C   UNL A   1      38.556  29.033  28.174  1.00  0.00     0.173 A 
ATOM     87  F   UNL A   1      38.535  28.323  31.732  1.00  0.00    -0.203 F 
ATOM     88  C   UNL A   1      36.920  29.363  30.376  1.00  0.00     0.198 A 
ATOM     89  C   UNL A   1      37.321  29.668  28.042  1.00  0.00     0.198 A 
ATOM     90  F   UNL A   1      39.333  28.987  27.082  1.00  0.00    -0.203 F 
ATOM     91  F   UNL A   1      36.152  29.563  31.455  1.00  0.00    -0.200 F 
ATOM     92  C   UNL A   1      36.509  29.845  29.145  1.00  0.00     0.200 A 
ATOM     93  F   UNL A   1      36.952  30.162  26.850  1.00  0.00    -0.200 F 
ATOM     94  F   UNL A   1      35.354  30.516  29.029  1.00  0.00    -0.200 F 
ENDBRANCH  60  84
BRANCH  72  95
ATOM     95  C   UNL A   1      44.501  27.510  32.354  1.00  0.00     0.064 A 
ATOM     96  C   UNL A   1      44.365  26.141  32.059  1.00  0.00     0.173 A 
ATOM     97  C   UNL A   1      44.696  27.854  33.697  1.00  0.00     0.173 A 
ATOM     98  F   UNL A   1      44.282  25.709  30.796  1.00  0.00    -0.203 F 
ATOM     99  C   UNL A   1      44.380  25.174  33.065  1.00  0.00     0.198 A 
ATOM    100  C   UNL A   1      44.749  26.884  34.696  1.00  0.00     0.198 A 
ATOM    101  F   UNL A   1      44.890  29.138  34.040  1.00  0.00    -0.203 F 
ATOM    102  F   UNL A   1      44.239  23.877  32.752  1.00  0.00    -0.200 F 
ATOM    103  C   UNL A   1      44.580  25.546  34.381  1.00  0.00     0.200 A 
ATOM    104  F   UNL A   1      44.995  27.247  35.963  1.00  0.00    -0.200 F 
ATOM    105  F   UNL A   1      44.638  24.616  35.344  1.00  0.00    -0.200 F 
ENDBRANCH  72  95
ENDBRANCH  46  47
ENDBRANCH  38  41
ENDBRANCH  36  37
ENDBRANCH  35  36
ENDBRANCH  34  35
ENDBRANCH   1  34
TORSDOF 16
ENDMDL
MODEL 2
REMARK VINA RESULT:     -13.1      3.698      8.625
REMARK SMILES O=C1NC(=O)/C(=C/c2ccc(OCc3cn(-c4ccc(C(=O)NCCCCNC(=O)c5ccc(-c6c7nc(c(-c8c(F)c(F)c(F)c(F)c8F)c8ccc([nH]8)c(-c8c(F)c(F)c(F)c(F)c8F)c8nc(c(-c9c(F)c(F)c(F)c(F)c9F)c9ccc6[nH]9)C=C8)C=C7)cc5)cc4)nn3)cc2)S1
REMARK SMILES IDX 24 1 23 2 21 3 22 4 20 6 17 7 18 8 95 9 19 10 94 11 16 12
REMARK SMILES IDX 14 13 15 14 97 15 96 16 13 17 12 18 11 19 8 20 9 21 99 22
REMARK SMILES IDX 10 23 98 24 7 25 1 26 2 27 3 28 100 29 4 30 6 32 5 33 25 34
REMARK SMILES IDX 26 35 27 36 28 37 29 38 30 40 31 41 32 42 93 43 33 44 92 45
REMARK SMILES IDX 34 46 35 47 36 48 86 49 37 50 91 51 85 52 87 53 38 54 90 55
REMARK SMILES IDX 84 56 83 57 39 59 71 60 51 61 70 62 52 63 55 64 69 65 88 66
REMARK SMILES IDX 53 67 54 68 68 70 89 71 56 72 40 73 41 74 49 75 42 76 43 77
REMARK SMILES IDX 47 78 50 79 44 80 45 81 48 82 46 83 72 84 73 85 81 86 74 87
REMARK SMILES IDX 75 88 79 89 82 90 76 91 77 92 80 93 78 94 57 95 58 96 66 97
REMARK SMILES IDX 59 98 60 99 64 100 67 101 61 102 62 103 65 104 63 105
REMARK H PARENT 23 5 3 31 28 39 87 58 55 69
REMARK Flexibility Score: inf
ROOT
ATOM      1  C   UNL A   1      41.509  28.302  34.170  1.00  0.00     0.116 C 
ENDROOT
BRANCH   1   2
ATOM      2  N   UNL A   1      40.856  29.098  35.189  1.00  0.00    -0.352 N 
ATOM      3  C   UNL A   1      39.776  29.945  35.172  1.00  0.00     0.251 C 
ATOM      4  O   UNL A   1      39.477  30.480  36.240  1.00  0.00    -0.269 OA
ATOM      5  H   UNL A   1      41.273  29.015  36.077  1.00  0.00     0.163 HD
BRANCH   3   6
ATOM      6  C   UNL A   1      38.925  30.195  33.970  1.00  0.00     0.039 A 
ATOM      7  C   UNL A   1      37.217  30.882  31.843  1.00  0.00     0.066 A 
ATOM      8  C   UNL A   1      37.974  31.874  32.476  1.00  0.00     0.029 A 
ATOM      9  C   UNL A   1      37.362  29.548  32.218  1.00  0.00     0.029 A 
ATOM     10  C   UNL A   1      38.795  31.532  33.553  1.00  0.00     0.016 A 
ATOM     11  C   UNL A   1      38.258  29.210  33.236  1.00  0.00     0.016 A 
BRANCH   7  12
ATOM     12  N   UNL A   1      36.322  31.234  30.814  1.00  0.00    -0.220 N 
ATOM     13  C   UNL A   1      35.209  31.416  28.948  1.00  0.00     0.120 A 
ATOM     14  C   UNL A   1      36.207  30.687  29.556  1.00  0.00     0.144 A 
ATOM     15  N   UNL A   1      34.733  32.332  29.849  1.00  0.00    -0.131 NA
ATOM     16  N   UNL A   1      35.388  32.190  30.987  1.00  0.00    -0.062 NA
BRANCH  13  17
ATOM     17  C   UNL A   1      34.565  31.268  27.607  1.00  0.00     0.289 C 
BRANCH  17  18
ATOM     18  O   UNL A   1      33.209  30.791  27.618  1.00  0.00    -0.487 OA
BRANCH  18  19
ATOM     19  C   UNL A   1      32.969  29.497  27.239  1.00  0.00     0.119 A 
ATOM     20  C   UNL A   1      32.591  26.967  26.075  1.00  0.00    -0.024 A 
ATOM     21  C   UNL A   1      33.821  27.619  25.954  1.00  0.00     0.012 A 
ATOM     22  C   UNL A   1      31.594  27.541  26.864  1.00  0.00     0.012 A 
ATOM     23  C   UNL A   1      34.003  28.883  26.529  1.00  0.00     0.047 A 
ATOM     24  C   UNL A   1      31.796  28.784  27.469  1.00  0.00     0.047 A 
BRANCH  20  25
ATOM     25  C   UNL A   1      32.346  25.690  25.400  1.00  0.00     0.029 C 
ATOM     26  O   UNL A   1      32.990  25.607  20.400  1.00  0.00    -0.261 OA
ATOM     27  C   UNL A   1      32.768  25.397  21.589  1.00  0.00     0.290 C 
ATOM     28  N   UNL A   1      32.304  24.240  22.112  1.00  0.00    -0.282 N 
ATOM     29  S   UNL A   1      33.014  26.572  22.861  1.00  0.00    -0.022 SA
ATOM     30  C   UNL A   1      32.119  24.172  23.462  1.00  0.00     0.265 C 
ATOM     31  H   UNL A   1      32.105  23.467  21.535  1.00  0.00     0.174 HD
ATOM     32  C   UNL A   1      32.473  25.477  24.082  1.00  0.00     0.083 C 
ATOM     33  O   UNL A   1      31.709  23.194  24.060  1.00  0.00    -0.268 OA
ENDBRANCH  20  25
ENDBRANCH  18  19
ENDBRANCH  17  18
ENDBRANCH  13  17
ENDBRANCH   7  12
ENDBRANCH   3   6
ENDBRANCH   1   2
BRANCH   1  34
ATOM     34  C   UNL A   1      41.518  26.817  34.548  1.00  0.00     0.023 C 
BRANCH  34  35
ATOM     35  C   UNL A   1      41.804  26.533  36.030  1.00  0.00     0.023 C 
BRANCH  35  36
ATOM     36  C   UNL A   1      42.052  25.065  36.361  1.00  0.00     0.116 C 
BRANCH  36  37
ATOM     37  N   UNL A   1      43.296  24.852  37.102  1.00  0.00    -0.352 N 
ATOM     38  C   UNL A   1      44.502  24.372  36.626  1.00  0.00     0.251 C 
ATOM     39  H   UNL A   1      43.272  25.077  38.060  1.00  0.00     0.163 HD
ATOM     40  O   UNL A   1      45.333  23.874  37.375  1.00  0.00    -0.269 OA
BRANCH  38  41
ATOM     41  C   UNL A   1      44.780  24.493  35.188  1.00  0.00     0.039 A 
ATOM     42  C   UNL A   1      44.723  23.392  34.330  1.00  0.00     0.014 A 
ATOM     43  C   UNL A   1      45.057  25.766  34.703  1.00  0.00     0.014 A 
ATOM     44  C   UNL A   1      44.863  23.606  32.961  1.00  0.00     0.010 A 
ATOM     45  C   UNL A   1      45.024  25.998  33.353  1.00  0.00     0.010 A 
ATOM     46  C   UNL A   1      44.992  24.919  32.478  1.00  0.00    -0.014 A 
BRANCH  46  47
ATOM     47  C   UNL A   1      44.999  25.195  31.048  1.00  0.00     0.031 A 
ATOM     48  C   UNL A   1      46.057  26.138  30.588  1.00  0.00     0.074 A 
ATOM     49  C   UNL A   1      44.256  24.488  30.169  1.00  0.00     0.049 A 
ATOM     50  N   UNL A   1      45.893  27.294  30.034  1.00  0.00    -0.248 NA
ATOM     51  C   UNL A   1      47.464  25.807  30.870  1.00  0.00     0.031 C 
ATOM     52  C   UNL A   1      43.399  23.321  30.414  1.00  0.00     0.029 A 
ATOM     53  N   UNL A   1      44.200  24.613  28.818  1.00  0.00    -0.354 N 
ATOM     54  C   UNL A   1      47.168  27.768  29.739  1.00  0.00     0.074 A 
ATOM     55  C   UNL A   1      48.093  26.890  30.406  1.00  0.00     0.031 C 
ATOM     56  C   UNL A   1      43.118  22.711  29.241  1.00  0.00     0.029 A 
ATOM     57  C   UNL A   1      43.621  23.536  28.161  1.00  0.00     0.049 A 
ATOM     58  H   UNL A   1      44.541  25.405  28.343  1.00  0.00     0.167 HD
ATOM     59  C   UNL A   1      47.363  28.725  28.788  1.00  0.00     0.037 A 
ATOM     60  C   UNL A   1      43.596  23.330  26.820  1.00  0.00     0.037 A 
ATOM     61  C   UNL A   1      46.137  29.418  28.483  1.00  0.00     0.049 A 
ATOM     62  C   UNL A   1      43.833  24.648  26.174  1.00  0.00     0.074 A 
ATOM     63  C   UNL A   1      45.237  30.148  29.238  1.00  0.00     0.029 A 
ATOM     64  N   UNL A   1      45.455  29.074  27.339  1.00  0.00    -0.354 N 
ATOM     65  N   UNL A   1      42.987  25.641  26.232  1.00  0.00    -0.248 NA
ATOM     66  C   UNL A   1      45.213  25.016  25.892  1.00  0.00     0.031 C 
ATOM     67  C   UNL A   1      43.953  29.736  28.773  1.00  0.00     0.029 A 
ATOM     68  C   UNL A   1      44.150  28.857  27.708  1.00  0.00     0.049 A 
ATOM     69  H   UNL A   1      45.830  28.999  26.432  1.00  0.00     0.167 HD
ATOM     70  C   UNL A   1      43.776  26.763  26.431  1.00  0.00     0.074 A 
ATOM     71  C   UNL A   1      45.142  26.328  26.139  1.00  0.00     0.031 C 
ATOM     72  C   UNL A   1      43.304  27.858  27.097  1.00  0.00     0.037 A 
BRANCH  59  73
ATOM     73  C   UNL A   1      48.579  28.807  27.903  1.00  0.00     0.064 A 
ATOM     74  C   UNL A   1      48.931  27.704  27.100  1.00  0.00     0.173 A 
ATOM     75  C   UNL A   1      49.565  29.809  28.028  1.00  0.00     0.173 A 
ATOM     76  F   UNL A   1      48.083  26.678  26.937  1.00  0.00    -0.203 F 
ATOM     77  C   UNL A   1      50.199  27.590  26.519  1.00  0.00     0.198 A 
ATOM     78  C   UNL A   1      50.806  29.718  27.403  1.00  0.00     0.198 A 
ATOM     79  F   UNL A   1      49.411  30.854  28.850  1.00  0.00    -0.203 F 
ATOM     80  F   UNL A   1      50.532  26.470  25.863  1.00  0.00    -0.200 F 
ATOM     81  C   UNL A   1      51.135  28.596  26.672  1.00  0.00     0.200 A 
ATOM     82  F   UNL A   1      51.707  30.693  27.584  1.00  0.00    -0.200 F 
ATOM     83  F   UNL A   1      52.367  28.465  26.165  1.00  0.00    -0.200 F 
ENDBRANCH  59  73
BRANCH  60  84
ATOM     84  C   UNL A   1      43.699  22.040  26.095  1.00  0.00     0.064 A 
ATOM     85  C   UNL A   1      44.936  21.566  25.629  1.00  0.00     0.173 A 
ATOM     86  C   UNL A   1      42.634  21.118  26.081  1.00  0.00     0.173 A 
ATOM     87  F   UNL A   1      46.014  22.364  25.648  1.00  0.00    -0.203 F 
ATOM     88  C   UNL A   1      45.103  20.244  25.200  1.00  0.00     0.198 A 
ATOM     89  C   UNL A   1      42.799  19.802  25.647  1.00  0.00     0.198 A 
ATOM     90  F   UNL A   1      41.431  21.445  26.577  1.00  0.00    -0.203 F 
ATOM     91  F   UNL A   1      46.312  19.811  24.820  1.00  0.00    -0.200 F 
ATOM     92  C   UNL A   1      44.036  19.361  25.219  1.00  0.00     0.200 A 
ATOM     93  F   UNL A   1      41.765  18.949  25.704  1.00  0.00    -0.200 F 
ATOM     94  F   UNL A   1      44.208  18.079  24.866  1.00  0.00    -0.200 F 
ENDBRANCH  60  84
BRANCH  72  95
ATOM     95  C   UNL A   1      41.836  27.916  27.433  1.00  0.00     0.064 A 
ATOM     96  C   UNL A   1      41.270  27.370  28.600  1.00  0.00     0.173 A 
ATOM     97  C   UNL A   1      40.998  28.695  26.626  1.00  0.00     0.173 A 
ATOM     98  F   UNL A   1      42.018  26.702  29.486  1.00  0.00    -0.203 F 
ATOM     99  C   UNL A   1      39.925  27.560  28.916  1.00  0.00     0.198 A 
ATOM    100  C   UNL A   1      39.665  28.916  26.962  1.00  0.00     0.198 A 
ATOM    101  F   UNL A   1      41.490  29.293  25.528  1.00  0.00    -0.203 F 
ATOM    102  F   UNL A   1      39.414  27.019  30.032  1.00  0.00    -0.200 F 
ATOM    103  C   UNL A   1      39.125  28.340  28.100  1.00  0.00     0.200 A 
ATOM    104  F   UNL A   1      38.909  29.714  26.196  1.00  0.00    -0.200 F 
ATOM    105  F   UNL A   1      37.844  28.560  28.424  1.00  0.00    -0.200 F 
ENDBRANCH  72  95
ENDBRANCH  46  47
ENDBRANCH  38  41
ENDBRANCH  36  37
ENDBRANCH  35  36
ENDBRANCH  34  35
ENDBRANCH   1  34
TORSDOF 16
ENDMDL
MODEL 3
REMARK VINA RESULT:     -13.0      3.978      9.994
REMARK SMILES O=C1NC(=O)/C(=C/c2ccc(OCc3cn(-c4ccc(C(=O)NCCCCNC(=O)c5ccc(-c6c7nc(c(-c8c(F)c(F)c(F)c(F)c8F)c8ccc([nH]8)c(-c8c(F)c(F)c(F)c(F)c8F)c8nc(c(-c9c(F)c(F)c(F)c(F)c9F)c9ccc6[nH]9)C=C8)C=C7)cc5)cc4)nn3)cc2)S1
REMARK SMILES IDX 24 1 23 2 21 3 22 4 20 6 17 7 18 8 95 9 19 10 94 11 16 12
REMARK SMILES IDX 14 13 15 14 97 15 96 16 13 17 12 18 11 19 8 20 9 21 99 22
REMARK SMILES IDX 10 23 98 24 7 25 1 26 2 27 3 28 100 29 4 30 6 32 5 33 25 34
REMARK SMILES IDX 26 35 27 36 28 37 29 38 30 40 31 41 32 42 93 43 33 44 92 45
REMARK SMILES IDX 34 46 35 47 36 48 86 49 37 50 91 51 85 52 87 53 38 54 90 55
REMARK SMILES IDX 84 56 83 57 39 59 71 60 51 61 70 62 52 63 55 64 69 65 88 66
REMARK SMILES IDX 53 67 54 68 68 70 89 71 56 72 40 73 41 74 49 75 42 76 43 77
REMARK SMILES IDX 47 78 50 79 44 80 45 81 48 82 46 83 72 84 73 85 81 86 74 87
REMARK SMILES IDX 75 88 79 89 82 90 76 91 77 92 80 93 78 94 57 95 58 96 66 97
REMARK SMILES IDX 59 98 60 99 64 100 67 101 61 102 62 103 65 104 63 105
REMARK H PARENT 23 5 3 31 28 39 87 58 55 69
REMARK Flexibility Score: inf
ROOT
ATOM      1  C   UNL A   1      39.373  34.950  35.524  1.00  0.00     0.116 C 
ENDROOT
BRANCH   1   2
ATOM      2  N   UNL A   1      38.518  34.206  36.426  1.00  0.00    -0.352 N 
ATOM      3  C   UNL A   1      37.341  33.522  36.255  1.00  0.00     0.251 C 
ATOM      4  O   UNL A   1      36.861  32.989  37.257  1.00  0.00    -0.269 OA
ATOM      5  H   UNL A   1      38.850  34.186  37.353  1.00  0.00     0.163 HD
BRANCH   3   6
ATOM      6  C   UNL A   1      36.659  33.340  34.939  1.00  0.00     0.039 A 
ATOM      7  C   UNL A   1      35.625  32.958  32.350  1.00  0.00     0.066 A 
ATOM      8  C   UNL A   1      36.589  32.077  32.852  1.00  0.00     0.029 A 
ATOM      9  C   UNL A   1      35.126  33.979  33.157  1.00  0.00     0.029 A 
ATOM     10  C   UNL A   1      37.123  32.291  34.125  1.00  0.00     0.016 A 
ATOM     11  C   UNL A   1      35.604  34.124  34.462  1.00  0.00     0.016 A 
BRANCH   7  12
ATOM     12  N   UNL A   1      35.146  32.798  31.036  1.00  0.00    -0.220 N 
ATOM     13  C   UNL A   1      34.722  32.128  29.005  1.00  0.00     0.120 A 
ATOM     14  C   UNL A   1      35.406  31.778  30.148  1.00  0.00     0.144 A 
ATOM     15  N   UNL A   1      34.052  33.300  29.243  1.00  0.00    -0.131 NA
ATOM     16  N   UNL A   1      34.286  33.679  30.486  1.00  0.00    -0.062 NA
BRANCH  13  17
ATOM     17  C   UNL A   1      34.542  31.403  27.710  1.00  0.00     0.289 C 
BRANCH  17  18
ATOM     18  O   UNL A   1      33.202  30.969  27.422  1.00  0.00    -0.487 OA
BRANCH  18  19
ATOM     19  C   UNL A   1      32.998  29.658  27.085  1.00  0.00     0.119 A 
ATOM     20  C   UNL A   1      32.778  27.060  26.033  1.00  0.00    -0.024 A 
ATOM     21  C   UNL A   1      34.029  27.674  26.134  1.00  0.00     0.012 A 
ATOM     22  C   UNL A   1      31.659  27.713  26.554  1.00  0.00     0.012 A 
ATOM     23  C   UNL A   1      34.134  28.971  26.651  1.00  0.00     0.047 A 
ATOM     24  C   UNL A   1      31.777  28.990  27.107  1.00  0.00     0.047 A 
BRANCH  20  25
ATOM     25  C   UNL A   1      32.632  25.745  25.405  1.00  0.00     0.029 C 
ATOM     26  O   UNL A   1      32.965  25.582  20.376  1.00  0.00    -0.261 OA
ATOM     27  C   UNL A   1      32.842  25.385  21.583  1.00  0.00     0.290 C 
ATOM     28  N   UNL A   1      32.542  24.201  22.161  1.00  0.00    -0.282 N 
ATOM     29  S   UNL A   1      33.038  26.617  22.809  1.00  0.00    -0.022 SA
ATOM     30  C   UNL A   1      32.450  24.155  23.521  1.00  0.00     0.265 C 
ATOM     31  H   UNL A   1      32.393  23.394  21.616  1.00  0.00     0.174 HD
ATOM     32  C   UNL A   1      32.698  25.507  24.087  1.00  0.00     0.083 C 
ATOM     33  O   UNL A   1      32.189  23.156  24.168  1.00  0.00    -0.268 OA
ENDBRANCH  20  25
ENDBRANCH  18  19
ENDBRANCH  17  18
ENDBRANCH  13  17
ENDBRANCH   7  12
ENDBRANCH   3   6
ENDBRANCH   1   2
BRANCH   1  34
ATOM     34  C   UNL A   1      40.663  34.180  35.220  1.00  0.00     0.023 C 
BRANCH  34  35
ATOM     35  C   UNL A   1      40.572  33.225  34.020  1.00  0.00     0.023 C 
BRANCH  35  36
ATOM     36  C   UNL A   1      40.802  33.884  32.664  1.00  0.00     0.116 C 
BRANCH  36  37
ATOM     37  N   UNL A   1      39.568  34.038  31.890  1.00  0.00    -0.352 N 
ATOM     38  C   UNL A   1      39.226  33.427  30.699  1.00  0.00     0.251 C 
ATOM     39  H   UNL A   1      38.899  34.655  32.265  1.00  0.00     0.163 HD
ATOM     40  O   UNL A   1      38.376  33.903  29.957  1.00  0.00    -0.269 OA
BRANCH  38  41
ATOM     41  C   UNL A   1      39.895  32.166  30.346  1.00  0.00     0.039 A 
ATOM     42  C   UNL A   1      41.272  32.097  30.127  1.00  0.00     0.014 A 
ATOM     43  C   UNL A   1      39.101  31.026  30.286  1.00  0.00     0.014 A 
ATOM     44  C   UNL A   1      41.854  30.848  29.932  1.00  0.00     0.010 A 
ATOM     45  C   UNL A   1      39.693  29.790  30.265  1.00  0.00     0.010 A 
ATOM     46  C   UNL A   1      41.057  29.694  30.024  1.00  0.00    -0.014 A 
BRANCH  46  47
ATOM     47  C   UNL A   1      41.652  28.365  29.967  1.00  0.00     0.031 A 
ATOM     48  C   UNL A   1      42.296  27.903  31.229  1.00  0.00     0.074 A 
ATOM     49  C   UNL A   1      41.446  27.523  28.931  1.00  0.00     0.049 A 
ATOM     50  N   UNL A   1      43.542  27.616  31.416  1.00  0.00    -0.248 NA
ATOM     51  C   UNL A   1      41.483  27.851  32.455  1.00  0.00     0.031 C 
ATOM     52  C   UNL A   1      40.585  27.698  27.756  1.00  0.00     0.029 A 
ATOM     53  N   UNL A   1      41.903  26.254  28.772  1.00  0.00    -0.354 N 
ATOM     54  C   UNL A   1      43.648  27.184  32.735  1.00  0.00     0.074 A 
ATOM     55  C   UNL A   1      42.390  27.491  33.365  1.00  0.00     0.031 C 
ATOM     56  C   UNL A   1      40.394  26.505  27.152  1.00  0.00     0.029 A 
ATOM     57  C   UNL A   1      41.254  25.525  27.786  1.00  0.00     0.049 A 
ATOM     58  H   UNL A   1      42.637  25.881  29.312  1.00  0.00     0.167 HD
ATOM     59  C   UNL A   1      44.695  26.411  33.143  1.00  0.00     0.037 A 
ATOM     60  C   UNL A   1      41.393  24.198  27.542  1.00  0.00     0.037 A 
ATOM     61  C   UNL A   1      45.788  26.476  32.208  1.00  0.00     0.049 A 
ATOM     62  C   UNL A   1      42.685  23.778  28.148  1.00  0.00     0.074 A 
ATOM     63  C   UNL A   1      46.561  27.509  31.709  1.00  0.00     0.029 A 
ATOM     64  N   UNL A   1      45.961  25.435  31.327  1.00  0.00    -0.354 N 
ATOM     65  N   UNL A   1      43.848  24.179  27.712  1.00  0.00    -0.248 NA
ATOM     66  C   UNL A   1      42.657  23.320  29.530  1.00  0.00     0.031 C 
ATOM     67  C   UNL A   1      46.698  27.221  30.318  1.00  0.00     0.029 A 
ATOM     68  C   UNL A   1      46.083  25.992  30.077  1.00  0.00     0.049 A 
ATOM     69  H   UNL A   1      45.992  24.476  31.549  1.00  0.00     0.167 HD
ATOM     70  C   UNL A   1      44.584  24.436  28.859  1.00  0.00     0.074 A 
ATOM     71  C   UNL A   1      43.825  23.818  29.947  1.00  0.00     0.031 C 
ATOM     72  C   UNL A   1      45.578  25.372  28.874  1.00  0.00     0.037 A 
BRANCH  59  73
ATOM     73  C   UNL A   1      44.600  25.347  34.204  1.00  0.00     0.064 A 
ATOM     74  C   UNL A   1      45.154  25.583  35.479  1.00  0.00     0.173 A 
ATOM     75  C   UNL A   1      44.245  24.008  33.932  1.00  0.00     0.173 A 
ATOM     76  F   UNL A   1      45.557  26.812  35.832  1.00  0.00    -0.203 F 
ATOM     77  C   UNL A   1      45.389  24.543  36.384  1.00  0.00     0.198 A 
ATOM     78  C   UNL A   1      44.429  22.984  34.859  1.00  0.00     0.198 A 
ATOM     79  F   UNL A   1      43.816  23.621  32.725  1.00  0.00    -0.203 F 
ATOM     80  F   UNL A   1      46.027  24.795  37.535  1.00  0.00    -0.200 F 
ATOM     81  C   UNL A   1      45.028  23.245  36.073  1.00  0.00     0.200 A 
ATOM     82  F   UNL A   1      44.094  21.729  34.527  1.00  0.00    -0.200 F 
ATOM     83  F   UNL A   1      45.301  22.240  36.914  1.00  0.00    -0.200 F 
ENDBRANCH  59  73
BRANCH  60  84
ATOM     84  C   UNL A   1      40.350  23.236  27.109  1.00  0.00     0.064 A 
ATOM     85  C   UNL A   1      39.058  23.670  26.772  1.00  0.00     0.173 A 
ATOM     86  C   UNL A   1      40.673  21.911  26.756  1.00  0.00     0.173 A 
ATOM     87  F   UNL A   1      38.682  24.932  27.032  1.00  0.00    -0.203 F 
ATOM     88  C   UNL A   1      38.154  22.839  26.101  1.00  0.00     0.198 A 
ATOM     89  C   UNL A   1      39.769  21.079  26.093  1.00  0.00     0.198 A 
ATOM     90  F   UNL A   1      41.905  21.423  26.962  1.00  0.00    -0.203 F 
ATOM     91  F   UNL A   1      36.951  23.308  25.742  1.00  0.00    -0.200 F 
ATOM     92  C   UNL A   1      38.515  21.547  25.753  1.00  0.00     0.200 A 
ATOM     93  F   UNL A   1      40.145  19.843  25.732  1.00  0.00    -0.200 F 
ATOM     94  F   UNL A   1      37.673  20.770  25.058  1.00  0.00    -0.200 F 
ENDBRANCH  60  84
BRANCH  72  95
ATOM     95  C   UNL A   1      46.012  25.979  27.565  1.00  0.00     0.064 A 
ATOM     96  C   UNL A   1      45.481  27.168  27.031  1.00  0.00     0.173 A 
ATOM     97  C   UNL A   1      47.119  25.428  26.909  1.00  0.00     0.173 A 
ATOM     98  F   UNL A   1      44.493  27.824  27.649  1.00  0.00    -0.203 F 
ATOM     99  C   UNL A   1      46.006  27.747  25.876  1.00  0.00     0.198 A 
ATOM    100  C   UNL A   1      47.667  26.028  25.777  1.00  0.00     0.198 A 
ATOM    101  F   UNL A   1      47.710  24.326  27.400  1.00  0.00    -0.203 F 
ATOM    102  F   UNL A   1      45.472  28.876  25.387  1.00  0.00    -0.200 F 
ATOM    103  C   UNL A   1      47.104  27.180  25.255  1.00  0.00     0.200 A 
ATOM    104  F   UNL A   1      48.762  25.503  25.211  1.00  0.00    -0.200 F 
ATOM    105  F   UNL A   1      47.637  27.758  24.170  1.00  0.00    -0.200 F 
ENDBRANCH  72  95
ENDBRANCH  46  47
ENDBRANCH  38  41
ENDBRANCH  36  37
ENDBRANCH  35  36
ENDBRANCH  34  35
ENDBRANCH   1  34
TORSDOF 16
ENDMDL
