MODEL 1
REMARK VINA RESULT:     -11.4      0.000      0.000
REMARK SMILES O=C(NCCCCNC(=O)[C@@H](CCOC(F)(F)F)Cc1ccccc1Cl)c1ccc(-c2c3nc(c(-c4c(F)c(F)c(F)c(F)c4F)c4ccc([nH]4)c(-c4c(F)c(F)c(F)c(F)c4F)c4nc(c(-c5c(F)c(F)c(F)c(F)c5F)c5ccc2[nH]5)C=C4)C=C3)cc1
REMARK SMILES IDX 6 1 5 2 4 3 3 4 1 5 2 6 27 8 28 9 89 10 29 11 88 12 30 13
REMARK SMILES IDX 31 14 32 15 82 16 33 17 87 18 81 19 83 20 34 21 86 22 80 23
REMARK SMILES IDX 79 24 35 26 67 27 47 28 66 29 48 30 51 31 65 32 84 33 49 34
REMARK SMILES IDX 50 35 64 37 85 38 52 39 36 40 37 41 45 42 38 43 39 44 43 45
REMARK SMILES IDX 46 46 40 47 41 48 44 49 42 50 68 51 69 52 77 53 70 54 71 55
REMARK SMILES IDX 75 56 78 57 72 58 73 59 76 60 74 61 53 62 54 63 62 64 55 65
REMARK SMILES IDX 56 66 60 67 63 68 57 69 58 70 61 71 59 72 7 73 8 74 9 75
REMARK SMILES IDX 10 77 11 78 12 79 13 80 14 81 15 82 16 83 17 84 18 85 19 86
REMARK SMILES IDX 20 87 21 88 25 89 22 90 24 91 26 92 23 93
REMARK H PARENT 3 7 83 25 51 36 8 76
REMARK Flexibility Score: inf
ROOT
ATOM      1  C   UNL A   1      31.834  30.200  26.383  1.00  0.00     0.023 C 
ENDROOT
BRANCH   1   2
ATOM      2  C   UNL A   1      31.598  31.699  26.532  1.00  0.00     0.023 C 
BRANCH   2   3
ATOM      3  C   UNL A   1      32.771  32.455  27.130  1.00  0.00     0.116 C 
BRANCH   3   4
ATOM      4  N   UNL A   1      32.458  33.826  27.506  1.00  0.00    -0.352 N 
ATOM      5  O   UNL A   1      32.697  35.712  28.750  1.00  0.00    -0.269 OA
ATOM      6  C   UNL A   1      33.092  34.588  28.459  1.00  0.00     0.251 C 
ATOM      7  H   UNL A   1      31.713  34.255  27.025  1.00  0.00     0.163 HD
BRANCH   6   8
ATOM      8  C   UNL A   1      34.246  33.994  29.157  1.00  0.00     0.039 A 
ATOM      9  C   UNL A   1      35.542  34.336  28.762  1.00  0.00     0.014 A 
ATOM     10  C   UNL A   1      34.025  33.028  30.140  1.00  0.00     0.014 A 
ATOM     11  C   UNL A   1      36.617  33.617  29.261  1.00  0.00     0.010 A 
ATOM     12  C   UNL A   1      35.116  32.367  30.703  1.00  0.00     0.010 A 
ATOM     13  C   UNL A   1      36.416  32.645  30.253  1.00  0.00    -0.014 A 
BRANCH  13  14
ATOM     14  C   UNL A   1      37.594  32.022  30.898  1.00  0.00     0.031 A 
ATOM     15  C   UNL A   1      38.389  30.950  30.214  1.00  0.00     0.074 A 
ATOM     16  C   UNL A   1      37.925  32.448  32.133  1.00  0.00     0.049 A 
ATOM     17  N   UNL A   1      39.410  30.272  30.670  1.00  0.00    -0.248 NA
ATOM     18  C   UNL A   1      37.985  30.583  28.847  1.00  0.00     0.031 C 
ATOM     19  C   UNL A   1      37.201  33.475  32.888  1.00  0.00     0.029 A 
ATOM     20  N   UNL A   1      38.943  32.077  32.969  1.00  0.00    -0.354 N 
ATOM     21  C   UNL A   1      39.755  29.379  29.665  1.00  0.00     0.074 A 
ATOM     22  C   UNL A   1      38.832  29.598  28.571  1.00  0.00     0.031 C 
ATOM     23  C   UNL A   1      37.810  33.669  34.064  1.00  0.00     0.029 A 
ATOM     24  C   UNL A   1      38.919  32.731  34.176  1.00  0.00     0.049 A 
ATOM     25  H   UNL A   1      39.624  31.407  32.730  1.00  0.00     0.167 HD
ATOM     26  C   UNL A   1      40.753  28.465  29.668  1.00  0.00     0.037 A 
ATOM     27  C   UNL A   1      39.678  32.564  35.273  1.00  0.00     0.037 A 
ATOM     28  C   UNL A   1      41.684  28.288  30.754  1.00  0.00     0.049 A 
ATOM     29  C   UNL A   1      40.759  31.525  35.249  1.00  0.00     0.074 A 
ATOM     30  C   UNL A   1      42.791  27.460  30.813  1.00  0.00     0.029 A 
ATOM     31  N   UNL A   1      41.610  28.946  31.973  1.00  0.00    -0.354 N 
ATOM     32  N   UNL A   1      41.111  30.727  34.271  1.00  0.00    -0.248 NA
ATOM     33  C   UNL A   1      41.536  31.352  36.481  1.00  0.00     0.031 C 
ATOM     34  C   UNL A   1      43.357  27.578  32.088  1.00  0.00     0.029 A 
ATOM     35  C   UNL A   1      42.626  28.508  32.808  1.00  0.00     0.049 A 
ATOM     36  H   UNL A   1      40.935  29.623  32.210  1.00  0.00     0.167 HD
ATOM     37  C   UNL A   1      42.146  29.954  34.769  1.00  0.00     0.074 A 
ATOM     38  C   UNL A   1      42.388  30.400  36.126  1.00  0.00     0.031 C 
ATOM     39  C   UNL A   1      42.830  28.954  34.161  1.00  0.00     0.037 A 
BRANCH  26  40
ATOM     40  C   UNL A   1      40.898  27.561  28.480  1.00  0.00     0.064 A 
ATOM     41  C   UNL A   1      40.143  26.387  28.348  1.00  0.00     0.173 A 
ATOM     42  C   UNL A   1      41.728  27.933  27.411  1.00  0.00     0.173 A 
ATOM     43  F   UNL A   1      39.340  25.986  29.344  1.00  0.00    -0.203 F 
ATOM     44  C   UNL A   1      40.215  25.617  27.189  1.00  0.00     0.198 A 
ATOM     45  C   UNL A   1      41.784  27.172  26.246  1.00  0.00     0.198 A 
ATOM     46  F   UNL A   1      42.466  29.051  27.486  1.00  0.00    -0.203 F 
ATOM     47  F   UNL A   1      39.495  24.492  27.088  1.00  0.00    -0.200 F 
ATOM     48  C   UNL A   1      41.026  26.015  26.136  1.00  0.00     0.200 A 
ATOM     49  F   UNL A   1      42.559  27.564  25.227  1.00  0.00    -0.200 F 
ATOM     50  F   UNL A   1      41.079  25.284  25.014  1.00  0.00    -0.200 F 
ENDBRANCH  26  40
BRANCH  27  51
ATOM     51  C   UNL A   1      39.396  33.365  36.489  1.00  0.00     0.064 A 
ATOM     52  C   UNL A   1      38.575  32.870  37.508  1.00  0.00     0.173 A 
ATOM     53  C   UNL A   1      39.965  34.636  36.666  1.00  0.00     0.173 A 
ATOM     54  F   UNL A   1      37.995  31.667  37.378  1.00  0.00    -0.203 F 
ATOM     55  C   UNL A   1      38.321  33.621  38.655  1.00  0.00     0.198 A 
ATOM     56  C   UNL A   1      39.737  35.373  37.824  1.00  0.00     0.198 A 
ATOM     57  F   UNL A   1      40.766  35.151  35.720  1.00  0.00    -0.203 F 
ATOM     58  F   UNL A   1      37.502  33.141  39.600  1.00  0.00    -0.200 F 
ATOM     59  C   UNL A   1      38.910  34.868  38.815  1.00  0.00     0.200 A 
ATOM     60  F   UNL A   1      40.323  36.568  37.983  1.00  0.00    -0.200 F 
ATOM     61  F   UNL A   1      38.674  35.585  39.922  1.00  0.00    -0.200 F 
ENDBRANCH  27  51
BRANCH  39  62
ATOM     62  C   UNL A   1      43.890  28.274  34.971  1.00  0.00     0.064 A 
ATOM     63  C   UNL A   1      45.217  28.726  34.950  1.00  0.00     0.173 A 
ATOM     64  C   UNL A   1      43.575  27.180  35.790  1.00  0.00     0.173 A 
ATOM     65  F   UNL A   1      45.568  29.755  34.164  1.00  0.00    -0.203 F 
ATOM     66  C   UNL A   1      46.198  28.093  35.708  1.00  0.00     0.198 A 
ATOM     67  C   UNL A   1      44.553  26.566  36.566  1.00  0.00     0.198 A 
ATOM     68  F   UNL A   1      42.318  26.715  35.842  1.00  0.00    -0.203 F 
ATOM     69  F   UNL A   1      47.468  28.513  35.642  1.00  0.00    -0.200 F 
ATOM     70  C   UNL A   1      45.863  27.019  36.520  1.00  0.00     0.200 A 
ATOM     71  F   UNL A   1      44.227  25.535  37.356  1.00  0.00    -0.200 F 
ATOM     72  F   UNL A   1      46.807  26.414  37.253  1.00  0.00    -0.200 F 
ENDBRANCH  39  62
ENDBRANCH  13  14
ENDBRANCH   6   8
ENDBRANCH   3   4
ENDBRANCH   2   3
ENDBRANCH   1   2
BRANCH   1  73
ATOM     73  C   UNL A   1      31.312  29.601  25.076  1.00  0.00     0.116 C 
BRANCH  73  74
ATOM     74  N   UNL A   1      32.328  29.653  24.053  1.00  0.00    -0.356 N 
ATOM     75  C   UNL A   1      33.176  28.718  23.569  1.00  0.00     0.223 C 
ATOM     76  H   UNL A   1      32.420  30.535  23.626  1.00  0.00     0.163 HD
ATOM     77  O   UNL A   1      34.035  29.139  22.782  1.00  0.00    -0.275 OA
BRANCH  75  78
ATOM     78  C   UNL A   1      33.154  27.231  23.930  1.00  0.00     0.085 C 
BRANCH  78  79
ATOM     79  C   UNL A   1      33.629  26.250  22.832  1.00  0.00     0.042 C 
BRANCH  79  80
ATOM     80  C   UNL A   1      32.695  25.248  22.147  1.00  0.00     0.171 C 
BRANCH  80  81
ATOM     81  O   UNL A   1      33.301  24.032  21.770  1.00  0.00    -0.292 OA
BRANCH  81  82
ATOM     82  C   UNL A   1      32.937  22.933  22.575  1.00  0.00     0.522 C 
ATOM     83  F   UNL A   1      32.524  21.938  21.764  1.00  0.00    -0.144 F 
ATOM     84  F   UNL A   1      33.987  22.499  23.296  1.00  0.00    -0.144 F 
ATOM     85  F   UNL A   1      31.930  23.283  23.394  1.00  0.00    -0.144 F 
ENDBRANCH  81  82
ENDBRANCH  80  81
ENDBRANCH  79  80
ENDBRANCH  78  79
BRANCH  78  86
ATOM     86  C   UNL A   1      33.585  26.844  25.354  1.00  0.00     0.050 C 
BRANCH  86  87
ATOM     87  C   UNL A   1      33.145  25.503  25.909  1.00  0.00    -0.029 A 
ATOM     88  C   UNL A   1      34.121  24.494  26.037  1.00  0.00     0.005 A 
ATOM     89  C   UNL A   1      31.811  25.166  26.196  1.00  0.00     0.044 A 
ATOM     90  C   UNL A   1      33.781  23.201  26.438  1.00  0.00     0.000 A 
ATOM     91  C   UNL A   1      31.478  23.873  26.620  1.00  0.00     0.021 A 
ATOM     92  Cl  UNL A   1      30.500  26.268  25.968  1.00  0.00    -0.084 Cl
ATOM     93  C   UNL A   1      32.459  22.891  26.735  1.00  0.00     0.002 A 
ENDBRANCH  86  87
ENDBRANCH  78  86
ENDBRANCH  75  78
ENDBRANCH  73  74
ENDBRANCH   1  73
TORSDOF 17
ENDMDL
MODEL 2
REMARK VINA RESULT:     -11.3      1.884      2.909
REMARK SMILES O=C(NCCCCNC(=O)[C@@H](CCOC(F)(F)F)Cc1ccccc1Cl)c1ccc(-c2c3nc(c(-c4c(F)c(F)c(F)c(F)c4F)c4ccc([nH]4)c(-c4c(F)c(F)c(F)c(F)c4F)c4nc(c(-c5c(F)c(F)c(F)c(F)c5F)c5ccc2[nH]5)C=C4)C=C3)cc1
REMARK SMILES IDX 6 1 5 2 4 3 3 4 1 5 2 6 27 8 28 9 89 10 29 11 88 12 30 13
REMARK SMILES IDX 31 14 32 15 82 16 33 17 87 18 81 19 83 20 34 21 86 22 80 23
REMARK SMILES IDX 79 24 35 26 67 27 47 28 66 29 48 30 51 31 65 32 84 33 49 34
REMARK SMILES IDX 50 35 64 37 85 38 52 39 36 40 37 41 45 42 38 43 39 44 43 45
REMARK SMILES IDX 46 46 40 47 41 48 44 49 42 50 68 51 69 52 77 53 70 54 71 55
REMARK SMILES IDX 75 56 78 57 72 58 73 59 76 60 74 61 53 62 54 63 62 64 55 65
REMARK SMILES IDX 56 66 60 67 63 68 57 69 58 70 61 71 59 72 7 73 8 74 9 75
REMARK SMILES IDX 10 77 11 78 12 79 13 80 14 81 15 82 16 83 17 84 18 85 19 86
REMARK SMILES IDX 20 87 21 88 25 89 22 90 24 91 26 92 23 93
REMARK H PARENT 3 7 83 25 51 36 8 76
REMARK Flexibility Score: inf
ROOT
ATOM      1  C   UNL A   1      31.627  30.338  26.368  1.00  0.00     0.023 C 
ENDROOT
BRANCH   1   2
ATOM      2  C   UNL A   1      31.496  31.851  26.495  1.00  0.00     0.023 C 
BRANCH   2   3
ATOM      3  C   UNL A   1      32.645  32.514  27.234  1.00  0.00     0.116 C 
BRANCH   3   4
ATOM      4  N   UNL A   1      32.396  33.904  27.588  1.00  0.00    -0.352 N 
ATOM      5  O   UNL A   1      32.753  35.809  28.772  1.00  0.00    -0.269 OA
ATOM      6  C   UNL A   1      33.096  34.666  28.493  1.00  0.00     0.251 C 
ATOM      7  H   UNL A   1      31.646  34.346  27.129  1.00  0.00     0.163 HD
BRANCH   6   8
ATOM      8  C   UNL A   1      34.260  34.048  29.156  1.00  0.00     0.039 A 
ATOM      9  C   UNL A   1      35.545  34.303  28.671  1.00  0.00     0.014 A 
ATOM     10  C   UNL A   1      34.049  33.145  30.199  1.00  0.00     0.014 A 
ATOM     11  C   UNL A   1      36.612  33.555  29.146  1.00  0.00     0.010 A 
ATOM     12  C   UNL A   1      35.139  32.457  30.734  1.00  0.00     0.010 A 
ATOM     13  C   UNL A   1      36.422  32.646  30.198  1.00  0.00    -0.014 A 
BRANCH  13  14
ATOM     14  C   UNL A   1      37.604  31.996  30.808  1.00  0.00     0.031 A 
ATOM     15  C   UNL A   1      38.402  30.964  30.069  1.00  0.00     0.074 A 
ATOM     16  C   UNL A   1      37.937  32.360  32.062  1.00  0.00     0.049 A 
ATOM     17  N   UNL A   1      39.427  30.268  30.487  1.00  0.00    -0.248 NA
ATOM     18  C   UNL A   1      37.997  30.664  28.686  1.00  0.00     0.031 C 
ATOM     19  C   UNL A   1      37.210  33.345  32.870  1.00  0.00     0.029 A 
ATOM     20  N   UNL A   1      38.958  31.952  32.877  1.00  0.00    -0.354 N 
ATOM     21  C   UNL A   1      39.773  29.429  29.438  1.00  0.00     0.074 A 
ATOM     22  C   UNL A   1      38.846  29.698  28.358  1.00  0.00     0.031 C 
ATOM     23  C   UNL A   1      37.821  33.481  34.053  1.00  0.00     0.029 A 
ATOM     24  C   UNL A   1      38.934  32.543  34.115  1.00  0.00     0.049 A 
ATOM     25  H   UNL A   1      39.641  31.298  32.602  1.00  0.00     0.167 HD
ATOM     26  C   UNL A   1      40.775  28.520  29.393  1.00  0.00     0.037 A 
ATOM     27  C   UNL A   1      39.697  32.324  35.200  1.00  0.00     0.037 A 
ATOM     28  C   UNL A   1      41.710  28.292  30.466  1.00  0.00     0.049 A 
ATOM     29  C   UNL A   1      40.782  31.293  35.121  1.00  0.00     0.074 A 
ATOM     30  C   UNL A   1      42.820  27.466  30.481  1.00  0.00     0.029 A 
ATOM     31  N   UNL A   1      41.636  28.887  31.717  1.00  0.00    -0.354 N 
ATOM     32  N   UNL A   1      41.135  30.547  34.103  1.00  0.00    -0.248 NA
ATOM     33  C   UNL A   1      41.563  31.061  36.342  1.00  0.00     0.031 C 
ATOM     34  C   UNL A   1      43.388  27.522  31.759  1.00  0.00     0.029 A 
ATOM     35  C   UNL A   1      42.656  28.412  32.526  1.00  0.00     0.049 A 
ATOM     36  H   UNL A   1      40.958  29.548  31.989  1.00  0.00     0.167 HD
ATOM     37  C   UNL A   1      42.174  29.754  34.559  1.00  0.00     0.074 A 
ATOM     38  C   UNL A   1      42.417  30.132  35.937  1.00  0.00     0.031 C 
ATOM     39  C   UNL A   1      42.861  28.789  33.900  1.00  0.00     0.037 A 
BRANCH  26  40
ATOM     40  C   UNL A   1      40.921  27.678  28.160  1.00  0.00     0.064 A 
ATOM     41  C   UNL A   1      41.709  28.087  27.074  1.00  0.00     0.173 A 
ATOM     42  C   UNL A   1      40.347  26.397  28.111  1.00  0.00     0.173 A 
ATOM     43  F   UNL A   1      42.273  29.303  27.071  1.00  0.00    -0.203 F 
ATOM     44  C   UNL A   1      41.916  27.244  25.984  1.00  0.00     0.198 A 
ATOM     45  C   UNL A   1      40.571  25.551  27.028  1.00  0.00     0.198 A 
ATOM     46  F   UNL A   1      39.589  25.958  29.127  1.00  0.00    -0.203 F 
ATOM     47  F   UNL A   1      42.662  27.659  24.952  1.00  0.00    -0.200 F 
ATOM     48  C   UNL A   1      41.356  25.975  25.967  1.00  0.00     0.200 A 
ATOM     49  F   UNL A   1      40.039  24.322  27.019  1.00  0.00    -0.200 F 
ATOM     50  F   UNL A   1      41.573  25.159  24.926  1.00  0.00    -0.200 F 
ENDBRANCH  26  40
BRANCH  27  51
ATOM     51  C   UNL A   1      39.414  33.062  36.456  1.00  0.00     0.064 A 
ATOM     52  C   UNL A   1      38.553  32.537  37.427  1.00  0.00     0.173 A 
ATOM     53  C   UNL A   1      40.022  34.299  36.720  1.00  0.00     0.173 A 
ATOM     54  F   UNL A   1      37.936  31.365  37.212  1.00  0.00    -0.203 F 
ATOM     55  C   UNL A   1      38.299  33.227  38.610  1.00  0.00     0.198 A 
ATOM     56  C   UNL A   1      39.792  34.974  37.916  1.00  0.00     0.198 A 
ATOM     57  F   UNL A   1      40.861  34.841  35.824  1.00  0.00    -0.203 F 
ATOM     58  F   UNL A   1      37.443  32.721  39.508  1.00  0.00    -0.200 F 
ATOM     59  C   UNL A   1      38.926  34.441  38.857  1.00  0.00     0.200 A 
ATOM     60  F   UNL A   1      40.414  36.136  38.158  1.00  0.00    -0.200 F 
ATOM     61  F   UNL A   1      38.689  35.099  40.000  1.00  0.00    -0.200 F 
ENDBRANCH  27  51
BRANCH  39  62
ATOM     62  C   UNL A   1      43.926  28.073  34.672  1.00  0.00     0.064 A 
ATOM     63  C   UNL A   1      43.655  26.862  35.323  1.00  0.00     0.173 A 
ATOM     64  C   UNL A   1      45.228  28.587  34.743  1.00  0.00     0.173 A 
ATOM     65  F   UNL A   1      42.417  26.345  35.301  1.00  0.00    -0.203 F 
ATOM     66  C   UNL A   1      44.649  26.197  36.035  1.00  0.00     0.198 A 
ATOM     67  C   UNL A   1      46.226  27.907  35.434  1.00  0.00     0.198 A 
ATOM     68  F   UNL A   1      45.533  29.743  34.133  1.00  0.00    -0.203 F 
ATOM     69  F   UNL A   1      44.360  25.062  36.686  1.00  0.00    -0.200 F 
ATOM     70  C   UNL A   1      45.935  26.718  36.084  1.00  0.00     0.200 A 
ATOM     71  F   UNL A   1      47.468  28.406  35.473  1.00  0.00    -0.200 F 
ATOM     72  F   UNL A   1      46.892  26.075  36.766  1.00  0.00    -0.200 F 
ENDBRANCH  39  62
ENDBRANCH  13  14
ENDBRANCH   6   8
ENDBRANCH   3   4
ENDBRANCH   2   3
ENDBRANCH   1   2
BRANCH   1  73
ATOM     73  C   UNL A   1      33.045  29.846  26.068  1.00  0.00     0.116 C 
BRANCH  73  74
ATOM     74  N   UNL A   1      33.253  29.732  24.646  1.00  0.00    -0.356 N 
ATOM     75  C   UNL A   1      32.745  28.890  23.719  1.00  0.00     0.223 C 
ATOM     76  H   UNL A   1      33.884  30.395  24.281  1.00  0.00     0.163 HD
ATOM     77  O   UNL A   1      33.254  28.971  22.593  1.00  0.00    -0.275 OA
BRANCH  75  78
ATOM     78  C   UNL A   1      31.633  27.868  23.967  1.00  0.00     0.085 C 
BRANCH  78  79
ATOM     79  C   UNL A   1      30.190  28.335  23.663  1.00  0.00     0.042 C 
BRANCH  79  80
ATOM     80  C   UNL A   1      29.873  29.625  22.900  1.00  0.00     0.171 C 
BRANCH  80  81
ATOM     81  O   UNL A   1      29.065  30.545  23.599  1.00  0.00    -0.292 OA
BRANCH  81  82
ATOM     82  C   UNL A   1      27.733  30.607  23.141  1.00  0.00     0.522 C 
ATOM     83  F   UNL A   1      27.752  30.611  21.793  1.00  0.00    -0.144 F 
ATOM     84  F   UNL A   1      27.032  29.539  23.563  1.00  0.00    -0.144 F 
ATOM     85  F   UNL A   1      27.154  31.739  23.579  1.00  0.00    -0.144 F 
ENDBRANCH  81  82
ENDBRANCH  80  81
ENDBRANCH  79  80
ENDBRANCH  78  79
BRANCH  78  86
ATOM     86  C   UNL A   1      31.919  26.406  23.585  1.00  0.00     0.050 C 
BRANCH  86  87
ATOM     87  C   UNL A   1      32.736  25.552  24.534  1.00  0.00    -0.029 A 
ATOM     88  C   UNL A   1      34.105  25.378  24.246  1.00  0.00     0.005 A 
ATOM     89  C   UNL A   1      32.197  24.833  25.615  1.00  0.00     0.044 A 
ATOM     90  C   UNL A   1      34.905  24.523  25.006  1.00  0.00     0.000 A 
ATOM     91  C   UNL A   1      33.008  23.994  26.389  1.00  0.00     0.021 A 
ATOM     92  Cl  UNL A   1      30.514  24.860  26.006  1.00  0.00    -0.084 Cl
ATOM     93  C   UNL A   1      34.358  23.834  26.082  1.00  0.00     0.002 A 
ENDBRANCH  86  87
ENDBRANCH  78  86
ENDBRANCH  75  78
ENDBRANCH  73  74
ENDBRANCH   1  73
TORSDOF 17
ENDMDL
MODEL 3
REMARK VINA RESULT:     -11.3      1.379      2.809
REMARK SMILES O=C(NCCCCNC(=O)[C@@H](CCOC(F)(F)F)Cc1ccccc1Cl)c1ccc(-c2c3nc(c(-c4c(F)c(F)c(F)c(F)c4F)c4ccc([nH]4)c(-c4c(F)c(F)c(F)c(F)c4F)c4nc(c(-c5c(F)c(F)c(F)c(F)c5F)c5ccc2[nH]5)C=C4)C=C3)cc1
REMARK SMILES IDX 6 1 5 2 4 3 3 4 1 5 2 6 27 8 28 9 89 10 29 11 88 12 30 13
REMARK SMILES IDX 31 14 32 15 82 16 33 17 87 18 81 19 83 20 34 21 86 22 80 23
REMARK SMILES IDX 79 24 35 26 67 27 47 28 66 29 48 30 51 31 65 32 84 33 49 34
REMARK SMILES IDX 50 35 64 37 85 38 52 39 36 40 37 41 45 42 38 43 39 44 43 45
REMARK SMILES IDX 46 46 40 47 41 48 44 49 42 50 68 51 69 52 77 53 70 54 71 55
REMARK SMILES IDX 75 56 78 57 72 58 73 59 76 60 74 61 53 62 54 63 62 64 55 65
REMARK SMILES IDX 56 66 60 67 63 68 57 69 58 70 61 71 59 72 7 73 8 74 9 75
REMARK SMILES IDX 10 77 11 78 12 79 13 80 14 81 15 82 16 83 17 84 18 85 19 86
REMARK SMILES IDX 20 87 21 88 25 89 22 90 24 91 26 92 23 93
REMARK H PARENT 3 7 83 25 51 36 8 76
REMARK Flexibility Score: inf
ROOT
ATOM      1  C   UNL A   1      31.680  30.823  25.854  1.00  0.00     0.023 C 
ENDROOT
BRANCH   1   2
ATOM      2  C   UNL A   1      31.409  31.953  26.839  1.00  0.00     0.023 C 
BRANCH   2   3
ATOM      3  C   UNL A   1      32.647  32.733  27.245  1.00  0.00     0.116 C 
BRANCH   3   4
ATOM      4  N   UNL A   1      32.379  34.118  27.605  1.00  0.00    -0.352 N 
ATOM      5  O   UNL A   1      32.693  36.014  28.816  1.00  0.00    -0.269 OA
ATOM      6  C   UNL A   1      33.052  34.876  28.534  1.00  0.00     0.251 C 
ATOM      7  H   UNL A   1      31.637  34.560  27.132  1.00  0.00     0.163 HD
BRANCH   6   8
ATOM      8  C   UNL A   1      34.203  34.261  29.219  1.00  0.00     0.039 A 
ATOM      9  C   UNL A   1      35.500  34.574  28.804  1.00  0.00     0.014 A 
ATOM     10  C   UNL A   1      33.975  33.303  30.208  1.00  0.00     0.014 A 
ATOM     11  C   UNL A   1      36.567  33.834  29.291  1.00  0.00     0.010 A 
ATOM     12  C   UNL A   1      35.060  32.622  30.760  1.00  0.00     0.010 A 
ATOM     13  C   UNL A   1      36.360  32.871  30.291  1.00  0.00    -0.014 A 
BRANCH  13  14
ATOM     14  C   UNL A   1      37.533  32.227  30.922  1.00  0.00     0.031 A 
ATOM     15  C   UNL A   1      38.299  31.139  30.229  1.00  0.00     0.074 A 
ATOM     16  C   UNL A   1      37.887  32.646  32.152  1.00  0.00     0.049 A 
ATOM     17  N   UNL A   1      39.313  30.442  30.673  1.00  0.00    -0.248 NA
ATOM     18  C   UNL A   1      37.873  30.778  28.868  1.00  0.00     0.031 C 
ATOM     19  C   UNL A   1      37.192  33.688  32.915  1.00  0.00     0.029 A 
ATOM     20  N   UNL A   1      38.908  32.257  32.977  1.00  0.00    -0.354 N 
ATOM     21  C   UNL A   1      39.629  29.542  29.665  1.00  0.00     0.074 A 
ATOM     22  C   UNL A   1      38.697  29.777  28.582  1.00  0.00     0.031 C 
ATOM     23  C   UNL A   1      37.819  33.871  34.083  1.00  0.00     0.029 A 
ATOM     24  C   UNL A   1      38.911  32.912  34.183  1.00  0.00     0.049 A 
ATOM     25  H   UNL A   1      39.573  31.574  32.730  1.00  0.00     0.167 HD
ATOM     26  C   UNL A   1      40.609  28.609  29.657  1.00  0.00     0.037 A 
ATOM     27  C   UNL A   1      39.680  32.731  35.271  1.00  0.00     0.037 A 
ATOM     28  C   UNL A   1      41.550  28.415  30.731  1.00  0.00     0.049 A 
ATOM     29  C   UNL A   1      40.740  31.672  35.235  1.00  0.00     0.074 A 
ATOM     30  C   UNL A   1      42.642  27.566  30.779  1.00  0.00     0.029 A 
ATOM     31  N   UNL A   1      41.503  29.075  31.952  1.00  0.00    -0.354 N 
ATOM     32  N   UNL A   1      41.065  30.867  34.253  1.00  0.00    -0.248 NA
ATOM     33  C   UNL A   1      41.529  31.485  36.458  1.00  0.00     0.031 C 
ATOM     34  C   UNL A   1      43.224  27.674  32.046  1.00  0.00     0.029 A 
ATOM     35  C   UNL A   1      42.520  28.619  32.774  1.00  0.00     0.049 A 
ATOM     36  H   UNL A   1      40.844  29.765  32.195  1.00  0.00     0.167 HD
ATOM     37  C   UNL A   1      42.092  30.074  34.740  1.00  0.00     0.074 A 
ATOM     38  C   UNL A   1      42.358  30.517  36.093  1.00  0.00     0.031 C 
ATOM     39  C   UNL A   1      42.749  29.062  34.125  1.00  0.00     0.037 A 
BRANCH  26  40
ATOM     40  C   UNL A   1      40.722  27.702  28.468  1.00  0.00     0.064 A 
ATOM     41  C   UNL A   1      40.010  26.497  28.387  1.00  0.00     0.173 A 
ATOM     42  C   UNL A   1      41.474  28.098  27.351  1.00  0.00     0.173 A 
ATOM     43  F   UNL A   1      39.282  26.073  29.430  1.00  0.00    -0.203 F 
ATOM     44  C   UNL A   1      40.047  25.721  27.230  1.00  0.00     0.198 A 
ATOM     45  C   UNL A   1      41.494  27.329  26.190  1.00  0.00     0.198 A 
ATOM     46  F   UNL A   1      42.170  29.245  27.377  1.00  0.00    -0.203 F 
ATOM     47  F   UNL A   1      39.368  24.567  27.178  1.00  0.00    -0.200 F 
ATOM     48  C   UNL A   1      40.780  26.143  26.130  1.00  0.00     0.200 A 
ATOM     49  F   UNL A   1      42.193  27.745  25.125  1.00  0.00    -0.200 F 
ATOM     50  F   UNL A   1      40.797  25.405  25.011  1.00  0.00    -0.200 F 
ENDBRANCH  26  40
BRANCH  27  51
ATOM     51  C   UNL A   1      39.428  33.538  36.490  1.00  0.00     0.064 A 
ATOM     52  C   UNL A   1      39.985  34.813  36.642  1.00  0.00     0.173 A 
ATOM     53  C   UNL A   1      38.602  33.057  37.517  1.00  0.00     0.173 A 
ATOM     54  F   UNL A   1      40.794  35.309  35.694  1.00  0.00    -0.203 F 
ATOM     55  C   UNL A   1      39.736  35.573  37.784  1.00  0.00     0.198 A 
ATOM     56  C   UNL A   1      38.329  33.830  38.643  1.00  0.00     0.198 A 
ATOM     57  F   UNL A   1      38.038  31.844  37.414  1.00  0.00    -0.203 F 
ATOM     58  F   UNL A   1      40.311  36.775  37.923  1.00  0.00    -0.200 F 
ATOM     59  C   UNL A   1      38.901  35.084  38.779  1.00  0.00     0.200 A 
ATOM     60  F   UNL A   1      37.507  33.360  39.592  1.00  0.00    -0.200 F 
ATOM     61  F   UNL A   1      38.655  35.820  39.871  1.00  0.00    -0.200 F 
ENDBRANCH  27  51
BRANCH  39  62
ATOM     62  C   UNL A   1      43.805  28.362  34.922  1.00  0.00     0.064 A 
ATOM     63  C   UNL A   1      43.508  27.207  35.660  1.00  0.00     0.173 A 
ATOM     64  C   UNL A   1      45.126  28.832  34.932  1.00  0.00     0.173 A 
ATOM     65  F   UNL A   1      42.253  26.734  35.697  1.00  0.00    -0.203 F 
ATOM     66  C   UNL A   1      44.494  26.557  36.395  1.00  0.00     0.198 A 
ATOM     67  C   UNL A   1      46.115  28.165  35.648  1.00  0.00     0.198 A 
ATOM     68  F   UNL A   1      45.456  29.933  34.239  1.00  0.00    -0.203 F 
ATOM     69  F   UNL A   1      44.181  25.480  37.128  1.00  0.00    -0.200 F 
ATOM     70  C   UNL A   1      45.798  27.033  36.383  1.00  0.00     0.200 A 
ATOM     71  F   UNL A   1      47.374  28.621  35.628  1.00  0.00    -0.200 F 
ATOM     72  F   UNL A   1      46.747  26.404  37.088  1.00  0.00    -0.200 F 
ENDBRANCH  39  62
ENDBRANCH  13  14
ENDBRANCH   6   8
ENDBRANCH   3   4
ENDBRANCH   2   3
ENDBRANCH   1   2
BRANCH   1  73
ATOM     73  C   UNL A   1      32.546  29.689  26.409  1.00  0.00     0.116 C 
BRANCH  73  74
ATOM     74  N   UNL A   1      31.819  28.444  26.398  1.00  0.00    -0.356 N 
ATOM     75  C   UNL A   1      31.451  27.617  25.394  1.00  0.00     0.223 C 
ATOM     76  H   UNL A   1      31.540  28.137  27.291  1.00  0.00     0.163 HD
ATOM     77  O   UNL A   1      30.696  26.691  25.719  1.00  0.00    -0.275 OA
BRANCH  75  78
ATOM     78  C   UNL A   1      31.878  27.757  23.931  1.00  0.00     0.085 C 
BRANCH  78  79
ATOM     79  C   UNL A   1      33.280  27.211  23.569  1.00  0.00     0.042 C 
BRANCH  79  80
ATOM     80  C   UNL A   1      33.667  25.737  23.722  1.00  0.00     0.171 C 
BRANCH  80  81
ATOM     81  O   UNL A   1      34.023  25.088  22.522  1.00  0.00    -0.292 OA
BRANCH  81  82
ATOM     82  C   UNL A   1      32.952  24.430  21.883  1.00  0.00     0.522 C 
ATOM     83  F   UNL A   1      32.679  25.089  20.738  1.00  0.00    -0.144 F 
ATOM     84  F   UNL A   1      33.280  23.159  21.587  1.00  0.00    -0.144 F 
ATOM     85  F   UNL A   1      31.867  24.453  22.676  1.00  0.00    -0.144 F 
ENDBRANCH  81  82
ENDBRANCH  80  81
ENDBRANCH  79  80
ENDBRANCH  78  79
BRANCH  78  86
ATOM     86  C   UNL A   1      30.807  27.512  22.856  1.00  0.00     0.050 C 
BRANCH  86  87
ATOM     87  C   UNL A   1      29.650  28.486  22.745  1.00  0.00    -0.029 A 
ATOM     88  C   UNL A   1      29.932  29.788  22.284  1.00  0.00     0.005 A 
ATOM     89  C   UNL A   1      28.341  28.212  23.177  1.00  0.00     0.044 A 
ATOM     90  C   UNL A   1      28.947  30.777  22.253  1.00  0.00     0.000 A 
ATOM     91  C   UNL A   1      27.351  29.200  23.122  1.00  0.00     0.021 A 
ATOM     92  Cl  UNL A   1      27.888  26.698  23.873  1.00  0.00    -0.084 Cl
ATOM     93  C   UNL A   1      27.653  30.481  22.667  1.00  0.00     0.002 A 
ENDBRANCH  86  87
ENDBRANCH  78  86
ENDBRANCH  75  78
ENDBRANCH  73  74
ENDBRANCH   1  73
TORSDOF 17
ENDMDL
