MODEL 1
REMARK VINA RESULT:     -13.3      0.000      0.000
REMARK SMILES Cc1cc(C(=O)NNC(=O)[C@H]2[C@@H](C(=O)NCCCCNC(=O)c3ccc(-c4c5nc(c(-c6c(F)c(F)c(F)c(F)c6F)c6ccc([nH]6)c(-c6c(F)c(F)c(F)c(F)c6F)c6nc(c(-c7c(F)c(F)c(F)c(F)c7F)c7ccc4[nH]7)C=C6)C=C5)cc3)[C@@H]3C=C[C@H]2C3)cs1
REMARK SMILES IDX 17 1 16 2 15 3 13 4 14 5 12 7 11 8 89 9 86 10 88 11 90 12
REMARK SMILES IDX 87 13 9 14 8 15 10 17 7 18 5 19 6 20 4 22 1 23 2 24 3 25
REMARK SMILES IDX 92 26 91 27 18 28 19 29 20 30 21 31 22 33 23 34 24 35 85 36
REMARK SMILES IDX 25 37 84 38 26 39 27 40 28 41 78 42 29 43 83 44 77 45 79 46
REMARK SMILES IDX 30 47 82 48 76 49 75 50 31 52 63 53 43 54 62 55 44 56 47 57
REMARK SMILES IDX 61 58 80 59 45 60 46 61 60 63 81 64 48 65 32 66 33 67 41 68
REMARK SMILES IDX 34 69 35 70 39 71 42 72 36 73 37 74 40 75 38 76 64 77 65 78
REMARK SMILES IDX 73 79 66 80 67 81 71 82 74 83 68 84 69 85 72 86 70 87 49 88
REMARK SMILES IDX 50 89 58 90 51 91 52 92 56 93 59 94 53 95 54 96 57 97 55 98
REMARK H PARENT 15 6 8 16 7 21 20 32 79 51 47 62
REMARK Flexibility Score: inf
ROOT
ATOM      1  C   UNL A   1      31.660  30.473  26.524  1.00  0.00     0.023 C 
ENDROOT
BRANCH   1   2
ATOM      2  C   UNL A   1      33.047  29.902  26.255  1.00  0.00     0.116 C 
BRANCH   2   3
ATOM      3  N   UNL A   1      33.304  29.730  24.839  1.00  0.00    -0.356 N 
ATOM      4  C   UNL A   1      32.611  28.991  23.927  1.00  0.00     0.224 C 
ATOM      5  O   UNL A   1      32.890  29.132  22.737  1.00  0.00    -0.275 OA
ATOM      6  H   UNL A   1      34.088  30.212  24.488  1.00  0.00     0.163 HD
BRANCH   4   7
ATOM      7  C   UNL A   1      31.444  28.139  24.420  1.00  0.00     0.098 C 
ATOM      8  C   UNL A   1      31.734  26.609  24.654  1.00  0.00     0.100 C 
ATOM      9  C   UNL A   1      30.966  25.959  23.473  1.00  0.00     0.025 C 
ATOM     10  C   UNL A   1      30.395  28.116  23.280  1.00  0.00     0.025 C 
ATOM     11  C   UNL A   1      29.490  26.083  23.843  1.00  0.00    -0.027 C 
ATOM     12  C   UNL A   1      30.975  27.023  22.375  1.00  0.00     0.017 C 
ATOM     13  C   UNL A   1      29.164  27.384  23.759  1.00  0.00    -0.027 C 
BRANCH   8  14
ATOM     14  C   UNL A   1      33.180  26.341  25.055  1.00  0.00     0.242 C 
ATOM     15  N   UNL A   1      34.071  25.647  24.298  1.00  0.00    -0.267 N 
ATOM     16  H   UNL A   1      34.969  25.535  24.685  1.00  0.00     0.191 HD
ATOM     17  O   UNL A   1      33.539  26.579  26.218  1.00  0.00    -0.273 OA
BRANCH  15  18
ATOM     18  N   UNL A   1      33.873  25.079  23.058  1.00  0.00    -0.263 N 
ATOM     19  C   UNL A   1      34.212  23.779  22.709  1.00  0.00     0.270 C 
ATOM     20  O   UNL A   1      33.759  23.344  21.649  1.00  0.00    -0.267 OA
ATOM     21  H   UNL A   1      33.459  25.640  22.363  1.00  0.00     0.191 HD
BRANCH  19  22
ATOM     22  C   UNL A   1      35.017  22.927  23.600  1.00  0.00     0.052 A 
ATOM     23  C   UNL A   1      38.154  21.781  25.430  1.00  0.00     0.056 C 
ATOM     24  C   UNL A   1      36.804  22.011  24.838  1.00  0.00     0.002 A 
ATOM     25  C   UNL A   1      36.437  22.893  23.839  1.00  0.00     0.029 A 
ATOM     26  S   UNL A   1      35.472  21.098  25.387  1.00  0.00    -0.148 S 
ATOM     27  C   UNL A   1      34.404  21.935  24.354  1.00  0.00     0.079 A 
ENDBRANCH  19  22
ENDBRANCH  15  18
ENDBRANCH   8  14
ENDBRANCH   4   7
ENDBRANCH   2   3
ENDBRANCH   1   2
BRANCH   1  28
ATOM     28  C   UNL A   1      31.585  32.001  26.546  1.00  0.00     0.023 C 
BRANCH  28  29
ATOM     29  C   UNL A   1      32.703  32.694  27.314  1.00  0.00     0.116 C 
BRANCH  29  30
ATOM     30  N   UNL A   1      32.402  34.085  27.617  1.00  0.00    -0.352 N 
ATOM     31  C   UNL A   1      32.973  34.918  28.551  1.00  0.00     0.251 C 
ATOM     32  H   UNL A   1      31.686  34.488  27.075  1.00  0.00     0.163 HD
ATOM     33  O   UNL A   1      32.493  36.020  28.772  1.00  0.00    -0.269 OA
BRANCH  31  34
ATOM     34  C   UNL A   1      34.152  34.456  29.314  1.00  0.00     0.039 A 
ATOM     35  C   UNL A   1      33.954  33.855  30.559  1.00  0.00     0.014 A 
ATOM     36  C   UNL A   1      35.442  34.592  28.794  1.00  0.00     0.014 A 
ATOM     37  C   UNL A   1      35.045  33.320  31.248  1.00  0.00     0.010 A 
ATOM     38  C   UNL A   1      36.515  33.987  29.443  1.00  0.00     0.010 A 
ATOM     39  C   UNL A   1      36.328  33.342  30.675  1.00  0.00    -0.014 A 
BRANCH  39  40
ATOM     40  C   UNL A   1      37.480  32.685  31.342  1.00  0.00     0.031 A 
ATOM     41  C   UNL A   1      38.190  31.541  30.674  1.00  0.00     0.074 A 
ATOM     42  C   UNL A   1      37.848  33.078  32.579  1.00  0.00     0.049 A 
ATOM     43  N   UNL A   1      39.166  30.794  31.127  1.00  0.00    -0.248 NA
ATOM     44  C   UNL A   1      37.727  31.169  29.328  1.00  0.00     0.031 C 
ATOM     45  C   UNL A   1      37.211  34.146  33.351  1.00  0.00     0.029 A 
ATOM     46  N   UNL A   1      38.838  32.616  33.409  1.00  0.00    -0.354 N 
ATOM     47  C   UNL A   1      39.424  29.863  30.129  1.00  0.00     0.074 A 
ATOM     48  C   UNL A   1      38.467  30.101  29.071  1.00  0.00     0.031 C 
ATOM     49  C   UNL A   1      37.839  34.273  34.530  1.00  0.00     0.029 A 
ATOM     50  C   UNL A   1      38.894  33.267  34.618  1.00  0.00     0.049 A 
ATOM     51  H   UNL A   1      39.451  31.886  33.163  1.00  0.00     0.167 HD
ATOM     52  C   UNL A   1      40.389  28.913  30.088  1.00  0.00     0.037 A 
ATOM     53  C   UNL A   1      39.694  33.066  35.682  1.00  0.00     0.037 A 
ATOM     54  C   UNL A   1      41.351  28.691  31.135  1.00  0.00     0.049 A 
ATOM     55  C   UNL A   1      40.739  31.984  35.620  1.00  0.00     0.074 A 
ATOM     56  C   UNL A   1      42.399  27.787  31.165  1.00  0.00     0.029 A 
ATOM     57  N   UNL A   1      41.380  29.377  32.341  1.00  0.00    -0.354 N 
ATOM     58  N   UNL A   1      41.018  31.157  34.643  1.00  0.00    -0.248 NA
ATOM     59  C   UNL A   1      41.584  31.810  36.810  1.00  0.00     0.031 C 
ATOM     60  C   UNL A   1      43.028  27.887  32.410  1.00  0.00     0.029 A 
ATOM     61  C   UNL A   1      42.411  28.896  33.132  1.00  0.00     0.049 A 
ATOM     62  H   UNL A   1      40.759  30.096  32.597  1.00  0.00     0.167 HD
ATOM     63  C   UNL A   1      42.089  30.390  35.085  1.00  0.00     0.074 A 
ATOM     64  C   UNL A   1      42.420  30.862  36.412  1.00  0.00     0.031 C 
ATOM     65  C   UNL A   1      42.738  29.384  34.448  1.00  0.00     0.037 A 
BRANCH  52  66
ATOM     66  C   UNL A   1      40.457  28.042  28.867  1.00  0.00     0.064 A 
ATOM     67  C   UNL A   1      39.745  26.836  28.783  1.00  0.00     0.173 A 
ATOM     68  C   UNL A   1      41.201  28.442  27.747  1.00  0.00     0.173 A 
ATOM     69  F   UNL A   1      39.025  26.402  29.829  1.00  0.00    -0.203 F 
ATOM     70  C   UNL A   1      39.795  26.050  27.634  1.00  0.00     0.198 A 
ATOM     71  C   UNL A   1      41.223  27.671  26.587  1.00  0.00     0.198 A 
ATOM     72  F   UNL A   1      41.897  29.589  27.769  1.00  0.00    -0.203 F 
ATOM     73  F   UNL A   1      39.144  24.880  27.595  1.00  0.00    -0.200 F 
ATOM     74  C   UNL A   1      40.527  26.473  26.534  1.00  0.00     0.200 A 
ATOM     75  F   UNL A   1      41.918  28.088  25.519  1.00  0.00    -0.200 F 
ATOM     76  F   UNL A   1      40.564  25.723  25.424  1.00  0.00    -0.200 F 
ENDBRANCH  52  66
BRANCH  53  77
ATOM     77  C   UNL A   1      39.551  33.913  36.898  1.00  0.00     0.064 A 
ATOM     78  C   UNL A   1      38.777  33.487  37.986  1.00  0.00     0.173 A 
ATOM     79  C   UNL A   1      40.160  35.173  36.986  1.00  0.00     0.173 A 
ATOM     80  F   UNL A   1      38.158  32.298  37.942  1.00  0.00    -0.203 F 
ATOM     81  C   UNL A   1      38.593  34.300  39.103  1.00  0.00     0.198 A 
ATOM     82  C   UNL A   1      40.003  35.972  38.118  1.00  0.00     0.198 A 
ATOM     83  F   UNL A   1      40.914  35.628  35.975  1.00  0.00    -0.203 F 
ATOM     84  F   UNL A   1      37.801  33.891  40.103  1.00  0.00    -0.200 F 
ATOM     85  C   UNL A   1      39.210  35.539  39.170  1.00  0.00     0.200 A 
ATOM     86  F   UNL A   1      40.614  37.163  38.185  1.00  0.00    -0.200 F 
ATOM     87  F   UNL A   1      39.032  36.322  40.243  1.00  0.00    -0.200 F 
ENDBRANCH  53  77
BRANCH  65  88
ATOM     88  C   UNL A   1      43.901  28.754  35.158  1.00  0.00     0.064 A 
ATOM     89  C   UNL A   1      43.737  27.652  36.011  1.00  0.00     0.173 A 
ATOM     90  C   UNL A   1      45.203  29.233  34.949  1.00  0.00     0.173 A 
ATOM     91  F   UNL A   1      42.512  27.164  36.257  1.00  0.00    -0.203 F 
ATOM     92  C   UNL A   1      44.831  27.072  36.649  1.00  0.00     0.198 A 
ATOM     93  C   UNL A   1      46.298  28.629  35.561  1.00  0.00     0.198 A 
ATOM     94  F   UNL A   1      45.417  30.280  34.137  1.00  0.00    -0.203 F 
ATOM     95  F   UNL A   1      44.645  26.053  37.499  1.00  0.00    -0.200 F 
ATOM     96  C   UNL A   1      46.110  27.554  36.416  1.00  0.00     0.200 A 
ATOM     97  F   UNL A   1      47.535  29.087  35.322  1.00  0.00    -0.200 F 
ATOM     98  F   UNL A   1      47.163  26.988  37.023  1.00  0.00    -0.200 F 
ENDBRANCH  65  88
ENDBRANCH  39  40
ENDBRANCH  31  34
ENDBRANCH  29  30
ENDBRANCH  28  29
ENDBRANCH   1  28
TORSDOF 14
ENDMDL
MODEL 2
REMARK VINA RESULT:     -13.2      0.672      1.341
REMARK SMILES Cc1cc(C(=O)NNC(=O)[C@H]2[C@@H](C(=O)NCCCCNC(=O)c3ccc(-c4c5nc(c(-c6c(F)c(F)c(F)c(F)c6F)c6ccc([nH]6)c(-c6c(F)c(F)c(F)c(F)c6F)c6nc(c(-c7c(F)c(F)c(F)c(F)c7F)c7ccc4[nH]7)C=C6)C=C5)cc3)[C@@H]3C=C[C@H]2C3)cs1
REMARK SMILES IDX 17 1 16 2 15 3 13 4 14 5 12 7 11 8 89 9 86 10 88 11 90 12
REMARK SMILES IDX 87 13 9 14 8 15 10 17 7 18 5 19 6 20 4 22 1 23 2 24 3 25
REMARK SMILES IDX 92 26 91 27 18 28 19 29 20 30 21 31 22 33 23 34 24 35 85 36
REMARK SMILES IDX 25 37 84 38 26 39 27 40 28 41 78 42 29 43 83 44 77 45 79 46
REMARK SMILES IDX 30 47 82 48 76 49 75 50 31 52 63 53 43 54 62 55 44 56 47 57
REMARK SMILES IDX 61 58 80 59 45 60 46 61 60 63 81 64 48 65 32 66 33 67 41 68
REMARK SMILES IDX 34 69 35 70 39 71 42 72 36 73 37 74 40 75 38 76 64 77 65 78
REMARK SMILES IDX 73 79 66 80 67 81 71 82 74 83 68 84 69 85 72 86 70 87 49 88
REMARK SMILES IDX 50 89 58 90 51 91 52 92 56 93 59 94 53 95 54 96 57 97 55 98
REMARK H PARENT 15 6 8 16 7 21 20 32 79 51 47 62
REMARK Flexibility Score: inf
ROOT
ATOM      1  C   UNL A   1      31.585  30.592  26.403  1.00  0.00     0.023 C 
ENDROOT
BRANCH   1   2
ATOM      2  C   UNL A   1      32.988  30.019  26.242  1.00  0.00     0.116 C 
BRANCH   2   3
ATOM      3  N   UNL A   1      33.296  29.703  24.862  1.00  0.00    -0.356 N 
ATOM      4  C   UNL A   1      32.546  29.016  23.954  1.00  0.00     0.224 C 
ATOM      5  O   UNL A   1      32.914  29.021  22.779  1.00  0.00    -0.275 OA
ATOM      6  H   UNL A   1      34.167  30.027  24.536  1.00  0.00     0.163 HD
BRANCH   4   7
ATOM      7  C   UNL A   1      31.230  28.398  24.418  1.00  0.00     0.098 C 
ATOM      8  C   UNL A   1      31.250  26.860  24.757  1.00  0.00     0.100 C 
ATOM      9  C   UNL A   1      30.450  26.266  23.567  1.00  0.00     0.025 C 
ATOM     10  C   UNL A   1      30.254  28.470  23.216  1.00  0.00     0.025 C 
ATOM     11  C   UNL A   1      28.997  26.652  23.834  1.00  0.00    -0.027 C 
ATOM     12  C   UNL A   1      30.694  27.240  22.414  1.00  0.00     0.017 C 
ATOM     13  C   UNL A   1      28.896  27.980  23.656  1.00  0.00    -0.027 C 
BRANCH   8  14
ATOM     14  C   UNL A   1      32.607  26.389  25.264  1.00  0.00     0.242 C 
ATOM     15  N   UNL A   1      33.612  25.941  24.466  1.00  0.00    -0.267 N 
ATOM     16  H   UNL A   1      34.433  25.652  24.927  1.00  0.00     0.191 HD
ATOM     17  O   UNL A   1      32.767  26.200  26.479  1.00  0.00    -0.273 OA
BRANCH  15  18
ATOM     18  N   UNL A   1      33.625  25.837  23.091  1.00  0.00    -0.263 N 
ATOM     19  C   UNL A   1      33.484  24.656  22.376  1.00  0.00     0.270 C 
ATOM     20  O   UNL A   1      33.277  24.752  21.165  1.00  0.00    -0.267 OA
ATOM     21  H   UNL A   1      33.745  26.667  22.575  1.00  0.00     0.191 HD
BRANCH  19  22
ATOM     22  C   UNL A   1      33.507  23.343  23.042  1.00  0.00     0.052 A 
ATOM     23  C   UNL A   1      35.017  20.472  25.038  1.00  0.00     0.056 C 
ATOM     24  C   UNL A   1      34.196  21.437  24.250  1.00  0.00     0.002 A 
ATOM     25  C   UNL A   1      34.598  22.597  23.614  1.00  0.00     0.029 A 
ATOM     26  S   UNL A   1      32.530  21.148  24.028  1.00  0.00    -0.148 S 
ATOM     27  C   UNL A   1      32.338  22.604  23.161  1.00  0.00     0.079 A 
ENDBRANCH  19  22
ENDBRANCH  15  18
ENDBRANCH   8  14
ENDBRANCH   4   7
ENDBRANCH   2   3
ENDBRANCH   1   2
BRANCH   1  28
ATOM     28  C   UNL A   1      31.519  32.117  26.502  1.00  0.00     0.023 C 
BRANCH  28  29
ATOM     29  C   UNL A   1      32.628  32.762  27.325  1.00  0.00     0.116 C 
BRANCH  29  30
ATOM     30  N   UNL A   1      32.368  34.162  27.622  1.00  0.00    -0.352 N 
ATOM     31  C   UNL A   1      32.974  34.985  28.544  1.00  0.00     0.251 C 
ATOM     32  H   UNL A   1      31.657  34.581  27.087  1.00  0.00     0.163 HD
ATOM     33  O   UNL A   1      32.528  36.102  28.763  1.00  0.00    -0.269 OA
BRANCH  31  34
ATOM     34  C   UNL A   1      34.151  34.496  29.294  1.00  0.00     0.039 A 
ATOM     35  C   UNL A   1      33.954  33.924  30.553  1.00  0.00     0.014 A 
ATOM     36  C   UNL A   1      35.435  34.579  28.750  1.00  0.00     0.014 A 
ATOM     37  C   UNL A   1      35.038  33.363  31.232  1.00  0.00     0.010 A 
ATOM     38  C   UNL A   1      36.498  33.949  29.391  1.00  0.00     0.010 A 
ATOM     39  C   UNL A   1      36.310  33.331  30.637  1.00  0.00    -0.014 A 
BRANCH  39  40
ATOM     40  C   UNL A   1      37.451  32.647  31.296  1.00  0.00     0.031 A 
ATOM     41  C   UNL A   1      38.137  31.494  30.617  1.00  0.00     0.074 A 
ATOM     42  C   UNL A   1      37.829  33.022  32.535  1.00  0.00     0.049 A 
ATOM     43  N   UNL A   1      39.099  30.724  31.062  1.00  0.00    -0.248 NA
ATOM     44  C   UNL A   1      37.663  31.142  29.270  1.00  0.00     0.031 C 
ATOM     45  C   UNL A   1      37.216  34.097  33.317  1.00  0.00     0.029 A 
ATOM     46  N   UNL A   1      38.813  32.534  33.359  1.00  0.00    -0.354 N 
ATOM     47  C   UNL A   1      39.336  29.797  30.056  1.00  0.00     0.074 A 
ATOM     48  C   UNL A   1      38.381  30.061  29.002  1.00  0.00     0.031 C 
ATOM     49  C   UNL A   1      37.849  34.201  34.495  1.00  0.00     0.029 A 
ATOM     50  C   UNL A   1      38.884  33.174  34.573  1.00  0.00     0.049 A 
ATOM     51  H   UNL A   1      39.411  31.795  33.105  1.00  0.00     0.167 HD
ATOM     52  C   UNL A   1      40.282  28.828  30.004  1.00  0.00     0.037 A 
ATOM     53  C   UNL A   1      39.683  32.949  35.633  1.00  0.00     0.037 A 
ATOM     54  C   UNL A   1      41.243  28.579  31.047  1.00  0.00     0.049 A 
ATOM     55  C   UNL A   1      40.706  31.847  35.560  1.00  0.00     0.074 A 
ATOM     56  C   UNL A   1      42.272  27.655  31.067  1.00  0.00     0.029 A 
ATOM     57  N   UNL A   1      41.288  29.254  32.258  1.00  0.00    -0.354 N 
ATOM     58  N   UNL A   1      40.967  31.023  34.575  1.00  0.00    -0.248 NA
ATOM     59  C   UNL A   1      41.551  31.647  36.746  1.00  0.00     0.031 C 
ATOM     60  C   UNL A   1      42.906  27.732  32.311  1.00  0.00     0.029 A 
ATOM     61  C   UNL A   1      42.311  28.747  33.043  1.00  0.00     0.049 A 
ATOM     62  H   UNL A   1      40.682  29.984  32.522  1.00  0.00     0.167 HD
ATOM     63  C   UNL A   1      42.023  30.231  35.008  1.00  0.00     0.074 A 
ATOM     64  C   UNL A   1      42.366  30.686  36.338  1.00  0.00     0.031 C 
ATOM     65  C   UNL A   1      42.651  29.218  34.362  1.00  0.00     0.037 A 
BRANCH  52  66
ATOM     66  C   UNL A   1      40.330  27.965  28.776  1.00  0.00     0.064 A 
ATOM     67  C   UNL A   1      41.091  28.327  27.653  1.00  0.00     0.173 A 
ATOM     68  C   UNL A   1      39.653  26.738  28.740  1.00  0.00     0.173 A 
ATOM     69  F   UNL A   1      41.750  29.495  27.631  1.00  0.00    -0.203 F 
ATOM     70  C   UNL A   1      41.149  27.504  26.531  1.00  0.00     0.198 A 
ATOM     71  C   UNL A   1      39.740  25.902  27.630  1.00  0.00     0.198 A 
ATOM     72  F   UNL A   1      38.916  26.339  29.789  1.00  0.00    -0.203 F 
ATOM     73  F   UNL A   1      41.844  27.893  25.453  1.00  0.00    -0.200 F 
ATOM     74  C   UNL A   1      40.482  26.288  26.524  1.00  0.00     0.200 A 
ATOM     75  F   UNL A   1      39.107  24.720  27.630  1.00  0.00    -0.200 F 
ATOM     76  F   UNL A   1      40.549  25.492  25.449  1.00  0.00    -0.200 F 
ENDBRANCH  52  66
BRANCH  53  77
ATOM     77  C   UNL A   1      39.560  33.789  36.856  1.00  0.00     0.064 A 
ATOM     78  C   UNL A   1      38.739  33.394  37.921  1.00  0.00     0.173 A 
ATOM     79  C   UNL A   1      40.236  35.012  36.974  1.00  0.00     0.173 A 
ATOM     80  F   UNL A   1      38.055  32.242  37.848  1.00  0.00    -0.203 F 
ATOM     81  C   UNL A   1      38.575  34.204  39.044  1.00  0.00     0.198 A 
ATOM     82  C   UNL A   1      40.097  35.805  38.111  1.00  0.00     0.198 A 
ATOM     83  F   UNL A   1      41.037  35.436  35.985  1.00  0.00    -0.203 F 
ATOM     84  F   UNL A   1      37.738  33.829  40.021  1.00  0.00    -0.200 F 
ATOM     85  C   UNL A   1      39.258  35.406  39.140  1.00  0.00     0.200 A 
ATOM     86  F   UNL A   1      40.772  36.959  38.207  1.00  0.00    -0.200 F 
ATOM     87  F   UNL A   1      39.099  36.185  40.219  1.00  0.00    -0.200 F 
ENDBRANCH  53  77
BRANCH  65  88
ATOM     88  C   UNL A   1      43.803  28.559  35.064  1.00  0.00     0.064 A 
ATOM     89  C   UNL A   1      43.624  27.434  35.881  1.00  0.00     0.173 A 
ATOM     90  C   UNL A   1      45.110  29.037  34.882  1.00  0.00     0.173 A 
ATOM     91  F   UNL A   1      42.394  26.946  36.100  1.00  0.00    -0.203 F 
ATOM     92  C   UNL A   1      44.708  26.827  36.512  1.00  0.00     0.198 A 
ATOM     93  C   UNL A   1      46.195  28.408  35.486  1.00  0.00     0.198 A 
ATOM     94  F   UNL A   1      45.338  30.107  34.105  1.00  0.00    -0.203 F 
ATOM     95  F   UNL A   1      44.508  25.784  37.329  1.00  0.00    -0.200 F 
ATOM     96  C   UNL A   1      45.993  27.309  36.307  1.00  0.00     0.200 A 
ATOM     97  F   UNL A   1      47.437  28.865  35.274  1.00  0.00    -0.200 F 
ATOM     98  F   UNL A   1      47.035  26.718  36.906  1.00  0.00    -0.200 F 
ENDBRANCH  65  88
ENDBRANCH  39  40
ENDBRANCH  31  34
ENDBRANCH  29  30
ENDBRANCH  28  29
ENDBRANCH   1  28
TORSDOF 14
ENDMDL
MODEL 3
REMARK VINA RESULT:     -13.2      0.586      7.213
REMARK SMILES Cc1cc(C(=O)NNC(=O)[C@H]2[C@@H](C(=O)NCCCCNC(=O)c3ccc(-c4c5nc(c(-c6c(F)c(F)c(F)c(F)c6F)c6ccc([nH]6)c(-c6c(F)c(F)c(F)c(F)c6F)c6nc(c(-c7c(F)c(F)c(F)c(F)c7F)c7ccc4[nH]7)C=C6)C=C5)cc3)[C@@H]3C=C[C@H]2C3)cs1
REMARK SMILES IDX 17 1 16 2 15 3 13 4 14 5 12 7 11 8 89 9 86 10 88 11 90 12
REMARK SMILES IDX 87 13 9 14 8 15 10 17 7 18 5 19 6 20 4 22 1 23 2 24 3 25
REMARK SMILES IDX 92 26 91 27 18 28 19 29 20 30 21 31 22 33 23 34 24 35 85 36
REMARK SMILES IDX 25 37 84 38 26 39 27 40 28 41 78 42 29 43 83 44 77 45 79 46
REMARK SMILES IDX 30 47 82 48 76 49 75 50 31 52 63 53 43 54 62 55 44 56 47 57
REMARK SMILES IDX 61 58 80 59 45 60 46 61 60 63 81 64 48 65 32 66 33 67 41 68
REMARK SMILES IDX 34 69 35 70 39 71 42 72 36 73 37 74 40 75 38 76 64 77 65 78
REMARK SMILES IDX 73 79 66 80 67 81 71 82 74 83 68 84 69 85 72 86 70 87 49 88
REMARK SMILES IDX 50 89 58 90 51 91 52 92 56 93 59 94 53 95 54 96 57 97 55 98
REMARK H PARENT 15 6 8 16 7 21 20 32 79 51 47 62
REMARK Flexibility Score: inf
ROOT
ATOM      1  C   UNL A   1      31.405  30.732  26.255  1.00  0.00     0.023 C 
ENDROOT
BRANCH   1   2
ATOM      2  C   UNL A   1      32.788  30.099  26.168  1.00  0.00     0.116 C 
BRANCH   2   3
ATOM      3  N   UNL A   1      33.159  29.777  24.804  1.00  0.00    -0.356 N 
ATOM      4  C   UNL A   1      32.540  28.939  23.925  1.00  0.00     0.224 C 
ATOM      5  O   UNL A   1      32.915  28.952  22.752  1.00  0.00    -0.275 OA
ATOM      6  H   UNL A   1      33.969  30.224  24.467  1.00  0.00     0.163 HD
BRANCH   4   7
ATOM      7  C   UNL A   1      31.336  28.136  24.411  1.00  0.00     0.098 C 
ATOM      8  C   UNL A   1      31.569  26.602  24.679  1.00  0.00     0.100 C 
ATOM      9  C   UNL A   1      30.801  25.956  23.495  1.00  0.00     0.025 C 
ATOM     10  C   UNL A   1      30.307  28.127  23.253  1.00  0.00     0.025 C 
ATOM     11  C   UNL A   1      29.324  26.138  23.835  1.00  0.00    -0.027 C 
ATOM     12  C   UNL A   1      30.866  26.999  22.379  1.00  0.00     0.017 C 
ATOM     13  C   UNL A   1      29.044  27.447  23.722  1.00  0.00    -0.027 C 
BRANCH   8  14
ATOM     14  C   UNL A   1      32.998  26.293  25.111  1.00  0.00     0.242 C 
ATOM     15  N   UNL A   1      33.889  25.584  24.368  1.00  0.00    -0.267 N 
ATOM     16  H   UNL A   1      34.775  25.444  24.775  1.00  0.00     0.191 HD
ATOM     17  O   UNL A   1      33.335  26.509  26.284  1.00  0.00    -0.273 OA
BRANCH  15  18
ATOM     18  N   UNL A   1      33.707  25.034  23.117  1.00  0.00    -0.263 N 
ATOM     19  C   UNL A   1      34.092  23.755  22.741  1.00  0.00     0.270 C 
ATOM     20  O   UNL A   1      33.651  23.325  21.674  1.00  0.00    -0.267 OA
ATOM     21  H   UNL A   1      33.270  25.594  22.436  1.00  0.00     0.191 HD
BRANCH  19  22
ATOM     22  C   UNL A   1      34.932  22.915  23.611  1.00  0.00     0.052 A 
ATOM     23  C   UNL A   1      38.126  21.828  25.378  1.00  0.00     0.056 C 
ATOM     24  C   UNL A   1      36.761  22.032  24.812  1.00  0.00     0.002 A 
ATOM     25  C   UNL A   1      36.356  22.912  23.825  1.00  0.00     0.029 A 
ATOM     26  S   UNL A   1      35.460  21.085  25.378  1.00  0.00    -0.148 S 
ATOM     27  C   UNL A   1      34.355  21.905  24.369  1.00  0.00     0.079 A 
ENDBRANCH  19  22
ENDBRANCH  15  18
ENDBRANCH   8  14
ENDBRANCH   4   7
ENDBRANCH   2   3
ENDBRANCH   1   2
BRANCH   1  28
ATOM     28  C   UNL A   1      31.402  32.250  26.448  1.00  0.00     0.023 C 
BRANCH  28  29
ATOM     29  C   UNL A   1      32.563  32.802  27.266  1.00  0.00     0.116 C 
BRANCH  29  30
ATOM     30  N   UNL A   1      32.385  34.201  27.625  1.00  0.00    -0.352 N 
ATOM     31  C   UNL A   1      33.047  34.950  28.570  1.00  0.00     0.251 C 
ATOM     32  H   UNL A   1      31.692  34.680  27.118  1.00  0.00     0.163 HD
ATOM     33  O   UNL A   1      32.666  36.079  28.841  1.00  0.00    -0.269 OA
BRANCH  31  34
ATOM     34  C   UNL A   1      34.204  34.366  29.283  1.00  0.00     0.039 A 
ATOM     35  C   UNL A   1      33.975  33.638  30.452  1.00  0.00     0.014 A 
ATOM     36  C   UNL A   1      35.502  34.513  28.787  1.00  0.00     0.014 A 
ATOM     37  C   UNL A   1      35.041  32.993  31.083  1.00  0.00     0.010 A 
ATOM     38  C   UNL A   1      36.548  33.804  29.369  1.00  0.00     0.010 A 
ATOM     39  C   UNL A   1      36.328  33.033  30.521  1.00  0.00    -0.014 A 
BRANCH  39  40
ATOM     40  C   UNL A   1      37.453  32.267  31.117  1.00  0.00     0.031 A 
ATOM     41  C   UNL A   1      37.961  32.613  32.489  1.00  0.00     0.074 A 
ATOM     42  C   UNL A   1      38.058  31.302  30.396  1.00  0.00     0.049 A 
ATOM     43  N   UNL A   1      38.976  32.111  33.146  1.00  0.00    -0.248 NA
ATOM     44  C   UNL A   1      37.251  33.681  33.208  1.00  0.00     0.031 C 
ATOM     45  C   UNL A   1      37.687  30.902  29.038  1.00  0.00     0.029 A 
ATOM     46  N   UNL A   1      39.121  30.489  30.701  1.00  0.00    -0.354 N 
ATOM     47  C   UNL A   1      39.030  32.807  34.347  1.00  0.00     0.074 A 
ATOM     48  C   UNL A   1      37.983  33.805  34.305  1.00  0.00     0.031 C 
ATOM     49  C   UNL A   1      38.493  29.907  28.635  1.00  0.00     0.029 A 
ATOM     50  C   UNL A   1      39.466  29.627  29.687  1.00  0.00     0.049 A 
ATOM     51  H   UNL A   1      39.593  30.519  31.564  1.00  0.00     0.167 HD
ATOM     52  C   UNL A   1      39.860  32.614  35.400  1.00  0.00     0.037 A 
ATOM     53  C   UNL A   1      40.463  28.725  29.609  1.00  0.00     0.037 A 
ATOM     54  C   UNL A   1      40.889  31.609  35.445  1.00  0.00     0.049 A 
ATOM     55  C   UNL A   1      41.389  28.551  30.783  1.00  0.00     0.074 A 
ATOM     56  C   UNL A   1      41.748  31.301  36.486  1.00  0.00     0.029 A 
ATOM     57  N   UNL A   1      41.203  30.750  34.401  1.00  0.00    -0.354 N 
ATOM     58  N   UNL A   1      41.385  29.168  31.940  1.00  0.00    -0.248 NA
ATOM     59  C   UNL A   1      42.458  27.553  30.642  1.00  0.00     0.031 C 
ATOM     60  C   UNL A   1      42.617  30.295  36.054  1.00  0.00     0.029 A 
ATOM     61  C   UNL A   1      42.260  29.932  34.765  1.00  0.00     0.049 A 
ATOM     62  H   UNL A   1      40.743  30.727  33.531  1.00  0.00     0.167 HD
ATOM     63  C   UNL A   1      42.424  28.610  32.674  1.00  0.00     0.074 A 
ATOM     64  C   UNL A   1      43.026  27.594  31.838  1.00  0.00     0.031 C 
ATOM     65  C   UNL A   1      42.842  28.914  33.928  1.00  0.00     0.037 A 
BRANCH  52  66
ATOM     66  C   UNL A   1      39.688  33.506  36.596  1.00  0.00     0.064 A 
ATOM     67  C   UNL A   1      40.328  34.753  36.681  1.00  0.00     0.173 A 
ATOM     68  C   UNL A   1      38.834  33.136  37.645  1.00  0.00     0.173 A 
ATOM     69  F   UNL A   1      41.164  35.151  35.710  1.00  0.00    -0.203 F 
ATOM     70  C   UNL A   1      40.138  35.582  37.784  1.00  0.00     0.198 A 
ATOM     71  C   UNL A   1      38.621  33.982  38.730  1.00  0.00     0.198 A 
ATOM     72  F   UNL A   1      38.192  31.957  37.612  1.00  0.00    -0.203 F 
ATOM     73  F   UNL A   1      40.796  36.747  37.864  1.00  0.00    -0.200 F 
ATOM     74  C   UNL A   1      39.278  35.201  38.802  1.00  0.00     0.200 A 
ATOM     75  F   UNL A   1      37.777  33.619  39.707  1.00  0.00    -0.200 F 
ATOM     76  F   UNL A   1      39.086  36.006  39.856  1.00  0.00    -0.200 F 
ENDBRANCH  52  66
BRANCH  53  77
ATOM     77  C   UNL A   1      40.635  27.904  28.380  1.00  0.00     0.064 A 
ATOM     78  C   UNL A   1      40.045  26.637  28.271  1.00  0.00     0.173 A 
ATOM     79  C   UNL A   1      41.412  28.354  27.303  1.00  0.00     0.173 A 
ATOM     80  F   UNL A   1      39.308  26.152  29.283  1.00  0.00    -0.203 F 
ATOM     81  C   UNL A   1      40.250  25.840  27.146  1.00  0.00     0.198 A 
ATOM     82  C   UNL A   1      41.589  27.570  26.164  1.00  0.00     0.198 A 
ATOM     83  F   UNL A   1      41.996  29.560  27.353  1.00  0.00    -0.203 F 
ATOM     84  F   UNL A   1      39.721  24.609  27.095  1.00  0.00    -0.200 F 
ATOM     85  C   UNL A   1      41.017  26.309  26.092  1.00  0.00     0.200 A 
ATOM     86  F   UNL A   1      42.319  28.034  25.141  1.00  0.00    -0.200 F 
ATOM     87  F   UNL A   1      41.216  25.542  25.011  1.00  0.00    -0.200 F 
ENDBRANCH  53  77
BRANCH  65  88
ATOM     88  C   UNL A   1      43.977  28.110  34.491  1.00  0.00     0.064 A 
ATOM     89  C   UNL A   1      43.763  26.895  35.159  1.00  0.00     0.173 A 
ATOM     90  C   UNL A   1      45.303  28.540  34.322  1.00  0.00     0.173 A 
ATOM     91  F   UNL A   1      42.515  26.446  35.360  1.00  0.00    -0.203 F 
ATOM     92  C   UNL A   1      44.832  26.156  35.661  1.00  0.00     0.198 A 
ATOM     93  C   UNL A   1      46.370  27.781  34.795  1.00  0.00     0.198 A 
ATOM     94  F   UNL A   1      45.564  29.691  33.684  1.00  0.00    -0.203 F 
ATOM     95  F   UNL A   1      44.600  25.025  36.341  1.00  0.00    -0.200 F 
ATOM     96  C   UNL A   1      46.133  26.594  35.470  1.00  0.00     0.200 A 
ATOM     97  F   UNL A   1      47.627  28.199  34.595  1.00  0.00    -0.200 F 
ATOM     98  F   UNL A   1      47.160  25.876  35.946  1.00  0.00    -0.200 F 
ENDBRANCH  65  88
ENDBRANCH  39  40
ENDBRANCH  31  34
ENDBRANCH  29  30
ENDBRANCH  28  29
ENDBRANCH   1  28
TORSDOF 14
ENDMDL
