MODEL 1
REMARK VINA RESULT:     -12.2      0.000      0.000
REMARK SMILES C[C@H]1CC[C@H]([N@@H+](CC(=O)NCCCCNC(=O)c2ccc(-c3c4nc(c(-c5c(F)c(F)c(F)c(F)c5F)c5ccc([nH]5)c(-c5c(F)c(F)c(F)c(F)c5F)c5nc(c(-c6c(F)c(F)c(F)c(F)c6F)c6ccc3[nH]6)C=C5)C=C4)cc2)C(C)(C)C)C[C@@H]1C
REMARK SMILES IDX 12 1 11 2 10 3 8 4 9 5 7 7 6 8 5 10 1 11 2 12 3 13 86 14
REMARK SMILES IDX 4 15 85 16 87 17 81 18 82 19 83 20 84 21 13 22 14 23 15 24
REMARK SMILES IDX 16 25 17 27 18 28 19 29 80 30 20 31 79 32 21 33 22 34 23 35
REMARK SMILES IDX 73 36 24 37 78 38 72 39 74 40 25 41 77 42 71 43 70 44 26 46
REMARK SMILES IDX 58 47 38 48 57 49 39 50 42 51 56 52 75 53 40 54 41 55 55 57
REMARK SMILES IDX 76 58 43 59 27 60 28 61 36 62 29 63 30 64 34 65 37 66 31 67
REMARK SMILES IDX 32 68 35 69 33 70 59 71 60 72 68 73 61 74 62 75 66 76 69 77
REMARK SMILES IDX 63 78 64 79 67 80 65 81 44 82 45 83 53 84 46 85 47 86 51 87
REMARK SMILES IDX 54 88 48 89 49 90 52 91 50 92
REMARK H PARENT 10 6 6 9 15 26 74 45 42 56
REMARK Flexibility Score: inf
ROOT
ATOM      1  C   UNL A   1      32.669  29.302  24.495  1.00  0.00     0.023 C 
ENDROOT
BRANCH   1   2
ATOM      2  C   UNL A   1      32.057  28.704  23.219  1.00  0.00     0.116 C 
BRANCH   2   3
ATOM      3  N   UNL A   1      32.930  27.802  22.483  1.00  0.00    -0.351 N 
ATOM      4  C   UNL A   1      32.863  26.461  22.220  1.00  0.00     0.275 C 
ATOM      5  O   UNL A   1      33.653  26.037  21.371  1.00  0.00    -0.269 OA
ATOM      6  H   UNL A   1      33.723  28.240  22.101  1.00  0.00     0.163 HD
BRANCH   4   7
ATOM      7  C   UNL A   1      31.873  25.535  22.951  1.00  0.00     0.364 C 
BRANCH   7   8
ATOM      8  N   UNL A   1      32.175  25.300  24.396  1.00  0.00    -0.321 N 
ATOM      9  H   UNL A   1      32.739  26.077  24.742  1.00  0.00     0.349 HD
BRANCH   8  10
ATOM     10  C   UNL A   1      33.089  24.157  24.569  1.00  0.00     0.185 C 
ATOM     11  C   UNL A   1      35.848  20.826  25.002  1.00  0.00     0.008 C 
ATOM     12  C   UNL A   1      35.226  22.084  24.385  1.00  0.00    -0.011 C 
ATOM     13  C   UNL A   1      33.757  21.779  24.004  1.00  0.00     0.010 C 
ATOM     14  C   UNL A   1      35.312  23.289  25.341  1.00  0.00    -0.006 C 
ATOM     15  C   UNL A   1      32.957  23.011  23.549  1.00  0.00     0.065 C 
ATOM     16  C   UNL A   1      34.569  24.498  24.767  1.00  0.00     0.068 C 
ATOM     17  C   UNL A   1      36.722  23.702  25.755  1.00  0.00     0.008 C 
ENDBRANCH   8  10
BRANCH   8  18
ATOM     18  C   UNL A   1      31.122  25.627  25.397  1.00  0.00     0.090 C 
ATOM     19  C   UNL A   1      31.523  26.631  26.497  1.00  0.00     0.078 C 
ATOM     20  C   UNL A   1      29.849  26.176  24.710  1.00  0.00     0.078 C 
ATOM     21  C   UNL A   1      30.655  24.339  26.130  1.00  0.00     0.078 C 
ENDBRANCH   8  18
ENDBRANCH   7   8
ENDBRANCH   4   7
ENDBRANCH   2   3
ENDBRANCH   1   2
BRANCH   1  22
ATOM     22  C   UNL A   1      31.697  30.079  25.391  1.00  0.00     0.023 C 
BRANCH  22  23
ATOM     23  C   UNL A   1      32.229  30.430  26.767  1.00  0.00     0.116 C 
BRANCH  23  24
ATOM     24  N   UNL A   1      32.459  31.862  26.887  1.00  0.00    -0.352 N 
ATOM     25  C   UNL A   1      33.427  32.572  27.551  1.00  0.00     0.251 C 
ATOM     26  H   UNL A   1      31.805  32.420  26.408  1.00  0.00     0.163 HD
ATOM     27  O   UNL A   1      33.223  33.774  27.762  1.00  0.00    -0.269 OA
BRANCH  25  28
ATOM     28  C   UNL A   1      34.711  31.975  28.006  1.00  0.00     0.039 A 
ATOM     29  C   UNL A   1      34.740  30.607  28.318  1.00  0.00     0.014 A 
ATOM     30  C   UNL A   1      35.847  32.744  28.269  1.00  0.00     0.014 A 
ATOM     31  C   UNL A   1      35.877  30.031  28.899  1.00  0.00     0.010 A 
ATOM     32  C   UNL A   1      37.017  32.150  28.745  1.00  0.00     0.010 A 
ATOM     33  C   UNL A   1      37.027  30.801  29.124  1.00  0.00    -0.014 A 
BRANCH  33  34
ATOM     34  C   UNL A   1      38.193  30.257  29.873  1.00  0.00     0.031 A 
ATOM     35  C   UNL A   1      38.407  30.665  31.312  1.00  0.00     0.074 A 
ATOM     36  C   UNL A   1      39.066  29.425  29.274  1.00  0.00     0.049 A 
ATOM     37  N   UNL A   1      39.394  30.373  32.125  1.00  0.00    -0.248 NA
ATOM     38  C   UNL A   1      37.394  31.552  31.909  1.00  0.00     0.031 C 
ATOM     39  C   UNL A   1      38.997  28.988  27.880  1.00  0.00     0.029 A 
ATOM     40  N   UNL A   1      40.187  28.803  29.764  1.00  0.00    -0.354 N 
ATOM     41  C   UNL A   1      39.131  31.061  33.305  1.00  0.00     0.074 A 
ATOM     42  C   UNL A   1      37.928  31.833  33.087  1.00  0.00     0.031 C 
ATOM     43  C   UNL A   1      40.017  28.149  27.632  1.00  0.00     0.029 A 
ATOM     44  C   UNL A   1      40.826  28.011  28.841  1.00  0.00     0.049 A 
ATOM     45  H   UNL A   1      40.504  28.914  30.689  1.00  0.00     0.167 HD
ATOM     46  C   UNL A   1      39.809  31.028  34.477  1.00  0.00     0.037 A 
ATOM     47  C   UNL A   1      41.936  27.259  28.959  1.00  0.00     0.037 A 
ATOM     48  C   UNL A   1      40.970  30.215  34.713  1.00  0.00     0.049 A 
ATOM     49  C   UNL A   1      42.642  27.201  30.288  1.00  0.00     0.074 A 
ATOM     50  C   UNL A   1      41.706  30.072  35.876  1.00  0.00     0.029 A 
ATOM     51  N   UNL A   1      41.555  29.388  33.766  1.00  0.00    -0.354 N 
ATOM     52  N   UNL A   1      42.360  27.826  31.405  1.00  0.00    -0.248 NA
ATOM     53  C   UNL A   1      43.815  26.319  30.376  1.00  0.00     0.031 C 
ATOM     54  C   UNL A   1      42.750  29.174  35.626  1.00  0.00     0.029 A 
ATOM     55  C   UNL A   1      42.641  28.731  34.318  1.00  0.00     0.049 A 
ATOM     56  H   UNL A   1      41.243  29.283  32.837  1.00  0.00     0.167 HD
ATOM     57  C   UNL A   1      43.303  27.402  32.331  1.00  0.00     0.074 A 
ATOM     58  C   UNL A   1      44.151  26.442  31.653  1.00  0.00     0.031 C 
ATOM     59  C   UNL A   1      43.464  27.775  33.624  1.00  0.00     0.037 A 
BRANCH  46  60
ATOM     60  C   UNL A   1      39.294  31.877  35.604  1.00  0.00     0.064 A 
ATOM     61  C   UNL A   1      38.383  31.371  36.546  1.00  0.00     0.173 A 
ATOM     62  C   UNL A   1      39.746  33.195  35.773  1.00  0.00     0.173 A 
ATOM     63  F   UNL A   1      37.909  30.122  36.423  1.00  0.00    -0.203 F 
ATOM     64  C   UNL A   1      37.925  32.161  37.597  1.00  0.00     0.198 A 
ATOM     65  C   UNL A   1      39.307  33.972  36.843  1.00  0.00     0.198 A 
ATOM     66  F   UNL A   1      40.619  33.726  34.906  1.00  0.00    -0.203 F 
ATOM     67  F   UNL A   1      37.019  31.671  38.454  1.00  0.00    -0.200 F 
ATOM     68  C   UNL A   1      38.392  33.457  37.750  1.00  0.00     0.200 A 
ATOM     69  F   UNL A   1      39.769  35.221  36.995  1.00  0.00    -0.200 F 
ATOM     70  F   UNL A   1      37.956  34.213  38.767  1.00  0.00    -0.200 F 
ENDBRANCH  46  60
BRANCH  47  71
ATOM     71  C   UNL A   1      42.433  26.470  27.801  1.00  0.00     0.064 A 
ATOM     72  C   UNL A   1      43.406  26.993  26.937  1.00  0.00     0.173 A 
ATOM     73  C   UNL A   1      41.936  25.189  27.523  1.00  0.00     0.173 A 
ATOM     74  F   UNL A   1      43.896  28.224  27.149  1.00  0.00    -0.203 F 
ATOM     75  C   UNL A   1      43.842  26.277  25.824  1.00  0.00     0.198 A 
ATOM     76  C   UNL A   1      42.394  24.462  26.425  1.00  0.00     0.198 A 
ATOM     77  F   UNL A   1      41.007  24.640  28.320  1.00  0.00    -0.203 F 
ATOM     78  F   UNL A   1      44.733  26.824  24.986  1.00  0.00    -0.200 F 
ATOM     79  C   UNL A   1      43.340  25.010  25.572  1.00  0.00     0.200 A 
ATOM     80  F   UNL A   1      41.916  23.232  26.192  1.00  0.00    -0.200 F 
ATOM     81  F   UNL A   1      43.759  24.321  24.502  1.00  0.00    -0.200 F 
ENDBRANCH  47  71
BRANCH  59  82
ATOM     82  C   UNL A   1      44.580  27.128  34.388  1.00  0.00     0.064 A 
ATOM     83  C   UNL A   1      44.382  25.936  35.100  1.00  0.00     0.173 A 
ATOM     84  C   UNL A   1      45.862  27.694  34.390  1.00  0.00     0.173 A 
ATOM     85  F   UNL A   1      43.169  25.364  35.136  1.00  0.00    -0.203 F 
ATOM     86  C   UNL A   1      45.423  25.351  35.815  1.00  0.00     0.198 A 
ATOM     87  C   UNL A   1      46.908  27.092  35.085  1.00  0.00     0.198 A 
ATOM     88  F   UNL A   1      46.103  28.829  33.717  1.00  0.00    -0.203 F 
ATOM     89  F   UNL A   1      45.200  24.241  36.531  1.00  0.00    -0.200 F 
ATOM     90  C   UNL A   1      46.685  25.927  35.803  1.00  0.00     0.200 A 
ATOM     91  F   UNL A   1      48.129  27.642  35.063  1.00  0.00    -0.200 F 
ATOM     92  F   UNL A   1      47.685  25.363  36.493  1.00  0.00    -0.200 F 
ENDBRANCH  59  82
ENDBRANCH  33  34
ENDBRANCH  25  28
ENDBRANCH  23  24
ENDBRANCH  22  23
ENDBRANCH   1  22
TORSDOF 14
ENDMDL
MODEL 2
REMARK VINA RESULT:     -11.8      4.331      9.930
REMARK SMILES C[C@H]1CC[C@H]([N@@H+](CC(=O)NCCCCNC(=O)c2ccc(-c3c4nc(c(-c5c(F)c(F)c(F)c(F)c5F)c5ccc([nH]5)c(-c5c(F)c(F)c(F)c(F)c5F)c5nc(c(-c6c(F)c(F)c(F)c(F)c6F)c6ccc3[nH]6)C=C5)C=C4)cc2)C(C)(C)C)C[C@@H]1C
REMARK SMILES IDX 12 1 11 2 10 3 8 4 9 5 7 7 6 8 5 10 1 11 2 12 3 13 86 14
REMARK SMILES IDX 4 15 85 16 87 17 81 18 82 19 83 20 84 21 13 22 14 23 15 24
REMARK SMILES IDX 16 25 17 27 18 28 19 29 80 30 20 31 79 32 21 33 22 34 23 35
REMARK SMILES IDX 73 36 24 37 78 38 72 39 74 40 25 41 77 42 71 43 70 44 26 46
REMARK SMILES IDX 58 47 38 48 57 49 39 50 42 51 56 52 75 53 40 54 41 55 55 57
REMARK SMILES IDX 76 58 43 59 27 60 28 61 36 62 29 63 30 64 34 65 37 66 31 67
REMARK SMILES IDX 32 68 35 69 33 70 59 71 60 72 68 73 61 74 62 75 66 76 69 77
REMARK SMILES IDX 63 78 64 79 67 80 65 81 44 82 45 83 53 84 46 85 47 86 51 87
REMARK SMILES IDX 54 88 48 89 49 90 52 91 50 92
REMARK H PARENT 10 6 6 9 15 26 74 45 42 56
REMARK Flexibility Score: inf
ROOT
ATOM      1  C   UNL A   1      35.131  20.320  24.966  1.00  0.00     0.023 C 
ENDROOT
BRANCH   1   2
ATOM      2  C   UNL A   1      33.653  20.606  25.277  1.00  0.00     0.116 C 
BRANCH   2   3
ATOM      3  N   UNL A   1      33.423  21.476  26.420  1.00  0.00    -0.351 N 
ATOM      4  C   UNL A   1      32.682  22.614  26.581  1.00  0.00     0.275 C 
ATOM      5  O   UNL A   1      32.515  22.990  27.745  1.00  0.00    -0.269 OA
ATOM      6  H   UNL A   1      33.892  21.191  27.237  1.00  0.00     0.163 HD
BRANCH   4   7
ATOM      7  C   UNL A   1      32.106  23.388  25.380  1.00  0.00     0.364 C 
BRANCH   7   8
ATOM      8  N   UNL A   1      33.024  24.407  24.785  1.00  0.00    -0.321 N 
ATOM      9  H   UNL A   1      33.961  24.261  25.160  1.00  0.00     0.349 HD
BRANCH   8  10
ATOM     10  C   UNL A   1      32.705  25.761  25.274  1.00  0.00     0.185 C 
ATOM     11  C   UNL A   1      31.789  29.720  26.816  1.00  0.00     0.008 C 
ATOM     12  C   UNL A   1      32.134  28.227  26.852  1.00  0.00    -0.011 C 
ATOM     13  C   UNL A   1      31.012  27.439  26.132  1.00  0.00     0.010 C 
ATOM     14  C   UNL A   1      33.507  27.944  26.212  1.00  0.00    -0.006 C 
ATOM     15  C   UNL A   1      31.324  25.947  25.929  1.00  0.00     0.065 C 
ATOM     16  C   UNL A   1      33.775  26.439  26.134  1.00  0.00     0.068 C 
ATOM     17  C   UNL A   1      34.696  28.644  26.867  1.00  0.00     0.008 C 
ENDBRANCH   8  10
BRANCH   8  18
ATOM     18  C   UNL A   1      33.543  24.167  23.410  1.00  0.00     0.090 C 
ATOM     19  C   UNL A   1      32.794  23.104  22.581  1.00  0.00     0.078 C 
ATOM     20  C   UNL A   1      33.560  25.474  22.582  1.00  0.00     0.078 C 
ATOM     21  C   UNL A   1      35.028  23.711  23.466  1.00  0.00     0.078 C 
ENDBRANCH   8  18
ENDBRANCH   7   8
ENDBRANCH   4   7
ENDBRANCH   2   3
ENDBRANCH   1   2
BRANCH   1  22
ATOM     22  C   UNL A   1      36.136  21.296  25.586  1.00  0.00     0.023 C 
BRANCH  22  23
ATOM     23  C   UNL A   1      37.479  21.372  24.885  1.00  0.00     0.116 C 
BRANCH  23  24
ATOM     24  N   UNL A   1      38.444  20.480  25.510  1.00  0.00    -0.352 N 
ATOM     25  C   UNL A   1      39.625  20.735  26.160  1.00  0.00     0.251 C 
ATOM     26  H   UNL A   1      38.210  19.526  25.455  1.00  0.00     0.163 HD
ATOM     27  O   UNL A   1      40.414  19.796  26.321  1.00  0.00    -0.269 OA
BRANCH  25  28
ATOM     28  C   UNL A   1      39.989  22.073  26.699  1.00  0.00     0.039 A 
ATOM     29  C   UNL A   1      39.376  23.207  26.144  1.00  0.00     0.014 A 
ATOM     30  C   UNL A   1      41.013  22.256  27.631  1.00  0.00     0.014 A 
ATOM     31  C   UNL A   1      39.796  24.494  26.503  1.00  0.00     0.010 A 
ATOM     32  C   UNL A   1      41.357  23.535  28.071  1.00  0.00     0.010 A 
ATOM     33  C   UNL A   1      40.799  24.670  27.468  1.00  0.00    -0.014 A 
BRANCH  33  34
ATOM     34  C   UNL A   1      41.370  26.013  27.761  1.00  0.00     0.031 A 
ATOM     35  C   UNL A   1      42.765  26.347  27.286  1.00  0.00     0.074 A 
ATOM     36  C   UNL A   1      40.664  26.921  28.462  1.00  0.00     0.049 A 
ATOM     37  N   UNL A   1      43.482  27.424  27.495  1.00  0.00    -0.248 NA
ATOM     38  C   UNL A   1      43.462  25.316  26.499  1.00  0.00     0.031 C 
ATOM     39  C   UNL A   1      39.326  26.709  29.014  1.00  0.00     0.029 A 
ATOM     40  N   UNL A   1      40.979  28.204  28.835  1.00  0.00    -0.354 N 
ATOM     41  C   UNL A   1      44.713  27.183  26.894  1.00  0.00     0.074 A 
ATOM     42  C   UNL A   1      44.671  25.839  26.364  1.00  0.00     0.031 C 
ATOM     43  C   UNL A   1      38.924  27.831  29.634  1.00  0.00     0.029 A 
ATOM     44  C   UNL A   1      39.986  28.830  29.547  1.00  0.00     0.049 A 
ATOM     45  H   UNL A   1      41.836  28.634  28.613  1.00  0.00     0.167 HD
ATOM     46  C   UNL A   1      45.773  28.017  26.763  1.00  0.00     0.037 A 
ATOM     47  C   UNL A   1      39.939  30.072  30.067  1.00  0.00     0.037 A 
ATOM     48  C   UNL A   1      45.794  29.374  27.237  1.00  0.00     0.049 A 
ATOM     49  C   UNL A   1      41.111  30.996  29.864  1.00  0.00     0.074 A 
ATOM     50  C   UNL A   1      46.798  30.318  27.118  1.00  0.00     0.029 A 
ATOM     51  N   UNL A   1      44.747  29.987  27.909  1.00  0.00    -0.354 N 
ATOM     52  N   UNL A   1      42.252  30.767  29.260  1.00  0.00    -0.248 NA
ATOM     53  C   UNL A   1      40.982  32.357  30.403  1.00  0.00     0.031 C 
ATOM     54  C   UNL A   1      46.366  31.497  27.736  1.00  0.00     0.029 A 
ATOM     55  C   UNL A   1      45.080  31.296  28.208  1.00  0.00     0.049 A 
ATOM     56  H   UNL A   1      43.892  29.553  28.139  1.00  0.00     0.167 HD
ATOM     57  C   UNL A   1      42.966  31.955  29.329  1.00  0.00     0.074 A 
ATOM     58  C   UNL A   1      42.118  32.913  30.009  1.00  0.00     0.031 C 
ATOM     59  C   UNL A   1      44.215  32.231  28.879  1.00  0.00     0.037 A 
BRANCH  46  60
ATOM     60  C   UNL A   1      46.989  27.493  26.054  1.00  0.00     0.064 A 
ATOM     61  C   UNL A   1      48.019  26.839  26.750  1.00  0.00     0.173 A 
ATOM     62  C   UNL A   1      47.110  27.605  24.660  1.00  0.00     0.173 A 
ATOM     63  F   UNL A   1      47.959  26.717  28.084  1.00  0.00    -0.203 F 
ATOM     64  C   UNL A   1      49.134  26.342  26.081  1.00  0.00     0.198 A 
ATOM     65  C   UNL A   1      48.213  27.080  23.991  1.00  0.00     0.198 A 
ATOM     66  F   UNL A   1      46.153  28.216  23.946  1.00  0.00    -0.203 F 
ATOM     67  F   UNL A   1      50.125  25.764  26.773  1.00  0.00    -0.200 F 
ATOM     68  C   UNL A   1      49.227  26.455  24.702  1.00  0.00     0.200 A 
ATOM     69  F   UNL A   1      48.296  27.181  22.657  1.00  0.00    -0.200 F 
ATOM     70  F   UNL A   1      50.297  25.968  24.059  1.00  0.00    -0.200 F 
ENDBRANCH  46  60
BRANCH  47  71
ATOM     71  C   UNL A   1      38.729  30.531  30.800  1.00  0.00     0.064 A 
ATOM     72  C   UNL A   1      37.629  31.062  30.113  1.00  0.00     0.173 A 
ATOM     73  C   UNL A   1      38.654  30.465  32.198  1.00  0.00     0.173 A 
ATOM     74  F   UNL A   1      37.662  31.166  28.775  1.00  0.00    -0.203 F 
ATOM     75  C   UNL A   1      36.511  31.536  30.797  1.00  0.00     0.198 A 
ATOM     76  C   UNL A   1      37.524  30.913  32.880  1.00  0.00     0.198 A 
ATOM     77  F   UNL A   1      39.677  29.961  32.904  1.00  0.00    -0.203 F 
ATOM     78  F   UNL A   1      35.496  32.087  30.117  1.00  0.00    -0.200 F 
ATOM     79  C   UNL A   1      36.457  31.456  32.179  1.00  0.00     0.200 A 
ATOM     80  F   UNL A   1      37.470  30.822  34.217  1.00  0.00    -0.200 F 
ATOM     81  F   UNL A   1      35.382  31.911  32.838  1.00  0.00    -0.200 F 
ENDBRANCH  47  71
BRANCH  59  82
ATOM     82  C   UNL A   1      44.722  33.626  29.090  1.00  0.00     0.064 A 
ATOM     83  C   UNL A   1      45.453  33.973  30.236  1.00  0.00     0.173 A 
ATOM     84  C   UNL A   1      44.492  34.620  28.127  1.00  0.00     0.173 A 
ATOM     85  F   UNL A   1      45.687  33.059  31.189  1.00  0.00    -0.203 F 
ATOM     86  C   UNL A   1      45.908  35.274  30.425  1.00  0.00     0.198 A 
ATOM     87  C   UNL A   1      44.972  35.914  28.308  1.00  0.00     0.198 A 
ATOM     88  F   UNL A   1      43.806  34.335  27.011  1.00  0.00    -0.203 F 
ATOM     89  F   UNL A   1      46.558  35.597  31.551  1.00  0.00    -0.200 F 
ATOM     90  C   UNL A   1      45.671  36.242  29.460  1.00  0.00     0.200 A 
ATOM     91  F   UNL A   1      44.753  36.845  27.370  1.00  0.00    -0.200 F 
ATOM     92  F   UNL A   1      46.109  37.494  29.645  1.00  0.00    -0.200 F 
ENDBRANCH  59  82
ENDBRANCH  33  34
ENDBRANCH  25  28
ENDBRANCH  23  24
ENDBRANCH  22  23
ENDBRANCH   1  22
TORSDOF 14
ENDMDL
MODEL 3
REMARK VINA RESULT:     -11.8      0.476      2.087
REMARK SMILES C[C@H]1CC[C@H]([N@@H+](CC(=O)NCCCCNC(=O)c2ccc(-c3c4nc(c(-c5c(F)c(F)c(F)c(F)c5F)c5ccc([nH]5)c(-c5c(F)c(F)c(F)c(F)c5F)c5nc(c(-c6c(F)c(F)c(F)c(F)c6F)c6ccc3[nH]6)C=C5)C=C4)cc2)C(C)(C)C)C[C@@H]1C
REMARK SMILES IDX 12 1 11 2 10 3 8 4 9 5 7 7 6 8 5 10 1 11 2 12 3 13 86 14
REMARK SMILES IDX 4 15 85 16 87 17 81 18 82 19 83 20 84 21 13 22 14 23 15 24
REMARK SMILES IDX 16 25 17 27 18 28 19 29 80 30 20 31 79 32 21 33 22 34 23 35
REMARK SMILES IDX 73 36 24 37 78 38 72 39 74 40 25 41 77 42 71 43 70 44 26 46
REMARK SMILES IDX 58 47 38 48 57 49 39 50 42 51 56 52 75 53 40 54 41 55 55 57
REMARK SMILES IDX 76 58 43 59 27 60 28 61 36 62 29 63 30 64 34 65 37 66 31 67
REMARK SMILES IDX 32 68 35 69 33 70 59 71 60 72 68 73 61 74 62 75 66 76 69 77
REMARK SMILES IDX 63 78 64 79 67 80 65 81 44 82 45 83 53 84 46 85 47 86 51 87
REMARK SMILES IDX 54 88 48 89 49 90 52 91 50 92
REMARK H PARENT 10 6 6 9 15 26 74 45 42 56
REMARK Flexibility Score: inf
ROOT
ATOM      1  C   UNL A   1      31.491  29.640  24.295  1.00  0.00     0.023 C 
ENDROOT
BRANCH   1   2
ATOM      2  C   UNL A   1      31.288  28.371  23.453  1.00  0.00     0.116 C 
BRANCH   2   3
ATOM      3  N   UNL A   1      32.500  27.829  22.856  1.00  0.00    -0.351 N 
ATOM      4  C   UNL A   1      32.917  26.549  22.610  1.00  0.00     0.275 C 
ATOM      5  O   UNL A   1      33.907  26.434  21.881  1.00  0.00    -0.269 OA
ATOM      6  H   UNL A   1      33.146  28.516  22.576  1.00  0.00     0.163 HD
BRANCH   4   7
ATOM      7  C   UNL A   1      32.202  25.328  23.218  1.00  0.00     0.364 C 
BRANCH   7   8
ATOM      8  N   UNL A   1      32.530  25.053  24.651  1.00  0.00    -0.321 N 
ATOM      9  H   UNL A   1      33.033  25.854  25.031  1.00  0.00     0.349 HD
BRANCH   8  10
ATOM     10  C   UNL A   1      33.530  23.977  24.771  1.00  0.00     0.185 C 
ATOM     11  C   UNL A   1      36.538  20.851  25.042  1.00  0.00     0.008 C 
ATOM     12  C   UNL A   1      35.802  22.067  24.469  1.00  0.00    -0.011 C 
ATOM     13  C   UNL A   1      34.344  21.660  24.146  1.00  0.00     0.010 C 
ATOM     14  C   UNL A   1      35.841  23.265  25.437  1.00  0.00    -0.006 C 
ATOM     15  C   UNL A   1      33.438  22.836  23.741  1.00  0.00     0.065 C 
ATOM     16  C   UNL A   1      34.989  24.423  24.912  1.00  0.00     0.068 C 
ATOM     17  C   UNL A   1      37.234  23.775  25.798  1.00  0.00     0.008 C 
ENDBRANCH   8  10
BRANCH   8  18
ATOM     18  C   UNL A   1      31.460  25.251  25.668  1.00  0.00     0.090 C 
ATOM     19  C   UNL A   1      30.055  25.571  25.116  1.00  0.00     0.078 C 
ATOM     20  C   UNL A   1      31.326  24.015  26.588  1.00  0.00     0.078 C 
ATOM     21  C   UNL A   1      31.830  26.421  26.621  1.00  0.00     0.078 C 
ENDBRANCH   8  18
ENDBRANCH   7   8
ENDBRANCH   4   7
ENDBRANCH   2   3
ENDBRANCH   1   2
BRANCH   1  22
ATOM     22  C   UNL A   1      32.657  29.591  25.290  1.00  0.00     0.023 C 
BRANCH  22  23
ATOM     23  C   UNL A   1      32.320  30.039  26.699  1.00  0.00     0.116 C 
BRANCH  23  24
ATOM     24  N   UNL A   1      32.485  31.478  26.842  1.00  0.00    -0.352 N 
ATOM     25  C   UNL A   1      33.430  32.220  27.503  1.00  0.00     0.251 C 
ATOM     26  H   UNL A   1      31.798  32.013  26.384  1.00  0.00     0.163 HD
ATOM     27  O   UNL A   1      33.175  33.408  27.740  1.00  0.00    -0.269 OA
BRANCH  25  28
ATOM     28  C   UNL A   1      34.748  31.676  27.927  1.00  0.00     0.039 A 
ATOM     29  C   UNL A   1      34.834  30.317  28.263  1.00  0.00     0.014 A 
ATOM     30  C   UNL A   1      35.865  32.488  28.137  1.00  0.00     0.014 A 
ATOM     31  C   UNL A   1      36.008  29.791  28.817  1.00  0.00     0.010 A 
ATOM     32  C   UNL A   1      37.070  31.943  28.584  1.00  0.00     0.010 A 
ATOM     33  C   UNL A   1      37.138  30.603  28.989  1.00  0.00    -0.014 A 
BRANCH  33  34
ATOM     34  C   UNL A   1      38.346  30.114  29.709  1.00  0.00     0.031 A 
ATOM     35  C   UNL A   1      38.599  30.567  31.128  1.00  0.00     0.074 A 
ATOM     36  C   UNL A   1      39.222  29.292  29.100  1.00  0.00     0.049 A 
ATOM     37  N   UNL A   1      39.622  30.325  31.912  1.00  0.00    -0.248 NA
ATOM     38  C   UNL A   1      37.581  31.439  31.738  1.00  0.00     0.031 C 
ATOM     39  C   UNL A   1      39.117  28.816  27.721  1.00  0.00     0.029 A 
ATOM     40  N   UNL A   1      40.378  28.717  29.564  1.00  0.00    -0.354 N 
ATOM     41  C   UNL A   1      39.381  31.037  33.082  1.00  0.00     0.074 A 
ATOM     42  C   UNL A   1      38.148  31.766  32.889  1.00  0.00     0.031 C 
ATOM     43  C   UNL A   1      40.152  28.002  27.458  1.00  0.00     0.029 A 
ATOM     44  C   UNL A   1      41.007  27.920  28.639  1.00  0.00     0.049 A 
ATOM     45  H   UNL A   1      40.725  28.862  30.474  1.00  0.00     0.167 HD
ATOM     46  C   UNL A   1      40.101  31.055  34.230  1.00  0.00     0.037 A 
ATOM     47  C   UNL A   1      42.143  27.204  28.737  1.00  0.00     0.037 A 
ATOM     48  C   UNL A   1      41.294  30.283  34.445  1.00  0.00     0.049 A 
ATOM     49  C   UNL A   1      42.898  27.202  30.040  1.00  0.00     0.074 A 
ATOM     50  C   UNL A   1      42.075  30.193  35.583  1.00  0.00     0.029 A 
ATOM     51  N   UNL A   1      41.869  29.448  33.498  1.00  0.00    -0.354 N 
ATOM     52  N   UNL A   1      42.636  27.849  31.150  1.00  0.00    -0.248 NA
ATOM     53  C   UNL A   1      44.100  26.358  30.108  1.00  0.00     0.031 C 
ATOM     54  C   UNL A   1      43.135  29.319  35.318  1.00  0.00     0.029 A 
ATOM     55  C   UNL A   1      42.993  28.839  34.027  1.00  0.00     0.049 A 
ATOM     56  H   UNL A   1      41.527  29.310  32.584  1.00  0.00     0.167 HD
ATOM     57  C   UNL A   1      43.625  27.477  32.052  1.00  0.00     0.074 A 
ATOM     58  C   UNL A   1      44.476  26.525  31.368  1.00  0.00     0.031 C 
ATOM     59  C   UNL A   1      43.819  27.889  33.328  1.00  0.00     0.037 A 
BRANCH  46  60
ATOM     60  C   UNL A   1      39.600  31.918  35.353  1.00  0.00     0.064 A 
ATOM     61  C   UNL A   1      40.029  33.246  35.504  1.00  0.00     0.173 A 
ATOM     62  C   UNL A   1      38.651  31.429  36.264  1.00  0.00     0.173 A 
ATOM     63  F   UNL A   1      40.945  33.758  34.669  1.00  0.00    -0.203 F 
ATOM     64  C   UNL A   1      39.546  34.043  36.539  1.00  0.00     0.198 A 
ATOM     65  C   UNL A   1      38.148  32.238  37.280  1.00  0.00     0.198 A 
ATOM     66  F   UNL A   1      38.203  30.169  36.163  1.00  0.00    -0.203 F 
ATOM     67  F   UNL A   1      40.007  35.292  36.690  1.00  0.00    -0.200 F 
ATOM     68  C   UNL A   1      38.601  33.542  37.421  1.00  0.00     0.200 A 
ATOM     69  F   UNL A   1      37.226  31.756  38.125  1.00  0.00    -0.200 F 
ATOM     70  F   UNL A   1      38.131  34.313  38.411  1.00  0.00    -0.200 F 
ENDBRANCH  46  60
BRANCH  47  71
ATOM     71  C   UNL A   1      42.623  26.399  27.582  1.00  0.00     0.064 A 
ATOM     72  C   UNL A   1      42.133  25.106  27.352  1.00  0.00     0.173 A 
ATOM     73  C   UNL A   1      43.589  26.897  26.697  1.00  0.00     0.173 A 
ATOM     74  F   UNL A   1      41.223  24.578  28.184  1.00  0.00    -0.203 F 
ATOM     75  C   UNL A   1      42.611  24.330  26.297  1.00  0.00     0.198 A 
ATOM     76  C   UNL A   1      44.047  26.131  25.625  1.00  0.00     0.198 A 
ATOM     77  F   UNL A   1      44.088  28.130  26.868  1.00  0.00    -0.203 F 
ATOM     78  F   UNL A   1      42.164  23.078  26.134  1.00  0.00    -0.200 F 
ATOM     79  C   UNL A   1      43.563  24.845  25.432  1.00  0.00     0.200 A 
ATOM     80  F   UNL A   1      44.958  26.637  24.783  1.00  0.00    -0.200 F 
ATOM     81  F   UNL A   1      44.024  24.100  24.418  1.00  0.00    -0.200 F 
ENDBRANCH  47  71
BRANCH  59  82
ATOM     82  C   UNL A   1      44.981  27.295  34.067  1.00  0.00     0.064 A 
ATOM     83  C   UNL A   1      46.243  27.907  34.057  1.00  0.00     0.173 A 
ATOM     84  C   UNL A   1      44.825  26.114  34.807  1.00  0.00     0.173 A 
ATOM     85  F   UNL A   1      46.443  29.032  33.354  1.00  0.00    -0.203 F 
ATOM     86  C   UNL A   1      47.316  27.340  34.737  1.00  0.00     0.198 A 
ATOM     87  C   UNL A   1      45.894  25.564  35.507  1.00  0.00     0.198 A 
ATOM     88  F   UNL A   1      43.635  25.497  34.853  1.00  0.00    -0.203 F 
ATOM     89  F   UNL A   1      48.526  27.912  34.673  1.00  0.00    -0.200 F 
ATOM     90  C   UNL A   1      47.140  26.171  35.465  1.00  0.00     0.200 A 
ATOM     91  F   UNL A   1      45.720  24.442  36.219  1.00  0.00    -0.200 F 
ATOM     92  F   UNL A   1      48.175  25.626  36.117  1.00  0.00    -0.200 F 
ENDBRANCH  59  82
ENDBRANCH  33  34
ENDBRANCH  25  28
ENDBRANCH  23  24
ENDBRANCH  22  23
ENDBRANCH   1  22
TORSDOF 14
ENDMDL
