MODEL 1
REMARK VINA RESULT:     -12.1      0.000      0.000
REMARK SMILES Cc1cc(Br)cnc1Sc1nc(CC(=O)NCCCCNC(=O)c2ccc(-c3c4nc(c(-c5c(F)c(F)c(F)c(F)c5F)c5ccc([nH]5)c(-c5c(F)c(F)c(F)c(F)c5F)c5nc(c(-c6c(F)c(F)c(F)c(F)c6F)c6ccc3[nH]6)C=C5)C=C4)cc2)cs1
REMARK SMILES IDX 18 1 17 2 16 3 14 4 15 5 13 7 12 8 10 9 11 10 88 11 87 12
REMARK SMILES IDX 9 13 8 14 1 15 2 16 3 17 4 18 7 19 5 20 6 21 19 22 20 23
REMARK SMILES IDX 21 24 22 25 23 27 24 28 25 29 86 30 26 31 85 32 27 33 28 34
REMARK SMILES IDX 29 35 79 36 30 37 84 38 78 39 80 40 31 41 83 42 77 43 76 44
REMARK SMILES IDX 32 46 64 47 44 48 63 49 45 50 48 51 62 52 81 53 46 54 47 55
REMARK SMILES IDX 61 57 82 58 49 59 33 60 34 61 42 62 35 63 36 64 40 65 43 66
REMARK SMILES IDX 37 67 38 68 41 69 39 70 65 71 66 72 74 73 67 74 68 75 72 76
REMARK SMILES IDX 75 77 69 78 70 79 73 80 71 81 50 82 51 83 59 84 52 85 53 86
REMARK SMILES IDX 57 87 60 88 54 89 55 90 58 91 56 92
REMARK H PARENT 16 6 21 26 80 45 48 56
REMARK Flexibility Score: inf
ROOT
ATOM      1  C   UNL A   1      31.728  30.533  26.661  1.00  0.00     0.023 C 
ENDROOT
BRANCH   1   2
ATOM      2  C   UNL A   1      32.491  29.959  25.468  1.00  0.00     0.116 C 
BRANCH   2   3
ATOM      3  N   UNL A   1      31.591  29.554  24.403  1.00  0.00    -0.356 N 
ATOM      4  C   UNL A   1      31.907  28.960  23.213  1.00  0.00     0.226 C 
ATOM      5  O   UNL A   1      31.013  28.794  22.381  1.00  0.00    -0.275 OA
ATOM      6  H   UNL A   1      30.635  29.732  24.555  1.00  0.00     0.163 HD
BRANCH   4   7
ATOM      7  C   UNL A   1      33.322  28.485  22.957  1.00  0.00     0.157 C 
BRANCH   7   8
ATOM      8  C   UNL A   1      33.473  27.013  23.139  1.00  0.00     0.062 A 
ATOM      9  C   UNL A   1      33.737  25.212  24.409  1.00  0.00     0.156 A 
ATOM     10  N   UNL A   1      33.698  26.524  24.422  1.00  0.00    -0.234 NA
ATOM     11  S   UNL A   1      33.623  24.491  22.852  1.00  0.00    -0.116 S 
ATOM     12  C   UNL A   1      33.404  26.041  22.159  1.00  0.00     0.092 A 
BRANCH   9  13
ATOM     13  S   UNL A   1      33.986  24.257  25.832  1.00  0.00    -0.039 SA
BRANCH  13  14
ATOM     14  C   UNL A   1      33.849  22.549  25.356  1.00  0.00     0.106 A 
ATOM     15  C   UNL A   1      36.311  21.844  24.954  1.00  0.00     0.047 C 
ATOM     16  C   UNL A   1      34.835  21.599  25.041  1.00  0.00    -0.017 A 
ATOM     17  C   UNL A   1      34.419  20.280  24.745  1.00  0.00     0.023 A 
ATOM     18  C   UNL A   1      33.083  19.923  24.814  1.00  0.00     0.036 A 
ATOM     19  N   UNL A   1      32.534  22.181  25.411  1.00  0.00    -0.248 NA
ATOM     20  Br  UNL A   1      32.533  18.156  24.472  1.00  0.00    -0.049 Br
ATOM     21  C   UNL A   1      32.179  20.902  25.153  1.00  0.00     0.128 A 
ENDBRANCH  13  14
ENDBRANCH   9  13
ENDBRANCH   7   8
ENDBRANCH   4   7
ENDBRANCH   2   3
ENDBRANCH   1   2
BRANCH   1  22
ATOM     22  C   UNL A   1      31.584  32.056  26.656  1.00  0.00     0.023 C 
BRANCH  22  23
ATOM     23  C   UNL A   1      32.743  32.816  27.286  1.00  0.00     0.116 C 
BRANCH  23  24
ATOM     24  N   UNL A   1      32.400  34.180  27.655  1.00  0.00    -0.352 N 
ATOM     25  C   UNL A   1      32.971  34.981  28.613  1.00  0.00     0.251 C 
ATOM     26  H   UNL A   1      31.658  34.585  27.149  1.00  0.00     0.163 HD
ATOM     27  O   UNL A   1      32.488  36.077  28.879  1.00  0.00    -0.269 OA
BRANCH  25  28
ATOM     28  C   UNL A   1      34.153  34.497  29.357  1.00  0.00     0.039 A 
ATOM     29  C   UNL A   1      33.962  33.890  30.601  1.00  0.00     0.014 A 
ATOM     30  C   UNL A   1      35.437  34.616  28.820  1.00  0.00     0.014 A 
ATOM     31  C   UNL A   1      35.053  33.339  31.275  1.00  0.00     0.010 A 
ATOM     32  C   UNL A   1      36.511  34.003  29.458  1.00  0.00     0.010 A 
ATOM     33  C   UNL A   1      36.329  33.357  30.691  1.00  0.00    -0.014 A 
BRANCH  33  34
ATOM     34  C   UNL A   1      37.487  32.702  31.350  1.00  0.00     0.031 A 
ATOM     35  C   UNL A   1      38.187  31.556  30.678  1.00  0.00     0.074 A 
ATOM     36  C   UNL A   1      37.860  33.094  32.584  1.00  0.00     0.049 A 
ATOM     37  N   UNL A   1      39.163  30.805  31.123  1.00  0.00    -0.248 NA
ATOM     38  C   UNL A   1      37.711  31.185  29.336  1.00  0.00     0.031 C 
ATOM     39  C   UNL A   1      37.227  34.161  33.361  1.00  0.00     0.029 A 
ATOM     40  N   UNL A   1      38.856  32.631  33.407  1.00  0.00    -0.354 N 
ATOM     41  C   UNL A   1      39.404  29.868  30.127  1.00  0.00     0.074 A 
ATOM     42  C   UNL A   1      38.440  30.110  29.076  1.00  0.00     0.031 C 
ATOM     43  C   UNL A   1      37.860  34.283  34.539  1.00  0.00     0.029 A 
ATOM     44  C   UNL A   1      38.917  33.280  34.616  1.00  0.00     0.049 A 
ATOM     45  H   UNL A   1      39.467  31.902  33.155  1.00  0.00     0.167 HD
ATOM     46  C   UNL A   1      40.359  28.909  30.084  1.00  0.00     0.037 A 
ATOM     47  C   UNL A   1      39.731  33.082  35.672  1.00  0.00     0.037 A 
ATOM     48  C   UNL A   1      41.335  28.691  31.119  1.00  0.00     0.049 A 
ATOM     49  C   UNL A   1      40.783  32.008  35.597  1.00  0.00     0.074 A 
ATOM     50  C   UNL A   1      42.383  27.787  31.139  1.00  0.00     0.029 A 
ATOM     51  N   UNL A   1      41.382  29.386  32.319  1.00  0.00    -0.354 N 
ATOM     52  N   UNL A   1      41.047  31.175  34.619  1.00  0.00    -0.248 NA
ATOM     53  C   UNL A   1      41.654  31.851  36.769  1.00  0.00     0.031 C 
ATOM     54  C   UNL A   1      43.036  27.903  32.371  1.00  0.00     0.029 A 
ATOM     55  C   UNL A   1      42.428  28.914  33.096  1.00  0.00     0.049 A 
ATOM     56  H   UNL A   1      40.764  30.107  32.579  1.00  0.00     0.167 HD
ATOM     57  C   UNL A   1      42.130  30.419  35.045  1.00  0.00     0.074 A 
ATOM     58  C   UNL A   1      42.483  30.901  36.364  1.00  0.00     0.031 C 
ATOM     59  C   UNL A   1      42.774  29.414  34.402  1.00  0.00     0.037 A 
BRANCH  46  60
ATOM     60  C   UNL A   1      40.402  28.024  28.872  1.00  0.00     0.064 A 
ATOM     61  C   UNL A   1      41.156  28.364  27.740  1.00  0.00     0.173 A 
ATOM     62  C   UNL A   1      39.716  26.799  28.861  1.00  0.00     0.173 A 
ATOM     63  F   UNL A   1      41.820  29.528  27.695  1.00  0.00    -0.203 F 
ATOM     64  C   UNL A   1      41.203  27.523  26.631  1.00  0.00     0.198 A 
ATOM     65  C   UNL A   1      39.790  25.947  27.762  1.00  0.00     0.198 A 
ATOM     66  F   UNL A   1      38.984  26.423  29.920  1.00  0.00    -0.203 F 
ATOM     67  F   UNL A   1      41.893  27.890  25.542  1.00  0.00    -0.200 F 
ATOM     68  C   UNL A   1      40.527  26.312  26.645  1.00  0.00     0.200 A 
ATOM     69  F   UNL A   1      39.147  24.772  27.783  1.00  0.00    -0.200 F 
ATOM     70  F   UNL A   1      40.582  25.500  25.581  1.00  0.00    -0.200 F 
ENDBRANCH  46  60
BRANCH  47  71
ATOM     71  C   UNL A   1      39.599  33.931  36.885  1.00  0.00     0.064 A 
ATOM     72  C   UNL A   1      38.823  33.512  37.975  1.00  0.00     0.173 A 
ATOM     73  C   UNL A   1      40.228  35.181  36.975  1.00  0.00     0.173 A 
ATOM     74  F   UNL A   1      38.184  32.335  37.928  1.00  0.00    -0.203 F 
ATOM     75  C   UNL A   1      38.661  34.322  39.097  1.00  0.00     0.198 A 
ATOM     76  C   UNL A   1      40.090  35.976  38.109  1.00  0.00     0.198 A 
ATOM     77  F   UNL A   1      40.986  35.626  35.961  1.00  0.00    -0.203 F 
ATOM     78  F   UNL A   1      37.872  33.920  40.103  1.00  0.00    -0.200 F 
ATOM     79  C   UNL A   1      39.299  35.551  39.167  1.00  0.00     0.200 A 
ATOM     80  F   UNL A   1      40.719  37.158  38.178  1.00  0.00    -0.200 F 
ATOM     81  F   UNL A   1      39.143  36.330  40.245  1.00  0.00    -0.200 F 
ENDBRANCH  47  71
BRANCH  59  82
ATOM     82  C   UNL A   1      43.950  28.794  35.097  1.00  0.00     0.064 A 
ATOM     83  C   UNL A   1      43.807  27.686  35.944  1.00  0.00     0.173 A 
ATOM     84  C   UNL A   1      45.245  29.292  34.879  1.00  0.00     0.173 A 
ATOM     85  F   UNL A   1      42.588  27.183  36.197  1.00  0.00    -0.203 F 
ATOM     86  C   UNL A   1      44.912  27.114  36.569  1.00  0.00     0.198 A 
ATOM     87  C   UNL A   1      46.351  28.698  35.480  1.00  0.00     0.198 A 
ATOM     88  F   UNL A   1      45.438  30.346  34.072  1.00  0.00    -0.203 F 
ATOM     89  F   UNL A   1      44.747  26.086  37.411  1.00  0.00    -0.200 F 
ATOM     90  C   UNL A   1      46.184  27.615  36.330  1.00  0.00     0.200 A 
ATOM     91  F   UNL A   1      47.580  29.176  35.238  1.00  0.00    -0.200 F 
ATOM     92  F   UNL A   1      47.247  27.058  36.924  1.00  0.00    -0.200 F 
ENDBRANCH  59  82
ENDBRANCH  33  34
ENDBRANCH  25  28
ENDBRANCH  23  24
ENDBRANCH  22  23
ENDBRANCH   1  22
TORSDOF 14
ENDMDL
MODEL 2
REMARK VINA RESULT:     -12.1      1.296      7.590
REMARK SMILES Cc1cc(Br)cnc1Sc1nc(CC(=O)NCCCCNC(=O)c2ccc(-c3c4nc(c(-c5c(F)c(F)c(F)c(F)c5F)c5ccc([nH]5)c(-c5c(F)c(F)c(F)c(F)c5F)c5nc(c(-c6c(F)c(F)c(F)c(F)c6F)c6ccc3[nH]6)C=C5)C=C4)cc2)cs1
REMARK SMILES IDX 18 1 17 2 16 3 14 4 15 5 13 7 12 8 10 9 11 10 88 11 87 12
REMARK SMILES IDX 9 13 8 14 1 15 2 16 3 17 4 18 7 19 5 20 6 21 19 22 20 23
REMARK SMILES IDX 21 24 22 25 23 27 24 28 25 29 86 30 26 31 85 32 27 33 28 34
REMARK SMILES IDX 29 35 79 36 30 37 84 38 78 39 80 40 31 41 83 42 77 43 76 44
REMARK SMILES IDX 32 46 64 47 44 48 63 49 45 50 48 51 62 52 81 53 46 54 47 55
REMARK SMILES IDX 61 57 82 58 49 59 33 60 34 61 42 62 35 63 36 64 40 65 43 66
REMARK SMILES IDX 37 67 38 68 41 69 39 70 65 71 66 72 74 73 67 74 68 75 72 76
REMARK SMILES IDX 75 77 69 78 70 79 73 80 71 81 50 82 51 83 59 84 52 85 53 86
REMARK SMILES IDX 57 87 60 88 54 89 55 90 58 91 56 92
REMARK H PARENT 16 6 21 26 80 45 48 56
REMARK Flexibility Score: inf
ROOT
ATOM      1  C   UNL A   1      31.559  30.897  26.142  1.00  0.00     0.023 C 
ENDROOT
BRANCH   1   2
ATOM      2  C   UNL A   1      32.997  30.386  26.240  1.00  0.00     0.116 C 
BRANCH   2   3
ATOM      3  N   UNL A   1      33.383  29.644  25.053  1.00  0.00    -0.356 N 
ATOM      4  C   UNL A   1      33.742  28.329  24.961  1.00  0.00     0.226 C 
ATOM      5  O   UNL A   1      34.150  27.903  23.879  1.00  0.00    -0.275 OA
ATOM      6  H   UNL A   1      33.388  30.152  24.210  1.00  0.00     0.163 HD
BRANCH   4   7
ATOM      7  C   UNL A   1      33.597  27.419  26.163  1.00  0.00     0.157 C 
BRANCH   7   8
ATOM      8  C   UNL A   1      32.394  26.543  26.075  1.00  0.00     0.062 A 
ATOM      9  C   UNL A   1      31.406  24.556  26.151  1.00  0.00     0.156 A 
ATOM     10  N   UNL A   1      32.569  25.166  26.180  1.00  0.00    -0.234 NA
ATOM     11  S   UNL A   1      30.050  25.577  25.880  1.00  0.00    -0.116 S 
ATOM     12  C   UNL A   1      31.082  26.943  25.906  1.00  0.00     0.092 A 
BRANCH   9  13
ATOM     13  S   UNL A   1      31.235  22.838  26.271  1.00  0.00    -0.039 SA
BRANCH  13  14
ATOM     14  C   UNL A   1      32.748  22.111  25.684  1.00  0.00     0.106 A 
ATOM     15  C   UNL A   1      32.227  21.574  23.202  1.00  0.00     0.047 C 
ATOM     16  C   UNL A   1      33.111  21.643  24.411  1.00  0.00    -0.017 A 
ATOM     17  C   UNL A   1      34.427  21.157  24.229  1.00  0.00     0.023 A 
ATOM     18  C   UNL A   1      35.346  21.189  25.264  1.00  0.00     0.036 A 
ATOM     19  N   UNL A   1      33.666  22.128  26.697  1.00  0.00    -0.248 NA
ATOM     20  Br  UNL A   1      37.113  20.590  25.011  1.00  0.00    -0.049 Br
ATOM     21  C   UNL A   1      34.924  21.683  26.476  1.00  0.00     0.128 A 
ENDBRANCH  13  14
ENDBRANCH   9  13
ENDBRANCH   7   8
ENDBRANCH   4   7
ENDBRANCH   2   3
ENDBRANCH   1   2
BRANCH   1  22
ATOM     22  C   UNL A   1      31.335  32.292  26.728  1.00  0.00     0.023 C 
BRANCH  22  23
ATOM     23  C   UNL A   1      32.574  32.953  27.315  1.00  0.00     0.116 C 
BRANCH  23  24
ATOM     24  N   UNL A   1      32.352  34.333  27.715  1.00  0.00    -0.352 N 
ATOM     25  C   UNL A   1      33.012  35.068  28.668  1.00  0.00     0.251 C 
ATOM     26  H   UNL A   1      31.633  34.805  27.236  1.00  0.00     0.163 HD
ATOM     27  O   UNL A   1      32.626  36.195  28.964  1.00  0.00    -0.269 OA
BRANCH  25  28
ATOM     28  C   UNL A   1      34.170  34.478  29.371  1.00  0.00     0.039 A 
ATOM     29  C   UNL A   1      33.950  33.779  30.561  1.00  0.00     0.014 A 
ATOM     30  C   UNL A   1      35.461  34.589  28.846  1.00  0.00     0.014 A 
ATOM     31  C   UNL A   1      35.015  33.131  31.188  1.00  0.00     0.010 A 
ATOM     32  C   UNL A   1      36.507  33.883  29.433  1.00  0.00     0.010 A 
ATOM     33  C   UNL A   1      36.294  33.147  30.608  1.00  0.00    -0.014 A 
BRANCH  33  34
ATOM     34  C   UNL A   1      37.422  32.394  31.213  1.00  0.00     0.031 A 
ATOM     35  C   UNL A   1      37.929  32.764  32.578  1.00  0.00     0.074 A 
ATOM     36  C   UNL A   1      38.033  31.426  30.502  1.00  0.00     0.049 A 
ATOM     37  N   UNL A   1      38.948  32.280  33.242  1.00  0.00    -0.248 NA
ATOM     38  C   UNL A   1      37.211  33.838  33.282  1.00  0.00     0.031 C 
ATOM     39  C   UNL A   1      37.666  31.010  29.148  1.00  0.00     0.029 A 
ATOM     40  N   UNL A   1      39.102  30.624  30.817  1.00  0.00    -0.354 N 
ATOM     41  C   UNL A   1      39.003  33.000  34.428  1.00  0.00     0.074 A 
ATOM     42  C   UNL A   1      37.947  33.988  34.372  1.00  0.00     0.031 C 
ATOM     43  C   UNL A   1      38.482  30.019  28.755  1.00  0.00     0.029 A 
ATOM     44  C   UNL A   1      39.453  29.755  29.812  1.00  0.00     0.049 A 
ATOM     45  H   UNL A   1      39.572  30.668  31.680  1.00  0.00     0.167 HD
ATOM     46  C   UNL A   1      39.842  32.835  35.477  1.00  0.00     0.037 A 
ATOM     47  C   UNL A   1      40.452  28.854  29.749  1.00  0.00     0.037 A 
ATOM     48  C   UNL A   1      40.872  31.832  35.541  1.00  0.00     0.049 A 
ATOM     49  C   UNL A   1      41.371  28.692  30.931  1.00  0.00     0.074 A 
ATOM     50  C   UNL A   1      41.732  31.543  36.587  1.00  0.00     0.029 A 
ATOM     51  N   UNL A   1      41.182  30.953  34.513  1.00  0.00    -0.354 N 
ATOM     52  N   UNL A   1      41.367  29.331  32.076  1.00  0.00    -0.248 NA
ATOM     53  C   UNL A   1      42.430  27.680  30.813  1.00  0.00     0.031 C 
ATOM     54  C   UNL A   1      42.592  30.520  36.175  1.00  0.00     0.029 A 
ATOM     55  C   UNL A   1      42.235  30.136  34.894  1.00  0.00     0.049 A 
ATOM     56  H   UNL A   1      40.722  30.914  33.644  1.00  0.00     0.167 HD
ATOM     57  C   UNL A   1      42.398  28.779  32.824  1.00  0.00     0.074 A 
ATOM     58  C   UNL A   1      42.997  27.744  32.009  1.00  0.00     0.031 C 
ATOM     59  C   UNL A   1      42.811  29.101  34.074  1.00  0.00     0.037 A 
BRANCH  46  60
ATOM     60  C   UNL A   1      39.678  33.757  36.651  1.00  0.00     0.064 A 
ATOM     61  C   UNL A   1      40.300  35.013  36.693  1.00  0.00     0.173 A 
ATOM     62  C   UNL A   1      38.851  33.397  37.726  1.00  0.00     0.173 A 
ATOM     63  F   UNL A   1      41.111  35.399  35.696  1.00  0.00    -0.203 F 
ATOM     64  C   UNL A   1      40.123  35.865  37.779  1.00  0.00     0.198 A 
ATOM     65  C   UNL A   1      38.651  34.266  38.797  1.00  0.00     0.198 A 
ATOM     66  F   UNL A   1      38.227  32.210  37.734  1.00  0.00    -0.203 F 
ATOM     67  F   UNL A   1      40.764  37.041  37.818  1.00  0.00    -0.200 F 
ATOM     68  C   UNL A   1      39.292  35.495  38.826  1.00  0.00     0.200 A 
ATOM     69  F   UNL A   1      37.837  33.912  39.801  1.00  0.00    -0.200 F 
ATOM     70  F   UNL A   1      39.113  36.321  39.866  1.00  0.00    -0.200 F 
ENDBRANCH  46  60
BRANCH  47  71
ATOM     71  C   UNL A   1      40.626  28.018  28.533  1.00  0.00     0.064 A 
ATOM     72  C   UNL A   1      41.393  28.473  27.451  1.00  0.00     0.173 A 
ATOM     73  C   UNL A   1      40.021  26.758  28.418  1.00  0.00     0.173 A 
ATOM     74  F   UNL A   1      41.975  29.679  27.504  1.00  0.00    -0.203 F 
ATOM     75  C   UNL A   1      41.526  27.712  26.291  1.00  0.00     0.198 A 
ATOM     76  C   UNL A   1      40.178  25.985  27.271  1.00  0.00     0.198 A 
ATOM     77  F   UNL A   1      39.281  26.274  29.428  1.00  0.00    -0.203 F 
ATOM     78  F   UNL A   1      42.221  28.194  25.252  1.00  0.00    -0.200 F 
ATOM     79  C   UNL A   1      40.923  26.466  26.203  1.00  0.00     0.200 A 
ATOM     80  F   UNL A   1      39.605  24.776  27.195  1.00  0.00    -0.200 F 
ATOM     81  F   UNL A   1      41.050  25.735  25.088  1.00  0.00    -0.200 F 
ENDBRANCH  47  71
BRANCH  59  82
ATOM     82  C   UNL A   1      43.942  28.301  34.653  1.00  0.00     0.064 A 
ATOM     83  C   UNL A   1      45.273  28.734  34.567  1.00  0.00     0.173 A 
ATOM     84  C   UNL A   1      43.683  27.103  35.339  1.00  0.00     0.173 A 
ATOM     85  F   UNL A   1      45.573  29.864  33.908  1.00  0.00    -0.203 F 
ATOM     86  C   UNL A   1      46.306  27.986  35.124  1.00  0.00     0.198 A 
ATOM     87  C   UNL A   1      44.715  26.374  35.922  1.00  0.00     0.198 A 
ATOM     88  F   UNL A   1      42.426  26.649  35.456  1.00  0.00    -0.203 F 
ATOM     89  F   UNL A   1      47.575  28.394  34.989  1.00  0.00    -0.200 F 
ATOM     90  C   UNL A   1      46.026  26.812  35.808  1.00  0.00     0.200 A 
ATOM     91  F   UNL A   1      44.441  25.248  36.593  1.00  0.00    -0.200 F 
ATOM     92  F   UNL A   1      47.021  26.098  36.351  1.00  0.00    -0.200 F 
ENDBRANCH  59  82
ENDBRANCH  33  34
ENDBRANCH  25  28
ENDBRANCH  23  24
ENDBRANCH  22  23
ENDBRANCH   1  22
TORSDOF 14
ENDMDL
MODEL 3
REMARK VINA RESULT:     -12.0      1.200      2.471
REMARK SMILES Cc1cc(Br)cnc1Sc1nc(CC(=O)NCCCCNC(=O)c2ccc(-c3c4nc(c(-c5c(F)c(F)c(F)c(F)c5F)c5ccc([nH]5)c(-c5c(F)c(F)c(F)c(F)c5F)c5nc(c(-c6c(F)c(F)c(F)c(F)c6F)c6ccc3[nH]6)C=C5)C=C4)cc2)cs1
REMARK SMILES IDX 18 1 17 2 16 3 14 4 15 5 13 7 12 8 10 9 11 10 88 11 87 12
REMARK SMILES IDX 9 13 8 14 1 15 2 16 3 17 4 18 7 19 5 20 6 21 19 22 20 23
REMARK SMILES IDX 21 24 22 25 23 27 24 28 25 29 86 30 26 31 85 32 27 33 28 34
REMARK SMILES IDX 29 35 79 36 30 37 84 38 78 39 80 40 31 41 83 42 77 43 76 44
REMARK SMILES IDX 32 46 64 47 44 48 63 49 45 50 48 51 62 52 81 53 46 54 47 55
REMARK SMILES IDX 61 57 82 58 49 59 33 60 34 61 42 62 35 63 36 64 40 65 43 66
REMARK SMILES IDX 37 67 38 68 41 69 39 70 65 71 66 72 74 73 67 74 68 75 72 76
REMARK SMILES IDX 75 77 69 78 70 79 73 80 71 81 50 82 51 83 59 84 52 85 53 86
REMARK SMILES IDX 57 87 60 88 54 89 55 90 58 91 56 92
REMARK H PARENT 16 6 21 26 80 45 48 56
REMARK Flexibility Score: inf
ROOT
ATOM      1  C   UNL A   1      31.777  30.513  26.813  1.00  0.00     0.023 C 
ENDROOT
BRANCH   1   2
ATOM      2  C   UNL A   1      33.235  30.071  26.689  1.00  0.00     0.116 C 
BRANCH   2   3
ATOM      3  N   UNL A   1      33.576  29.730  25.319  1.00  0.00    -0.356 N 
ATOM      4  C   UNL A   1      33.617  28.491  24.745  1.00  0.00     0.226 C 
ATOM      5  O   UNL A   1      34.042  28.388  23.592  1.00  0.00    -0.275 OA
ATOM      6  H   UNL A   1      33.809  30.485  24.732  1.00  0.00     0.163 HD
BRANCH   4   7
ATOM      7  C   UNL A   1      33.108  27.285  25.507  1.00  0.00     0.157 C 
BRANCH   7   8
ATOM      8  C   UNL A   1      32.468  26.274  24.618  1.00  0.00     0.062 A 
ATOM      9  C   UNL A   1      32.519  24.409  23.415  1.00  0.00     0.156 A 
ATOM     10  N   UNL A   1      33.254  25.241  24.118  1.00  0.00    -0.234 NA
ATOM     11  S   UNL A   1      30.876  24.874  23.215  1.00  0.00    -0.116 S 
ATOM     12  C   UNL A   1      31.143  26.230  24.225  1.00  0.00     0.092 A 
BRANCH   9  13
ATOM     13  S   UNL A   1      33.159  22.994  22.650  1.00  0.00    -0.039 SA
BRANCH  13  14
ATOM     14  C   UNL A   1      34.516  22.420  23.646  1.00  0.00     0.106 A 
ATOM     15  C   UNL A   1      33.418  20.644  25.182  1.00  0.00     0.047 C 
ATOM     16  C   UNL A   1      34.574  21.432  24.643  1.00  0.00    -0.017 A 
ATOM     17  C   UNL A   1      35.828  21.154  25.234  1.00  0.00     0.023 A 
ATOM     18  C   UNL A   1      36.975  21.801  24.806  1.00  0.00     0.036 A 
ATOM     19  N   UNL A   1      35.658  23.054  23.242  1.00  0.00    -0.248 NA
ATOM     20  Br  UNL A   1      38.653  21.395  25.556  1.00  0.00    -0.049 Br
ATOM     21  C   UNL A   1      36.843  22.738  23.809  1.00  0.00     0.128 A 
ENDBRANCH  13  14
ENDBRANCH   9  13
ENDBRANCH   7   8
ENDBRANCH   4   7
ENDBRANCH   2   3
ENDBRANCH   1   2
BRANCH   1  22
ATOM     22  C   UNL A   1      31.566  32.028  26.821  1.00  0.00     0.023 C 
BRANCH  22  23
ATOM     23  C   UNL A   1      32.763  32.843  27.290  1.00  0.00     0.116 C 
BRANCH  23  24
ATOM     24  N   UNL A   1      32.420  34.211  27.645  1.00  0.00    -0.352 N 
ATOM     25  C   UNL A   1      32.978  35.014  28.609  1.00  0.00     0.251 C 
ATOM     26  H   UNL A   1      31.691  34.617  27.123  1.00  0.00     0.163 HD
ATOM     27  O   UNL A   1      32.495  36.115  28.859  1.00  0.00    -0.269 OA
BRANCH  25  28
ATOM     28  C   UNL A   1      34.142  34.529  29.378  1.00  0.00     0.039 A 
ATOM     29  C   UNL A   1      33.922  33.889  30.600  1.00  0.00     0.014 A 
ATOM     30  C   UNL A   1      35.442  34.679  28.884  1.00  0.00     0.014 A 
ATOM     31  C   UNL A   1      35.000  33.337  31.295  1.00  0.00     0.010 A 
ATOM     32  C   UNL A   1      36.504  34.066  29.540  1.00  0.00     0.010 A 
ATOM     33  C   UNL A   1      36.293  33.387  30.751  1.00  0.00    -0.014 A 
BRANCH  33  34
ATOM     34  C   UNL A   1      37.439  32.732  31.431  1.00  0.00     0.031 A 
ATOM     35  C   UNL A   1      38.138  31.572  30.780  1.00  0.00     0.074 A 
ATOM     36  C   UNL A   1      37.803  33.138  32.663  1.00  0.00     0.049 A 
ATOM     37  N   UNL A   1      39.104  30.821  31.245  1.00  0.00    -0.248 NA
ATOM     38  C   UNL A   1      37.672  31.188  29.438  1.00  0.00     0.031 C 
ATOM     39  C   UNL A   1      37.170  34.219  33.419  1.00  0.00     0.029 A 
ATOM     40  N   UNL A   1      38.788  32.678  33.502  1.00  0.00    -0.354 N 
ATOM     41  C   UNL A   1      39.348  29.869  30.263  1.00  0.00     0.074 A 
ATOM     42  C   UNL A   1      38.396  30.104  29.199  1.00  0.00     0.031 C 
ATOM     43  C   UNL A   1      37.792  34.352  34.602  1.00  0.00     0.029 A 
ATOM     44  C   UNL A   1      38.841  33.342  34.703  1.00  0.00     0.049 A 
ATOM     45  H   UNL A   1      39.396  31.942  33.266  1.00  0.00     0.167 HD
ATOM     46  C   UNL A   1      40.296  28.903  30.243  1.00  0.00     0.037 A 
ATOM     47  C   UNL A   1      39.643  33.152  35.769  1.00  0.00     0.037 A 
ATOM     48  C   UNL A   1      41.260  28.691  31.289  1.00  0.00     0.049 A 
ATOM     49  C   UNL A   1      40.687  32.070  35.718  1.00  0.00     0.074 A 
ATOM     50  C   UNL A   1      42.301  27.780  31.332  1.00  0.00     0.029 A 
ATOM     51  N   UNL A   1      41.300  29.401  32.481  1.00  0.00    -0.354 N 
ATOM     52  N   UNL A   1      40.956  31.222  34.754  1.00  0.00    -0.248 NA
ATOM     53  C   UNL A   1      41.546  31.921  36.902  1.00  0.00     0.031 C 
ATOM     54  C   UNL A   1      42.943  27.907  32.569  1.00  0.00     0.029 A 
ATOM     55  C   UNL A   1      42.335  28.932  33.274  1.00  0.00     0.049 A 
ATOM     56  H   UNL A   1      40.685  30.130  32.726  1.00  0.00     0.167 HD
ATOM     57  C   UNL A   1      42.029  30.464  35.201  1.00  0.00     0.074 A 
ATOM     58  C   UNL A   1      42.372  30.960  36.517  1.00  0.00     0.031 C 
ATOM     59  C   UNL A   1      42.671  29.446  34.577  1.00  0.00     0.037 A 
BRANCH  46  60
ATOM     60  C   UNL A   1      40.345  28.002  29.042  1.00  0.00     0.064 A 
ATOM     61  C   UNL A   1      39.623  26.800  28.994  1.00  0.00     0.173 A 
ATOM     62  C   UNL A   1      41.086  28.368  27.908  1.00  0.00     0.173 A 
ATOM     63  F   UNL A   1      38.908  26.399  30.056  1.00  0.00    -0.203 F 
ATOM     64  C   UNL A   1      39.662  25.985  27.867  1.00  0.00     0.198 A 
ATOM     65  C   UNL A   1      41.098  27.565  26.770  1.00  0.00     0.198 A 
ATOM     66  F   UNL A   1      41.790  29.510  27.899  1.00  0.00    -0.203 F 
ATOM     67  F   UNL A   1      39.001  24.819  27.861  1.00  0.00    -0.200 F 
ATOM     68  C   UNL A   1      40.392  26.372  26.752  1.00  0.00     0.200 A 
ATOM     69  F   UNL A   1      41.793  27.947  25.690  1.00  0.00    -0.200 F 
ATOM     70  F   UNL A   1      40.419  25.591  25.664  1.00  0.00    -0.200 F 
ENDBRANCH  46  60
BRANCH  47  71
ATOM     71  C   UNL A   1      39.505  34.017  36.970  1.00  0.00     0.064 A 
ATOM     72  C   UNL A   1      40.143  35.264  37.035  1.00  0.00     0.173 A 
ATOM     73  C   UNL A   1      38.748  33.614  38.079  1.00  0.00     0.173 A 
ATOM     74  F   UNL A   1      40.895  35.685  36.008  1.00  0.00    -0.203 F 
ATOM     75  C   UNL A   1      40.051  36.061  38.174  1.00  0.00     0.198 A 
ATOM     76  C   UNL A   1      38.633  34.425  39.206  1.00  0.00     0.198 A 
ATOM     77  F   UNL A   1      38.113  32.432  38.065  1.00  0.00    -0.203 F 
ATOM     78  F   UNL A   1      40.715  37.225  38.230  1.00  0.00    -0.200 F 
ATOM     79  C   UNL A   1      39.293  35.644  39.257  1.00  0.00     0.200 A 
ATOM     80  F   UNL A   1      37.888  34.023  40.245  1.00  0.00    -0.200 F 
ATOM     81  F   UNL A   1      39.205  36.410  40.352  1.00  0.00    -0.200 F 
ENDBRANCH  47  71
BRANCH  59  82
ATOM     82  C   UNL A   1      43.836  28.826  35.292  1.00  0.00     0.064 A 
ATOM     83  C   UNL A   1      45.146  29.294  35.113  1.00  0.00     0.173 A 
ATOM     84  C   UNL A   1      43.632  27.775  36.200  1.00  0.00     0.173 A 
ATOM     85  F   UNL A   1      45.395  30.287  34.245  1.00  0.00    -0.203 F 
ATOM     86  C   UNL A   1      46.212  28.716  35.797  1.00  0.00     0.198 A 
ATOM     87  C   UNL A   1      44.696  27.221  36.906  1.00  0.00     0.198 A 
ATOM     88  F   UNL A   1      42.397  27.295  36.413  1.00  0.00    -0.203 F 
ATOM     89  F   UNL A   1      47.461  29.148  35.576  1.00  0.00    -0.200 F 
ATOM     90  C   UNL A   1      45.986  27.687  36.698  1.00  0.00     0.200 A 
ATOM     91  F   UNL A   1      44.473  26.235  37.785  1.00  0.00    -0.200 F 
ATOM     92  F   UNL A   1      47.012  27.138  37.362  1.00  0.00    -0.200 F 
ENDBRANCH  59  82
ENDBRANCH  33  34
ENDBRANCH  25  28
ENDBRANCH  23  24
ENDBRANCH  22  23
ENDBRANCH   1  22
TORSDOF 14
ENDMDL
