MODEL 1
REMARK VINA RESULT:     -11.5      0.000      0.000
REMARK SMILES C[NH+](C)CCCNC(=O)[C@@H]1[C@@H](C(=O)NCCCCNC(=O)c2ccc(-c3c4nc(c(-c5c(F)c(F)c(F)c(F)c5F)c5ccc([nH]5)c(-c5c(F)c(F)c(F)c(F)c5F)c5nc(c(-c6c(F)c(F)c(F)c(F)c6F)c6ccc3[nH]6)C=C5)C=C4)cc2)C1(C)C
REMARK SMILES IDX 15 1 14 2 12 3 13 4 11 6 10 7 85 8 86 9 87 10 8 11 7 12 9 14
REMARK SMILES IDX 6 15 5 16 4 17 2 18 1 19 3 20 16 22 17 23 18 24 19 25 20 26
REMARK SMILES IDX 21 28 22 29 23 30 84 31 24 32 83 33 25 34 26 35 27 36 77 37
REMARK SMILES IDX 28 38 82 39 76 40 78 41 29 42 81 43 75 44 74 45 30 47 62 48
REMARK SMILES IDX 42 49 61 50 43 51 46 52 60 53 79 54 44 55 45 56 59 58 80 59
REMARK SMILES IDX 47 60 31 61 32 62 40 63 33 64 34 65 38 66 41 67 35 68 36 69
REMARK SMILES IDX 39 70 37 71 63 72 64 73 72 74 65 75 66 76 70 77 73 78 67 79
REMARK SMILES IDX 68 80 71 81 69 82 48 83 49 84 57 85 50 86 51 87 55 88 58 89
REMARK SMILES IDX 52 90 53 91 56 92 54 93
REMARK H PARENT 14 5 7 13 2 21 19 27 78 46 46 57
REMARK Flexibility Score: inf
ROOT
ATOM      1  C   UNL A   1      32.807  28.805  23.211  1.00  0.00     0.116 C 
ENDROOT
BRANCH   1   2
ATOM      2  N   UNL A   1      32.901  27.840  22.139  1.00  0.00    -0.356 N 
ATOM      3  C   UNL A   1      33.225  26.515  22.071  1.00  0.00     0.224 C 
ATOM      4  O   UNL A   1      33.363  26.053  20.938  1.00  0.00    -0.275 OA
ATOM      5  H   UNL A   1      32.683  28.226  21.260  1.00  0.00     0.163 HD
BRANCH   3   6
ATOM      6  C   UNL A   1      33.350  25.576  23.215  1.00  0.00     0.098 C 
ATOM      7  C   UNL A   1      33.103  24.094  23.193  1.00  0.00     0.098 C 
ATOM      8  C   UNL A   1      32.228  24.992  24.067  1.00  0.00    -0.011 C 
ATOM      9  C   UNL A   1      30.779  25.123  23.652  1.00  0.00     0.013 C 
ATOM     10  C   UNL A   1      32.406  24.957  25.566  1.00  0.00     0.013 C 
BRANCH   7  11
ATOM     11  C   UNL A   1      34.192  23.194  23.659  1.00  0.00     0.224 C 
ATOM     12  N   UNL A   1      33.882  21.868  23.843  1.00  0.00    -0.356 N 
ATOM     13  H   UNL A   1      34.622  21.290  24.137  1.00  0.00     0.163 HD
ATOM     14  O   UNL A   1      35.331  23.594  23.854  1.00  0.00    -0.275 OA
BRANCH  12  15
ATOM     15  C   UNL A   1      32.599  21.211  23.657  1.00  0.00     0.121 C 
BRANCH  15  16
ATOM     16  C   UNL A   1      32.515  19.834  24.299  1.00  0.00     0.083 C 
BRANCH  16  17
ATOM     17  C   UNL A   1      32.482  18.628  23.354  1.00  0.00     0.263 C 
BRANCH  17  18
ATOM     18  N   UNL A   1      32.688  17.284  23.892  1.00  0.00    -0.340 N 
ATOM     19  C   UNL A   1      33.875  16.596  23.404  1.00  0.00     0.332 C 
ATOM     20  C   UNL A   1      32.562  17.192  25.341  1.00  0.00     0.332 C 
ATOM     21  H   UNL A   1      31.900  16.769  23.500  1.00  0.00     0.347 HD
ENDBRANCH  17  18
ENDBRANCH  16  17
ENDBRANCH  15  16
ENDBRANCH  12  15
ENDBRANCH   7  11
ENDBRANCH   3   6
ENDBRANCH   1   2
BRANCH   1  22
ATOM     22  C   UNL A   1      31.523  28.627  24.016  1.00  0.00     0.023 C 
BRANCH  22  23
ATOM     23  C   UNL A   1      31.655  28.940  25.501  1.00  0.00     0.023 C 
BRANCH  23  24
ATOM     24  C   UNL A   1      32.898  29.733  25.878  1.00  0.00     0.116 C 
BRANCH  24  25
ATOM     25  N   UNL A   1      32.597  31.072  26.367  1.00  0.00    -0.352 N 
ATOM     26  C   UNL A   1      33.273  31.842  27.280  1.00  0.00     0.251 C 
ATOM     27  H   UNL A   1      31.789  31.485  25.985  1.00  0.00     0.163 HD
ATOM     28  O   UNL A   1      32.786  32.897  27.672  1.00  0.00    -0.269 OA
BRANCH  26  29
ATOM     29  C   UNL A   1      34.569  31.378  27.815  1.00  0.00     0.039 A 
ATOM     30  C   UNL A   1      35.598  32.306  27.974  1.00  0.00     0.014 A 
ATOM     31  C   UNL A   1      34.761  30.043  28.184  1.00  0.00     0.014 A 
ATOM     32  C   UNL A   1      36.796  31.907  28.567  1.00  0.00     0.010 A 
ATOM     33  C   UNL A   1      35.914  29.673  28.869  1.00  0.00     0.010 A 
ATOM     34  C   UNL A   1      36.948  30.600  29.060  1.00  0.00    -0.014 A 
BRANCH  34  35
ATOM     35  C   UNL A   1      38.181  30.212  29.790  1.00  0.00     0.031 A 
ATOM     36  C   UNL A   1      38.427  30.694  31.192  1.00  0.00     0.074 A 
ATOM     37  C   UNL A   1      39.091  29.433  29.172  1.00  0.00     0.049 A 
ATOM     38  N   UNL A   1      39.413  30.403  32.004  1.00  0.00    -0.248 NA
ATOM     39  C   UNL A   1      37.458  31.649  31.751  1.00  0.00     0.031 C 
ATOM     40  C   UNL A   1      39.001  28.969  27.786  1.00  0.00     0.029 A 
ATOM     41  N   UNL A   1      40.260  28.883  29.630  1.00  0.00    -0.354 N 
ATOM     42  C   UNL A   1      39.180  31.133  33.161  1.00  0.00     0.074 A 
ATOM     43  C   UNL A   1      38.002  31.937  32.923  1.00  0.00     0.031 C 
ATOM     44  C   UNL A   1      40.040  28.161  27.524  1.00  0.00     0.029 A 
ATOM     45  C   UNL A   1      40.887  28.080  28.709  1.00  0.00     0.049 A 
ATOM     46  H   UNL A   1      40.617  29.049  30.532  1.00  0.00     0.167 HD
ATOM     47  C   UNL A   1      39.866  31.109  34.329  1.00  0.00     0.037 A 
ATOM     48  C   UNL A   1      42.013  27.351  28.812  1.00  0.00     0.037 A 
ATOM     49  C   UNL A   1      41.034  30.299  34.561  1.00  0.00     0.049 A 
ATOM     50  C   UNL A   1      42.754  27.340  30.123  1.00  0.00     0.074 A 
ATOM     51  C   UNL A   1      41.771  30.159  35.724  1.00  0.00     0.029 A 
ATOM     52  N   UNL A   1      41.644  29.499  33.605  1.00  0.00    -0.354 N 
ATOM     53  N   UNL A   1      42.469  27.959  31.243  1.00  0.00    -0.248 NA
ATOM     54  C   UNL A   1      43.966  26.513  30.184  1.00  0.00     0.031 C 
ATOM     55  C   UNL A   1      42.860  29.323  35.455  1.00  0.00     0.029 A 
ATOM     56  C   UNL A   1      42.765  28.885  34.143  1.00  0.00     0.049 A 
ATOM     57  H   UNL A   1      41.326  29.383  32.680  1.00  0.00     0.167 HD
ATOM     58  C   UNL A   1      43.451  27.581  32.148  1.00  0.00     0.074 A 
ATOM     59  C   UNL A   1      44.318  26.651  31.454  1.00  0.00     0.031 C 
ATOM     60  C   UNL A   1      43.625  27.971  33.436  1.00  0.00     0.037 A 
BRANCH  47  61
ATOM     61  C   UNL A   1      39.369  31.985  35.445  1.00  0.00     0.064 A 
ATOM     62  C   UNL A   1      39.736  33.337  35.543  1.00  0.00     0.173 A 
ATOM     63  C   UNL A   1      38.487  31.477  36.412  1.00  0.00     0.173 A 
ATOM     64  F   UNL A   1      40.587  33.872  34.654  1.00  0.00    -0.203 F 
ATOM     65  C   UNL A   1      39.264  34.136  36.581  1.00  0.00     0.198 A 
ATOM     66  C   UNL A   1      37.991  32.289  37.428  1.00  0.00     0.198 A 
ATOM     67  F   UNL A   1      38.101  30.194  36.367  1.00  0.00    -0.203 F 
ATOM     68  F   UNL A   1      39.675  35.408  36.683  1.00  0.00    -0.200 F 
ATOM     69  C   UNL A   1      38.386  33.615  37.518  1.00  0.00     0.200 A 
ATOM     70  F   UNL A   1      37.130  31.787  38.324  1.00  0.00    -0.200 F 
ATOM     71  F   UNL A   1      37.926  34.388  38.510  1.00  0.00    -0.200 F 
ENDBRANCH  47  61
BRANCH  48  72
ATOM     72  C   UNL A   1      42.490  26.545  27.657  1.00  0.00     0.064 A 
ATOM     73  C   UNL A   1      42.021  25.241  27.440  1.00  0.00     0.173 A 
ATOM     74  C   UNL A   1      43.433  27.056  26.752  1.00  0.00     0.173 A 
ATOM     75  F   UNL A   1      41.132  24.699  28.285  1.00  0.00    -0.203 F 
ATOM     76  C   UNL A   1      42.497  24.471  26.380  1.00  0.00     0.198 A 
ATOM     77  C   UNL A   1      43.881  26.298  25.673  1.00  0.00     0.198 A 
ATOM     78  F   UNL A   1      43.908  28.300  26.909  1.00  0.00    -0.203 F 
ATOM     79  F   UNL A   1      42.074  23.209  26.230  1.00  0.00    -0.200 F 
ATOM     80  C   UNL A   1      43.423  25.002  25.494  1.00  0.00     0.200 A 
ATOM     81  F   UNL A   1      44.760  26.823  24.808  1.00  0.00    -0.200 F 
ATOM     82  F   UNL A   1      43.877  24.263  24.473  1.00  0.00    -0.200 F 
ENDBRANCH  48  72
BRANCH  60  83
ATOM     83  C   UNL A   1      44.787  27.370  34.178  1.00  0.00     0.064 A 
ATOM     84  C   UNL A   1      44.668  26.161  34.882  1.00  0.00     0.173 A 
ATOM     85  C   UNL A   1      46.033  28.014  34.191  1.00  0.00     0.173 A 
ATOM     86  F   UNL A   1      43.495  25.509  34.912  1.00  0.00    -0.203 F 
ATOM     87  C   UNL A   1      45.736  25.650  35.615  1.00  0.00     0.198 A 
ATOM     88  C   UNL A   1      47.111  27.479  34.891  1.00  0.00     0.198 A 
ATOM     89  F   UNL A   1      46.208  29.166  33.525  1.00  0.00    -0.203 F 
ATOM     90  F   UNL A   1      45.573  24.538  36.345  1.00  0.00    -0.200 F 
ATOM     91  C   UNL A   1      46.957  26.307  35.615  1.00  0.00     0.200 A 
ATOM     92  F   UNL A   1      48.296  28.105  34.874  1.00  0.00    -0.200 F 
ATOM     93  F   UNL A   1      47.982  25.816  36.326  1.00  0.00    -0.200 F 
ENDBRANCH  60  83
ENDBRANCH  34  35
ENDBRANCH  26  29
ENDBRANCH  24  25
ENDBRANCH  23  24
ENDBRANCH  22  23
ENDBRANCH   1  22
TORSDOF 16
ENDMDL
MODEL 2
REMARK VINA RESULT:     -11.5      1.314      2.079
REMARK SMILES C[NH+](C)CCCNC(=O)[C@@H]1[C@@H](C(=O)NCCCCNC(=O)c2ccc(-c3c4nc(c(-c5c(F)c(F)c(F)c(F)c5F)c5ccc([nH]5)c(-c5c(F)c(F)c(F)c(F)c5F)c5nc(c(-c6c(F)c(F)c(F)c(F)c6F)c6ccc3[nH]6)C=C5)C=C4)cc2)C1(C)C
REMARK SMILES IDX 15 1 14 2 12 3 13 4 11 6 10 7 85 8 86 9 87 10 8 11 7 12 9 14
REMARK SMILES IDX 6 15 5 16 4 17 2 18 1 19 3 20 16 22 17 23 18 24 19 25 20 26
REMARK SMILES IDX 21 28 22 29 23 30 84 31 24 32 83 33 25 34 26 35 27 36 77 37
REMARK SMILES IDX 28 38 82 39 76 40 78 41 29 42 81 43 75 44 74 45 30 47 62 48
REMARK SMILES IDX 42 49 61 50 43 51 46 52 60 53 79 54 44 55 45 56 59 58 80 59
REMARK SMILES IDX 47 60 31 61 32 62 40 63 33 64 34 65 38 66 41 67 35 68 36 69
REMARK SMILES IDX 39 70 37 71 63 72 64 73 72 74 65 75 66 76 70 77 73 78 67 79
REMARK SMILES IDX 68 80 71 81 69 82 48 83 49 84 57 85 50 86 51 87 55 88 58 89
REMARK SMILES IDX 52 90 53 91 56 92 54 93
REMARK H PARENT 14 5 7 13 2 21 19 27 78 46 46 57
REMARK Flexibility Score: inf
ROOT
ATOM      1  C   UNL A   1      30.656  26.592  25.681  1.00  0.00     0.116 C 
ENDROOT
BRANCH   1   2
ATOM      2  N   UNL A   1      30.363  25.439  26.501  1.00  0.00    -0.356 N 
ATOM      3  C   UNL A   1      30.736  24.125  26.472  1.00  0.00     0.224 C 
ATOM      4  O   UNL A   1      30.143  23.381  27.254  1.00  0.00    -0.275 OA
ATOM      5  H   UNL A   1      29.756  25.647  27.248  1.00  0.00     0.163 HD
BRANCH   3   6
ATOM      6  C   UNL A   1      31.825  23.534  25.655  1.00  0.00     0.098 C 
ATOM      7  C   UNL A   1      32.072  22.073  25.406  1.00  0.00     0.098 C 
ATOM      8  C   UNL A   1      33.122  22.899  26.148  1.00  0.00    -0.011 C 
ATOM      9  C   UNL A   1      33.324  22.568  27.610  1.00  0.00     0.013 C 
ATOM     10  C   UNL A   1      34.410  23.254  25.445  1.00  0.00     0.013 C 
BRANCH   7  11
ATOM     11  C   UNL A   1      32.148  21.603  23.997  1.00  0.00     0.224 C 
ATOM     12  N   UNL A   1      32.532  20.301  23.784  1.00  0.00    -0.356 N 
ATOM     13  H   UNL A   1      32.562  20.009  22.844  1.00  0.00     0.163 HD
ATOM     14  O   UNL A   1      31.864  22.325  23.052  1.00  0.00    -0.275 OA
BRANCH  12  15
ATOM     15  C   UNL A   1      32.900  19.299  24.770  1.00  0.00     0.121 C 
BRANCH  15  16
ATOM     16  C   UNL A   1      34.060  18.412  24.343  1.00  0.00     0.083 C 
BRANCH  16  17
ATOM     17  C   UNL A   1      33.705  17.045  23.748  1.00  0.00     0.263 C 
BRANCH  17  18
ATOM     18  N   UNL A   1      33.938  15.834  24.533  1.00  0.00    -0.340 N 
ATOM     19  C   UNL A   1      35.171  15.823  25.307  1.00  0.00     0.332 C 
ATOM     20  C   UNL A   1      32.793  15.405  25.326  1.00  0.00     0.332 C 
ATOM     21  H   UNL A   1      34.070  15.127  23.811  1.00  0.00     0.347 HD
ENDBRANCH  17  18
ENDBRANCH  16  17
ENDBRANCH  15  16
ENDBRANCH  12  15
ENDBRANCH   7  11
ENDBRANCH   3   6
ENDBRANCH   1   2
BRANCH   1  22
ATOM     22  C   UNL A   1      31.952  27.272  26.111  1.00  0.00     0.023 C 
BRANCH  22  23
ATOM     23  C   UNL A   1      31.790  28.713  26.578  1.00  0.00     0.023 C 
BRANCH  23  24
ATOM     24  C   UNL A   1      32.812  29.688  26.010  1.00  0.00     0.116 C 
BRANCH  24  25
ATOM     25  N   UNL A   1      32.575  31.067  26.413  1.00  0.00    -0.352 N 
ATOM     26  C   UNL A   1      33.300  31.868  27.259  1.00  0.00     0.251 C 
ATOM     27  H   UNL A   1      31.774  31.487  26.021  1.00  0.00     0.163 HD
ATOM     28  O   UNL A   1      32.864  32.966  27.589  1.00  0.00    -0.269 OA
BRANCH  26  29
ATOM     29  C   UNL A   1      34.589  31.388  27.797  1.00  0.00     0.039 A 
ATOM     30  C   UNL A   1      35.638  32.298  27.932  1.00  0.00     0.014 A 
ATOM     31  C   UNL A   1      34.756  30.058  28.192  1.00  0.00     0.014 A 
ATOM     32  C   UNL A   1      36.830  31.887  28.527  1.00  0.00     0.010 A 
ATOM     33  C   UNL A   1      35.905  29.679  28.879  1.00  0.00     0.010 A 
ATOM     34  C   UNL A   1      36.958  30.587  29.046  1.00  0.00    -0.014 A 
BRANCH  34  35
ATOM     35  C   UNL A   1      38.187  30.190  29.778  1.00  0.00     0.031 A 
ATOM     36  C   UNL A   1      38.433  30.666  31.182  1.00  0.00     0.074 A 
ATOM     37  C   UNL A   1      39.093  29.406  29.160  1.00  0.00     0.049 A 
ATOM     38  N   UNL A   1      39.415  30.366  31.996  1.00  0.00    -0.248 NA
ATOM     39  C   UNL A   1      37.469  31.626  31.741  1.00  0.00     0.031 C 
ATOM     40  C   UNL A   1      39.004  28.946  27.773  1.00  0.00     0.029 A 
ATOM     41  N   UNL A   1      40.258  28.847  29.620  1.00  0.00    -0.354 N 
ATOM     42  C   UNL A   1      39.184  31.094  33.154  1.00  0.00     0.074 A 
ATOM     43  C   UNL A   1      38.012  31.908  32.915  1.00  0.00     0.031 C 
ATOM     44  C   UNL A   1      40.038  28.132  27.512  1.00  0.00     0.029 A 
ATOM     45  C   UNL A   1      40.881  28.042  28.698  1.00  0.00     0.049 A 
ATOM     46  H   UNL A   1      40.613  29.008  30.524  1.00  0.00     0.167 HD
ATOM     47  C   UNL A   1      39.867  31.063  34.324  1.00  0.00     0.037 A 
ATOM     48  C   UNL A   1      42.003  27.305  28.803  1.00  0.00     0.037 A 
ATOM     49  C   UNL A   1      41.029  30.245  34.557  1.00  0.00     0.049 A 
ATOM     50  C   UNL A   1      42.740  27.285  30.115  1.00  0.00     0.074 A 
ATOM     51  C   UNL A   1      41.762  30.096  35.721  1.00  0.00     0.029 A 
ATOM     52  N   UNL A   1      41.635  29.443  33.600  1.00  0.00    -0.354 N 
ATOM     53  N   UNL A   1      42.456  27.904  31.236  1.00  0.00    -0.248 NA
ATOM     54  C   UNL A   1      43.946  26.450  30.177  1.00  0.00     0.031 C 
ATOM     55  C   UNL A   1      42.847  29.254  35.452  1.00  0.00     0.029 A 
ATOM     56  C   UNL A   1      42.751  28.820  34.140  1.00  0.00     0.049 A 
ATOM     57  H   UNL A   1      41.319  29.331  32.674  1.00  0.00     0.167 HD
ATOM     58  C   UNL A   1      43.433  27.517  32.142  1.00  0.00     0.074 A 
ATOM     59  C   UNL A   1      44.296  26.583  31.448  1.00  0.00     0.031 C 
ATOM     60  C   UNL A   1      43.607  27.903  33.431  1.00  0.00     0.037 A 
BRANCH  47  61
ATOM     61  C   UNL A   1      39.373  31.939  35.442  1.00  0.00     0.064 A 
ATOM     62  C   UNL A   1      38.509  31.451  36.435  1.00  0.00     0.173 A 
ATOM     63  C   UNL A   1      39.796  33.274  35.542  1.00  0.00     0.173 A 
ATOM     64  F   UNL A   1      38.063  30.187  36.382  1.00  0.00    -0.203 F 
ATOM     65  C   UNL A   1      38.064  32.274  37.467  1.00  0.00     0.198 A 
ATOM     66  C   UNL A   1      39.376  34.083  36.595  1.00  0.00     0.198 A 
ATOM     67  F   UNL A   1      40.623  33.793  34.623  1.00  0.00    -0.203 F 
ATOM     68  F   UNL A   1      37.194  31.800  38.370  1.00  0.00    -0.200 F 
ATOM     69  C   UNL A   1      38.503  33.586  37.551  1.00  0.00     0.200 A 
ATOM     70  F   UNL A   1      39.814  35.346  36.682  1.00  0.00    -0.200 F 
ATOM     71  F   UNL A   1      38.081  34.373  38.549  1.00  0.00    -0.200 F 
ENDBRANCH  47  61
BRANCH  48  72
ATOM     72  C   UNL A   1      42.477  26.499  27.647  1.00  0.00     0.064 A 
ATOM     73  C   UNL A   1      41.994  25.202  27.419  1.00  0.00     0.173 A 
ATOM     74  C   UNL A   1      43.431  27.003  26.750  1.00  0.00     0.173 A 
ATOM     75  F   UNL A   1      41.093  24.667  28.257  1.00  0.00    -0.203 F 
ATOM     76  C   UNL A   1      42.466  24.432  26.359  1.00  0.00     0.198 A 
ATOM     77  C   UNL A   1      43.877  26.245  25.670  1.00  0.00     0.198 A 
ATOM     78  F   UNL A   1      43.920  28.241  26.916  1.00  0.00    -0.203 F 
ATOM     79  F   UNL A   1      42.029  23.175  26.200  1.00  0.00    -0.200 F 
ATOM     80  C   UNL A   1      43.404  24.955  25.482  1.00  0.00     0.200 A 
ATOM     81  F   UNL A   1      44.768  26.763  24.813  1.00  0.00    -0.200 F 
ATOM     82  F   UNL A   1      43.856  24.216  24.460  1.00  0.00    -0.200 F 
ENDBRANCH  48  72
BRANCH  60  83
ATOM     83  C   UNL A   1      44.763  27.291  34.175  1.00  0.00     0.064 A 
ATOM     84  C   UNL A   1      44.635  26.081  34.875  1.00  0.00     0.173 A 
ATOM     85  C   UNL A   1      46.013  27.928  34.193  1.00  0.00     0.173 A 
ATOM     86  F   UNL A   1      43.457  25.437  34.900  1.00  0.00    -0.203 F 
ATOM     87  C   UNL A   1      45.697  25.561  35.609  1.00  0.00     0.198 A 
ATOM     88  C   UNL A   1      47.086  27.383  34.894  1.00  0.00     0.198 A 
ATOM     89  F   UNL A   1      46.197  29.080  33.532  1.00  0.00    -0.203 F 
ATOM     90  F   UNL A   1      45.525  24.448  36.335  1.00  0.00    -0.200 F 
ATOM     91  C   UNL A   1      46.923  26.210  35.615  1.00  0.00     0.200 A 
ATOM     92  F   UNL A   1      48.275  28.002  34.883  1.00  0.00    -0.200 F 
ATOM     93  F   UNL A   1      47.942  25.711  36.326  1.00  0.00    -0.200 F 
ENDBRANCH  60  83
ENDBRANCH  34  35
ENDBRANCH  26  29
ENDBRANCH  24  25
ENDBRANCH  23  24
ENDBRANCH  22  23
ENDBRANCH   1  22
TORSDOF 16
ENDMDL
MODEL 3
REMARK VINA RESULT:     -11.4      2.067      8.017
REMARK SMILES C[NH+](C)CCCNC(=O)[C@@H]1[C@@H](C(=O)NCCCCNC(=O)c2ccc(-c3c4nc(c(-c5c(F)c(F)c(F)c(F)c5F)c5ccc([nH]5)c(-c5c(F)c(F)c(F)c(F)c5F)c5nc(c(-c6c(F)c(F)c(F)c(F)c6F)c6ccc3[nH]6)C=C5)C=C4)cc2)C1(C)C
REMARK SMILES IDX 15 1 14 2 12 3 13 4 11 6 10 7 85 8 86 9 87 10 8 11 7 12 9 14
REMARK SMILES IDX 6 15 5 16 4 17 2 18 1 19 3 20 16 22 17 23 18 24 19 25 20 26
REMARK SMILES IDX 21 28 22 29 23 30 84 31 24 32 83 33 25 34 26 35 27 36 77 37
REMARK SMILES IDX 28 38 82 39 76 40 78 41 29 42 81 43 75 44 74 45 30 47 62 48
REMARK SMILES IDX 42 49 61 50 43 51 46 52 60 53 79 54 44 55 45 56 59 58 80 59
REMARK SMILES IDX 47 60 31 61 32 62 40 63 33 64 34 65 38 66 41 67 35 68 36 69
REMARK SMILES IDX 39 70 37 71 63 72 64 73 72 74 65 75 66 76 70 77 73 78 67 79
REMARK SMILES IDX 68 80 71 81 69 82 48 83 49 84 57 85 50 86 51 87 55 88 58 89
REMARK SMILES IDX 52 90 53 91 56 92 54 93
REMARK H PARENT 14 5 7 13 2 21 19 27 78 46 46 57
REMARK Flexibility Score: inf
ROOT
ATOM      1  C   UNL A   1      32.558  30.052  25.663  1.00  0.00     0.116 C 
ENDROOT
BRANCH   1   2
ATOM      2  N   UNL A   1      31.732  29.696  24.532  1.00  0.00    -0.356 N 
ATOM      3  C   UNL A   1      31.755  28.688  23.611  1.00  0.00     0.224 C 
ATOM      4  O   UNL A   1      30.969  28.802  22.670  1.00  0.00    -0.275 OA
ATOM      5  H   UNL A   1      30.984  30.322  24.395  1.00  0.00     0.163 HD
BRANCH   3   6
ATOM      6  C   UNL A   1      32.573  27.450  23.676  1.00  0.00     0.098 C 
ATOM      7  C   UNL A   1      32.112  26.051  23.383  1.00  0.00     0.098 C 
ATOM      8  C   UNL A   1      32.596  26.406  24.788  1.00  0.00    -0.011 C 
ATOM      9  C   UNL A   1      31.548  26.401  25.878  1.00  0.00     0.013 C 
ATOM     10  C   UNL A   1      33.932  25.886  25.258  1.00  0.00     0.013 C 
BRANCH   7  11
ATOM     11  C   UNL A   1      32.856  25.267  22.361  1.00  0.00     0.224 C 
ATOM     12  N   UNL A   1      32.583  23.922  22.273  1.00  0.00    -0.356 N 
ATOM     13  H   UNL A   1      33.077  23.427  21.581  1.00  0.00     0.163 HD
ATOM     14  O   UNL A   1      33.666  25.782  21.605  1.00  0.00    -0.275 OA
BRANCH  12  15
ATOM     15  C   UNL A   1      31.657  23.139  23.074  1.00  0.00     0.121 C 
BRANCH  15  16
ATOM     16  C   UNL A   1      32.330  22.075  23.928  1.00  0.00     0.083 C 
BRANCH  16  17
ATOM     17  C   UNL A   1      32.478  22.377  25.423  1.00  0.00     0.263 C 
BRANCH  17  18
ATOM     18  N   UNL A   1      32.821  21.297  26.348  1.00  0.00    -0.340 N 
ATOM     19  C   UNL A   1      33.170  20.031  25.721  1.00  0.00     0.332 C 
ATOM     20  C   UNL A   1      33.774  21.674  27.383  1.00  0.00     0.332 C 
ATOM     21  H   UNL A   1      31.934  21.125  26.821  1.00  0.00     0.347 HD
ENDBRANCH  17  18
ENDBRANCH  16  17
ENDBRANCH  15  16
ENDBRANCH  12  15
ENDBRANCH   7  11
ENDBRANCH   3   6
ENDBRANCH   1   2
BRANCH   1  22
ATOM     22  C   UNL A   1      31.725  30.616  26.811  1.00  0.00     0.023 C 
BRANCH  22  23
ATOM     23  C   UNL A   1      31.558  32.130  26.792  1.00  0.00     0.023 C 
BRANCH  23  24
ATOM     24  C   UNL A   1      32.794  32.915  27.208  1.00  0.00     0.116 C 
BRANCH  24  25
ATOM     25  N   UNL A   1      32.496  34.284  27.607  1.00  0.00    -0.352 N 
ATOM     26  C   UNL A   1      33.031  35.035  28.623  1.00  0.00     0.251 C 
ATOM     27  H   UNL A   1      31.807  34.737  27.067  1.00  0.00     0.163 HD
ATOM     28  O   UNL A   1      32.551  36.131  28.894  1.00  0.00    -0.269 OA
BRANCH  26  29
ATOM     29  C   UNL A   1      34.163  34.505  29.409  1.00  0.00     0.039 A 
ATOM     30  C   UNL A   1      33.899  33.899  30.638  1.00  0.00     0.014 A 
ATOM     31  C   UNL A   1      35.473  34.578  28.928  1.00  0.00     0.014 A 
ATOM     32  C   UNL A   1      34.942  33.307  31.349  1.00  0.00     0.010 A 
ATOM     33  C   UNL A   1      36.492  33.897  29.586  1.00  0.00     0.010 A 
ATOM     34  C   UNL A   1      36.239  33.262  30.808  1.00  0.00    -0.014 A 
BRANCH  34  35
ATOM     35  C   UNL A   1      37.321  32.533  31.517  1.00  0.00     0.031 A 
ATOM     36  C   UNL A   1      38.025  31.378  30.863  1.00  0.00     0.074 A 
ATOM     37  C   UNL A   1      37.656  32.910  32.767  1.00  0.00     0.049 A 
ATOM     38  N   UNL A   1      39.035  30.669  31.303  1.00  0.00    -0.248 NA
ATOM     39  C   UNL A   1      37.516  30.938  29.555  1.00  0.00     0.031 C 
ATOM     40  C   UNL A   1      36.991  33.963  33.536  1.00  0.00     0.029 A 
ATOM     41  N   UNL A   1      38.644  32.461  33.605  1.00  0.00    -0.354 N 
ATOM     42  C   UNL A   1      39.280  29.710  30.331  1.00  0.00     0.074 A 
ATOM     43  C   UNL A   1      38.268  29.876  29.310  1.00  0.00     0.031 C 
ATOM     44  C   UNL A   1      37.625  34.118  34.709  1.00  0.00     0.029 A 
ATOM     45  C   UNL A   1      38.713  33.151  34.791  1.00  0.00     0.049 A 
ATOM     46  H   UNL A   1      39.246  31.716  33.379  1.00  0.00     0.167 HD
ATOM     47  C   UNL A   1      40.277  28.795  30.276  1.00  0.00     0.037 A 
ATOM     48  C   UNL A   1      39.567  33.025  35.823  1.00  0.00     0.037 A 
ATOM     49  C   UNL A   1      41.285  28.641  31.293  1.00  0.00     0.049 A 
ATOM     50  C   UNL A   1      40.669  32.003  35.735  1.00  0.00     0.074 A 
ATOM     51  C   UNL A   1      42.372  27.783  31.310  1.00  0.00     0.029 A 
ATOM     52  N   UNL A   1      41.324  29.354  32.482  1.00  0.00    -0.354 N 
ATOM     53  N   UNL A   1      40.949  31.166  34.765  1.00  0.00    -0.248 NA
ATOM     54  C   UNL A   1      41.582  31.922  36.882  1.00  0.00     0.031 C 
ATOM     55  C   UNL A   1      43.031  27.934  32.534  1.00  0.00     0.029 A 
ATOM     56  C   UNL A   1      42.398  28.936  33.253  1.00  0.00     0.049 A 
ATOM     57  H   UNL A   1      40.683  30.056  32.741  1.00  0.00     0.167 HD
ATOM     58  C   UNL A   1      42.081  30.475  35.173  1.00  0.00     0.074 A 
ATOM     59  C   UNL A   1      42.455  31.017  36.463  1.00  0.00     0.031 C 
ATOM     60  C   UNL A   1      42.750  29.477  34.542  1.00  0.00     0.037 A 
BRANCH  47  61
ATOM     61  C   UNL A   1      40.327  27.891  29.076  1.00  0.00     0.064 A 
ATOM     62  C   UNL A   1      39.608  26.685  29.029  1.00  0.00     0.173 A 
ATOM     63  C   UNL A   1      41.075  28.248  27.944  1.00  0.00     0.173 A 
ATOM     64  F   UNL A   1      38.887  26.287  30.088  1.00  0.00    -0.203 F 
ATOM     65  C   UNL A   1      39.661  25.860  27.909  1.00  0.00     0.198 A 
ATOM     66  C   UNL A   1      41.097  27.437  26.812  1.00  0.00     0.198 A 
ATOM     67  F   UNL A   1      41.779  29.390  27.931  1.00  0.00    -0.203 F 
ATOM     68  F   UNL A   1      39.011  24.688  27.912  1.00  0.00    -0.200 F 
ATOM     69  C   UNL A   1      40.398  26.240  26.798  1.00  0.00     0.200 A 
ATOM     70  F   UNL A   1      41.798  27.814  25.734  1.00  0.00    -0.200 F 
ATOM     71  F   UNL A   1      40.441  25.449  25.717  1.00  0.00    -0.200 F 
ENDBRANCH  47  61
BRANCH  48  72
ATOM     72  C   UNL A   1      39.439  33.910  37.011  1.00  0.00     0.064 A 
ATOM     73  C   UNL A   1      40.029  35.182  37.036  1.00  0.00     0.173 A 
ATOM     74  C   UNL A   1      38.732  33.500  38.152  1.00  0.00     0.173 A 
ATOM     75  F   UNL A   1      40.730  35.615  35.977  1.00  0.00    -0.203 F 
ATOM     76  C   UNL A   1      39.942  35.996  38.163  1.00  0.00     0.198 A 
ATOM     77  C   UNL A   1      38.615  34.329  39.265  1.00  0.00     0.198 A 
ATOM     78  F   UNL A   1      38.140  32.297  38.178  1.00  0.00    -0.203 F 
ATOM     79  F   UNL A   1      40.565  37.182  38.179  1.00  0.00    -0.200 F 
ATOM     80  C   UNL A   1      39.231  35.571  39.275  1.00  0.00     0.200 A 
ATOM     81  F   UNL A   1      37.910  33.922  40.329  1.00  0.00    -0.200 F 
ATOM     82  F   UNL A   1      39.144  36.355  40.358  1.00  0.00    -0.200 F 
ENDBRANCH  48  72
BRANCH  60  83
ATOM     83  C   UNL A   1      43.967  28.929  35.235  1.00  0.00     0.064 A 
ATOM     84  C   UNL A   1      45.251  29.442  34.990  1.00  0.00     0.173 A 
ATOM     85  C   UNL A   1      43.849  27.872  36.150  1.00  0.00     0.173 A 
ATOM     86  F   UNL A   1      45.422  30.445  34.114  1.00  0.00    -0.203 F 
ATOM     87  C   UNL A   1      46.374  28.881  35.593  1.00  0.00     0.198 A 
ATOM     88  C   UNL A   1      44.969  27.342  36.783  1.00  0.00     0.198 A 
ATOM     89  F   UNL A   1      42.645  27.351  36.432  1.00  0.00    -0.203 F 
ATOM     90  F   UNL A   1      47.596  29.336  35.280  1.00  0.00    -0.200 F 
ATOM     91  C   UNL A   1      46.232  27.836  36.492  1.00  0.00     0.200 A 
ATOM     92  F   UNL A   1      44.829  26.343  37.666  1.00  0.00    -0.200 F 
ATOM     93  F   UNL A   1      47.315  27.294  37.067  1.00  0.00    -0.200 F 
ENDBRANCH  60  83
ENDBRANCH  34  35
ENDBRANCH  26  29
ENDBRANCH  24  25
ENDBRANCH  23  24
ENDBRANCH  22  23
ENDBRANCH   1  22
TORSDOF 16
ENDMDL
