MODEL 1
REMARK VINA RESULT:     -12.4      0.000      0.000
REMARK SMILES CCCc1cc(=O)[nH]c(S[C@@H]2CC[C@@]([NH2+]C)(C(=O)NCCCCNC(=O)c3ccc(-c4c5nc(c(-c6c(F)c(F)c(F)c(F)c6F)c6ccc([nH]6)c(-c6c(F)c(F)c(F)c(F)c6F)c6nc(c(-c7c(F)c(F)c(F)c(F)c7F)c7ccc4[nH]7)C=C6)C=C5)cc3)C2)n1
REMARK SMILES IDX 20 1 19 2 17 3 18 4 14 6 11 7 12 8 90 9 13 10 10 11 9 12
REMARK SMILES IDX 4 13 5 14 91 15 6 16 7 17 8 18 3 20 2 21 1 22 15 23 16 24
REMARK SMILES IDX 21 27 22 28 23 29 24 30 25 31 26 33 27 34 28 35 89 36 29 37
REMARK SMILES IDX 88 38 30 39 31 40 32 41 82 42 33 43 87 44 81 45 83 46 34 47
REMARK SMILES IDX 86 48 80 49 79 50 35 52 67 53 47 54 66 55 48 56 51 57 65 58
REMARK SMILES IDX 84 59 49 60 50 61 64 63 85 64 52 65 36 66 37 67 45 68 38 69
REMARK SMILES IDX 39 70 43 71 46 72 40 73 41 74 44 75 42 76 68 77 69 78 77 79
REMARK SMILES IDX 70 80 71 81 75 82 78 83 72 84 73 85 76 86 74 87 53 88 54 89
REMARK SMILES IDX 62 90 55 91 56 92 60 93 63 94 57 95 58 96 61 97 59 98
REMARK H PARENT 19 5 8 19 15 25 15 26 24 32 83 51 51 62
REMARK Flexibility Score: inf
ROOT
ATOM      1  C   UNL A   1      31.877  29.727  25.195  1.00  0.00     0.116 C 
ENDROOT
BRANCH   1   2
ATOM      2  N   UNL A   1      33.071  29.550  24.388  1.00  0.00    -0.351 N 
ATOM      3  C   UNL A   1      33.305  28.668  23.368  1.00  0.00     0.281 C 
ATOM      4  O   UNL A   1      34.423  28.692  22.846  1.00  0.00    -0.268 OA
ATOM      5  H   UNL A   1      33.821  30.150  24.606  1.00  0.00     0.163 HD
BRANCH   3   6
ATOM      6  C   UNL A   1      32.188  27.680  22.903  1.00  0.00     0.176 C 
ATOM      7  C   UNL A   1      33.083  25.418  22.937  1.00  0.00     0.062 C 
ATOM      8  C   UNL A   1      32.041  25.471  24.044  1.00  0.00     0.022 C 
ATOM      9  C   UNL A   1      32.751  26.568  21.992  1.00  0.00     0.094 C 
ATOM     10  C   UNL A   1      31.630  26.935  24.144  1.00  0.00     0.080 C 
BRANCH   7  11
ATOM     11  S   UNL A   1      33.232  23.785  22.151  1.00  0.00    -0.084 SA
BRANCH  11  12
ATOM     12  C   UNL A   1      33.689  22.720  23.447  1.00  0.00     0.168 A 
ATOM     13  C   UNL A   1      35.032  21.876  25.089  1.00  0.00     0.049 A 
ATOM     14  C   UNL A   1      34.114  20.971  25.464  1.00  0.00     0.095 A 
ATOM     15  N   UNL A   1      34.819  22.771  24.066  1.00  0.00    -0.229 NA
ATOM     16  C   UNL A   1      32.841  20.917  24.729  1.00  0.00     0.251 A 
ATOM     17  O   UNL A   1      31.975  20.096  25.013  1.00  0.00    -0.269 OA
ATOM     18  N   UNL A   1      32.708  21.828  23.732  1.00  0.00    -0.301 N 
ATOM     19  H   UNL A   1      31.877  21.843  23.203  1.00  0.00     0.172 HD
BRANCH  13  20
ATOM     20  C   UNL A   1      36.394  22.003  25.746  1.00  0.00     0.056 C 
BRANCH  20  21
ATOM     21  C   UNL A   1      37.606  21.450  24.985  1.00  0.00     0.003 C 
ATOM     22  C   UNL A   1      37.550  19.942  24.782  1.00  0.00     0.004 C 
ENDBRANCH  20  21
ENDBRANCH  13  20
ENDBRANCH  11  12
ENDBRANCH   7  11
BRANCH   6  23
ATOM     23  N   UNL A   1      31.101  28.430  22.212  1.00  0.00    -0.336 N 
ATOM     24  C   UNL A   1      29.762  28.118  22.705  1.00  0.00     0.331 C 
ATOM     25  H   UNL A   1      31.138  28.206  21.218  1.00  0.00     0.346 HD
ATOM     26  H   UNL A   1      31.261  29.421  22.396  1.00  0.00     0.346 HD
ENDBRANCH   6  23
ENDBRANCH   3   6
ENDBRANCH   1   2
BRANCH   1  27
ATOM     27  C   UNL A   1      32.219  30.241  26.592  1.00  0.00     0.023 C 
BRANCH  27  28
ATOM     28  C   UNL A   1      31.827  31.696  26.843  1.00  0.00     0.023 C 
BRANCH  28  29
ATOM     29  C   UNL A   1      32.953  32.577  27.370  1.00  0.00     0.116 C 
BRANCH  29  30
ATOM     30  N   UNL A   1      32.526  33.948  27.615  1.00  0.00    -0.352 N 
ATOM     31  C   UNL A   1      33.010  34.856  28.526  1.00  0.00     0.251 C 
ATOM     32  H   UNL A   1      31.788  34.270  27.049  1.00  0.00     0.163 HD
ATOM     33  O   UNL A   1      32.434  35.922  28.711  1.00  0.00    -0.269 OA
BRANCH  31  34
ATOM     34  C   UNL A   1      34.213  34.519  29.314  1.00  0.00     0.039 A 
ATOM     35  C   UNL A   1      34.060  34.118  30.642  1.00  0.00     0.014 A 
ATOM     36  C   UNL A   1      35.480  34.545  28.724  1.00  0.00     0.014 A 
ATOM     37  C   UNL A   1      35.167  33.645  31.349  1.00  0.00     0.010 A 
ATOM     38  C   UNL A   1      36.566  34.003  29.404  1.00  0.00     0.010 A 
ATOM     39  C   UNL A   1      36.415  33.528  30.716  1.00  0.00    -0.014 A 
BRANCH  39  40
ATOM     40  C   UNL A   1      37.564  32.866  31.387  1.00  0.00     0.031 A 
ATOM     41  C   UNL A   1      38.211  31.661  30.769  1.00  0.00     0.074 A 
ATOM     42  C   UNL A   1      37.966  33.306  32.596  1.00  0.00     0.049 A 
ATOM     43  N   UNL A   1      39.141  30.880  31.257  1.00  0.00    -0.248 NA
ATOM     44  C   UNL A   1      37.739  31.269  29.431  1.00  0.00     0.031 C 
ATOM     45  C   UNL A   1      37.391  34.443  33.318  1.00  0.00     0.029 A 
ATOM     46  N   UNL A   1      38.941  32.839  33.444  1.00  0.00    -0.354 N 
ATOM     47  C   UNL A   1      39.368  29.912  30.289  1.00  0.00     0.074 A 
ATOM     48  C   UNL A   1      38.438  30.164  29.210  1.00  0.00     0.031 C 
ATOM     49  C   UNL A   1      38.027  34.589  34.491  1.00  0.00     0.029 A 
ATOM     50  C   UNL A   1      39.018  33.529  34.630  1.00  0.00     0.049 A 
ATOM     51  H   UNL A   1      39.529  32.081  33.222  1.00  0.00     0.167 HD
ATOM     52  C   UNL A   1      40.288  28.918  30.290  1.00  0.00     0.037 A 
ATOM     53  C   UNL A   1      39.781  33.311  35.720  1.00  0.00     0.037 A 
ATOM     54  C   UNL A   1      41.216  28.672  31.363  1.00  0.00     0.049 A 
ATOM     55  C   UNL A   1      40.748  32.156  35.718  1.00  0.00     0.074 A 
ATOM     56  C   UNL A   1      42.206  27.709  31.442  1.00  0.00     0.029 A 
ATOM     57  N   UNL A   1      41.264  29.392  32.548  1.00  0.00    -0.354 N 
ATOM     58  N   UNL A   1      41.000  31.288  34.769  1.00  0.00    -0.248 NA
ATOM     59  C   UNL A   1      41.539  31.950  36.940  1.00  0.00     0.031 C 
ATOM     60  C   UNL A   1      42.821  27.815  32.692  1.00  0.00     0.029 A 
ATOM     61  C   UNL A   1      42.249  28.876  33.374  1.00  0.00     0.049 A 
ATOM     62  H   UNL A   1      40.684  30.157  32.768  1.00  0.00     0.167 HD
ATOM     63  C   UNL A   1      41.987  30.451  35.268  1.00  0.00     0.074 A 
ATOM     64  C   UNL A   1      42.312  30.930  36.594  1.00  0.00     0.031 C 
ATOM     65  C   UNL A   1      42.567  29.374  34.686  1.00  0.00     0.037 A 
BRANCH  52  66
ATOM     66  C   UNL A   1      40.358  28.026  29.086  1.00  0.00     0.064 A 
ATOM     67  C   UNL A   1      39.602  26.846  29.009  1.00  0.00     0.173 A 
ATOM     68  C   UNL A   1      41.124  28.391  27.968  1.00  0.00     0.173 A 
ATOM     69  F   UNL A   1      38.862  26.449  30.054  1.00  0.00    -0.203 F 
ATOM     70  C   UNL A   1      39.621  26.057  27.861  1.00  0.00     0.198 A 
ATOM     71  C   UNL A   1      41.116  27.614  26.812  1.00  0.00     0.198 A 
ATOM     72  F   UNL A   1      41.858  29.513  27.986  1.00  0.00    -0.203 F 
ATOM     73  F   UNL A   1      38.917  24.918  27.824  1.00  0.00    -0.200 F 
ATOM     74  C   UNL A   1      40.369  26.447  26.761  1.00  0.00     0.200 A 
ATOM     75  F   UNL A   1      41.826  28.001  25.742  1.00  0.00    -0.200 F 
ATOM     76  F   UNL A   1      40.370  25.697  25.650  1.00  0.00    -0.200 F 
ENDBRANCH  52  66
BRANCH  53  77
ATOM     77  C   UNL A   1      39.649  34.183  36.920  1.00  0.00     0.064 A 
ATOM     78  C   UNL A   1      40.373  35.379  37.028  1.00  0.00     0.173 A 
ATOM     79  C   UNL A   1      38.841  33.812  38.006  1.00  0.00     0.173 A 
ATOM     80  F   UNL A   1      41.177  35.769  36.028  1.00  0.00    -0.203 F 
ATOM     81  C   UNL A   1      40.324  36.149  38.190  1.00  0.00     0.198 A 
ATOM     82  C   UNL A   1      38.763  34.602  39.151  1.00  0.00     0.198 A 
ATOM     83  F   UNL A   1      38.123  32.680  37.954  1.00  0.00    -0.203 F 
ATOM     84  F   UNL A   1      41.083  37.249  38.294  1.00  0.00    -0.200 F 
ATOM     85  C   UNL A   1      39.518  35.761  39.249  1.00  0.00     0.200 A 
ATOM     86  F   UNL A   1      37.969  34.231  40.165  1.00  0.00    -0.200 F 
ATOM     87  F   UNL A   1      39.478  36.497  40.368  1.00  0.00    -0.200 F 
ENDBRANCH  53  77
BRANCH  65  88
ATOM     88  C   UNL A   1      43.629  28.653  35.466  1.00  0.00     0.064 A 
ATOM     89  C   UNL A   1      43.307  27.628  36.366  1.00  0.00     0.173 A 
ATOM     90  C   UNL A   1      44.986  28.953  35.269  1.00  0.00     0.173 A 
ATOM     91  F   UNL A   1      42.023  27.316  36.603  1.00  0.00    -0.203 F 
ATOM     92  C   UNL A   1      44.304  26.940  37.054  1.00  0.00     0.198 A 
ATOM     93  C   UNL A   1      45.980  28.242  35.933  1.00  0.00     0.198 A 
ATOM     94  F   UNL A   1      45.347  29.922  34.413  1.00  0.00    -0.203 F 
ATOM     95  F   UNL A   1      43.970  25.993  37.941  1.00  0.00    -0.200 F 
ATOM     96  C   UNL A   1      45.639  27.240  36.830  1.00  0.00     0.200 A 
ATOM     97  F   UNL A   1      47.271  28.521  35.702  1.00  0.00    -0.200 F 
ATOM     98  F   UNL A   1      46.597  26.566  37.480  1.00  0.00    -0.200 F 
ENDBRANCH  65  88
ENDBRANCH  39  40
ENDBRANCH  31  34
ENDBRANCH  29  30
ENDBRANCH  28  29
ENDBRANCH  27  28
ENDBRANCH   1  27
TORSDOF 16
ENDMDL
MODEL 2
REMARK VINA RESULT:     -12.3      0.723      2.073
REMARK SMILES CCCc1cc(=O)[nH]c(S[C@@H]2CC[C@@]([NH2+]C)(C(=O)NCCCCNC(=O)c3ccc(-c4c5nc(c(-c6c(F)c(F)c(F)c(F)c6F)c6ccc([nH]6)c(-c6c(F)c(F)c(F)c(F)c6F)c6nc(c(-c7c(F)c(F)c(F)c(F)c7F)c7ccc4[nH]7)C=C6)C=C5)cc3)C2)n1
REMARK SMILES IDX 20 1 19 2 17 3 18 4 14 6 11 7 12 8 90 9 13 10 10 11 9 12
REMARK SMILES IDX 4 13 5 14 91 15 6 16 7 17 8 18 3 20 2 21 1 22 15 23 16 24
REMARK SMILES IDX 21 27 22 28 23 29 24 30 25 31 26 33 27 34 28 35 89 36 29 37
REMARK SMILES IDX 88 38 30 39 31 40 32 41 82 42 33 43 87 44 81 45 83 46 34 47
REMARK SMILES IDX 86 48 80 49 79 50 35 52 67 53 47 54 66 55 48 56 51 57 65 58
REMARK SMILES IDX 84 59 49 60 50 61 64 63 85 64 52 65 36 66 37 67 45 68 38 69
REMARK SMILES IDX 39 70 43 71 46 72 40 73 41 74 44 75 42 76 68 77 69 78 77 79
REMARK SMILES IDX 70 80 71 81 75 82 78 83 72 84 73 85 76 86 74 87 53 88 54 89
REMARK SMILES IDX 62 90 55 91 56 92 60 93 63 94 57 95 58 96 61 97 59 98
REMARK H PARENT 19 5 8 19 15 25 15 26 24 32 83 51 51 62
REMARK Flexibility Score: inf
ROOT
ATOM      1  C   UNL A   1      31.727  30.024  25.152  1.00  0.00     0.116 C 
ENDROOT
BRANCH   1   2
ATOM      2  N   UNL A   1      32.860  29.384  24.505  1.00  0.00    -0.351 N 
ATOM      3  C   UNL A   1      32.874  28.367  23.590  1.00  0.00     0.281 C 
ATOM      4  O   UNL A   1      33.977  27.973  23.202  1.00  0.00    -0.268 OA
ATOM      5  H   UNL A   1      33.745  29.732  24.763  1.00  0.00     0.163 HD
BRANCH   3   6
ATOM      6  C   UNL A   1      31.537  27.745  23.076  1.00  0.00     0.176 C 
ATOM      7  C   UNL A   1      31.445  25.413  23.762  1.00  0.00     0.062 C 
ATOM      8  C   UNL A   1      30.362  26.125  24.558  1.00  0.00     0.022 C 
ATOM      9  C   UNL A   1      31.737  26.304  22.559  1.00  0.00     0.094 C 
ATOM     10  C   UNL A   1      30.556  27.609  24.269  1.00  0.00     0.080 C 
BRANCH   7  11
ATOM     11  S   UNL A   1      31.046  23.683  23.369  1.00  0.00    -0.084 SA
BRANCH  11  12
ATOM     12  C   UNL A   1      32.236  22.756  24.233  1.00  0.00     0.168 A 
ATOM     13  C   UNL A   1      34.198  22.376  25.338  1.00  0.00     0.049 A 
ATOM     14  C   UNL A   1      33.878  21.099  25.600  1.00  0.00     0.095 A 
ATOM     15  N   UNL A   1      33.364  23.225  24.645  1.00  0.00    -0.229 NA
ATOM     16  C   UNL A   1      32.596  20.580  25.101  1.00  0.00     0.251 A 
ATOM     17  O   UNL A   1      32.261  19.416  25.291  1.00  0.00    -0.269 OA
ATOM     18  N   UNL A   1      31.831  21.475  24.424  1.00  0.00    -0.301 N 
ATOM     19  H   UNL A   1      30.960  21.188  24.065  1.00  0.00     0.172 HD
BRANCH  13  20
ATOM     20  C   UNL A   1      35.506  23.014  25.769  1.00  0.00     0.056 C 
BRANCH  20  21
ATOM     21  C   UNL A   1      36.347  23.710  24.691  1.00  0.00     0.003 C 
ATOM     22  C   UNL A   1      36.688  22.802  23.516  1.00  0.00     0.004 C 
ENDBRANCH  20  21
ENDBRANCH  13  20
ENDBRANCH  11  12
ENDBRANCH   7  11
BRANCH   6  23
ATOM     23  N   UNL A   1      30.949  28.610  22.013  1.00  0.00    -0.336 N 
ATOM     24  C   UNL A   1      29.640  29.160  22.355  1.00  0.00     0.331 C 
ATOM     25  H   UNL A   1      30.853  28.055  21.163  1.00  0.00     0.346 HD
ATOM     26  H   UNL A   1      31.581  29.402  21.892  1.00  0.00     0.346 HD
ENDBRANCH   6  23
ENDBRANCH   3   6
ENDBRANCH   1   2
BRANCH   1  27
ATOM     27  C   UNL A   1      32.073  30.468  26.571  1.00  0.00     0.023 C 
BRANCH  27  28
ATOM     28  C   UNL A   1      31.714  31.919  26.885  1.00  0.00     0.023 C 
BRANCH  28  29
ATOM     29  C   UNL A   1      32.869  32.764  27.407  1.00  0.00     0.116 C 
BRANCH  29  30
ATOM     30  N   UNL A   1      32.482  34.142  27.675  1.00  0.00    -0.352 N 
ATOM     31  C   UNL A   1      33.011  35.031  28.581  1.00  0.00     0.251 C 
ATOM     32  H   UNL A   1      31.737  34.487  27.131  1.00  0.00     0.163 HD
ATOM     33  O   UNL A   1      32.466  36.108  28.790  1.00  0.00    -0.269 OA
BRANCH  31  34
ATOM     34  C   UNL A   1      34.226  34.657  29.333  1.00  0.00     0.039 A 
ATOM     35  C   UNL A   1      34.097  34.242  30.659  1.00  0.00     0.014 A 
ATOM     36  C   UNL A   1      35.478  34.665  28.712  1.00  0.00     0.014 A 
ATOM     37  C   UNL A   1      35.211  33.737  31.333  1.00  0.00     0.010 A 
ATOM     38  C   UNL A   1      36.569  34.091  29.358  1.00  0.00     0.010 A 
ATOM     39  C   UNL A   1      36.440  33.602  30.668  1.00  0.00    -0.014 A 
BRANCH  39  40
ATOM     40  C   UNL A   1      37.590  32.907  31.301  1.00  0.00     0.031 A 
ATOM     41  C   UNL A   1      38.239  31.737  30.619  1.00  0.00     0.074 A 
ATOM     42  C   UNL A   1      37.995  33.284  32.531  1.00  0.00     0.049 A 
ATOM     43  N   UNL A   1      39.170  30.932  31.065  1.00  0.00    -0.248 NA
ATOM     44  C   UNL A   1      37.765  31.415  29.264  1.00  0.00     0.031 C 
ATOM     45  C   UNL A   1      37.419  34.380  33.313  1.00  0.00     0.029 A 
ATOM     46  N   UNL A   1      38.971  32.773  33.352  1.00  0.00    -0.354 N 
ATOM     47  C   UNL A   1      39.396  30.016  30.047  1.00  0.00     0.074 A 
ATOM     48  C   UNL A   1      38.464  30.324  28.984  1.00  0.00     0.031 C 
ATOM     49  C   UNL A   1      38.057  34.466  34.490  1.00  0.00     0.029 A 
ATOM     50  C   UNL A   1      39.050  33.400  34.572  1.00  0.00     0.049 A 
ATOM     51  H   UNL A   1      39.560  32.029  33.089  1.00  0.00     0.167 HD
ATOM     52  C   UNL A   1      40.317  29.025  29.995  1.00  0.00     0.037 A 
ATOM     53  C   UNL A   1      39.814  33.127  35.648  1.00  0.00     0.037 A 
ATOM     54  C   UNL A   1      41.247  28.724  31.052  1.00  0.00     0.049 A 
ATOM     55  C   UNL A   1      40.783  31.975  35.583  1.00  0.00     0.074 A 
ATOM     56  C   UNL A   1      42.239  27.760  31.079  1.00  0.00     0.029 A 
ATOM     57  N   UNL A   1      41.296  29.381  32.272  1.00  0.00    -0.354 N 
ATOM     58  N   UNL A   1      41.034  31.158  34.590  1.00  0.00    -0.248 NA
ATOM     59  C   UNL A   1      41.576  31.706  36.792  1.00  0.00     0.031 C 
ATOM     60  C   UNL A   1      42.855  27.800  32.332  1.00  0.00     0.029 A 
ATOM     61  C   UNL A   1      42.283  28.823  33.069  1.00  0.00     0.049 A 
ATOM     62  H   UNL A   1      40.716  30.133  32.533  1.00  0.00     0.167 HD
ATOM     63  C   UNL A   1      42.023  30.296  35.043  1.00  0.00     0.074 A 
ATOM     64  C   UNL A   1      42.349  30.706  36.392  1.00  0.00     0.031 C 
ATOM     65  C   UNL A   1      42.603  29.253  34.404  1.00  0.00     0.037 A 
BRANCH  52  66
ATOM     66  C   UNL A   1      40.386  28.198  28.745  1.00  0.00     0.064 A 
ATOM     67  C   UNL A   1      41.198  28.578  27.665  1.00  0.00     0.173 A 
ATOM     68  C   UNL A   1      39.700  26.977  28.654  1.00  0.00     0.173 A 
ATOM     69  F   UNL A   1      41.866  29.740  27.698  1.00  0.00    -0.203 F 
ATOM     70  C   UNL A   1      41.308  27.772  26.534  1.00  0.00     0.198 A 
ATOM     71  C   UNL A   1      39.837  26.161  27.533  1.00  0.00     0.198 A 
ATOM     72  F   UNL A   1      38.917  26.563  29.661  1.00  0.00    -0.203 F 
ATOM     73  F   UNL A   1      42.064  28.172  25.501  1.00  0.00    -0.200 F 
ATOM     74  C   UNL A   1      40.637  26.560  26.474  1.00  0.00     0.200 A 
ATOM     75  F   UNL A   1      39.200  24.982  27.484  1.00  0.00    -0.200 F 
ATOM     76  F   UNL A   1      40.760  25.778  25.393  1.00  0.00    -0.200 F 
ENDBRANCH  52  66
BRANCH  53  77
ATOM     77  C   UNL A   1      39.684  33.934  36.892  1.00  0.00     0.064 A 
ATOM     78  C   UNL A   1      38.858  33.513  37.944  1.00  0.00     0.173 A 
ATOM     79  C   UNL A   1      40.338  35.167  37.035  1.00  0.00     0.173 A 
ATOM     80  F   UNL A   1      38.192  32.351  37.850  1.00  0.00    -0.203 F 
ATOM     81  C   UNL A   1      38.659  34.311  39.070  1.00  0.00     0.198 A 
ATOM     82  C   UNL A   1      40.168  35.947  38.177  1.00  0.00     0.198 A 
ATOM     83  F   UNL A   1      41.143  35.617  36.061  1.00  0.00    -0.203 F 
ATOM     84  F   UNL A   1      37.807  33.916  40.026  1.00  0.00    -0.200 F 
ATOM     85  C   UNL A   1      39.317  35.526  39.186  1.00  0.00     0.200 A 
ATOM     86  F   UNL A   1      40.820  37.113  38.292  1.00  0.00    -0.200 F 
ATOM     87  F   UNL A   1      39.119  36.296  40.264  1.00  0.00    -0.200 F 
ENDBRANCH  53  77
BRANCH  65  88
ATOM     88  C   UNL A   1      43.667  28.493  35.144  1.00  0.00     0.064 A 
ATOM     89  C   UNL A   1      45.014  28.880  35.092  1.00  0.00     0.173 A 
ATOM     90  C   UNL A   1      43.327  27.402  35.959  1.00  0.00     0.173 A 
ATOM     91  F   UNL A   1      45.392  29.906  34.314  1.00  0.00    -0.203 F 
ATOM     92  C   UNL A   1      45.984  28.191  35.815  1.00  0.00     0.198 A 
ATOM     93  C   UNL A   1      44.296  26.736  36.705  1.00  0.00     0.198 A 
ATOM     94  F   UNL A   1      42.052  26.995  36.048  1.00  0.00    -0.203 F 
ATOM     95  F   UNL A   1      47.271  28.552  35.716  1.00  0.00    -0.200 F 
ATOM     96  C   UNL A   1      45.624  27.127  36.628  1.00  0.00     0.200 A 
ATOM     97  F   UNL A   1      43.943  25.719  37.503  1.00  0.00    -0.200 F 
ATOM     98  F   UNL A   1      46.557  26.476  37.335  1.00  0.00    -0.200 F 
ENDBRANCH  65  88
ENDBRANCH  39  40
ENDBRANCH  31  34
ENDBRANCH  29  30
ENDBRANCH  28  29
ENDBRANCH  27  28
ENDBRANCH   1  27
TORSDOF 16
ENDMDL
MODEL 3
REMARK VINA RESULT:     -12.2      5.383     11.113
REMARK SMILES CCCc1cc(=O)[nH]c(S[C@@H]2CC[C@@]([NH2+]C)(C(=O)NCCCCNC(=O)c3ccc(-c4c5nc(c(-c6c(F)c(F)c(F)c(F)c6F)c6ccc([nH]6)c(-c6c(F)c(F)c(F)c(F)c6F)c6nc(c(-c7c(F)c(F)c(F)c(F)c7F)c7ccc4[nH]7)C=C6)C=C5)cc3)C2)n1
REMARK SMILES IDX 20 1 19 2 17 3 18 4 14 6 11 7 12 8 90 9 13 10 10 11 9 12
REMARK SMILES IDX 4 13 5 14 91 15 6 16 7 17 8 18 3 20 2 21 1 22 15 23 16 24
REMARK SMILES IDX 21 27 22 28 23 29 24 30 25 31 26 33 27 34 28 35 89 36 29 37
REMARK SMILES IDX 88 38 30 39 31 40 32 41 82 42 33 43 87 44 81 45 83 46 34 47
REMARK SMILES IDX 86 48 80 49 79 50 35 52 67 53 47 54 66 55 48 56 51 57 65 58
REMARK SMILES IDX 84 59 49 60 50 61 64 63 85 64 52 65 36 66 37 67 45 68 38 69
REMARK SMILES IDX 39 70 43 71 46 72 40 73 41 74 44 75 42 76 68 77 69 78 77 79
REMARK SMILES IDX 70 80 71 81 75 82 78 83 72 84 73 85 76 86 74 87 53 88 54 89
REMARK SMILES IDX 62 90 55 91 56 92 60 93 63 94 57 95 58 96 61 97 59 98
REMARK H PARENT 19 5 8 19 15 25 15 26 24 32 83 51 51 62
REMARK Flexibility Score: inf
ROOT
ATOM      1  C   UNL A   1      35.736  22.038  25.206  1.00  0.00     0.116 C 
ENDROOT
BRANCH   1   2
ATOM      2  N   UNL A   1      34.649  21.268  24.627  1.00  0.00    -0.351 N 
ATOM      3  C   UNL A   1      33.347  21.632  24.414  1.00  0.00     0.281 C 
ATOM      4  O   UNL A   1      32.597  20.783  23.924  1.00  0.00    -0.268 OA
ATOM      5  H   UNL A   1      34.882  20.353  24.347  1.00  0.00     0.163 HD
BRANCH   3   6
ATOM      6  C   UNL A   1      32.854  23.066  24.787  1.00  0.00     0.176 C 
ATOM      7  C   UNL A   1      32.902  24.451  22.787  1.00  0.00     0.062 C 
ATOM      8  C   UNL A   1      31.432  24.272  23.136  1.00  0.00     0.022 C 
ATOM      9  C   UNL A   1      33.676  24.158  24.067  1.00  0.00     0.094 C 
ATOM     10  C   UNL A   1      31.405  23.249  24.266  1.00  0.00     0.080 C 
BRANCH   7  11
ATOM     11  S   UNL A   1      33.277  26.047  22.000  1.00  0.00    -0.084 SA
BRANCH  11  12
ATOM     12  C   UNL A   1      32.276  27.192  22.843  1.00  0.00     0.168 A 
ATOM     13  C   UNL A   1      31.495  28.371  24.636  1.00  0.00     0.049 A 
ATOM     14  C   UNL A   1      30.631  29.069  23.882  1.00  0.00     0.095 A 
ATOM     15  N   UNL A   1      32.338  27.417  24.111  1.00  0.00    -0.229 NA
ATOM     16  C   UNL A   1      30.562  28.779  22.443  1.00  0.00     0.251 A 
ATOM     17  O   UNL A   1      29.776  29.369  21.710  1.00  0.00    -0.269 OA
ATOM     18  N   UNL A   1      31.420  27.824  22.001  1.00  0.00    -0.301 N 
ATOM     19  H   UNL A   1      31.423  27.586  21.045  1.00  0.00     0.172 HD
BRANCH  13  20
ATOM     20  C   UNL A   1      31.631  28.554  26.137  1.00  0.00     0.056 C 
BRANCH  20  21
ATOM     21  C   UNL A   1      32.661  29.574  26.638  1.00  0.00     0.003 C 
ATOM     22  C   UNL A   1      33.917  28.927  27.208  1.00  0.00     0.004 C 
ENDBRANCH  20  21
ENDBRANCH  13  20
ENDBRANCH  11  12
ENDBRANCH   7  11
BRANCH   6  23
ATOM     23  N   UNL A   1      32.905  23.254  26.264  1.00  0.00    -0.336 N 
ATOM     24  C   UNL A   1      31.636  23.674  26.852  1.00  0.00     0.331 C 
ATOM     25  H   UNL A   1      33.607  23.964  26.474  1.00  0.00     0.346 HD
ATOM     26  H   UNL A   1      33.134  22.347  26.671  1.00  0.00     0.346 HD
ENDBRANCH   6  23
ENDBRANCH   3   6
ENDBRANCH   1   2
BRANCH   1  27
ATOM     27  C   UNL A   1      37.061  21.746  24.506  1.00  0.00     0.023 C 
BRANCH  27  28
ATOM     28  C   UNL A   1      37.774  20.489  25.001  1.00  0.00     0.023 C 
BRANCH  28  29
ATOM     29  C   UNL A   1      39.069  20.749  25.762  1.00  0.00     0.116 C 
BRANCH  29  30
ATOM     30  N   UNL A   1      39.915  19.567  25.852  1.00  0.00    -0.352 N 
ATOM     31  C   UNL A   1      41.269  19.486  26.076  1.00  0.00     0.251 C 
ATOM     32  H   UNL A   1      39.453  18.705  25.736  1.00  0.00     0.163 HD
ATOM     33  O   UNL A   1      41.857  18.416  25.967  1.00  0.00    -0.269 OA
BRANCH  31  34
ATOM     34  C   UNL A   1      42.021  20.713  26.410  1.00  0.00     0.039 A 
ATOM     35  C   UNL A   1      42.448  21.546  25.376  1.00  0.00     0.014 A 
ATOM     36  C   UNL A   1      42.252  21.064  27.743  1.00  0.00     0.014 A 
ATOM     37  C   UNL A   1      43.018  22.783  25.680  1.00  0.00     0.010 A 
ATOM     38  C   UNL A   1      42.750  22.328  28.045  1.00  0.00     0.010 A 
ATOM     39  C   UNL A   1      43.118  23.208  27.015  1.00  0.00    -0.014 A 
BRANCH  39  40
ATOM     40  C   UNL A   1      43.555  24.586  27.357  1.00  0.00     0.031 A 
ATOM     41  C   UNL A   1      42.559  25.598  27.845  1.00  0.00     0.074 A 
ATOM     42  C   UNL A   1      44.838  24.944  27.148  1.00  0.00     0.049 A 
ATOM     43  N   UNL A   1      42.725  26.875  28.080  1.00  0.00    -0.248 NA
ATOM     44  C   UNL A   1      41.189  25.118  28.084  1.00  0.00     0.031 C 
ATOM     45  C   UNL A   1      45.891  24.062  26.641  1.00  0.00     0.029 A 
ATOM     46  N   UNL A   1      45.473  26.150  27.316  1.00  0.00    -0.354 N 
ATOM     47  C   UNL A   1      41.489  27.347  28.496  1.00  0.00     0.074 A 
ATOM     48  C   UNL A   1      40.565  26.236  28.425  1.00  0.00     0.031 C 
ATOM     49  C   UNL A   1      47.039  24.751  26.549  1.00  0.00     0.029 A 
ATOM     50  C   UNL A   1      46.795  26.136  26.938  1.00  0.00     0.049 A 
ATOM     51  H   UNL A   1      45.024  26.950  27.674  1.00  0.00     0.167 HD
ATOM     52  C   UNL A   1      41.161  28.590  28.924  1.00  0.00     0.037 A 
ATOM     53  C   UNL A   1      47.699  27.133  26.882  1.00  0.00     0.037 A 
ATOM     54  C   UNL A   1      42.083  29.692  28.998  1.00  0.00     0.049 A 
ATOM     55  C   UNL A   1      47.286  28.520  27.301  1.00  0.00     0.074 A 
ATOM     56  C   UNL A   1      41.853  30.980  29.449  1.00  0.00     0.029 A 
ATOM     57  N   UNL A   1      43.413  29.638  28.607  1.00  0.00    -0.354 N 
ATOM     58  N   UNL A   1      46.130  28.938  27.756  1.00  0.00    -0.248 NA
ATOM     59  C   UNL A   1      48.304  29.576  27.199  1.00  0.00     0.031 C 
ATOM     60  C   UNL A   1      43.028  31.718  29.285  1.00  0.00     0.029 A 
ATOM     61  C   UNL A   1      44.006  30.879  28.780  1.00  0.00     0.049 A 
ATOM     62  H   UNL A   1      43.868  28.837  28.259  1.00  0.00     0.167 HD
ATOM     63  C   UNL A   1      46.288  30.293  28.014  1.00  0.00     0.074 A 
ATOM     64  C   UNL A   1      47.659  30.624  27.691  1.00  0.00     0.031 C 
ATOM     65  C   UNL A   1      45.376  31.187  28.467  1.00  0.00     0.037 A 
BRANCH  52  66
ATOM     66  C   UNL A   1      39.748  28.828  29.369  1.00  0.00     0.064 A 
ATOM     67  C   UNL A   1      39.342  28.550  30.683  1.00  0.00     0.173 A 
ATOM     68  C   UNL A   1      38.812  29.410  28.501  1.00  0.00     0.173 A 
ATOM     69  F   UNL A   1      40.196  27.984  31.548  1.00  0.00    -0.203 F 
ATOM     70  C   UNL A   1      38.046  28.834  31.108  1.00  0.00     0.198 A 
ATOM     71  C   UNL A   1      37.526  29.720  28.939  1.00  0.00     0.198 A 
ATOM     72  F   UNL A   1      39.150  29.703  27.236  1.00  0.00    -0.203 F 
ATOM     73  F   UNL A   1      37.672  28.530  32.358  1.00  0.00    -0.200 F 
ATOM     74  C   UNL A   1      37.144  29.429  30.239  1.00  0.00     0.200 A 
ATOM     75  F   UNL A   1      36.660  30.310  28.102  1.00  0.00    -0.200 F 
ATOM     76  F   UNL A   1      35.903  29.720  30.655  1.00  0.00    -0.200 F 
ENDBRANCH  52  66
BRANCH  53  77
ATOM     77  C   UNL A   1      49.079  26.875  26.385  1.00  0.00     0.064 A 
ATOM     78  C   UNL A   1      49.401  27.034  25.030  1.00  0.00     0.173 A 
ATOM     79  C   UNL A   1      50.089  26.413  27.243  1.00  0.00     0.173 A 
ATOM     80  F   UNL A   1      48.467  27.453  24.163  1.00  0.00    -0.203 F 
ATOM     81  C   UNL A   1      50.666  26.702  24.546  1.00  0.00     0.198 A 
ATOM     82  C   UNL A   1      51.364  26.118  26.764  1.00  0.00     0.198 A 
ATOM     83  F   UNL A   1      49.837  26.246  28.550  1.00  0.00    -0.203 F 
ATOM     84  F   UNL A   1      50.923  26.795  23.233  1.00  0.00    -0.200 F 
ATOM     85  C   UNL A   1      51.646  26.247  25.414  1.00  0.00     0.200 A 
ATOM     86  F   UNL A   1      52.313  25.694  27.611  1.00  0.00    -0.200 F 
ATOM     87  F   UNL A   1      52.859  25.921  24.946  1.00  0.00    -0.200 F 
ENDBRANCH  53  77
BRANCH  65  88
ATOM     88  C   UNL A   1      45.835  32.603  28.664  1.00  0.00     0.064 A 
ATOM     89  C   UNL A   1      46.438  33.018  29.860  1.00  0.00     0.173 A 
ATOM     90  C   UNL A   1      45.722  33.540  27.625  1.00  0.00     0.173 A 
ATOM     91  F   UNL A   1      46.553  32.164  30.889  1.00  0.00    -0.203 F 
ATOM     92  C   UNL A   1      46.894  34.324  30.016  1.00  0.00     0.198 A 
ATOM     93  C   UNL A   1      46.209  34.835  27.773  1.00  0.00     0.198 A 
ATOM     94  F   UNL A   1      45.158  33.192  26.458  1.00  0.00    -0.203 F 
ATOM     95  F   UNL A   1      47.428  34.709  31.184  1.00  0.00    -0.200 F 
ATOM     96  C   UNL A   1      46.790  35.228  28.970  1.00  0.00     0.200 A 
ATOM     97  F   UNL A   1      46.122  35.703  26.755  1.00  0.00    -0.200 F 
ATOM     98  F   UNL A   1      47.244  36.480  29.116  1.00  0.00    -0.200 F 
ENDBRANCH  65  88
ENDBRANCH  39  40
ENDBRANCH  31  34
ENDBRANCH  29  30
ENDBRANCH  28  29
ENDBRANCH  27  28
ENDBRANCH   1  27
TORSDOF 16
ENDMDL
