MODEL 1
REMARK VINA RESULT:     -12.9      0.000      0.000
REMARK SMILES C[C@]12CCC(=O)N1[C@H](C(=O)N1CCC[C@@H]1C(=O)NCCCCNC(=O)c1ccc(-c3c4nc(c(-c5c(F)c(F)c(F)c(F)c5F)c5ccc([nH]5)c(-c5c(F)c(F)c(F)c(F)c5F)c5nc(c(-c6c(F)c(F)c(F)c(F)c6F)c6ccc3[nH]6)C=C5)C=C4)cc1)CS2
REMARK SMILES IDX 20 1 19 2 18 3 16 4 17 5 15 7 11 8 12 9 13 10 14 11 9 12
REMARK SMILES IDX 10 13 8 14 1 15 2 16 3 17 7 18 90 19 4 20 5 21 89 22 6 23
REMARK SMILES IDX 21 24 22 25 23 26 24 27 25 29 26 30 27 31 88 32 28 33 87 34
REMARK SMILES IDX 29 35 30 36 31 37 81 38 32 39 86 40 80 41 82 42 33 43 85 44
REMARK SMILES IDX 79 45 78 46 34 48 66 49 46 50 65 51 47 52 50 53 64 54 83 55
REMARK SMILES IDX 48 56 49 57 63 59 84 60 51 61 35 62 36 63 44 64 37 65 38 66
REMARK SMILES IDX 42 67 45 68 39 69 40 70 43 71 41 72 67 73 68 74 76 75 69 76
REMARK SMILES IDX 70 77 74 78 77 79 71 80 72 81 75 82 73 83 52 84 53 85 61 86
REMARK SMILES IDX 54 87 55 88 59 89 62 90 56 91 57 92 60 93 58 94
REMARK H PARENT 18 6 23 28 82 47 50 58
REMARK Flexibility Score: inf
ROOT
ATOM      1  C   UNL A   1      31.395  30.689  26.484  1.00  0.00     0.023 C 
ENDROOT
BRANCH   1   2
ATOM      2  C   UNL A   1      32.774  30.041  26.427  1.00  0.00     0.116 C 
BRANCH   2   3
ATOM      3  N   UNL A   1      33.314  29.948  25.086  1.00  0.00    -0.354 N 
ATOM      4  C   UNL A   1      32.997  29.112  24.059  1.00  0.00     0.242 C 
ATOM      5  O   UNL A   1      33.601  29.288  22.995  1.00  0.00    -0.273 OA
ATOM      6  H   UNL A   1      34.027  30.595  24.885  1.00  0.00     0.163 HD
BRANCH   4   7
ATOM      7  C   UNL A   1      32.031  27.903  24.191  1.00  0.00     0.174 C 
ATOM      8  N   UNL A   1      32.271  26.738  23.340  1.00  0.00    -0.329 N 
ATOM      9  C   UNL A   1      31.185  26.578  22.374  1.00  0.00     0.120 C 
ATOM     10  C   UNL A   1      30.430  27.896  22.391  1.00  0.00     0.024 C 
ATOM     11  C   UNL A   1      30.615  28.374  23.822  1.00  0.00     0.037 C 
BRANCH   8  12
ATOM     12  C   UNL A   1      33.287  25.800  23.392  1.00  0.00     0.246 C 
ATOM     13  O   UNL A   1      33.872  25.510  22.339  1.00  0.00    -0.272 OA
BRANCH  12  14
ATOM     14  C   UNL A   1      33.577  24.985  24.686  1.00  0.00     0.186 C 
ATOM     15  C   UNL A   1      31.955  22.479  23.090  1.00  0.00     0.047 C 
ATOM     16  C   UNL A   1      32.670  22.684  24.423  1.00  0.00     0.087 C 
ATOM     17  C   UNL A   1      32.119  21.731  25.485  1.00  0.00     0.049 C 
ATOM     18  N   UNL A   1      32.513  24.007  24.976  1.00  0.00    -0.315 N 
ATOM     19  S   UNL A   1      34.470  22.515  24.158  1.00  0.00    -0.131 SA
ATOM     20  C   UNL A   1      31.698  22.604  26.662  1.00  0.00     0.103 C 
ATOM     21  C   UNL A   1      31.870  24.024  26.198  1.00  0.00     0.224 C 
ATOM     22  C   UNL A   1      34.846  24.156  24.847  1.00  0.00     0.107 C 
ATOM     23  O   UNL A   1      31.647  25.006  26.878  1.00  0.00    -0.275 OA
ENDBRANCH  12  14
ENDBRANCH   8  12
ENDBRANCH   4   7
ENDBRANCH   2   3
ENDBRANCH   1   2
BRANCH   1  24
ATOM     24  C   UNL A   1      31.383  32.213  26.525  1.00  0.00     0.023 C 
BRANCH  24  25
ATOM     25  C   UNL A   1      32.584  32.870  27.197  1.00  0.00     0.116 C 
BRANCH  25  26
ATOM     26  N   UNL A   1      32.327  34.221  27.669  1.00  0.00    -0.352 N 
ATOM     27  C   UNL A   1      32.999  34.966  28.609  1.00  0.00     0.251 C 
ATOM     28  H   UNL A   1      31.556  34.670  27.253  1.00  0.00     0.163 HD
ATOM     29  O   UNL A   1      32.595  36.084  28.912  1.00  0.00    -0.269 OA
BRANCH  27  30
ATOM     30  C   UNL A   1      34.184  34.407  29.292  1.00  0.00     0.039 A 
ATOM     31  C   UNL A   1      33.987  33.653  30.452  1.00  0.00     0.014 A 
ATOM     32  C   UNL A   1      35.474  34.607  28.793  1.00  0.00     0.014 A 
ATOM     33  C   UNL A   1      35.077  33.032  31.066  1.00  0.00     0.010 A 
ATOM     34  C   UNL A   1      36.547  33.927  29.362  1.00  0.00     0.010 A 
ATOM     35  C   UNL A   1      36.358  33.131  30.502  1.00  0.00    -0.014 A 
BRANCH  35  36
ATOM     36  C   UNL A   1      37.508  32.403  31.094  1.00  0.00     0.031 A 
ATOM     37  C   UNL A   1      38.006  32.764  32.465  1.00  0.00     0.074 A 
ATOM     38  C   UNL A   1      38.135  31.452  30.375  1.00  0.00     0.049 A 
ATOM     39  N   UNL A   1      39.010  32.263  33.140  1.00  0.00    -0.248 NA
ATOM     40  C   UNL A   1      37.299  33.850  33.159  1.00  0.00     0.031 C 
ATOM     41  C   UNL A   1      37.782  31.052  29.012  1.00  0.00     0.029 A 
ATOM     42  N   UNL A   1      39.206  30.653  30.688  1.00  0.00    -0.354 N 
ATOM     43  C   UNL A   1      39.060  32.978  34.329  1.00  0.00     0.074 A 
ATOM     44  C   UNL A   1      38.023  33.985  34.261  1.00  0.00     0.031 C 
ATOM     45  C   UNL A   1      38.602  30.065  28.617  1.00  0.00     0.029 A 
ATOM     46  C   UNL A   1      39.556  29.783  29.685  1.00  0.00     0.049 A 
ATOM     47  H   UNL A   1      39.679  30.699  31.550  1.00  0.00     0.167 HD
ATOM     48  C   UNL A   1      39.878  32.794  35.393  1.00  0.00     0.037 A 
ATOM     49  C   UNL A   1      40.535  28.859  29.635  1.00  0.00     0.037 A 
ATOM     50  C   UNL A   1      40.893  31.776  35.465  1.00  0.00     0.049 A 
ATOM     51  C   UNL A   1      41.422  28.666  30.835  1.00  0.00     0.074 A 
ATOM     52  C   UNL A   1      41.738  31.473  36.519  1.00  0.00     0.029 A 
ATOM     53  N   UNL A   1      41.199  30.894  34.439  1.00  0.00    -0.354 N 
ATOM     54  N   UNL A   1      41.411  29.298  31.983  1.00  0.00    -0.248 NA
ATOM     55  C   UNL A   1      42.452  27.622  30.734  1.00  0.00     0.031 C 
ATOM     56  C   UNL A   1      42.583  30.432  36.116  1.00  0.00     0.029 A 
ATOM     57  C   UNL A   1      42.232  30.055  34.829  1.00  0.00     0.049 A 
ATOM     58  H   UNL A   1      40.751  30.867  33.564  1.00  0.00     0.167 HD
ATOM     59  C   UNL A   1      42.404  28.709  32.753  1.00  0.00     0.074 A 
ATOM     60  C   UNL A   1      42.991  27.660  31.945  1.00  0.00     0.031 C 
ATOM     61  C   UNL A   1      42.795  29.008  34.016  1.00  0.00     0.037 A 
BRANCH  48  62
ATOM     62  C   UNL A   1      39.701  33.712  36.567  1.00  0.00     0.064 A 
ATOM     63  C   UNL A   1      40.361  34.948  36.637  1.00  0.00     0.173 A 
ATOM     64  C   UNL A   1      38.844  33.365  37.622  1.00  0.00     0.173 A 
ATOM     65  F   UNL A   1      41.202  35.321  35.660  1.00  0.00    -0.203 F 
ATOM     66  C   UNL A   1      40.195  35.788  37.735  1.00  0.00     0.198 A 
ATOM     67  C   UNL A   1      38.658  34.221  38.704  1.00  0.00     0.198 A 
ATOM     68  F   UNL A   1      38.186  32.196  37.603  1.00  0.00    -0.203 F 
ATOM     69  F   UNL A   1      40.879  36.939  37.805  1.00  0.00    -0.200 F 
ATOM     70  C   UNL A   1      39.339  35.427  38.764  1.00  0.00     0.200 A 
ATOM     71  F   UNL A   1      37.822  33.876  39.693  1.00  0.00    -0.200 F 
ATOM     72  F   UNL A   1      39.178  36.238  39.819  1.00  0.00    -0.200 F 
ENDBRANCH  48  62
BRANCH  49  73
ATOM     73  C   UNL A   1      40.699  28.015  28.424  1.00  0.00     0.064 A 
ATOM     74  C   UNL A   1      40.066  26.769  28.325  1.00  0.00     0.173 A 
ATOM     75  C   UNL A   1      41.492  28.431  27.345  1.00  0.00     0.173 A 
ATOM     76  F   UNL A   1      39.312  26.320  29.340  1.00  0.00    -0.203 F 
ATOM     77  C   UNL A   1      40.236  25.960  27.205  1.00  0.00     0.198 A 
ATOM     78  C   UNL A   1      41.641  27.633  26.211  1.00  0.00     0.198 A 
ATOM     79  F   UNL A   1      42.115  29.618  27.386  1.00  0.00    -0.203 F 
ATOM     80  F   UNL A   1      39.655  24.753  27.156  1.00  0.00    -0.200 F 
ATOM     81  C   UNL A   1      41.020  26.395  26.146  1.00  0.00     0.200 A 
ATOM     82  F   UNL A   1      42.388  28.062  25.186  1.00  0.00    -0.200 F 
ATOM     83  F   UNL A   1      41.182  25.617  25.067  1.00  0.00    -0.200 F 
ENDBRANCH  49  73
BRANCH  61  84
ATOM     84  C   UNL A   1      43.880  28.163  34.619  1.00  0.00     0.064 A 
ATOM     85  C   UNL A   1      45.228  28.544  34.560  1.00  0.00     0.173 A 
ATOM     86  C   UNL A   1      43.559  26.977  35.296  1.00  0.00     0.173 A 
ATOM     87  F   UNL A   1      45.586  29.662  33.911  1.00  0.00    -0.203 F 
ATOM     88  C   UNL A   1      46.219  27.752  35.134  1.00  0.00     0.198 A 
ATOM     89  C   UNL A   1      44.549  26.204  35.894  1.00  0.00     0.198 A 
ATOM     90  F   UNL A   1      42.282  26.573  35.386  1.00  0.00    -0.203 F 
ATOM     91  F   UNL A   1      47.506  28.109  35.024  1.00  0.00    -0.200 F 
ATOM     92  C   UNL A   1      45.879  26.588  35.806  1.00  0.00     0.200 A 
ATOM     93  F   UNL A   1      44.217  25.086  36.554  1.00  0.00    -0.200 F 
ATOM     94  F   UNL A   1      46.834  25.830  36.363  1.00  0.00    -0.200 F 
ENDBRANCH  61  84
ENDBRANCH  35  36
ENDBRANCH  27  30
ENDBRANCH  25  26
ENDBRANCH  24  25
ENDBRANCH   1  24
TORSDOF 13
ENDMDL
MODEL 2
REMARK VINA RESULT:     -12.8      0.637      7.210
REMARK SMILES C[C@]12CCC(=O)N1[C@H](C(=O)N1CCC[C@@H]1C(=O)NCCCCNC(=O)c1ccc(-c3c4nc(c(-c5c(F)c(F)c(F)c(F)c5F)c5ccc([nH]5)c(-c5c(F)c(F)c(F)c(F)c5F)c5nc(c(-c6c(F)c(F)c(F)c(F)c6F)c6ccc3[nH]6)C=C5)C=C4)cc1)CS2
REMARK SMILES IDX 20 1 19 2 18 3 16 4 17 5 15 7 11 8 12 9 13 10 14 11 9 12
REMARK SMILES IDX 10 13 8 14 1 15 2 16 3 17 7 18 90 19 4 20 5 21 89 22 6 23
REMARK SMILES IDX 21 24 22 25 23 26 24 27 25 29 26 30 27 31 88 32 28 33 87 34
REMARK SMILES IDX 29 35 30 36 31 37 81 38 32 39 86 40 80 41 82 42 33 43 85 44
REMARK SMILES IDX 79 45 78 46 34 48 66 49 46 50 65 51 47 52 50 53 64 54 83 55
REMARK SMILES IDX 48 56 49 57 63 59 84 60 51 61 35 62 36 63 44 64 37 65 38 66
REMARK SMILES IDX 42 67 45 68 39 69 40 70 43 71 41 72 67 73 68 74 76 75 69 76
REMARK SMILES IDX 70 77 74 78 77 79 71 80 72 81 75 82 73 83 52 84 53 85 61 86
REMARK SMILES IDX 54 87 55 88 59 89 62 90 56 91 57 92 60 93 58 94
REMARK H PARENT 18 6 23 28 82 47 50 58
REMARK Flexibility Score: inf
ROOT
ATOM      1  C   UNL A   1      31.440  30.595  26.736  1.00  0.00     0.023 C 
ENDROOT
BRANCH   1   2
ATOM      2  C   UNL A   1      32.769  29.855  26.633  1.00  0.00     0.116 C 
BRANCH   2   3
ATOM      3  N   UNL A   1      33.325  29.849  25.296  1.00  0.00    -0.354 N 
ATOM      4  C   UNL A   1      33.020  29.084  24.212  1.00  0.00     0.242 C 
ATOM      5  O   UNL A   1      33.637  29.328  23.169  1.00  0.00    -0.273 OA
ATOM      6  H   UNL A   1      34.043  30.507  25.146  1.00  0.00     0.163 HD
BRANCH   4   7
ATOM      7  C   UNL A   1      32.049  27.872  24.251  1.00  0.00     0.174 C 
ATOM      8  N   UNL A   1      32.332  26.740  23.371  1.00  0.00    -0.329 N 
ATOM      9  C   UNL A   1      31.294  26.616  22.348  1.00  0.00     0.120 C 
ATOM     10  C   UNL A   1      30.538  27.933  22.376  1.00  0.00     0.024 C 
ATOM     11  C   UNL A   1      30.653  28.358  23.831  1.00  0.00     0.037 C 
BRANCH   8  12
ATOM     12  C   UNL A   1      33.345  25.799  23.437  1.00  0.00     0.246 C 
ATOM     13  O   UNL A   1      33.957  25.521  22.396  1.00  0.00    -0.272 OA
BRANCH  12  14
ATOM     14  C   UNL A   1      33.601  24.968  24.728  1.00  0.00     0.186 C 
ATOM     15  C   UNL A   1      31.995  22.491  23.070  1.00  0.00     0.047 C 
ATOM     16  C   UNL A   1      32.682  22.677  24.421  1.00  0.00     0.087 C 
ATOM     17  C   UNL A   1      32.100  21.717  25.460  1.00  0.00     0.049 C 
ATOM     18  N   UNL A   1      32.523  23.995  24.984  1.00  0.00    -0.315 N 
ATOM     19  S   UNL A   1      34.486  22.496  24.194  1.00  0.00    -0.131 SA
ATOM     20  C   UNL A   1      31.661  22.580  26.636  1.00  0.00     0.103 C 
ATOM     21  C   UNL A   1      31.854  24.004  26.192  1.00  0.00     0.224 C 
ATOM     22  C   UNL A   1      34.859  24.128  24.908  1.00  0.00     0.107 C 
ATOM     23  O   UNL A   1      31.622  24.981  26.878  1.00  0.00    -0.275 OA
ENDBRANCH  12  14
ENDBRANCH   8  12
ENDBRANCH   4   7
ENDBRANCH   2   3
ENDBRANCH   1   2
BRANCH   1  24
ATOM     24  C   UNL A   1      31.507  32.105  26.535  1.00  0.00     0.023 C 
BRANCH  24  25
ATOM     25  C   UNL A   1      32.663  32.818  27.229  1.00  0.00     0.116 C 
BRANCH  25  26
ATOM     26  N   UNL A   1      32.357  34.183  27.626  1.00  0.00    -0.352 N 
ATOM     27  C   UNL A   1      32.965  34.982  28.564  1.00  0.00     0.251 C 
ATOM     28  H   UNL A   1      31.602  34.597  27.150  1.00  0.00     0.163 HD
ATOM     29  O   UNL A   1      32.527  36.105  28.795  1.00  0.00    -0.269 OA
BRANCH  27  30
ATOM     30  C   UNL A   1      34.123  34.477  29.333  1.00  0.00     0.039 A 
ATOM     31  C   UNL A   1      33.886  33.878  30.573  1.00  0.00     0.014 A 
ATOM     32  C   UNL A   1      35.425  34.577  28.837  1.00  0.00     0.014 A 
ATOM     33  C   UNL A   1      34.946  33.306  31.278  1.00  0.00     0.010 A 
ATOM     34  C   UNL A   1      36.468  33.941  29.505  1.00  0.00     0.010 A 
ATOM     35  C   UNL A   1      36.238  33.298  30.730  1.00  0.00    -0.014 A 
BRANCH  35  36
ATOM     36  C   UNL A   1      37.356  32.615  31.429  1.00  0.00     0.031 A 
ATOM     37  C   UNL A   1      38.062  31.460  30.777  1.00  0.00     0.074 A 
ATOM     38  C   UNL A   1      37.700  33.005  32.672  1.00  0.00     0.049 A 
ATOM     39  N   UNL A   1      39.040  30.722  31.237  1.00  0.00    -0.248 NA
ATOM     40  C   UNL A   1      37.588  31.065  29.443  1.00  0.00     0.031 C 
ATOM     41  C   UNL A   1      37.053  34.076  33.432  1.00  0.00     0.029 A 
ATOM     42  N   UNL A   1      38.677  32.541  33.518  1.00  0.00    -0.354 N 
ATOM     43  C   UNL A   1      39.290  29.772  30.256  1.00  0.00     0.074 A 
ATOM     44  C   UNL A   1      38.325  29.991  29.201  1.00  0.00     0.031 C 
ATOM     45  C   UNL A   1      37.666  34.204  34.620  1.00  0.00     0.029 A 
ATOM     46  C   UNL A   1      38.729  33.209  34.716  1.00  0.00     0.049 A 
ATOM     47  H   UNL A   1      39.281  31.800  33.287  1.00  0.00     0.167 HD
ATOM     48  C   UNL A   1      40.255  28.822  30.225  1.00  0.00     0.037 A 
ATOM     49  C   UNL A   1      39.547  33.038  35.773  1.00  0.00     0.037 A 
ATOM     50  C   UNL A   1      41.228  28.623  31.267  1.00  0.00     0.049 A 
ATOM     51  C   UNL A   1      40.618  31.984  35.708  1.00  0.00     0.074 A 
ATOM     52  C   UNL A   1      42.279  27.723  31.306  1.00  0.00     0.029 A 
ATOM     53  N   UNL A   1      41.268  29.339  32.454  1.00  0.00    -0.354 N 
ATOM     54  N   UNL A   1      40.893  31.141  34.743  1.00  0.00    -0.248 NA
ATOM     55  C   UNL A   1      41.500  31.865  36.877  1.00  0.00     0.031 C 
ATOM     56  C   UNL A   1      42.931  27.867  32.536  1.00  0.00     0.029 A 
ATOM     57  C   UNL A   1      42.316  28.890  33.242  1.00  0.00     0.049 A 
ATOM     58  H   UNL A   1      40.644  30.058  32.702  1.00  0.00     0.167 HD
ATOM     59  C   UNL A   1      41.997  30.416  35.170  1.00  0.00     0.074 A 
ATOM     60  C   UNL A   1      42.348  30.927  36.479  1.00  0.00     0.031 C 
ATOM     61  C   UNL A   1      42.660  29.419  34.537  1.00  0.00     0.037 A 
BRANCH  48  62
ATOM     62  C   UNL A   1      40.306  27.929  29.019  1.00  0.00     0.064 A 
ATOM     63  C   UNL A   1      41.050  28.277  27.881  1.00  0.00     0.173 A 
ATOM     64  C   UNL A   1      39.625  26.704  29.008  1.00  0.00     0.173 A 
ATOM     65  F   UNL A   1      41.710  29.445  27.835  1.00  0.00    -0.203 F 
ATOM     66  C   UNL A   1      41.085  27.444  26.765  1.00  0.00     0.198 A 
ATOM     67  C   UNL A   1      39.687  25.860  27.902  1.00  0.00     0.198 A 
ATOM     68  F   UNL A   1      38.903  26.322  30.072  1.00  0.00    -0.203 F 
ATOM     69  F   UNL A   1      41.758  27.823  25.670  1.00  0.00    -0.200 F 
ATOM     70  C   UNL A   1      40.408  26.234  26.778  1.00  0.00     0.200 A 
ATOM     71  F   UNL A   1      39.041  24.686  27.921  1.00  0.00    -0.200 F 
ATOM     72  F   UNL A   1      40.445  25.433  25.705  1.00  0.00    -0.200 F 
ENDBRANCH  48  62
BRANCH  49  73
ATOM     73  C   UNL A   1      39.414  33.916  36.964  1.00  0.00     0.064 A 
ATOM     74  C   UNL A   1      38.680  33.503  38.083  1.00  0.00     0.173 A 
ATOM     75  C   UNL A   1      40.012  35.184  37.007  1.00  0.00     0.173 A 
ATOM     76  F   UNL A   1      38.074  32.306  38.081  1.00  0.00    -0.203 F 
ATOM     77  C   UNL A   1      38.528  34.331  39.193  1.00  0.00     0.198 A 
ATOM     78  C   UNL A   1      39.882  36.002  38.129  1.00  0.00     0.198 A 
ATOM     79  F   UNL A   1      40.730  35.625  35.964  1.00  0.00    -0.203 F 
ATOM     80  F   UNL A   1      37.782  33.928  40.231  1.00  0.00    -0.200 F 
ATOM     81  C   UNL A   1      39.134  35.579  39.217  1.00  0.00     0.200 A 
ATOM     82  F   UNL A   1      40.479  37.201  38.153  1.00  0.00    -0.200 F 
ATOM     83  F   UNL A   1      38.990  36.375  40.285  1.00  0.00    -0.200 F 
ENDBRANCH  49  73
BRANCH  61  84
ATOM     84  C   UNL A   1      43.860  28.842  35.230  1.00  0.00     0.064 A 
ATOM     85  C   UNL A   1      45.148  29.356  35.022  1.00  0.00     0.173 A 
ATOM     86  C   UNL A   1      43.711  27.787  36.143  1.00  0.00     0.173 A 
ATOM     87  F   UNL A   1      45.344  30.355  34.149  1.00  0.00    -0.203 F 
ATOM     88  C   UNL A   1      46.248  28.814  35.683  1.00  0.00     0.198 A 
ATOM     89  C   UNL A   1      44.808  27.268  36.823  1.00  0.00     0.198 A 
ATOM     90  F   UNL A   1      42.498  27.265  36.382  1.00  0.00    -0.203 F 
ATOM     91  F   UNL A   1      47.477  29.287  35.433  1.00  0.00    -0.200 F 
ATOM     92  C   UNL A   1      46.077  27.777  36.587  1.00  0.00     0.200 A 
ATOM     93  F   UNL A   1      44.639  26.274  37.706  1.00  0.00    -0.200 F 
ATOM     94  F   UNL A   1      47.136  27.261  37.226  1.00  0.00    -0.200 F 
ENDBRANCH  61  84
ENDBRANCH  35  36
ENDBRANCH  27  30
ENDBRANCH  25  26
ENDBRANCH  24  25
ENDBRANCH   1  24
TORSDOF 13
ENDMDL
MODEL 3
REMARK VINA RESULT:     -12.8      0.631      7.464
REMARK SMILES C[C@]12CCC(=O)N1[C@H](C(=O)N1CCC[C@@H]1C(=O)NCCCCNC(=O)c1ccc(-c3c4nc(c(-c5c(F)c(F)c(F)c(F)c5F)c5ccc([nH]5)c(-c5c(F)c(F)c(F)c(F)c5F)c5nc(c(-c6c(F)c(F)c(F)c(F)c6F)c6ccc3[nH]6)C=C5)C=C4)cc1)CS2
REMARK SMILES IDX 20 1 19 2 18 3 16 4 17 5 15 7 11 8 12 9 13 10 14 11 9 12
REMARK SMILES IDX 10 13 8 14 1 15 2 16 3 17 7 18 90 19 4 20 5 21 89 22 6 23
REMARK SMILES IDX 21 24 22 25 23 26 24 27 25 29 26 30 27 31 88 32 28 33 87 34
REMARK SMILES IDX 29 35 30 36 31 37 81 38 32 39 86 40 80 41 82 42 33 43 85 44
REMARK SMILES IDX 79 45 78 46 34 48 66 49 46 50 65 51 47 52 50 53 64 54 83 55
REMARK SMILES IDX 48 56 49 57 63 59 84 60 51 61 35 62 36 63 44 64 37 65 38 66
REMARK SMILES IDX 42 67 45 68 39 69 40 70 43 71 41 72 67 73 68 74 76 75 69 76
REMARK SMILES IDX 70 77 74 78 77 79 71 80 72 81 75 82 73 83 52 84 53 85 61 86
REMARK SMILES IDX 54 87 55 88 59 89 62 90 56 91 57 92 60 93 58 94
REMARK H PARENT 18 6 23 28 82 47 50 58
REMARK Flexibility Score: inf
ROOT
ATOM      1  C   UNL A   1      31.468  30.612  26.653  1.00  0.00     0.023 C 
ENDROOT
BRANCH   1   2
ATOM      2  C   UNL A   1      32.829  29.929  26.580  1.00  0.00     0.116 C 
BRANCH   2   3
ATOM      3  N   UNL A   1      33.381  29.882  25.242  1.00  0.00    -0.354 N 
ATOM      4  C   UNL A   1      33.059  29.095  24.178  1.00  0.00     0.242 C 
ATOM      5  O   UNL A   1      33.678  29.303  23.128  1.00  0.00    -0.273 OA
ATOM      6  H   UNL A   1      34.109  30.522  25.074  1.00  0.00     0.163 HD
BRANCH   4   7
ATOM      7  C   UNL A   1      32.069  27.901  24.250  1.00  0.00     0.174 C 
ATOM      8  N   UNL A   1      32.327  26.745  23.393  1.00  0.00    -0.329 N 
ATOM      9  C   UNL A   1      31.280  26.617  22.379  1.00  0.00     0.120 C 
ATOM     10  C   UNL A   1      30.547  27.947  22.383  1.00  0.00     0.024 C 
ATOM     11  C   UNL A   1      30.678  28.402  23.828  1.00  0.00     0.037 C 
BRANCH   8  12
ATOM     12  C   UNL A   1      33.324  25.789  23.474  1.00  0.00     0.246 C 
ATOM     13  O   UNL A   1      33.967  25.524  22.448  1.00  0.00    -0.272 OA
BRANCH  12  14
ATOM     14  C   UNL A   1      33.523  24.927  24.754  1.00  0.00     0.186 C 
ATOM     15  C   UNL A   1      31.671  22.622  23.108  1.00  0.00     0.047 C 
ATOM     16  C   UNL A   1      32.394  22.733  24.448  1.00  0.00     0.087 C 
ATOM     17  C   UNL A   1      31.744  21.821  25.490  1.00  0.00     0.049 C 
ATOM     18  N   UNL A   1      32.366  24.055  25.022  1.00  0.00    -0.315 N 
ATOM     19  S   UNL A   1      34.171  22.390  24.188  1.00  0.00    -0.131 SA
ATOM     20  C   UNL A   1      31.405  22.711  26.680  1.00  0.00     0.103 C 
ATOM     21  C   UNL A   1      31.720  24.115  26.242  1.00  0.00     0.224 C 
ATOM     22  C   UNL A   1      34.702  23.974  24.907  1.00  0.00     0.107 C 
ATOM     23  O   UNL A   1      31.590  25.103  26.938  1.00  0.00    -0.275 OA
ENDBRANCH  12  14
ENDBRANCH   8  12
ENDBRANCH   4   7
ENDBRANCH   2   3
ENDBRANCH   1   2
BRANCH   1  24
ATOM     24  C   UNL A   1      31.489  32.136  26.582  1.00  0.00     0.023 C 
BRANCH  24  25
ATOM     25  C   UNL A   1      32.632  32.820  27.322  1.00  0.00     0.116 C 
BRANCH  25  26
ATOM     26  N   UNL A   1      32.350  34.198  27.694  1.00  0.00    -0.352 N 
ATOM     27  C   UNL A   1      32.987  35.011  28.600  1.00  0.00     0.251 C 
ATOM     28  H   UNL A   1      31.589  34.610  27.224  1.00  0.00     0.163 HD
ATOM     29  O   UNL A   1      32.566  36.143  28.815  1.00  0.00    -0.269 OA
BRANCH  27  30
ATOM     30  C   UNL A   1      34.155  34.511  29.356  1.00  0.00     0.039 A 
ATOM     31  C   UNL A   1      33.941  33.963  30.623  1.00  0.00     0.014 A 
ATOM     32  C   UNL A   1      35.445  34.564  28.821  1.00  0.00     0.014 A 
ATOM     33  C   UNL A   1      35.009  33.396  31.320  1.00  0.00     0.010 A 
ATOM     34  C   UNL A   1      36.493  33.932  29.484  1.00  0.00     0.010 A 
ATOM     35  C   UNL A   1      36.285  33.339  30.738  1.00  0.00    -0.014 A 
BRANCH  35  36
ATOM     36  C   UNL A   1      37.408  32.660  31.431  1.00  0.00     0.031 A 
ATOM     37  C   UNL A   1      38.119  31.512  30.773  1.00  0.00     0.074 A 
ATOM     38  C   UNL A   1      37.753  33.046  32.675  1.00  0.00     0.049 A 
ATOM     39  N   UNL A   1      39.102  30.777  31.228  1.00  0.00    -0.248 NA
ATOM     40  C   UNL A   1      37.643  31.119  29.438  1.00  0.00     0.031 C 
ATOM     41  C   UNL A   1      37.102  34.110  33.441  1.00  0.00     0.029 A 
ATOM     42  N   UNL A   1      38.734  32.584  33.517  1.00  0.00    -0.354 N 
ATOM     43  C   UNL A   1      39.354  29.833  30.242  1.00  0.00     0.074 A 
ATOM     44  C   UNL A   1      38.386  30.050  29.190  1.00  0.00     0.031 C 
ATOM     45  C   UNL A   1      37.717  34.237  34.628  1.00  0.00     0.029 A 
ATOM     46  C   UNL A   1      38.785  33.247  34.718  1.00  0.00     0.049 A 
ATOM     47  H   UNL A   1      39.342  31.847  33.281  1.00  0.00     0.167 HD
ATOM     48  C   UNL A   1      40.324  28.888  30.204  1.00  0.00     0.037 A 
ATOM     49  C   UNL A   1      39.607  33.076  35.772  1.00  0.00     0.037 A 
ATOM     50  C   UNL A   1      41.301  28.689  31.243  1.00  0.00     0.049 A 
ATOM     51  C   UNL A   1      40.683  32.028  35.700  1.00  0.00     0.074 A 
ATOM     52  C   UNL A   1      42.357  27.795  31.277  1.00  0.00     0.029 A 
ATOM     53  N   UNL A   1      41.339  29.400  32.434  1.00  0.00    -0.354 N 
ATOM     54  N   UNL A   1      40.960  31.191  34.731  1.00  0.00    -0.248 NA
ATOM     55  C   UNL A   1      41.569  31.909  36.867  1.00  0.00     0.031 C 
ATOM     56  C   UNL A   1      43.011  27.938  32.505  1.00  0.00     0.029 A 
ATOM     57  C   UNL A   1      42.392  28.953  33.217  1.00  0.00     0.049 A 
ATOM     58  H   UNL A   1      40.713  30.115  32.686  1.00  0.00     0.167 HD
ATOM     59  C   UNL A   1      42.069  30.470  35.153  1.00  0.00     0.074 A 
ATOM     60  C   UNL A   1      42.421  30.977  36.463  1.00  0.00     0.031 C 
ATOM     61  C   UNL A   1      42.736  29.479  34.513  1.00  0.00     0.037 A 
BRANCH  48  62
ATOM     62  C   UNL A   1      40.378  28.001  28.994  1.00  0.00     0.064 A 
ATOM     63  C   UNL A   1      39.679  26.784  28.945  1.00  0.00     0.173 A 
ATOM     64  C   UNL A   1      41.114  28.380  27.863  1.00  0.00     0.173 A 
ATOM     65  F   UNL A   1      38.970  26.370  30.007  1.00  0.00    -0.203 F 
ATOM     66  C   UNL A   1      39.742  25.966  27.821  1.00  0.00     0.198 A 
ATOM     67  C   UNL A   1      41.150  27.573  26.729  1.00  0.00     0.198 A 
ATOM     68  F   UNL A   1      41.797  29.535  27.855  1.00  0.00    -0.203 F 
ATOM     69  F   UNL A   1      39.111  24.784  27.819  1.00  0.00    -0.200 F 
ATOM     70  C   UNL A   1      40.472  26.363  26.711  1.00  0.00     0.200 A 
ATOM     71  F   UNL A   1      41.847  27.963  25.653  1.00  0.00    -0.200 F 
ATOM     72  F   UNL A   1      40.530  25.576  25.628  1.00  0.00    -0.200 F 
ENDBRANCH  48  62
BRANCH  49  73
ATOM     73  C   UNL A   1      39.472  33.948  36.967  1.00  0.00     0.064 A 
ATOM     74  C   UNL A   1      40.069  35.215  37.003  1.00  0.00     0.173 A 
ATOM     75  C   UNL A   1      38.752  33.534  38.097  1.00  0.00     0.173 A 
ATOM     76  F   UNL A   1      40.784  35.648  35.954  1.00  0.00    -0.203 F 
ATOM     77  C   UNL A   1      39.970  36.028  38.130  1.00  0.00     0.198 A 
ATOM     78  C   UNL A   1      38.630  34.359  39.215  1.00  0.00     0.198 A 
ATOM     79  F   UNL A   1      38.157  32.332  38.112  1.00  0.00    -0.203 F 
ATOM     80  F   UNL A   1      40.588  37.217  38.154  1.00  0.00    -0.200 F 
ATOM     81  C   UNL A   1      39.246  35.601  39.234  1.00  0.00     0.200 A 
ATOM     82  F   UNL A   1      37.920  33.947  40.274  1.00  0.00    -0.200 F 
ATOM     83  F   UNL A   1      39.149  36.383  40.317  1.00  0.00    -0.200 F 
ENDBRANCH  49  73
BRANCH  61  84
ATOM     84  C   UNL A   1      43.941  28.906  35.201  1.00  0.00     0.064 A 
ATOM     85  C   UNL A   1      43.843  27.804  36.062  1.00  0.00     0.173 A 
ATOM     86  C   UNL A   1      45.215  29.445  34.965  1.00  0.00     0.173 A 
ATOM     87  F   UNL A   1      42.645  27.262  36.332  1.00  0.00    -0.203 F 
ATOM     88  C   UNL A   1      44.973  27.280  36.683  1.00  0.00     0.198 A 
ATOM     89  C   UNL A   1      46.346  28.901  35.564  1.00  0.00     0.198 A 
ATOM     90  F   UNL A   1      45.362  30.496  34.143  1.00  0.00    -0.203 F 
ATOM     91  F   UNL A   1      44.851  26.257  37.541  1.00  0.00    -0.200 F 
ATOM     92  C   UNL A   1      46.224  27.823  36.428  1.00  0.00     0.200 A 
ATOM     93  F   UNL A   1      47.554  29.419  35.306  1.00  0.00    -0.200 F 
ATOM     94  F   UNL A   1      47.312  27.313  37.023  1.00  0.00    -0.200 F 
ENDBRANCH  61  84
ENDBRANCH  35  36
ENDBRANCH  27  30
ENDBRANCH  25  26
ENDBRANCH  24  25
ENDBRANCH   1  24
TORSDOF 13
ENDMDL
