MODEL 1
REMARK VINA RESULT:     -11.3      0.000      0.000
REMARK SMILES CC(C)Cn1c([C@@H](O)[C@@H](O)C(=O)NCCCCNC(=O)c2ccc(-c3c4nc(c(-c5c(F)c(F)c(F)c(F)c5F)c5ccc([nH]5)c(-c5c(F)c(F)c(F)c(F)c5F)c5nc(c(-c6c(F)c(F)c(F)c(F)c6F)c6ccc3[nH]6)C=C5)C=C4)cc2)nc2cc(Cl)ccc21
REMARK SMILES IDX 14 1 13 2 11 3 12 4 9 6 7 7 6 8 5 9 91 10 84 11 85 12 90 13
REMARK SMILES IDX 86 14 89 15 87 16 88 17 4 18 2 19 1 20 3 21 8 22 10 24 15 26
REMARK SMILES IDX 16 27 17 28 18 29 19 30 20 32 21 33 22 34 83 35 23 36 82 37
REMARK SMILES IDX 24 38 25 39 26 40 76 41 27 42 81 43 75 44 77 45 28 46 80 47
REMARK SMILES IDX 74 48 73 49 29 51 61 52 41 53 60 54 42 55 45 56 59 57 78 58
REMARK SMILES IDX 43 59 44 60 58 62 79 63 46 64 30 65 31 66 39 67 32 68 33 69
REMARK SMILES IDX 37 70 40 71 34 72 35 73 38 74 36 75 62 76 63 77 71 78 64 79
REMARK SMILES IDX 65 80 69 81 72 82 66 83 67 84 70 85 68 86 47 87 48 88 56 89
REMARK SMILES IDX 49 90 50 91 54 92 57 93 51 94 52 95 55 96 53 97
REMARK H PARENT 13 5 8 23 10 25 18 31 77 50 45 61
REMARK Flexibility Score: inf
ROOT
ATOM      1  C   UNL A   1      43.286  19.192  25.416  1.00  0.00     0.116 C 
ENDROOT
BRANCH   1   2
ATOM      2  N   UNL A   1      44.704  19.464  25.362  1.00  0.00    -0.354 N 
ATOM      3  C   UNL A   1      45.351  20.529  24.802  1.00  0.00     0.252 C 
ATOM      4  O   UNL A   1      46.569  20.610  24.994  1.00  0.00    -0.272 OA
ATOM      5  H   UNL A   1      45.282  18.789  25.788  1.00  0.00     0.163 HD
BRANCH   3   6
ATOM      6  C   UNL A   1      44.593  21.615  24.009  1.00  0.00     0.239 C 
BRANCH   6   7
ATOM      7  C   UNL A   1      45.175  23.035  24.185  1.00  0.00     0.219 C 
BRANCH   7   8
ATOM      8  C   UNL A   1      44.960  23.516  25.603  1.00  0.00     0.142 A 
ATOM      9  N   UNL A   1      44.962  24.824  26.063  1.00  0.00    -0.325 N 
ATOM     10  C   UNL A   1      44.802  24.778  27.441  1.00  0.00     0.068 A 
ATOM     11  N   UNL A   1      44.769  22.671  26.603  1.00  0.00    -0.230 NA
ATOM     12  C   UNL A   1      44.664  23.426  27.736  1.00  0.00     0.090 A 
ATOM     13  C   UNL A   1      44.788  25.761  28.442  1.00  0.00     0.030 A 
ATOM     14  C   UNL A   1      44.472  23.010  29.061  1.00  0.00     0.051 A 
ATOM     15  C   UNL A   1      44.613  25.333  29.763  1.00  0.00     0.023 A 
ATOM     16  C   UNL A   1      44.453  23.981  30.063  1.00  0.00     0.043 A 
ATOM     17  Cl  UNL A   1      44.237  23.501  31.704  1.00  0.00    -0.084 Cl
BRANCH   9  18
ATOM     18  C   UNL A   1      45.234  26.058  25.339  1.00  0.00     0.127 C 
BRANCH  18  19
ATOM     19  C   UNL A   1      46.553  26.789  25.617  1.00  0.00     0.003 C 
ATOM     20  C   UNL A   1      47.803  25.978  25.284  1.00  0.00     0.009 C 
ATOM     21  C   UNL A   1      46.597  28.138  24.897  1.00  0.00     0.009 C 
ENDBRANCH  18  19
ENDBRANCH   9  18
ENDBRANCH   7   8
BRANCH   7  22
ATOM     22  O   UNL A   1      46.593  23.049  23.966  1.00  0.00    -0.382 OA
ATOM     23  H   UNL A   1      46.983  22.237  24.326  1.00  0.00     0.211 HD
ENDBRANCH   7  22
ENDBRANCH   6   7
BRANCH   6  24
ATOM     24  O   UNL A   1      44.525  21.239  22.623  1.00  0.00    -0.380 OA
ATOM     25  H   UNL A   1      45.358  20.816  22.362  1.00  0.00     0.211 HD
ENDBRANCH   6  24
ENDBRANCH   3   6
ENDBRANCH   1   2
BRANCH   1  26
ATOM     26  C   UNL A   1      42.894  18.486  26.712  1.00  0.00     0.023 C 
BRANCH  26  27
ATOM     27  C   UNL A   1      41.898  19.263  27.572  1.00  0.00     0.023 C 
BRANCH  27  28
ATOM     28  C   UNL A   1      41.704  20.725  27.148  1.00  0.00     0.116 C 
BRANCH  28  29
ATOM     29  N   UNL A   1      40.364  21.029  26.684  1.00  0.00    -0.352 N 
ATOM     30  C   UNL A   1      39.651  22.184  26.520  1.00  0.00     0.251 C 
ATOM     31  H   UNL A   1      39.855  20.225  26.430  1.00  0.00     0.163 HD
ATOM     32  O   UNL A   1      38.563  22.078  25.945  1.00  0.00    -0.269 OA
BRANCH  30  33
ATOM     33  C   UNL A   1      40.061  23.521  27.030  1.00  0.00     0.039 A 
ATOM     34  C   UNL A   1      41.021  23.745  28.018  1.00  0.00     0.014 A 
ATOM     35  C   UNL A   1      39.362  24.629  26.516  1.00  0.00     0.014 A 
ATOM     36  C   UNL A   1      41.208  25.010  28.552  1.00  0.00     0.010 A 
ATOM     37  C   UNL A   1      39.563  25.906  27.028  1.00  0.00     0.010 A 
ATOM     38  C   UNL A   1      40.456  26.084  28.081  1.00  0.00    -0.014 A 
BRANCH  38  39
ATOM     39  C   UNL A   1      40.708  27.385  28.689  1.00  0.00     0.031 A 
ATOM     40  C   UNL A   1      41.928  28.100  28.210  1.00  0.00     0.074 A 
ATOM     41  C   UNL A   1      39.851  27.952  29.559  1.00  0.00     0.049 A 
ATOM     42  N   UNL A   1      42.904  28.597  28.903  1.00  0.00    -0.248 NA
ATOM     43  C   UNL A   1      42.113  28.212  26.754  1.00  0.00     0.031 C 
ATOM     44  C   UNL A   1      38.507  27.493  29.920  1.00  0.00     0.029 A 
ATOM     45  N   UNL A   1      39.967  29.135  30.228  1.00  0.00    -0.354 N 
ATOM     46  C   UNL A   1      43.756  29.209  27.985  1.00  0.00     0.074 A 
ATOM     47  C   UNL A   1      43.274  28.861  26.674  1.00  0.00     0.031 C 
ATOM     48  C   UNL A   1      37.855  28.490  30.555  1.00  0.00     0.029 A 
ATOM     49  C   UNL A   1      38.771  29.600  30.751  1.00  0.00     0.049 A 
ATOM     50  H   UNL A   1      40.821  29.613  30.329  1.00  0.00     0.167 HD
ATOM     51  C   UNL A   1      44.706  30.110  28.355  1.00  0.00     0.037 A 
ATOM     52  C   UNL A   1      38.533  30.844  31.230  1.00  0.00     0.037 A 
ATOM     53  C   UNL A   1      45.041  30.007  29.745  1.00  0.00     0.049 A 
ATOM     54  C   UNL A   1      39.841  31.452  31.572  1.00  0.00     0.074 A 
ATOM     55  C   UNL A   1      45.665  29.064  30.533  1.00  0.00     0.029 A 
ATOM     56  N   UNL A   1      44.459  30.898  30.607  1.00  0.00    -0.354 N 
ATOM     57  N   UNL A   1      40.607  31.055  32.549  1.00  0.00    -0.248 NA
ATOM     58  C   UNL A   1      40.478  32.318  30.591  1.00  0.00     0.031 C 
ATOM     59  C   UNL A   1      45.068  29.195  31.821  1.00  0.00     0.029 A 
ATOM     60  C   UNL A   1      44.123  30.219  31.746  1.00  0.00     0.049 A 
ATOM     61  H   UNL A   1      44.311  31.857  30.436  1.00  0.00     0.167 HD
ATOM     62  C   UNL A   1      41.897  31.275  32.095  1.00  0.00     0.074 A 
ATOM     63  C   UNL A   1      41.753  32.176  30.960  1.00  0.00     0.031 C 
ATOM     64  C   UNL A   1      42.928  30.486  32.513  1.00  0.00     0.037 A 
BRANCH  51  65
ATOM     65  C   UNL A   1      45.102  31.304  27.524  1.00  0.00     0.064 A 
ATOM     66  C   UNL A   1      46.422  31.422  27.045  1.00  0.00     0.173 A 
ATOM     67  C   UNL A   1      44.313  32.471  27.441  1.00  0.00     0.173 A 
ATOM     68  F   UNL A   1      47.269  30.384  27.113  1.00  0.00    -0.203 F 
ATOM     69  C   UNL A   1      46.924  32.635  26.564  1.00  0.00     0.198 A 
ATOM     70  C   UNL A   1      44.802  33.664  26.913  1.00  0.00     0.198 A 
ATOM     71  F   UNL A   1      43.082  32.530  27.965  1.00  0.00    -0.203 F 
ATOM     72  F   UNL A   1      48.217  32.733  26.223  1.00  0.00    -0.200 F 
ATOM     73  C   UNL A   1      46.115  33.755  26.500  1.00  0.00     0.200 A 
ATOM     74  F   UNL A   1      44.009  34.745  26.881  1.00  0.00    -0.200 F 
ATOM     75  F   UNL A   1      46.609  34.930  26.091  1.00  0.00    -0.200 F 
ENDBRANCH  51  65
BRANCH  52  76
ATOM     76  C   UNL A   1      37.287  31.639  31.116  1.00  0.00     0.064 A 
ATOM     77  C   UNL A   1      36.535  31.965  32.256  1.00  0.00     0.173 A 
ATOM     78  C   UNL A   1      36.953  32.325  29.931  1.00  0.00     0.173 A 
ATOM     79  F   UNL A   1      36.815  31.392  33.436  1.00  0.00    -0.203 F 
ATOM     80  C   UNL A   1      35.533  32.940  32.220  1.00  0.00     0.198 A 
ATOM     81  C   UNL A   1      35.943  33.287  29.893  1.00  0.00     0.198 A 
ATOM     82  F   UNL A   1      37.661  32.151  28.807  1.00  0.00    -0.203 F 
ATOM     83  F   UNL A   1      34.886  33.275  33.346  1.00  0.00    -0.200 F 
ATOM     84  C   UNL A   1      35.245  33.606  31.040  1.00  0.00     0.200 A 
ATOM     85  F   UNL A   1      35.698  33.946  28.751  1.00  0.00    -0.200 F 
ATOM     86  F   UNL A   1      34.328  34.583  31.019  1.00  0.00    -0.200 F 
ENDBRANCH  52  76
BRANCH  64  87
ATOM     87  C   UNL A   1      42.695  29.616  33.715  1.00  0.00     0.064 A 
ATOM     88  C   UNL A   1      42.109  28.342  33.651  1.00  0.00     0.173 A 
ATOM     89  C   UNL A   1      43.229  30.024  34.944  1.00  0.00     0.173 A 
ATOM     90  F   UNL A   1      41.665  27.844  32.490  1.00  0.00    -0.203 F 
ATOM     91  C   UNL A   1      42.030  27.528  34.780  1.00  0.00     0.198 A 
ATOM     92  C   UNL A   1      43.183  29.194  36.061  1.00  0.00     0.198 A 
ATOM     93  F   UNL A   1      43.854  31.209  35.048  1.00  0.00    -0.203 F 
ATOM     94  F   UNL A   1      41.462  26.316  34.696  1.00  0.00    -0.200 F 
ATOM     95  C   UNL A   1      42.577  27.951  35.980  1.00  0.00     0.200 A 
ATOM     96  F   UNL A   1      43.758  29.584  37.206  1.00  0.00    -0.200 F 
ATOM     97  F   UNL A   1      42.547  27.147  37.053  1.00  0.00    -0.200 F 
ENDBRANCH  64  87
ENDBRANCH  38  39
ENDBRANCH  30  33
ENDBRANCH  28  29
ENDBRANCH  27  28
ENDBRANCH  26  27
ENDBRANCH   1  26
TORSDOF 17
ENDMDL
MODEL 2
REMARK VINA RESULT:     -11.1      4.514     10.489
REMARK SMILES CC(C)Cn1c([C@@H](O)[C@@H](O)C(=O)NCCCCNC(=O)c2ccc(-c3c4nc(c(-c5c(F)c(F)c(F)c(F)c5F)c5ccc([nH]5)c(-c5c(F)c(F)c(F)c(F)c5F)c5nc(c(-c6c(F)c(F)c(F)c(F)c6F)c6ccc3[nH]6)C=C5)C=C4)cc2)nc2cc(Cl)ccc21
REMARK SMILES IDX 14 1 13 2 11 3 12 4 9 6 7 7 6 8 5 9 91 10 84 11 85 12 90 13
REMARK SMILES IDX 86 14 89 15 87 16 88 17 4 18 2 19 1 20 3 21 8 22 10 24 15 26
REMARK SMILES IDX 16 27 17 28 18 29 19 30 20 32 21 33 22 34 83 35 23 36 82 37
REMARK SMILES IDX 24 38 25 39 26 40 76 41 27 42 81 43 75 44 77 45 28 46 80 47
REMARK SMILES IDX 74 48 73 49 29 51 61 52 41 53 60 54 42 55 45 56 59 57 78 58
REMARK SMILES IDX 43 59 44 60 58 62 79 63 46 64 30 65 31 66 39 67 32 68 33 69
REMARK SMILES IDX 37 70 40 71 34 72 35 73 38 74 36 75 62 76 63 77 71 78 64 79
REMARK SMILES IDX 65 80 69 81 72 82 66 83 67 84 70 85 68 86 47 87 48 88 56 89
REMARK SMILES IDX 49 90 50 91 54 92 57 93 51 94 52 95 55 96 53 97
REMARK H PARENT 13 5 8 23 10 25 18 31 77 50 45 61
REMARK Flexibility Score: inf
ROOT
ATOM      1  C   UNL A   1      34.268  28.764  26.919  1.00  0.00     0.116 C 
ENDROOT
BRANCH   1   2
ATOM      2  N   UNL A   1      32.985  28.545  27.546  1.00  0.00    -0.354 N 
ATOM      3  C   UNL A   1      31.908  27.850  27.071  1.00  0.00     0.252 C 
ATOM      4  O   UNL A   1      30.959  27.689  27.846  1.00  0.00    -0.272 OA
ATOM      5  H   UNL A   1      32.872  28.950  28.436  1.00  0.00     0.163 HD
BRANCH   3   6
ATOM      6  C   UNL A   1      31.893  27.246  25.651  1.00  0.00     0.239 C 
BRANCH   6   7
ATOM      7  C   UNL A   1      31.694  25.713  25.628  1.00  0.00     0.219 C 
BRANCH   7   8
ATOM      8  C   UNL A   1      32.986  25.026  25.247  1.00  0.00     0.142 A 
ATOM      9  N   UNL A   1      33.363  24.568  23.993  1.00  0.00    -0.325 N 
ATOM     10  C   UNL A   1      34.592  23.938  24.136  1.00  0.00     0.068 A 
ATOM     11  N   UNL A   1      33.921  24.753  26.142  1.00  0.00    -0.230 NA
ATOM     12  C   UNL A   1      34.915  24.092  25.479  1.00  0.00     0.090 A 
ATOM     13  C   UNL A   1      35.425  23.242  23.247  1.00  0.00     0.030 A 
ATOM     14  C   UNL A   1      36.118  23.573  25.979  1.00  0.00     0.051 A 
ATOM     15  C   UNL A   1      36.616  22.714  23.760  1.00  0.00     0.023 A 
ATOM     16  C   UNL A   1      36.955  22.883  25.102  1.00  0.00     0.043 A 
ATOM     17  Cl  UNL A   1      38.432  22.219  25.688  1.00  0.00    -0.084 Cl
BRANCH   9  18
ATOM     18  C   UNL A   1      32.611  24.561  22.746  1.00  0.00     0.127 C 
BRANCH  18  19
ATOM     19  C   UNL A   1      32.523  25.863  21.942  1.00  0.00     0.003 C 
ATOM     20  C   UNL A   1      33.586  26.898  22.303  1.00  0.00     0.009 C 
ATOM     21  C   UNL A   1      32.553  25.584  20.438  1.00  0.00     0.009 C 
ENDBRANCH  18  19
ENDBRANCH   9  18
ENDBRANCH   7   8
BRANCH   7  22
ATOM     22  O   UNL A   1      31.340  25.214  26.926  1.00  0.00    -0.382 OA
ATOM     23  H   UNL A   1      31.246  25.956  27.543  1.00  0.00     0.211 HD
ENDBRANCH   7  22
ENDBRANCH   6   7
BRANCH   6  24
ATOM     24  O   UNL A   1      30.904  27.919  24.853  1.00  0.00    -0.380 OA
ATOM     25  H   UNL A   1      31.307  28.687  24.419  1.00  0.00     0.211 HD
ENDBRANCH   6  24
ENDBRANCH   3   6
ENDBRANCH   1   2
BRANCH   1  26
ATOM     26  C   UNL A   1      34.917  30.061  27.398  1.00  0.00     0.023 C 
BRANCH  26  27
ATOM     27  C   UNL A   1      33.921  31.172  27.733  1.00  0.00     0.023 C 
BRANCH  27  28
ATOM     28  C   UNL A   1      34.540  32.376  28.456  1.00  0.00     0.116 C 
BRANCH  28  29
ATOM     29  N   UNL A   1      34.471  32.290  29.902  1.00  0.00    -0.352 N 
ATOM     30  C   UNL A   1      35.318  31.832  30.872  1.00  0.00     0.251 C 
ATOM     31  H   UNL A   1      33.626  32.641  30.267  1.00  0.00     0.163 HD
ATOM     32  O   UNL A   1      34.988  32.060  32.041  1.00  0.00    -0.269 OA
BRANCH  30  33
ATOM     33  C   UNL A   1      36.555  31.041  30.621  1.00  0.00     0.039 A 
ATOM     34  C   UNL A   1      36.645  29.650  30.677  1.00  0.00     0.014 A 
ATOM     35  C   UNL A   1      37.731  31.777  30.386  1.00  0.00     0.014 A 
ATOM     36  C   UNL A   1      37.874  29.014  30.603  1.00  0.00     0.010 A 
ATOM     37  C   UNL A   1      38.966  31.145  30.284  1.00  0.00     0.010 A 
ATOM     38  C   UNL A   1      39.037  29.764  30.441  1.00  0.00    -0.014 A 
BRANCH  38  39
ATOM     39  C   UNL A   1      40.295  29.027  30.372  1.00  0.00     0.031 A 
ATOM     40  C   UNL A   1      41.027  28.871  31.664  1.00  0.00     0.074 A 
ATOM     41  C   UNL A   1      40.727  28.445  29.237  1.00  0.00     0.049 A 
ATOM     42  N   UNL A   1      42.259  29.163  31.941  1.00  0.00    -0.248 NA
ATOM     43  C   UNL A   1      40.254  28.385  32.819  1.00  0.00     0.031 C 
ATOM     44  C   UNL A   1      40.000  28.296  27.974  1.00  0.00     0.029 A 
ATOM     45  N   UNL A   1      41.885  27.761  29.015  1.00  0.00    -0.354 N 
ATOM     46  C   UNL A   1      42.460  28.769  33.263  1.00  0.00     0.074 A 
ATOM     47  C   UNL A   1      41.173  28.386  33.783  1.00  0.00     0.031 C 
ATOM     48  C   UNL A   1      40.632  27.383  27.206  1.00  0.00     0.029 A 
ATOM     49  C   UNL A   1      41.862  26.984  27.867  1.00  0.00     0.049 A 
ATOM     50  H   UNL A   1      42.664  27.813  29.613  1.00  0.00     0.167 HD
ATOM     51  C   UNL A   1      43.701  28.613  33.799  1.00  0.00     0.037 A 
ATOM     52  C   UNL A   1      42.749  26.017  27.533  1.00  0.00     0.037 A 
ATOM     53  C   UNL A   1      44.705  29.318  33.059  1.00  0.00     0.049 A 
ATOM     54  C   UNL A   1      43.992  26.261  28.303  1.00  0.00     0.074 A 
ATOM     55  C   UNL A   1      45.000  30.644  32.828  1.00  0.00     0.029 A 
ATOM     56  N   UNL A   1      45.460  28.600  32.169  1.00  0.00    -0.354 N 
ATOM     57  N   UNL A   1      44.791  27.274  28.116  1.00  0.00    -0.248 NA
ATOM     58  C   UNL A   1      44.186  25.537  29.551  1.00  0.00     0.031 C 
ATOM     59  C   UNL A   1      45.588  30.679  31.531  1.00  0.00     0.029 A 
ATOM     60  C   UNL A   1      45.629  29.369  31.050  1.00  0.00     0.049 A 
ATOM     61  H   UNL A   1      45.816  27.693  32.311  1.00  0.00     0.167 HD
ATOM     62  C   UNL A   1      45.295  27.562  29.373  1.00  0.00     0.074 A 
ATOM     63  C   UNL A   1      45.003  26.384  30.179  1.00  0.00     0.031 C 
ATOM     64  C   UNL A   1      45.651  28.835  29.708  1.00  0.00     0.037 A 
BRANCH  51  65
ATOM     65  C   UNL A   1      44.050  27.556  34.816  1.00  0.00     0.064 A 
ATOM     66  C   UNL A   1      43.892  26.192  34.498  1.00  0.00     0.173 A 
ATOM     67  C   UNL A   1      44.247  27.847  36.182  1.00  0.00     0.173 A 
ATOM     68  F   UNL A   1      43.660  25.808  33.234  1.00  0.00    -0.203 F 
ATOM     69  C   UNL A   1      43.882  25.203  35.485  1.00  0.00     0.198 A 
ATOM     70  C   UNL A   1      44.290  26.853  37.158  1.00  0.00     0.198 A 
ATOM     71  F   UNL A   1      44.296  29.106  36.636  1.00  0.00    -0.203 F 
ATOM     72  F   UNL A   1      43.616  23.932  35.152  1.00  0.00    -0.200 F 
ATOM     73  C   UNL A   1      44.079  25.533  36.814  1.00  0.00     0.200 A 
ATOM     74  F   UNL A   1      44.457  27.196  38.442  1.00  0.00    -0.200 F 
ATOM     75  F   UNL A   1      44.017  24.594  37.766  1.00  0.00    -0.200 F 
ENDBRANCH  51  65
BRANCH  52  76
ATOM     76  C   UNL A   1      42.480  24.736  26.836  1.00  0.00     0.064 A 
ATOM     77  C   UNL A   1      43.106  24.436  25.615  1.00  0.00     0.173 A 
ATOM     78  C   UNL A   1      41.820  23.669  27.478  1.00  0.00     0.173 A 
ATOM     79  F   UNL A   1      43.794  25.382  24.959  1.00  0.00    -0.203 F 
ATOM     80  C   UNL A   1      43.100  23.141  25.087  1.00  0.00     0.198 A 
ATOM     81  C   UNL A   1      41.802  22.381  26.942  1.00  0.00     0.198 A 
ATOM     82  F   UNL A   1      41.262  23.827  28.686  1.00  0.00    -0.203 F 
ATOM     83  F   UNL A   1      43.770  22.878  23.956  1.00  0.00    -0.200 F 
ATOM     84  C   UNL A   1      42.455  22.114  25.756  1.00  0.00     0.200 A 
ATOM     85  F   UNL A   1      41.202  21.390  27.618  1.00  0.00    -0.200 F 
ATOM     86  F   UNL A   1      42.501  20.861  25.282  1.00  0.00    -0.200 F 
ENDBRANCH  52  76
BRANCH  64  87
ATOM     87  C   UNL A   1      45.806  29.830  28.594  1.00  0.00     0.064 A 
ATOM     88  C   UNL A   1      44.743  30.579  28.065  1.00  0.00     0.173 A 
ATOM     89  C   UNL A   1      47.100  30.146  28.161  1.00  0.00     0.173 A 
ATOM     90  F   UNL A   1      43.490  30.401  28.503  1.00  0.00    -0.203 F 
ATOM     91  C   UNL A   1      44.965  31.576  27.117  1.00  0.00     0.198 A 
ATOM     92  C   UNL A   1      47.324  31.168  27.242  1.00  0.00     0.198 A 
ATOM     93  F   UNL A   1      48.160  29.501  28.677  1.00  0.00    -0.203 F 
ATOM     94  F   UNL A   1      43.933  32.275  26.623  1.00  0.00    -0.200 F 
ATOM     95  C   UNL A   1      46.256  31.876  26.715  1.00  0.00     0.200 A 
ATOM     96  F   UNL A   1      48.577  31.490  26.895  1.00  0.00    -0.200 F 
ATOM     97  F   UNL A   1      46.474  32.870  25.842  1.00  0.00    -0.200 F 
ENDBRANCH  64  87
ENDBRANCH  38  39
ENDBRANCH  30  33
ENDBRANCH  28  29
ENDBRANCH  27  28
ENDBRANCH  26  27
ENDBRANCH   1  26
TORSDOF 17
ENDMDL
MODEL 3
REMARK VINA RESULT:     -11.1      3.713      6.520
REMARK SMILES CC(C)Cn1c([C@@H](O)[C@@H](O)C(=O)NCCCCNC(=O)c2ccc(-c3c4nc(c(-c5c(F)c(F)c(F)c(F)c5F)c5ccc([nH]5)c(-c5c(F)c(F)c(F)c(F)c5F)c5nc(c(-c6c(F)c(F)c(F)c(F)c6F)c6ccc3[nH]6)C=C5)C=C4)cc2)nc2cc(Cl)ccc21
REMARK SMILES IDX 14 1 13 2 11 3 12 4 9 6 7 7 6 8 5 9 91 10 84 11 85 12 90 13
REMARK SMILES IDX 86 14 89 15 87 16 88 17 4 18 2 19 1 20 3 21 8 22 10 24 15 26
REMARK SMILES IDX 16 27 17 28 18 29 19 30 20 32 21 33 22 34 83 35 23 36 82 37
REMARK SMILES IDX 24 38 25 39 26 40 76 41 27 42 81 43 75 44 77 45 28 46 80 47
REMARK SMILES IDX 74 48 73 49 29 51 61 52 41 53 60 54 42 55 45 56 59 57 78 58
REMARK SMILES IDX 43 59 44 60 58 62 79 63 46 64 30 65 31 66 39 67 32 68 33 69
REMARK SMILES IDX 37 70 40 71 34 72 35 73 38 74 36 75 62 76 63 77 71 78 64 79
REMARK SMILES IDX 65 80 69 81 72 82 66 83 67 84 70 85 68 86 47 87 48 88 56 89
REMARK SMILES IDX 49 90 50 91 54 92 57 93 51 94 52 95 55 96 53 97
REMARK H PARENT 13 5 8 23 10 25 18 31 77 50 45 61
REMARK Flexibility Score: inf
ROOT
ATOM      1  C   UNL A   1      39.608  21.249  26.059  1.00  0.00     0.116 C 
ENDROOT
BRANCH   1   2
ATOM      2  N   UNL A   1      39.289  22.607  26.436  1.00  0.00    -0.354 N 
ATOM      3  C   UNL A   1      38.225  23.374  26.053  1.00  0.00     0.252 C 
ATOM      4  O   UNL A   1      38.093  24.469  26.610  1.00  0.00    -0.272 OA
ATOM      5  H   UNL A   1      39.925  23.037  27.053  1.00  0.00     0.163 HD
BRANCH   3   6
ATOM      6  C   UNL A   1      37.199  22.879  25.011  1.00  0.00     0.239 C 
BRANCH   6   7
ATOM      7  C   UNL A   1      35.734  22.950  25.497  1.00  0.00     0.219 C 
BRANCH   7   8
ATOM      8  C   UNL A   1      34.969  21.733  25.027  1.00  0.00     0.142 A 
ATOM      9  N   UNL A   1      33.697  21.694  24.475  1.00  0.00    -0.325 N 
ATOM     10  C   UNL A   1      33.377  20.359  24.270  1.00  0.00     0.068 A 
ATOM     11  N   UNL A   1      35.467  20.512  25.137  1.00  0.00    -0.230 NA
ATOM     12  C   UNL A   1      34.509  19.658  24.673  1.00  0.00     0.090 A 
ATOM     13  C   UNL A   1      32.226  19.706  23.804  1.00  0.00     0.030 A 
ATOM     14  C   UNL A   1      34.536  18.258  24.591  1.00  0.00     0.051 A 
ATOM     15  C   UNL A   1      32.259  18.308  23.742  1.00  0.00     0.023 A 
ATOM     16  C   UNL A   1      33.398  17.600  24.124  1.00  0.00     0.043 A 
ATOM     17  Cl  UNL A   1      33.394  15.880  24.028  1.00  0.00    -0.084 Cl
BRANCH   9  18
ATOM     18  C   UNL A   1      32.746  22.776  24.267  1.00  0.00     0.127 C 
BRANCH  18  19
ATOM     19  C   UNL A   1      31.637  22.981  25.307  1.00  0.00     0.003 C 
ATOM     20  C   UNL A   1      32.139  23.115  26.742  1.00  0.00     0.009 C 
ATOM     21  C   UNL A   1      30.758  24.180  24.944  1.00  0.00     0.009 C 
ENDBRANCH  18  19
ENDBRANCH   9  18
ENDBRANCH   7   8
BRANCH   7  22
ATOM     22  O   UNL A   1      35.659  22.944  26.930  1.00  0.00    -0.382 OA
ATOM     23  H   UNL A   1      34.768  23.211  27.208  1.00  0.00     0.211 HD
ENDBRANCH   7  22
ENDBRANCH   6   7
BRANCH   6  24
ATOM     24  O   UNL A   1      37.383  23.595  23.778  1.00  0.00    -0.380 OA
ATOM     25  H   UNL A   1      38.071  24.269  23.895  1.00  0.00     0.211 HD
ENDBRANCH   6  24
ENDBRANCH   3   6
ENDBRANCH   1   2
BRANCH   1  26
ATOM     26  C   UNL A   1      40.997  20.840  26.542  1.00  0.00     0.023 C 
BRANCH  26  27
ATOM     27  C   UNL A   1      41.424  19.438  26.107  1.00  0.00     0.023 C 
BRANCH  27  28
ATOM     28  C   UNL A   1      42.939  19.200  26.144  1.00  0.00     0.116 C 
BRANCH  28  29
ATOM     29  N   UNL A   1      43.621  19.571  24.919  1.00  0.00    -0.352 N 
ATOM     30  C   UNL A   1      44.264  20.699  24.489  1.00  0.00     0.251 C 
ATOM     31  H   UNL A   1      43.622  18.851  24.247  1.00  0.00     0.163 HD
ATOM     32  O   UNL A   1      44.875  20.607  23.419  1.00  0.00    -0.269 OA
BRANCH  30  33
ATOM     33  C   UNL A   1      44.228  22.018  25.179  1.00  0.00     0.039 A 
ATOM     34  C   UNL A   1      44.901  22.325  26.362  1.00  0.00     0.014 A 
ATOM     35  C   UNL A   1      43.382  22.994  24.619  1.00  0.00     0.014 A 
ATOM     36  C   UNL A   1      44.666  23.520  27.023  1.00  0.00     0.010 A 
ATOM     37  C   UNL A   1      43.162  24.207  25.262  1.00  0.00     0.010 A 
ATOM     38  C   UNL A   1      43.772  24.446  26.490  1.00  0.00    -0.014 A 
BRANCH  38  39
ATOM     39  C   UNL A   1      43.575  25.682  27.240  1.00  0.00     0.031 A 
ATOM     40  C   UNL A   1      44.597  26.747  27.014  1.00  0.00     0.074 A 
ATOM     41  C   UNL A   1      42.495  25.890  28.017  1.00  0.00     0.049 A 
ATOM     42  N   UNL A   1      45.303  27.394  27.887  1.00  0.00    -0.248 NA
ATOM     43  C   UNL A   1      44.918  27.085  25.617  1.00  0.00     0.031 C 
ATOM     44  C   UNL A   1      41.299  25.051  28.130  1.00  0.00     0.029 A 
ATOM     45  N   UNL A   1      42.195  26.968  28.795  1.00  0.00    -0.354 N 
ATOM     46  C   UNL A   1      46.056  28.319  27.164  1.00  0.00     0.074 A 
ATOM     47  C   UNL A   1      45.852  28.022  25.770  1.00  0.00     0.031 C 
ATOM     48  C   UNL A   1      40.323  25.754  28.743  1.00  0.00     0.029 A 
ATOM     49  C   UNL A   1      40.862  27.032  29.170  1.00  0.00     0.049 A 
ATOM     50  H   UNL A   1      42.862  27.638  29.065  1.00  0.00     0.167 HD
ATOM     51  C   UNL A   1      46.665  29.385  27.750  1.00  0.00     0.037 A 
ATOM     52  C   UNL A   1      40.231  28.100  29.713  1.00  0.00     0.037 A 
ATOM     53  C   UNL A   1      46.844  29.202  29.160  1.00  0.00     0.049 A 
ATOM     54  C   UNL A   1      41.265  28.984  30.300  1.00  0.00     0.074 A 
ATOM     55  C   UNL A   1      47.606  28.366  29.949  1.00  0.00     0.029 A 
ATOM     56  N   UNL A   1      45.937  29.794  29.998  1.00  0.00    -0.354 N 
ATOM     57  N   UNL A   1      41.988  28.685  31.344  1.00  0.00    -0.248 NA
ATOM     58  C   UNL A   1      41.751  30.103  29.506  1.00  0.00     0.031 C 
ATOM     59  C   UNL A   1      46.844  28.174  31.138  1.00  0.00     0.029 A 
ATOM     60  C   UNL A   1      45.667  28.913  31.011  1.00  0.00     0.049 A 
ATOM     61  H   UNL A   1      45.549  30.693  29.891  1.00  0.00     0.167 HD
ATOM     62  C   UNL A   1      43.210  29.293  31.110  1.00  0.00     0.074 A 
ATOM     63  C   UNL A   1      42.960  30.257  30.048  1.00  0.00     0.031 C 
ATOM     64  C   UNL A   1      44.361  28.758  31.609  1.00  0.00     0.037 A 
BRANCH  51  65
ATOM     65  C   UNL A   1      46.810  30.735  27.095  1.00  0.00     0.064 A 
ATOM     66  C   UNL A   1      48.061  31.384  27.088  1.00  0.00     0.173 A 
ATOM     67  C   UNL A   1      45.703  31.536  26.743  1.00  0.00     0.173 A 
ATOM     68  F   UNL A   1      49.174  30.726  27.443  1.00  0.00    -0.203 F 
ATOM     69  C   UNL A   1      48.182  32.746  26.798  1.00  0.00     0.198 A 
ATOM     70  C   UNL A   1      45.834  32.881  26.404  1.00  0.00     0.198 A 
ATOM     71  F   UNL A   1      44.447  31.077  26.821  1.00  0.00    -0.203 F 
ATOM     72  F   UNL A   1      49.373  33.349  26.912  1.00  0.00    -0.200 F 
ATOM     73  C   UNL A   1      47.068  33.494  26.458  1.00  0.00     0.200 A 
ATOM     74  F   UNL A   1      44.740  33.594  26.101  1.00  0.00    -0.200 F 
ATOM     75  F   UNL A   1      47.174  34.810  26.233  1.00  0.00    -0.200 F 
ENDBRANCH  51  65
BRANCH  52  76
ATOM     76  C   UNL A   1      38.836  28.546  29.482  1.00  0.00     0.064 A 
ATOM     77  C   UNL A   1      37.970  28.788  30.561  1.00  0.00     0.173 A 
ATOM     78  C   UNL A   1      38.405  29.005  28.221  1.00  0.00     0.173 A 
ATOM     79  F   UNL A   1      38.321  28.424  31.803  1.00  0.00    -0.203 F 
ATOM     80  C   UNL A   1      36.763  29.476  30.393  1.00  0.00     0.198 A 
ATOM     81  C   UNL A   1      37.194  29.677  28.053  1.00  0.00     0.198 A 
ATOM     82  F   UNL A   1      39.190  28.899  27.141  1.00  0.00    -0.203 F 
ATOM     83  F   UNL A   1      35.998  29.752  31.459  1.00  0.00    -0.200 F 
ATOM     84  C   UNL A   1      36.382  29.927  29.141  1.00  0.00     0.200 A 
ATOM     85  F   UNL A   1      36.854  30.136  26.840  1.00  0.00    -0.200 F 
ATOM     86  F   UNL A   1      35.257  30.639  28.990  1.00  0.00    -0.200 F 
ENDBRANCH  52  76
BRANCH  64  87
ATOM     87  C   UNL A   1      44.237  27.715  32.682  1.00  0.00     0.064 A 
ATOM     88  C   UNL A   1      44.155  26.337  32.423  1.00  0.00     0.173 A 
ATOM     89  C   UNL A   1      44.364  28.117  34.018  1.00  0.00     0.173 A 
ATOM     90  F   UNL A   1      44.131  25.873  31.167  1.00  0.00    -0.203 F 
ATOM     91  C   UNL A   1      44.165  25.407  33.460  1.00  0.00     0.198 A 
ATOM     92  C   UNL A   1      44.411  27.184  35.050  1.00  0.00     0.198 A 
ATOM     93  F   UNL A   1      44.503  29.418  34.319  1.00  0.00    -0.203 F 
ATOM     94  F   UNL A   1      44.083  24.097  33.188  1.00  0.00    -0.200 F 
ATOM     95  C   UNL A   1      44.304  25.831  34.771  1.00  0.00     0.200 A 
ATOM     96  F   UNL A   1      44.597  27.594  36.312  1.00  0.00    -0.200 F 
ATOM     97  F   UNL A   1      44.366  24.933  35.765  1.00  0.00    -0.200 F 
ENDBRANCH  64  87
ENDBRANCH  38  39
ENDBRANCH  30  33
ENDBRANCH  28  29
ENDBRANCH  27  28
ENDBRANCH  26  27
ENDBRANCH   1  26
TORSDOF 17
ENDMDL
