MODEL 1
REMARK VINA RESULT:     -14.6      0.000      0.000
REMARK SMILES Cc1ccc(-c2cn3c(n2)sc2cc(C(=O)NCCCCNC(=O)c4ccc(-c5c6nc(c(-c7c(F)c(F)c(F)c(F)c7F)c7ccc([nH]7)c(-c7c(F)c(F)c(F)c(F)c7F)c7nc(c(-c8c(F)c(F)c(F)c(F)c8F)c8ccc5[nH]8)C=C7)C=C6)cc4)ccc23)cc1
REMARK SMILES IDX 20 1 19 2 18 3 17 4 15 5 16 6 14 8 6 9 7 10 10 11 8 12 9 13
REMARK SMILES IDX 90 14 11 15 12 16 89 17 13 18 88 19 5 20 1 21 2 22 3 23
REMARK SMILES IDX 92 24 4 25 91 26 21 27 22 28 23 29 24 31 25 32 26 33 87 34
REMARK SMILES IDX 27 35 86 36 28 37 29 38 30 39 80 40 31 41 85 42 79 43 81 44
REMARK SMILES IDX 32 45 84 46 78 47 77 48 33 50 65 51 45 52 64 53 46 54 49 55
REMARK SMILES IDX 63 56 82 57 47 58 48 59 62 61 83 62 50 63 34 64 35 65 43 66
REMARK SMILES IDX 36 67 37 68 41 69 44 70 38 71 39 72 42 73 40 74 66 75 67 76
REMARK SMILES IDX 75 77 68 78 69 79 73 80 76 81 70 82 71 83 74 84 72 85 51 86
REMARK SMILES IDX 52 87 60 88 53 89 54 90 58 91 61 92 55 93 56 94 59 95 57 96
REMARK H PARENT 17 7 22 30 81 49 49 60
REMARK Flexibility Score: inf
ROOT
ATOM      1  C   UNL A   1      37.546  21.601  24.580  1.00  0.00     0.023 C 
ENDROOT
BRANCH   1   2
ATOM      2  C   UNL A   1      36.891  20.290  25.011  1.00  0.00     0.023 C 
BRANCH   2   3
ATOM      3  C   UNL A   1      35.352  20.311  25.002  1.00  0.00     0.116 C 
BRANCH   3   4
ATOM      4  N   UNL A   1      34.797  21.110  26.097  1.00  0.00    -0.352 N 
ATOM      5  C   UNL A   1      34.046  22.269  26.060  1.00  0.00     0.251 C 
ATOM      6  O   UNL A   1      33.520  22.697  27.086  1.00  0.00    -0.269 OA
ATOM      7  H   UNL A   1      34.988  20.766  27.000  1.00  0.00     0.163 HD
BRANCH   5   8
ATOM      8  C   UNL A   1      33.780  22.940  24.765  1.00  0.00     0.041 A 
ATOM      9  C   UNL A   1      31.826  27.831  24.126  1.00  0.00     0.090 A 
ATOM     10  C   UNL A   1      32.766  27.397  23.198  1.00  0.00     0.123 A 
ATOM     11  N   UNL A   1      30.680  27.052  24.090  1.00  0.00    -0.219 NA
ATOM     12  N   UNL A   1      32.324  26.129  22.940  1.00  0.00    -0.290 N 
ATOM     13  C   UNL A   1      30.993  26.074  23.268  1.00  0.00     0.195 A 
ATOM     14  C   UNL A   1      33.022  24.914  23.053  1.00  0.00     0.065 A 
ATOM     15  S   UNL A   1      30.388  24.431  23.256  1.00  0.00    -0.096 S 
ATOM     16  C   UNL A   1      32.113  23.892  23.366  1.00  0.00     0.056 A 
ATOM     17  C   UNL A   1      34.367  24.858  23.397  1.00  0.00     0.029 A 
ATOM     18  C   UNL A   1      32.519  22.842  24.168  1.00  0.00     0.035 A 
ATOM     19  C   UNL A   1      34.736  23.868  24.306  1.00  0.00     0.016 A 
BRANCH   9  20
ATOM     20  C   UNL A   1      32.246  28.631  25.264  1.00  0.00     0.002 A 
ATOM     21  C   UNL A   1      34.028  31.450  28.001  1.00  0.00     0.044 C 
ATOM     22  C   UNL A   1      33.408  30.453  27.065  1.00  0.00    -0.051 A 
ATOM     23  C   UNL A   1      32.152  30.712  26.502  1.00  0.00     0.004 A 
ATOM     24  C   UNL A   1      34.066  29.261  26.738  1.00  0.00     0.004 A 
ATOM     25  C   UNL A   1      31.579  29.813  25.599  1.00  0.00     0.010 A 
ATOM     26  C   UNL A   1      33.480  28.345  25.862  1.00  0.00     0.010 A 
ENDBRANCH   9  20
ENDBRANCH   5   8
ENDBRANCH   3   4
ENDBRANCH   2   3
ENDBRANCH   1   2
BRANCH   1  27
ATOM     27  C   UNL A   1      37.853  22.521  25.751  1.00  0.00     0.116 C 
BRANCH  27  28
ATOM     28  N   UNL A   1      39.060  22.199  26.500  1.00  0.00    -0.352 N 
ATOM     29  C   UNL A   1      40.005  23.033  27.075  1.00  0.00     0.251 C 
ATOM     30  H   UNL A   1      39.231  21.237  26.615  1.00  0.00     0.163 HD
ATOM     31  O   UNL A   1      41.025  22.537  27.547  1.00  0.00    -0.269 OA
BRANCH  29  32
ATOM     32  C   UNL A   1      39.758  24.492  27.244  1.00  0.00     0.039 A 
ATOM     33  C   UNL A   1      40.276  25.386  26.288  1.00  0.00     0.014 A 
ATOM     34  C   UNL A   1      39.169  25.005  28.388  1.00  0.00     0.014 A 
ATOM     35  C   UNL A   1      40.396  26.746  26.590  1.00  0.00     0.010 A 
ATOM     36  C   UNL A   1      39.419  26.305  28.751  1.00  0.00     0.010 A 
ATOM     37  C   UNL A   1      40.063  27.175  27.868  1.00  0.00    -0.014 A 
BRANCH  37  38
ATOM     38  C   UNL A   1      40.385  28.468  28.458  1.00  0.00     0.031 A 
ATOM     39  C   UNL A   1      39.315  29.485  28.615  1.00  0.00     0.074 A 
ATOM     40  C   UNL A   1      41.519  28.545  29.189  1.00  0.00     0.049 A 
ATOM     41  N   UNL A   1      39.468  30.617  29.207  1.00  0.00    -0.248 NA
ATOM     42  C   UNL A   1      37.953  29.289  28.127  1.00  0.00     0.031 C 
ATOM     43  C   UNL A   1      41.785  29.448  30.303  1.00  0.00     0.029 A 
ATOM     44  N   UNL A   1      42.753  27.913  28.951  1.00  0.00    -0.354 N 
ATOM     45  C   UNL A   1      38.228  31.173  29.415  1.00  0.00     0.074 A 
ATOM     46  C   UNL A   1      37.312  30.308  28.709  1.00  0.00     0.031 C 
ATOM     47  C   UNL A   1      43.109  29.552  30.472  1.00  0.00     0.029 A 
ATOM     48  C   UNL A   1      43.726  28.853  29.368  1.00  0.00     0.049 A 
ATOM     49  H   UNL A   1      42.907  27.016  28.577  1.00  0.00     0.167 HD
ATOM     50  C   UNL A   1      38.128  32.248  30.250  1.00  0.00     0.037 A 
ATOM     51  C   UNL A   1      44.576  29.462  28.494  1.00  0.00     0.037 A 
ATOM     52  C   UNL A   1      39.453  32.687  30.688  1.00  0.00     0.049 A 
ATOM     53  C   UNL A   1      44.466  30.965  28.562  1.00  0.00     0.074 A 
ATOM     54  C   UNL A   1      40.170  32.524  31.864  1.00  0.00     0.029 A 
ATOM     55  N   UNL A   1      40.363  33.141  29.734  1.00  0.00    -0.354 N 
ATOM     56  N   UNL A   1      43.352  31.608  28.808  1.00  0.00    -0.248 NA
ATOM     57  C   UNL A   1      45.629  31.841  28.508  1.00  0.00     0.031 C 
ATOM     58  C   UNL A   1      41.523  32.862  31.603  1.00  0.00     0.029 A 
ATOM     59  C   UNL A   1      41.626  33.246  30.275  1.00  0.00     0.049 A 
ATOM     60  H   UNL A   1      40.134  33.355  28.801  1.00  0.00     0.167 HD
ATOM     61  C   UNL A   1      43.648  32.927  29.054  1.00  0.00     0.074 A 
ATOM     62  C   UNL A   1      45.077  33.029  28.814  1.00  0.00     0.031 C 
ATOM     63  C   UNL A   1      42.728  33.824  29.523  1.00  0.00     0.037 A 
BRANCH  50  64
ATOM     64  C   UNL A   1      36.832  32.768  30.837  1.00  0.00     0.064 A 
ATOM     65  C   UNL A   1      35.967  33.595  30.085  1.00  0.00     0.173 A 
ATOM     66  C   UNL A   1      36.394  32.509  32.149  1.00  0.00     0.173 A 
ATOM     67  F   UNL A   1      36.201  33.868  28.795  1.00  0.00    -0.203 F 
ATOM     68  C   UNL A   1      34.820  34.185  30.630  1.00  0.00     0.198 A 
ATOM     69  C   UNL A   1      35.281  33.144  32.713  1.00  0.00     0.198 A 
ATOM     70  F   UNL A   1      36.991  31.586  32.913  1.00  0.00    -0.203 F 
ATOM     71  F   UNL A   1      34.040  34.958  29.862  1.00  0.00    -0.200 F 
ATOM     72  C   UNL A   1      34.496  33.987  31.955  1.00  0.00     0.200 A 
ATOM     73  F   UNL A   1      34.971  32.924  33.999  1.00  0.00    -0.200 F 
ATOM     74  F   UNL A   1      33.421  34.582  32.490  1.00  0.00    -0.200 F 
ENDBRANCH  50  64
BRANCH  51  75
ATOM     75  C   UNL A   1      44.881  28.615  27.316  1.00  0.00     0.064 A 
ATOM     76  C   UNL A   1      45.870  27.623  27.482  1.00  0.00     0.173 A 
ATOM     77  C   UNL A   1      43.952  28.436  26.283  1.00  0.00     0.173 A 
ATOM     78  F   UNL A   1      46.785  27.752  28.456  1.00  0.00    -0.203 F 
ATOM     79  C   UNL A   1      45.838  26.437  26.752  1.00  0.00     0.198 A 
ATOM     80  C   UNL A   1      43.938  27.254  25.539  1.00  0.00     0.198 A 
ATOM     81  F   UNL A   1      42.979  29.336  26.083  1.00  0.00    -0.203 F 
ATOM     82  F   UNL A   1      46.710  25.457  27.027  1.00  0.00    -0.200 F 
ATOM     83  C   UNL A   1      44.849  26.240  25.804  1.00  0.00     0.200 A 
ATOM     84  F   UNL A   1      42.969  27.047  24.635  1.00  0.00    -0.200 F 
ATOM     85  F   UNL A   1      44.744  25.058  25.178  1.00  0.00    -0.200 F 
ENDBRANCH  51  75
BRANCH  63  86
ATOM     86  C   UNL A   1      42.830  35.338  29.473  1.00  0.00     0.064 A 
ATOM     87  C   UNL A   1      43.631  36.103  30.337  1.00  0.00     0.173 A 
ATOM     88  C   UNL A   1      42.241  36.068  28.404  1.00  0.00     0.173 A 
ATOM     89  F   UNL A   1      44.352  35.538  31.311  1.00  0.00    -0.203 F 
ATOM     90  C   UNL A   1      43.777  37.486  30.187  1.00  0.00     0.198 A 
ATOM     91  C   UNL A   1      42.435  37.437  28.226  1.00  0.00     0.198 A 
ATOM     92  F   UNL A   1      41.491  35.477  27.463  1.00  0.00    -0.203 F 
ATOM     93  F   UNL A   1      44.526  38.168  31.064  1.00  0.00    -0.200 F 
ATOM     94  C   UNL A   1      43.192  38.150  29.126  1.00  0.00     0.200 A 
ATOM     95  F   UNL A   1      41.906  38.049  27.157  1.00  0.00    -0.200 F 
ATOM     96  F   UNL A   1      43.382  39.464  28.958  1.00  0.00    -0.200 F 
ENDBRANCH  63  86
ENDBRANCH  37  38
ENDBRANCH  29  32
ENDBRANCH  27  28
ENDBRANCH   1  27
TORSDOF 12
ENDMDL
MODEL 2
REMARK VINA RESULT:     -14.4      0.282      1.140
REMARK SMILES Cc1ccc(-c2cn3c(n2)sc2cc(C(=O)NCCCCNC(=O)c4ccc(-c5c6nc(c(-c7c(F)c(F)c(F)c(F)c7F)c7ccc([nH]7)c(-c7c(F)c(F)c(F)c(F)c7F)c7nc(c(-c8c(F)c(F)c(F)c(F)c8F)c8ccc5[nH]8)C=C7)C=C6)cc4)ccc23)cc1
REMARK SMILES IDX 20 1 19 2 18 3 17 4 15 5 16 6 14 8 6 9 7 10 10 11 8 12 9 13
REMARK SMILES IDX 90 14 11 15 12 16 89 17 13 18 88 19 5 20 1 21 2 22 3 23
REMARK SMILES IDX 92 24 4 25 91 26 21 27 22 28 23 29 24 31 25 32 26 33 87 34
REMARK SMILES IDX 27 35 86 36 28 37 29 38 30 39 80 40 31 41 85 42 79 43 81 44
REMARK SMILES IDX 32 45 84 46 78 47 77 48 33 50 65 51 45 52 64 53 46 54 49 55
REMARK SMILES IDX 63 56 82 57 47 58 48 59 62 61 83 62 50 63 34 64 35 65 43 66
REMARK SMILES IDX 36 67 37 68 41 69 44 70 38 71 39 72 42 73 40 74 66 75 67 76
REMARK SMILES IDX 75 77 68 78 69 79 73 80 76 81 70 82 71 83 74 84 72 85 51 86
REMARK SMILES IDX 52 87 60 88 53 89 54 90 58 91 61 92 55 93 56 94 59 95 57 96
REMARK H PARENT 17 7 22 30 81 49 49 60
REMARK Flexibility Score: inf
ROOT
ATOM      1  C   UNL A   1      37.436  21.473  24.581  1.00  0.00     0.023 C 
ENDROOT
BRANCH   1   2
ATOM      2  C   UNL A   1      36.726  20.187  25.000  1.00  0.00     0.023 C 
BRANCH   2   3
ATOM      3  C   UNL A   1      35.190  20.279  25.010  1.00  0.00     0.116 C 
BRANCH   3   4
ATOM      4  N   UNL A   1      34.686  21.109  26.106  1.00  0.00    -0.352 N 
ATOM      5  C   UNL A   1      33.985  22.300  26.070  1.00  0.00     0.251 C 
ATOM      6  O   UNL A   1      33.493  22.758  27.100  1.00  0.00    -0.269 OA
ATOM      7  H   UNL A   1      34.875  20.764  27.009  1.00  0.00     0.163 HD
BRANCH   5   8
ATOM      8  C   UNL A   1      33.729  22.972  24.773  1.00  0.00     0.041 A 
ATOM      9  C   UNL A   1      31.815  27.877  24.124  1.00  0.00     0.090 A 
ATOM     10  C   UNL A   1      32.755  27.435  23.200  1.00  0.00     0.123 A 
ATOM     11  N   UNL A   1      30.662  27.107  24.084  1.00  0.00    -0.219 NA
ATOM     12  N   UNL A   1      32.305  26.170  22.941  1.00  0.00    -0.290 N 
ATOM     13  C   UNL A   1      30.971  26.126  23.264  1.00  0.00     0.195 A 
ATOM     14  C   UNL A   1      32.993  24.951  23.058  1.00  0.00     0.065 A 
ATOM     15  S   UNL A   1      30.354  24.487  23.250  1.00  0.00    -0.096 S 
ATOM     16  C   UNL A   1      32.075  23.935  23.367  1.00  0.00     0.056 A 
ATOM     17  C   UNL A   1      34.336  24.885  23.407  1.00  0.00     0.029 A 
ATOM     18  C   UNL A   1      32.470  22.883  24.172  1.00  0.00     0.035 A 
ATOM     19  C   UNL A   1      34.694  23.893  24.318  1.00  0.00     0.016 A 
BRANCH   9  20
ATOM     20  C   UNL A   1      32.236  28.674  25.263  1.00  0.00     0.002 A 
ATOM     21  C   UNL A   1      34.030  31.480  28.005  1.00  0.00     0.044 C 
ATOM     22  C   UNL A   1      33.405  30.487  27.068  1.00  0.00    -0.051 A 
ATOM     23  C   UNL A   1      32.156  30.758  26.497  1.00  0.00     0.004 A 
ATOM     24  C   UNL A   1      34.053  29.288  26.747  1.00  0.00     0.004 A 
ATOM     25  C   UNL A   1      31.579  29.863  25.593  1.00  0.00     0.010 A 
ATOM     26  C   UNL A   1      33.463  28.377  25.869  1.00  0.00     0.010 A 
ENDBRANCH   9  20
ENDBRANCH   5   8
ENDBRANCH   3   4
ENDBRANCH   2   3
ENDBRANCH   1   2
BRANCH   1  27
ATOM     27  C   UNL A   1      37.793  22.363  25.761  1.00  0.00     0.116 C 
BRANCH  27  28
ATOM     28  N   UNL A   1      39.034  22.027  26.444  1.00  0.00    -0.352 N 
ATOM     29  C   UNL A   1      40.013  22.851  26.977  1.00  0.00     0.251 C 
ATOM     30  H   UNL A   1      39.206  21.063  26.541  1.00  0.00     0.163 HD
ATOM     31  O   UNL A   1      41.053  22.346  27.392  1.00  0.00    -0.269 OA
BRANCH  29  32
ATOM     32  C   UNL A   1      39.783  24.310  27.171  1.00  0.00     0.039 A 
ATOM     33  C   UNL A   1      40.260  25.210  26.201  1.00  0.00     0.014 A 
ATOM     34  C   UNL A   1      39.253  24.815  28.348  1.00  0.00     0.014 A 
ATOM     35  C   UNL A   1      40.402  26.566  26.509  1.00  0.00     0.010 A 
ATOM     36  C   UNL A   1      39.529  26.110  28.710  1.00  0.00     0.010 A 
ATOM     37  C   UNL A   1      40.134  26.985  27.805  1.00  0.00    -0.014 A 
BRANCH  37  38
ATOM     38  C   UNL A   1      40.492  28.270  28.391  1.00  0.00     0.031 A 
ATOM     39  C   UNL A   1      39.451  29.317  28.545  1.00  0.00     0.074 A 
ATOM     40  C   UNL A   1      41.628  28.318  29.121  1.00  0.00     0.049 A 
ATOM     41  N   UNL A   1      39.635  30.447  29.134  1.00  0.00    -0.248 NA
ATOM     42  C   UNL A   1      38.084  29.158  28.058  1.00  0.00     0.031 C 
ATOM     43  C   UNL A   1      41.920  29.217  30.232  1.00  0.00     0.029 A 
ATOM     44  N   UNL A   1      42.844  27.651  28.885  1.00  0.00    -0.354 N 
ATOM     45  C   UNL A   1      38.411  31.037  29.339  1.00  0.00     0.074 A 
ATOM     46  C   UNL A   1      37.472  30.196  28.637  1.00  0.00     0.031 C 
ATOM     47  C   UNL A   1      43.246  29.285  30.401  1.00  0.00     0.029 A 
ATOM     48  C   UNL A   1      43.842  28.565  29.299  1.00  0.00     0.049 A 
ATOM     49  H   UNL A   1      42.973  26.749  28.514  1.00  0.00     0.167 HD
ATOM     50  C   UNL A   1      38.342  32.117  30.171  1.00  0.00     0.037 A 
ATOM     51  C   UNL A   1      44.709  29.147  28.423  1.00  0.00     0.037 A 
ATOM     52  C   UNL A   1      39.679  32.521  30.608  1.00  0.00     0.049 A 
ATOM     53  C   UNL A   1      44.642  30.653  28.486  1.00  0.00     0.074 A 
ATOM     54  C   UNL A   1      40.392  32.342  31.783  1.00  0.00     0.029 A 
ATOM     55  N   UNL A   1      40.601  32.946  29.652  1.00  0.00    -0.354 N 
ATOM     56  N   UNL A   1      43.546  31.328  28.730  1.00  0.00    -0.248 NA
ATOM     57  C   UNL A   1      45.828  31.496  28.429  1.00  0.00     0.031 C 
ATOM     58  C   UNL A   1      41.754  32.641  31.522  1.00  0.00     0.029 A 
ATOM     59  C   UNL A   1      41.866  33.017  30.192  1.00  0.00     0.049 A 
ATOM     60  H   UNL A   1      40.378  33.164  28.719  1.00  0.00     0.167 HD
ATOM     61  C   UNL A   1      43.878  32.638  28.972  1.00  0.00     0.074 A 
ATOM     62  C   UNL A   1      45.310  32.700  28.731  1.00  0.00     0.031 C 
ATOM     63  C   UNL A   1      42.984  33.562  29.438  1.00  0.00     0.037 A 
BRANCH  50  64
ATOM     64  C   UNL A   1      37.061  32.675  30.756  1.00  0.00     0.064 A 
ATOM     65  C   UNL A   1      36.221  33.526  30.003  1.00  0.00     0.173 A 
ATOM     66  C   UNL A   1      36.615  32.431  32.069  1.00  0.00     0.173 A 
ATOM     67  F   UNL A   1      36.463  33.791  28.713  1.00  0.00    -0.203 F 
ATOM     68  C   UNL A   1      35.091  34.150  30.547  1.00  0.00     0.198 A 
ATOM     69  C   UNL A   1      35.520  33.098  32.631  1.00  0.00     0.198 A 
ATOM     70  F   UNL A   1      37.184  31.491  32.834  1.00  0.00    -0.203 F 
ATOM     71  F   UNL A   1      34.334  34.944  29.777  1.00  0.00    -0.200 F 
ATOM     72  C   UNL A   1      34.760  33.962  31.872  1.00  0.00     0.200 A 
ATOM     73  F   UNL A   1      35.204  32.888  33.918  1.00  0.00    -0.200 F 
ATOM     74  F   UNL A   1      33.703  34.589  32.405  1.00  0.00    -0.200 F 
ENDBRANCH  50  64
BRANCH  51  75
ATOM     75  C   UNL A   1      44.990  28.288  27.247  1.00  0.00     0.064 A 
ATOM     76  C   UNL A   1      45.984  27.299  27.403  1.00  0.00     0.173 A 
ATOM     77  C   UNL A   1      44.040  28.098  26.236  1.00  0.00     0.173 A 
ATOM     78  F   UNL A   1      46.919  27.439  28.356  1.00  0.00    -0.203 F 
ATOM     79  C   UNL A   1      45.938  26.106  26.686  1.00  0.00     0.198 A 
ATOM     80  C   UNL A   1      44.011  26.908  25.505  1.00  0.00     0.198 A 
ATOM     81  F   UNL A   1      43.061  28.994  26.048  1.00  0.00    -0.203 F 
ATOM     82  F   UNL A   1      46.817  25.129  26.952  1.00  0.00    -0.200 F 
ATOM     83  C   UNL A   1      44.929  25.897  25.762  1.00  0.00     0.200 A 
ATOM     84  F   UNL A   1      43.023  26.690  24.624  1.00  0.00    -0.200 F 
ATOM     85  F   UNL A   1      44.812  24.709  25.151  1.00  0.00    -0.200 F 
ENDBRANCH  51  75
BRANCH  63  86
ATOM     86  C   UNL A   1      43.128  35.073  29.383  1.00  0.00     0.064 A 
ATOM     87  C   UNL A   1      42.523  35.888  28.412  1.00  0.00     0.173 A 
ATOM     88  C   UNL A   1      43.757  35.779  30.446  1.00  0.00     0.173 A 
ATOM     89  F   UNL A   1      41.786  35.372  27.423  1.00  0.00    -0.203 F 
ATOM     90  C   UNL A   1      42.596  37.284  28.462  1.00  0.00     0.198 A 
ATOM     91  C   UNL A   1      43.778  37.171  30.520  1.00  0.00     0.198 A 
ATOM     92  F   UNL A   1      44.335  35.149  31.478  1.00  0.00    -0.203 F 
ATOM     93  F   UNL A   1      42.029  38.008  27.487  1.00  0.00    -0.200 F 
ATOM     94  C   UNL A   1      43.210  37.924  29.520  1.00  0.00     0.200 A 
ATOM     95  F   UNL A   1      44.328  37.770  31.586  1.00  0.00    -0.200 F 
ATOM     96  F   UNL A   1      43.226  39.261  29.589  1.00  0.00    -0.200 F 
ENDBRANCH  63  86
ENDBRANCH  37  38
ENDBRANCH  29  32
ENDBRANCH  27  28
ENDBRANCH   1  27
TORSDOF 12
ENDMDL
MODEL 3
REMARK VINA RESULT:     -14.1      3.834      9.971
REMARK SMILES Cc1ccc(-c2cn3c(n2)sc2cc(C(=O)NCCCCNC(=O)c4ccc(-c5c6nc(c(-c7c(F)c(F)c(F)c(F)c7F)c7ccc([nH]7)c(-c7c(F)c(F)c(F)c(F)c7F)c7nc(c(-c8c(F)c(F)c(F)c(F)c8F)c8ccc5[nH]8)C=C7)C=C6)cc4)ccc23)cc1
REMARK SMILES IDX 20 1 19 2 18 3 17 4 15 5 16 6 14 8 6 9 7 10 10 11 8 12 9 13
REMARK SMILES IDX 90 14 11 15 12 16 89 17 13 18 88 19 5 20 1 21 2 22 3 23
REMARK SMILES IDX 92 24 4 25 91 26 21 27 22 28 23 29 24 31 25 32 26 33 87 34
REMARK SMILES IDX 27 35 86 36 28 37 29 38 30 39 80 40 31 41 85 42 79 43 81 44
REMARK SMILES IDX 32 45 84 46 78 47 77 48 33 50 65 51 45 52 64 53 46 54 49 55
REMARK SMILES IDX 63 56 82 57 47 58 48 59 62 61 83 62 50 63 34 64 35 65 43 66
REMARK SMILES IDX 36 67 37 68 41 69 44 70 38 71 39 72 42 73 40 74 66 75 67 76
REMARK SMILES IDX 75 77 68 78 69 79 73 80 76 81 70 82 71 83 74 84 72 85 51 86
REMARK SMILES IDX 52 87 60 88 53 89 54 90 58 91 61 92 55 93 56 94 59 95 57 96
REMARK H PARENT 17 7 22 30 81 49 49 60
REMARK Flexibility Score: inf
ROOT
ATOM      1  C   UNL A   1      33.301  29.887  26.081  1.00  0.00     0.023 C 
ENDROOT
BRANCH   1   2
ATOM      2  C   UNL A   1      31.794  30.010  25.864  1.00  0.00     0.023 C 
BRANCH   2   3
ATOM      3  C   UNL A   1      31.296  29.457  24.516  1.00  0.00     0.116 C 
BRANCH   3   4
ATOM      4  N   UNL A   1      32.380  28.895  23.707  1.00  0.00    -0.352 N 
ATOM      5  C   UNL A   1      32.775  27.581  23.539  1.00  0.00     0.251 C 
ATOM      6  O   UNL A   1      33.600  27.290  22.676  1.00  0.00    -0.269 OA
ATOM      7  H   UNL A   1      32.909  29.556  23.203  1.00  0.00     0.163 HD
BRANCH   5   8
ATOM      8  C   UNL A   1      32.123  26.505  24.324  1.00  0.00     0.041 A 
ATOM      9  C   UNL A   1      34.036  21.619  25.108  1.00  0.00     0.090 A 
ATOM     10  C   UNL A   1      33.324  22.197  26.153  1.00  0.00     0.123 A 
ATOM     11  N   UNL A   1      33.239  21.443  23.986  1.00  0.00    -0.219 NA
ATOM     12  N   UNL A   1      32.255  22.731  25.488  1.00  0.00    -0.290 N 
ATOM     13  C   UNL A   1      32.117  22.052  24.303  1.00  0.00     0.195 A 
ATOM     14  C   UNL A   1      31.802  24.061  25.475  1.00  0.00     0.065 A 
ATOM     15  S   UNL A   1      30.966  22.832  23.239  1.00  0.00    -0.096 S 
ATOM     16  C   UNL A   1      31.187  24.323  24.241  1.00  0.00     0.056 A 
ATOM     17  C   UNL A   1      32.387  25.054  26.252  1.00  0.00     0.029 A 
ATOM     18  C   UNL A   1      31.277  25.588  23.691  1.00  0.00     0.035 A 
ATOM     19  C   UNL A   1      32.584  26.289  25.638  1.00  0.00     0.016 A 
BRANCH   9  20
ATOM     20  C   UNL A   1      35.486  21.699  25.085  1.00  0.00     0.002 A 
ATOM     21  C   UNL A   1      39.710  21.820  25.955  1.00  0.00     0.044 C 
ATOM     22  C   UNL A   1      38.243  21.793  25.635  1.00  0.00    -0.051 A 
ATOM     23  C   UNL A   1      37.641  20.598  25.223  1.00  0.00     0.004 A 
ATOM     24  C   UNL A   1      37.458  22.947  25.746  1.00  0.00     0.004 A 
ATOM     25  C   UNL A   1      36.270  20.548  24.959  1.00  0.00     0.010 A 
ATOM     26  C   UNL A   1      36.094  22.907  25.451  1.00  0.00     0.010 A 
ENDBRANCH   9  20
ENDBRANCH   5   8
ENDBRANCH   3   4
ENDBRANCH   2   3
ENDBRANCH   1   2
BRANCH   1  27
ATOM     27  C   UNL A   1      33.731  30.288  27.483  1.00  0.00     0.116 C 
BRANCH  27  28
ATOM     28  N   UNL A   1      34.589  31.462  27.563  1.00  0.00    -0.352 N 
ATOM     29  C   UNL A   1      35.900  31.584  27.992  1.00  0.00     0.251 C 
ATOM     30  H   UNL A   1      34.170  32.302  27.266  1.00  0.00     0.163 HD
ATOM     31  O   UNL A   1      36.386  32.707  28.104  1.00  0.00    -0.269 OA
BRANCH  29  32
ATOM     32  C   UNL A   1      36.767  30.391  28.202  1.00  0.00     0.039 A 
ATOM     33  C   UNL A   1      36.628  29.647  29.388  1.00  0.00     0.014 A 
ATOM     34  C   UNL A   1      37.806  30.083  27.338  1.00  0.00     0.014 A 
ATOM     35  C   UNL A   1      37.641  28.773  29.793  1.00  0.00     0.010 A 
ATOM     36  C   UNL A   1      38.869  29.347  27.798  1.00  0.00     0.010 A 
ATOM     37  C   UNL A   1      38.807  28.714  29.042  1.00  0.00    -0.014 A 
BRANCH  37  38
ATOM     38  C   UNL A   1      40.066  28.101  29.445  1.00  0.00     0.031 A 
ATOM     39  C   UNL A   1      40.447  26.781  28.884  1.00  0.00     0.074 A 
ATOM     40  C   UNL A   1      41.001  28.915  29.985  1.00  0.00     0.049 A 
ATOM     41  N   UNL A   1      41.574  26.197  29.098  1.00  0.00    -0.248 NA
ATOM     42  C   UNL A   1      39.578  26.010  28.000  1.00  0.00     0.031 C 
ATOM     43  C   UNL A   1      42.449  28.740  29.938  1.00  0.00     0.029 A 
ATOM     44  N   UNL A   1      40.810  30.007  30.850  1.00  0.00    -0.354 N 
ATOM     45  C   UNL A   1      41.698  25.150  28.216  1.00  0.00     0.074 A 
ATOM     46  C   UNL A   1      40.416  25.067  27.558  1.00  0.00     0.031 C 
ATOM     47  C   UNL A   1      43.005  29.455  30.924  1.00  0.00     0.029 A 
ATOM     48  C   UNL A   1      41.920  29.969  31.728  1.00  0.00     0.049 A 
ATOM     49  H   UNL A   1      40.069  30.654  30.848  1.00  0.00     0.167 HD
ATOM     50  C   UNL A   1      42.916  24.548  28.086  1.00  0.00     0.037 A 
ATOM     51  C   UNL A   1      41.793  29.693  33.056  1.00  0.00     0.037 A 
ATOM     52  C   UNL A   1      43.869  25.096  29.053  1.00  0.00     0.049 A 
ATOM     53  C   UNL A   1      42.634  28.508  33.464  1.00  0.00     0.074 A 
ATOM     54  C   UNL A   1      44.910  26.006  28.953  1.00  0.00     0.029 A 
ATOM     55  N   UNL A   1      43.610  24.945  30.414  1.00  0.00    -0.354 N 
ATOM     56  N   UNL A   1      42.870  27.476  32.691  1.00  0.00    -0.248 NA
ATOM     57  C   UNL A   1      43.388  28.470  34.709  1.00  0.00     0.031 C 
ATOM     58  C   UNL A   1      45.261  26.418  30.264  1.00  0.00     0.029 A 
ATOM     59  C   UNL A   1      44.445  25.746  31.162  1.00  0.00     0.049 A 
ATOM     60  H   UNL A   1      42.924  24.347  30.790  1.00  0.00     0.167 HD
ATOM     61  C   UNL A   1      43.863  26.717  33.260  1.00  0.00     0.074 A 
ATOM     62  C   UNL A   1      44.123  27.357  34.537  1.00  0.00     0.031 C 
ATOM     63  C   UNL A   1      44.468  25.673  32.614  1.00  0.00     0.037 A 
BRANCH  50  64
ATOM     64  C   UNL A   1      43.306  23.622  26.953  1.00  0.00     0.064 A 
ATOM     65  C   UNL A   1      43.026  22.237  27.010  1.00  0.00     0.173 A 
ATOM     66  C   UNL A   1      43.984  24.031  25.790  1.00  0.00     0.173 A 
ATOM     67  F   UNL A   1      42.317  21.704  28.012  1.00  0.00    -0.203 F 
ATOM     68  C   UNL A   1      43.471  21.335  26.036  1.00  0.00     0.198 A 
ATOM     69  C   UNL A   1      44.479  23.124  24.845  1.00  0.00     0.198 A 
ATOM     70  F   UNL A   1      44.137  25.327  25.493  1.00  0.00    -0.203 F 
ATOM     71  F   UNL A   1      43.169  20.033  26.147  1.00  0.00    -0.200 F 
ATOM     72  C   UNL A   1      44.227  21.774  24.970  1.00  0.00     0.200 A 
ATOM     73  F   UNL A   1      45.198  23.573  23.806  1.00  0.00    -0.200 F 
ATOM     74  F   UNL A   1      44.687  20.907  24.059  1.00  0.00    -0.200 F 
ENDBRANCH  50  64
BRANCH  51  75
ATOM     75  C   UNL A   1      40.483  30.122  33.602  1.00  0.00     0.064 A 
ATOM     76  C   UNL A   1      40.362  31.476  33.979  1.00  0.00     0.173 A 
ATOM     77  C   UNL A   1      39.305  29.423  33.313  1.00  0.00     0.173 A 
ATOM     78  F   UNL A   1      41.463  32.186  34.270  1.00  0.00    -0.203 F 
ATOM     79  C   UNL A   1      39.139  32.138  33.919  1.00  0.00     0.198 A 
ATOM     80  C   UNL A   1      38.077  30.087  33.275  1.00  0.00     0.198 A 
ATOM     81  F   UNL A   1      39.355  28.138  32.934  1.00  0.00    -0.203 F 
ATOM     82  F   UNL A   1      39.078  33.458  34.152  1.00  0.00    -0.200 F 
ATOM     83  C   UNL A   1      38.002  31.450  33.533  1.00  0.00     0.200 A 
ATOM     84  F   UNL A   1      36.976  29.431  32.880  1.00  0.00    -0.200 F 
ATOM     85  F   UNL A   1      36.844  32.105  33.364  1.00  0.00    -0.200 F 
ENDBRANCH  51  75
BRANCH  63  86
ATOM     86  C   UNL A   1      45.279  24.559  33.252  1.00  0.00     0.064 A 
ATOM     87  C   UNL A   1      46.604  24.703  33.696  1.00  0.00     0.173 A 
ATOM     88  C   UNL A   1      44.663  23.327  33.605  1.00  0.00     0.173 A 
ATOM     89  F   UNL A   1      47.271  25.854  33.552  1.00  0.00    -0.203 F 
ATOM     90  C   UNL A   1      47.277  23.682  34.374  1.00  0.00     0.198 A 
ATOM     91  C   UNL A   1      45.320  22.334  34.330  1.00  0.00     0.198 A 
ATOM     92  F   UNL A   1      43.387  23.054  33.302  1.00  0.00    -0.203 F 
ATOM     93  F   UNL A   1      48.553  23.864  34.740  1.00  0.00    -0.200 F 
ATOM     94  C   UNL A   1      46.633  22.505  34.702  1.00  0.00     0.200 A 
ATOM     95  F   UNL A   1      44.658  21.225  34.688  1.00  0.00    -0.200 F 
ATOM     96  F   UNL A   1      47.267  21.554  35.400  1.00  0.00    -0.200 F 
ENDBRANCH  63  86
ENDBRANCH  37  38
ENDBRANCH  29  32
ENDBRANCH  27  28
ENDBRANCH   1  27
TORSDOF 12
ENDMDL
