MODEL 1
REMARK VINA RESULT:     -12.9      0.000      0.000
REMARK SMILES CCN(CC)c1ncc(NC(=O)c2ccc(C)cc2)cc1C(=O)NCCCCNC(=O)c1ccc(-c2c3nc(c(-c4c(F)c(F)c(F)c(F)c4F)c4ccc([nH]4)c(-c4c(F)c(F)c(F)c(F)c4F)c4nc(c(-c5c(F)c(F)c(F)c(F)c5F)c5ccc2[nH]5)C=C4)C=C3)cc1
REMARK SMILES IDX 26 1 25 2 24 3 22 4 23 5 21 7 6 8 7 9 8 10 20 11 9 12 3 13
REMARK SMILES IDX 2 14 1 15 4 16 5 17 10 18 11 19 12 21 13 22 14 23 19 24
REMARK SMILES IDX 15 25 18 26 16 27 17 28 27 29 28 30 29 31 30 32 31 34 32 35
REMARK SMILES IDX 33 36 94 37 34 38 93 39 35 40 36 41 37 42 87 43 38 44 92 45
REMARK SMILES IDX 86 46 88 47 39 48 91 49 85 50 84 51 40 53 72 54 52 55 71 56
REMARK SMILES IDX 53 57 56 58 70 59 89 60 54 61 55 62 69 64 90 65 57 66 41 67
REMARK SMILES IDX 42 68 50 69 43 70 44 71 48 72 51 73 45 74 46 75 49 76 47 77
REMARK SMILES IDX 73 78 74 79 82 80 75 81 76 82 80 83 83 84 77 85 78 86 81 87
REMARK SMILES IDX 79 88 58 89 59 90 67 91 60 92 61 93 65 94 68 95 62 96 63 97
REMARK SMILES IDX 66 98 64 99
REMARK H PARENT 24 6 10 20 29 33 88 52 56 63
REMARK Flexibility Score: inf
ROOT
ATOM      1  C   UNL A   1      34.678  28.735  26.573  1.00  0.00     0.023 C 
ENDROOT
BRANCH   1   2
ATOM      2  C   UNL A   1      34.018  27.376  26.333  1.00  0.00     0.116 C 
BRANCH   2   3
ATOM      3  N   UNL A   1      32.571  27.327  26.503  1.00  0.00    -0.352 N 
ATOM      4  C   UNL A   1      31.545  26.473  26.142  1.00  0.00     0.255 C 
ATOM      5  O   UNL A   1      30.487  26.658  26.747  1.00  0.00    -0.269 OA
ATOM      6  H   UNL A   1      32.237  28.106  27.005  1.00  0.00     0.163 HD
BRANCH   4   7
ATOM      7  C   UNL A   1      31.645  25.392  25.115  1.00  0.00     0.084 A 
ATOM      8  C   UNL A   1      31.746  25.681  23.736  1.00  0.00     0.141 A 
ATOM      9  N   UNL A   1      31.748  24.683  22.815  1.00  0.00    -0.236 NA
ATOM     10  C   UNL A   1      31.657  23.399  23.216  1.00  0.00     0.139 A 
ATOM     11  C   UNL A   1      31.519  24.044  25.480  1.00  0.00     0.045 A 
ATOM     12  C   UNL A   1      31.593  23.017  24.539  1.00  0.00     0.060 A 
BRANCH   8  13
ATOM     13  N   UNL A   1      31.839  26.957  23.200  1.00  0.00    -0.357 N 
BRANCH  13  14
ATOM     14  C   UNL A   1      33.166  27.442  22.830  1.00  0.00     0.114 C 
ATOM     15  C   UNL A   1      33.240  28.958  22.876  1.00  0.00     0.027 C 
ENDBRANCH  13  14
BRANCH  13  16
ATOM     16  C   UNL A   1      30.694  27.430  22.412  1.00  0.00     0.114 C 
ATOM     17  C   UNL A   1      29.454  27.761  23.241  1.00  0.00     0.027 C 
ENDBRANCH  13  16
ENDBRANCH   8  13
BRANCH  12  18
ATOM     18  N   UNL A   1      31.552  21.694  25.014  1.00  0.00    -0.321 N 
ATOM     19  C   UNL A   1      32.538  20.780  25.311  1.00  0.00     0.255 C 
ATOM     20  H   UNL A   1      30.639  21.356  25.165  1.00  0.00     0.170 HD
ATOM     21  O   UNL A   1      32.222  19.604  25.491  1.00  0.00    -0.269 OA
BRANCH  19  22
ATOM     22  C   UNL A   1      33.955  21.164  25.484  1.00  0.00     0.040 A 
ATOM     23  C   UNL A   1      34.923  20.455  24.766  1.00  0.00     0.014 A 
ATOM     24  C   UNL A   1      34.346  22.165  26.381  1.00  0.00     0.014 A 
ATOM     25  C   UNL A   1      36.270  20.802  24.885  1.00  0.00     0.004 A 
ATOM     26  C   UNL A   1      35.692  22.522  26.481  1.00  0.00     0.004 A 
ATOM     27  C   UNL A   1      36.661  21.858  25.718  1.00  0.00    -0.051 A 
ATOM     28  C   UNL A   1      38.110  22.233  25.822  1.00  0.00     0.044 C 
ENDBRANCH  19  22
ENDBRANCH  12  18
ENDBRANCH   4   7
ENDBRANCH   2   3
ENDBRANCH   1   2
BRANCH   1  29
ATOM     29  C   UNL A   1      34.005  29.637  27.615  1.00  0.00     0.023 C 
BRANCH  29  30
ATOM     30  C   UNL A   1      34.371  31.119  27.549  1.00  0.00     0.116 C 
BRANCH  30  31
ATOM     31  N   UNL A   1      34.851  31.720  28.787  1.00  0.00    -0.352 N 
ATOM     32  C   UNL A   1      35.807  31.251  29.681  1.00  0.00     0.251 C 
ATOM     33  H   UNL A   1      34.440  32.582  29.024  1.00  0.00     0.163 HD
ATOM     34  O   UNL A   1      35.998  31.831  30.738  1.00  0.00    -0.269 OA
BRANCH  32  35
ATOM     35  C   UNL A   1      36.697  30.125  29.288  1.00  0.00     0.039 A 
ATOM     36  C   UNL A   1      36.869  29.076  30.201  1.00  0.00     0.014 A 
ATOM     37  C   UNL A   1      37.504  30.202  28.158  1.00  0.00     0.014 A 
ATOM     38  C   UNL A   1      38.018  28.291  30.130  1.00  0.00     0.010 A 
ATOM     39  C   UNL A   1      38.693  29.498  28.143  1.00  0.00     0.010 A 
ATOM     40  C   UNL A   1      38.987  28.609  29.181  1.00  0.00    -0.014 A 
BRANCH  40  41
ATOM     41  C   UNL A   1      40.379  28.184  29.284  1.00  0.00     0.031 A 
ATOM     42  C   UNL A   1      40.800  26.844  28.833  1.00  0.00     0.074 A 
ATOM     43  C   UNL A   1      41.310  29.078  29.693  1.00  0.00     0.049 A 
ATOM     44  N   UNL A   1      41.961  26.342  29.087  1.00  0.00    -0.248 NA
ATOM     45  C   UNL A   1      39.919  25.917  28.127  1.00  0.00     0.031 C 
ATOM     46  C   UNL A   1      42.763  28.986  29.554  1.00  0.00     0.029 A 
ATOM     47  N   UNL A   1      41.120  30.169  30.561  1.00  0.00    -0.354 N 
ATOM     48  C   UNL A   1      42.092  25.201  28.339  1.00  0.00     0.074 A 
ATOM     49  C   UNL A   1      40.757  24.903  27.885  1.00  0.00     0.031 C 
ATOM     50  C   UNL A   1      43.337  29.721  30.520  1.00  0.00     0.029 A 
ATOM     51  C   UNL A   1      42.271  30.174  31.392  1.00  0.00     0.049 A 
ATOM     52  H   UNL A   1      40.357  30.790  30.588  1.00  0.00     0.167 HD
ATOM     53  C   UNL A   1      43.346  24.730  28.090  1.00  0.00     0.037 A 
ATOM     54  C   UNL A   1      42.177  29.902  32.726  1.00  0.00     0.037 A 
ATOM     55  C   UNL A   1      44.325  25.309  29.013  1.00  0.00     0.049 A 
ATOM     56  C   UNL A   1      42.993  28.714  33.201  1.00  0.00     0.074 A 
ATOM     57  C   UNL A   1      45.406  26.169  28.917  1.00  0.00     0.029 A 
ATOM     58  N   UNL A   1      44.101  25.141  30.372  1.00  0.00    -0.354 N 
ATOM     59  N   UNL A   1      43.679  27.924  32.423  1.00  0.00    -0.248 NA
ATOM     60  C   UNL A   1      42.994  28.260  34.593  1.00  0.00     0.031 C 
ATOM     61  C   UNL A   1      45.804  26.530  30.244  1.00  0.00     0.029 A 
ATOM     62  C   UNL A   1      44.986  25.868  31.140  1.00  0.00     0.049 A 
ATOM     63  H   UNL A   1      43.392  24.568  30.744  1.00  0.00     0.167 HD
ATOM     64  C   UNL A   1      44.148  26.861  33.151  1.00  0.00     0.074 A 
ATOM     65  C   UNL A   1      43.686  27.114  34.504  1.00  0.00     0.031 C 
ATOM     66  C   UNL A   1      44.834  25.825  32.586  1.00  0.00     0.037 A 
BRANCH  53  67
ATOM     67  C   UNL A   1      43.718  23.822  26.938  1.00  0.00     0.064 A 
ATOM     68  C   UNL A   1      43.272  22.482  26.915  1.00  0.00     0.173 A 
ATOM     69  C   UNL A   1      44.611  24.159  25.896  1.00  0.00     0.173 A 
ATOM     70  F   UNL A   1      42.437  22.011  27.852  1.00  0.00    -0.203 F 
ATOM     71  C   UNL A   1      43.689  21.566  25.941  1.00  0.00     0.198 A 
ATOM     72  C   UNL A   1      44.978  23.260  24.889  1.00  0.00     0.198 A 
ATOM     73  F   UNL A   1      45.225  25.344  25.833  1.00  0.00    -0.203 F 
ATOM     74  F   UNL A   1      43.283  20.290  26.008  1.00  0.00    -0.200 F 
ATOM     75  C   UNL A   1      44.532  21.959  24.920  1.00  0.00     0.200 A 
ATOM     76  F   UNL A   1      45.801  23.665  23.911  1.00  0.00    -0.200 F 
ATOM     77  F   UNL A   1      44.929  21.086  23.985  1.00  0.00    -0.200 F 
ENDBRANCH  53  67
BRANCH  54  78
ATOM     78  C   UNL A   1      40.878  30.330  33.314  1.00  0.00     0.064 A 
ATOM     79  C   UNL A   1      40.652  31.704  33.526  1.00  0.00     0.173 A 
ATOM     80  C   UNL A   1      39.765  29.483  33.325  1.00  0.00     0.173 A 
ATOM     81  F   UNL A   1      41.683  32.565  33.516  1.00  0.00    -0.203 F 
ATOM     82  C   UNL A   1      39.362  32.219  33.623  1.00  0.00     0.198 A 
ATOM     83  C   UNL A   1      38.475  30.001  33.449  1.00  0.00     0.198 A 
ATOM     84  F   UNL A   1      39.907  28.169  33.099  1.00  0.00    -0.203 F 
ATOM     85  F   UNL A   1      39.176  33.546  33.694  1.00  0.00    -0.200 F 
ATOM     86  C   UNL A   1      38.273  31.368  33.560  1.00  0.00     0.200 A 
ATOM     87  F   UNL A   1      37.419  29.179  33.352  1.00  0.00    -0.200 F 
ATOM     88  F   UNL A   1      37.029  31.867  33.556  1.00  0.00    -0.200 F 
ENDBRANCH  54  78
BRANCH  66  89
ATOM     89  C   UNL A   1      45.360  24.643  33.363  1.00  0.00     0.064 A 
ATOM     90  C   UNL A   1      46.700  24.537  33.772  1.00  0.00     0.173 A 
ATOM     91  C   UNL A   1      44.544  23.525  33.645  1.00  0.00     0.173 A 
ATOM     92  F   UNL A   1      47.588  25.496  33.474  1.00  0.00    -0.203 F 
ATOM     93  C   UNL A   1      47.168  23.428  34.483  1.00  0.00     0.198 A 
ATOM     94  C   UNL A   1      45.028  22.396  34.305  1.00  0.00     0.198 A 
ATOM     95  F   UNL A   1      43.245  23.500  33.314  1.00  0.00    -0.203 F 
ATOM     96  F   UNL A   1      48.437  23.402  34.912  1.00  0.00    -0.200 F 
ATOM     97  C   UNL A   1      46.334  22.356  34.743  1.00  0.00     0.200 A 
ATOM     98  F   UNL A   1      44.212  21.354  34.524  1.00  0.00    -0.200 F 
ATOM     99  F   UNL A   1      46.789  21.287  35.412  1.00  0.00    -0.200 F 
ENDBRANCH  66  89
ENDBRANCH  40  41
ENDBRANCH  32  35
ENDBRANCH  30  31
ENDBRANCH  29  30
ENDBRANCH   1  29
TORSDOF 16
ENDMDL
MODEL 2
REMARK VINA RESULT:     -12.1      0.960      2.134
REMARK SMILES CCN(CC)c1ncc(NC(=O)c2ccc(C)cc2)cc1C(=O)NCCCCNC(=O)c1ccc(-c2c3nc(c(-c4c(F)c(F)c(F)c(F)c4F)c4ccc([nH]4)c(-c4c(F)c(F)c(F)c(F)c4F)c4nc(c(-c5c(F)c(F)c(F)c(F)c5F)c5ccc2[nH]5)C=C4)C=C3)cc1
REMARK SMILES IDX 26 1 25 2 24 3 22 4 23 5 21 7 6 8 7 9 8 10 20 11 9 12 3 13
REMARK SMILES IDX 2 14 1 15 4 16 5 17 10 18 11 19 12 21 13 22 14 23 19 24
REMARK SMILES IDX 15 25 18 26 16 27 17 28 27 29 28 30 29 31 30 32 31 34 32 35
REMARK SMILES IDX 33 36 94 37 34 38 93 39 35 40 36 41 37 42 87 43 38 44 92 45
REMARK SMILES IDX 86 46 88 47 39 48 91 49 85 50 84 51 40 53 72 54 52 55 71 56
REMARK SMILES IDX 53 57 56 58 70 59 89 60 54 61 55 62 69 64 90 65 57 66 41 67
REMARK SMILES IDX 42 68 50 69 43 70 44 71 48 72 51 73 45 74 46 75 49 76 47 77
REMARK SMILES IDX 73 78 74 79 82 80 75 81 76 82 80 83 83 84 77 85 78 86 81 87
REMARK SMILES IDX 79 88 58 89 59 90 67 91 60 92 61 93 65 94 68 95 62 96 63 97
REMARK SMILES IDX 66 98 64 99
REMARK H PARENT 24 6 10 20 29 33 88 52 56 63
REMARK Flexibility Score: inf
ROOT
ATOM      1  C   UNL A   1      34.384  29.049  25.993  1.00  0.00     0.023 C 
ENDROOT
BRANCH   1   2
ATOM      2  C   UNL A   1      33.737  27.663  26.006  1.00  0.00     0.116 C 
BRANCH   2   3
ATOM      3  N   UNL A   1      32.373  27.597  26.518  1.00  0.00    -0.352 N 
ATOM      4  C   UNL A   1      31.284  26.759  26.371  1.00  0.00     0.255 C 
ATOM      5  O   UNL A   1      30.405  26.904  27.222  1.00  0.00    -0.269 OA
ATOM      6  H   UNL A   1      32.177  28.346  27.127  1.00  0.00     0.163 HD
BRANCH   4   7
ATOM      7  C   UNL A   1      31.124  25.736  25.292  1.00  0.00     0.084 A 
ATOM      8  C   UNL A   1      30.768  26.093  23.973  1.00  0.00     0.141 A 
ATOM      9  N   UNL A   1      30.543  25.139  23.032  1.00  0.00    -0.236 NA
ATOM     10  C   UNL A   1      30.665  23.836  23.354  1.00  0.00     0.139 A 
ATOM     11  C   UNL A   1      31.205  24.367  25.586  1.00  0.00     0.045 A 
ATOM     12  C   UNL A   1      31.044  23.392  24.602  1.00  0.00     0.060 A 
BRANCH   8  13
ATOM     13  N   UNL A   1      30.606  27.395  23.522  1.00  0.00    -0.357 N 
BRANCH  13  14
ATOM     14  C   UNL A   1      31.660  27.956  22.682  1.00  0.00     0.114 C 
ATOM     15  C   UNL A   1      32.856  27.025  22.587  1.00  0.00     0.027 C 
ENDBRANCH  13  14
BRANCH  13  16
ATOM     16  C   UNL A   1      29.230  27.849  23.288  1.00  0.00     0.114 C 
ATOM     17  C   UNL A   1      29.123  29.132  22.465  1.00  0.00     0.027 C 
ENDBRANCH  13  16
ENDBRANCH   8  13
BRANCH  12  18
ATOM     18  N   UNL A   1      31.239  22.051  24.976  1.00  0.00    -0.321 N 
ATOM     19  C   UNL A   1      32.371  21.295  25.182  1.00  0.00     0.255 C 
ATOM     20  H   UNL A   1      30.400  21.554  25.120  1.00  0.00     0.170 HD
ATOM     21  O   UNL A   1      32.260  20.074  25.278  1.00  0.00    -0.269 OA
BRANCH  19  22
ATOM     22  C   UNL A   1      33.710  21.898  25.353  1.00  0.00     0.040 A 
ATOM     23  C   UNL A   1      34.542  21.989  24.233  1.00  0.00     0.014 A 
ATOM     24  C   UNL A   1      34.178  22.318  26.604  1.00  0.00     0.014 A 
ATOM     25  C   UNL A   1      35.805  22.571  24.348  1.00  0.00     0.004 A 
ATOM     26  C   UNL A   1      35.434  22.919  26.710  1.00  0.00     0.004 A 
ATOM     27  C   UNL A   1      36.248  23.069  25.580  1.00  0.00    -0.051 A 
ATOM     28  C   UNL A   1      37.599  23.711  25.686  1.00  0.00     0.044 C 
ENDBRANCH  19  22
ENDBRANCH  12  18
ENDBRANCH   4   7
ENDBRANCH   2   3
ENDBRANCH   1   2
BRANCH   1  29
ATOM     29  C   UNL A   1      33.512  30.206  26.494  1.00  0.00     0.023 C 
BRANCH  29  30
ATOM     30  C   UNL A   1      33.813  30.705  27.906  1.00  0.00     0.116 C 
BRANCH  30  31
ATOM     31  N   UNL A   1      34.717  31.845  28.008  1.00  0.00    -0.352 N 
ATOM     32  C   UNL A   1      36.065  31.871  28.345  1.00  0.00     0.251 C 
ATOM     33  H   UNL A   1      34.315  32.721  27.810  1.00  0.00     0.163 HD
ATOM     34  O   UNL A   1      36.640  32.938  28.501  1.00  0.00    -0.269 OA
BRANCH  32  35
ATOM     35  C   UNL A   1      36.844  30.604  28.377  1.00  0.00     0.039 A 
ATOM     36  C   UNL A   1      37.055  29.995  29.621  1.00  0.00     0.014 A 
ATOM     37  C   UNL A   1      37.529  30.148  27.255  1.00  0.00     0.014 A 
ATOM     38  C   UNL A   1      38.145  29.143  29.788  1.00  0.00     0.010 A 
ATOM     39  C   UNL A   1      38.669  29.389  27.438  1.00  0.00     0.010 A 
ATOM     40  C   UNL A   1      39.023  28.963  28.723  1.00  0.00    -0.014 A 
BRANCH  40  41
ATOM     41  C   UNL A   1      40.392  28.486  28.883  1.00  0.00     0.031 A 
ATOM     42  C   UNL A   1      40.737  27.071  28.650  1.00  0.00     0.074 A 
ATOM     43  C   UNL A   1      41.374  29.383  29.139  1.00  0.00     0.049 A 
ATOM     44  N   UNL A   1      41.873  26.555  28.974  1.00  0.00    -0.248 NA
ATOM     45  C   UNL A   1      39.798  26.092  28.106  1.00  0.00     0.031 C 
ATOM     46  C   UNL A   1      42.819  29.193  29.007  1.00  0.00     0.029 A 
ATOM     47  N   UNL A   1      41.254  30.607  29.822  1.00  0.00    -0.354 N 
ATOM     48  C   UNL A   1      41.934  25.304  28.417  1.00  0.00     0.074 A 
ATOM     49  C   UNL A   1      40.579  25.009  28.025  1.00  0.00     0.031 C 
ATOM     50  C   UNL A   1      43.444  30.040  29.840  1.00  0.00     0.029 A 
ATOM     51  C   UNL A   1      42.415  30.683  30.634  1.00  0.00     0.049 A 
ATOM     52  H   UNL A   1      40.525  31.265  29.754  1.00  0.00     0.167 HD
ATOM     53  C   UNL A   1      43.157  24.733  28.239  1.00  0.00     0.037 A 
ATOM     54  C   UNL A   1      42.328  30.632  31.995  1.00  0.00     0.037 A 
ATOM     55  C   UNL A   1      44.179  25.398  29.052  1.00  0.00     0.049 A 
ATOM     56  C   UNL A   1      43.087  29.493  32.649  1.00  0.00     0.074 A 
ATOM     57  C   UNL A   1      45.301  26.172  28.813  1.00  0.00     0.029 A 
ATOM     58  N   UNL A   1      43.967  25.461  30.421  1.00  0.00    -0.354 N 
ATOM     59  N   UNL A   1      43.720  28.554  32.003  1.00  0.00    -0.248 NA
ATOM     60  C   UNL A   1      43.084  29.267  34.096  1.00  0.00     0.031 C 
ATOM     61  C   UNL A   1      45.737  26.718  30.062  1.00  0.00     0.029 A 
ATOM     62  C   UNL A   1      44.899  26.252  31.058  1.00  0.00     0.049 A 
ATOM     63  H   UNL A   1      43.234  24.993  30.885  1.00  0.00     0.167 HD
ATOM     64  C   UNL A   1      44.143  27.597  32.889  1.00  0.00     0.074 A 
ATOM     65  C   UNL A   1      43.715  28.086  34.187  1.00  0.00     0.031 C 
ATOM     66  C   UNL A   1      44.766  26.448  32.493  1.00  0.00     0.037 A 
BRANCH  53  67
ATOM     67  C   UNL A   1      43.465  23.633  27.245  1.00  0.00     0.064 A 
ATOM     68  C   UNL A   1      44.149  23.931  26.044  1.00  0.00     0.173 A 
ATOM     69  C   UNL A   1      43.010  22.300  27.343  1.00  0.00     0.173 A 
ATOM     70  F   UNL A   1      44.622  25.160  25.801  1.00  0.00    -0.203 F 
ATOM     71  C   UNL A   1      44.348  22.979  25.036  1.00  0.00     0.198 A 
ATOM     72  C   UNL A   1      43.264  21.335  26.363  1.00  0.00     0.198 A 
ATOM     73  F   UNL A   1      42.243  21.877  28.353  1.00  0.00    -0.203 F 
ATOM     74  F   UNL A   1      44.946  23.336  23.891  1.00  0.00    -0.200 F 
ATOM     75  C   UNL A   1      43.917  21.677  25.202  1.00  0.00     0.200 A 
ATOM     76  F   UNL A   1      42.831  20.079  26.545  1.00  0.00    -0.200 F 
ATOM     77  F   UNL A   1      44.110  20.765  24.241  1.00  0.00    -0.200 F 
ENDBRANCH  53  67
BRANCH  54  78
ATOM     78  C   UNL A   1      41.061  31.217  32.515  1.00  0.00     0.064 A 
ATOM     79  C   UNL A   1      40.008  30.347  32.863  1.00  0.00     0.173 A 
ATOM     80  C   UNL A   1      41.003  32.528  33.000  1.00  0.00     0.173 A 
ATOM     81  F   UNL A   1      40.017  29.074  32.433  1.00  0.00    -0.203 F 
ATOM     82  C   UNL A   1      39.011  30.737  33.753  1.00  0.00     0.198 A 
ATOM     83  C   UNL A   1      39.986  32.922  33.871  1.00  0.00     0.198 A 
ATOM     84  F   UNL A   1      41.987  33.397  32.731  1.00  0.00    -0.203 F 
ATOM     85  F   UNL A   1      38.098  29.846  34.165  1.00  0.00    -0.200 F 
ATOM     86  C   UNL A   1      39.015  32.018  34.275  1.00  0.00     0.200 A 
ATOM     87  F   UNL A   1      40.011  34.152  34.404  1.00  0.00    -0.200 F 
ATOM     88  F   UNL A   1      38.115  32.369  35.205  1.00  0.00    -0.200 F 
ENDBRANCH  54  78
BRANCH  66  89
ATOM     89  C   UNL A   1      45.241  25.379  33.445  1.00  0.00     0.064 A 
ATOM     90  C   UNL A   1      44.362  24.601  34.216  1.00  0.00     0.173 A 
ATOM     91  C   UNL A   1      46.618  25.164  33.683  1.00  0.00     0.173 A 
ATOM     92  F   UNL A   1      43.036  24.786  34.144  1.00  0.00    -0.203 F 
ATOM     93  C   UNL A   1      44.825  23.622  35.100  1.00  0.00     0.198 A 
ATOM     94  C   UNL A   1      47.077  24.225  34.607  1.00  0.00     0.198 A 
ATOM     95  F   UNL A   1      47.562  25.836  33.010  1.00  0.00    -0.203 F 
ATOM     96  F   UNL A   1      43.947  22.856  35.763  1.00  0.00    -0.200 F 
ATOM     97  C   UNL A   1      46.181  23.439  35.300  1.00  0.00     0.200 A 
ATOM     98  F   UNL A   1      48.395  24.081  34.808  1.00  0.00    -0.200 F 
ATOM     99  F   UNL A   1      46.623  22.510  36.158  1.00  0.00    -0.200 F 
ENDBRANCH  66  89
ENDBRANCH  40  41
ENDBRANCH  32  35
ENDBRANCH  30  31
ENDBRANCH  29  30
ENDBRANCH   1  29
TORSDOF 16
ENDMDL
MODEL 3
REMARK VINA RESULT:     -12.0      2.240      4.393
REMARK SMILES CCN(CC)c1ncc(NC(=O)c2ccc(C)cc2)cc1C(=O)NCCCCNC(=O)c1ccc(-c2c3nc(c(-c4c(F)c(F)c(F)c(F)c4F)c4ccc([nH]4)c(-c4c(F)c(F)c(F)c(F)c4F)c4nc(c(-c5c(F)c(F)c(F)c(F)c5F)c5ccc2[nH]5)C=C4)C=C3)cc1
REMARK SMILES IDX 26 1 25 2 24 3 22 4 23 5 21 7 6 8 7 9 8 10 20 11 9 12 3 13
REMARK SMILES IDX 2 14 1 15 4 16 5 17 10 18 11 19 12 21 13 22 14 23 19 24
REMARK SMILES IDX 15 25 18 26 16 27 17 28 27 29 28 30 29 31 30 32 31 34 32 35
REMARK SMILES IDX 33 36 94 37 34 38 93 39 35 40 36 41 37 42 87 43 38 44 92 45
REMARK SMILES IDX 86 46 88 47 39 48 91 49 85 50 84 51 40 53 72 54 52 55 71 56
REMARK SMILES IDX 53 57 56 58 70 59 89 60 54 61 55 62 69 64 90 65 57 66 41 67
REMARK SMILES IDX 42 68 50 69 43 70 44 71 48 72 51 73 45 74 46 75 49 76 47 77
REMARK SMILES IDX 73 78 74 79 82 80 75 81 76 82 80 83 83 84 77 85 78 86 81 87
REMARK SMILES IDX 79 88 58 89 59 90 67 91 60 92 61 93 65 94 68 95 62 96 63 97
REMARK SMILES IDX 66 98 64 99
REMARK H PARENT 24 6 10 20 29 33 88 52 56 63
REMARK Flexibility Score: inf
ROOT
ATOM      1  C   UNL A   1      33.528  27.854  26.892  1.00  0.00     0.023 C 
ENDROOT
BRANCH   1   2
ATOM      2  C   UNL A   1      33.469  26.672  25.923  1.00  0.00     0.116 C 
BRANCH   2   3
ATOM      3  N   UNL A   1      34.546  25.697  26.036  1.00  0.00    -0.352 N 
ATOM      4  C   UNL A   1      34.967  24.580  25.339  1.00  0.00     0.255 C 
ATOM      5  O   UNL A   1      36.112  24.210  25.605  1.00  0.00    -0.269 OA
ATOM      6  H   UNL A   1      35.125  25.881  26.811  1.00  0.00     0.163 HD
BRANCH   4   7
ATOM      7  C   UNL A   1      34.153  23.837  24.329  1.00  0.00     0.084 A 
ATOM      8  C   UNL A   1      33.765  22.493  24.527  1.00  0.00     0.141 A 
ATOM      9  N   UNL A   1      33.100  21.811  23.558  1.00  0.00    -0.236 NA
ATOM     10  C   UNL A   1      32.800  22.421  22.394  1.00  0.00     0.139 A 
ATOM     11  C   UNL A   1      33.847  24.416  23.089  1.00  0.00     0.045 A 
ATOM     12  C   UNL A   1      33.103  23.738  22.124  1.00  0.00     0.060 A 
BRANCH   8  13
ATOM     13  N   UNL A   1      34.020  21.757  25.675  1.00  0.00    -0.357 N 
BRANCH  13  14
ATOM     14  C   UNL A   1      32.988  21.733  26.708  1.00  0.00     0.114 C 
ATOM     15  C   UNL A   1      33.381  22.573  27.911  1.00  0.00     0.027 C 
ENDBRANCH  13  14
BRANCH  13  16
ATOM     16  C   UNL A   1      34.865  20.566  25.525  1.00  0.00     0.114 C 
ATOM     17  C   UNL A   1      36.263  20.851  24.980  1.00  0.00     0.027 C 
ENDBRANCH  13  16
ENDBRANCH   8  13
BRANCH  12  18
ATOM     18  N   UNL A   1      32.766  24.438  20.952  1.00  0.00    -0.321 N 
ATOM     19  C   UNL A   1      32.094  25.619  20.732  1.00  0.00     0.255 C 
ATOM     20  H   UNL A   1      33.072  23.996  20.125  1.00  0.00     0.170 HD
ATOM     21  O   UNL A   1      31.730  25.891  19.588  1.00  0.00    -0.269 OA
BRANCH  19  22
ATOM     22  C   UNL A   1      31.845  26.605  21.805  1.00  0.00     0.040 A 
ATOM     23  C   UNL A   1      32.781  27.627  21.993  1.00  0.00     0.014 A 
ATOM     24  C   UNL A   1      30.742  26.505  22.661  1.00  0.00     0.014 A 
ATOM     25  C   UNL A   1      32.572  28.591  22.981  1.00  0.00     0.004 A 
ATOM     26  C   UNL A   1      30.526  27.482  23.634  1.00  0.00     0.004 A 
ATOM     27  C   UNL A   1      31.427  28.544  23.787  1.00  0.00    -0.051 A 
ATOM     28  C   UNL A   1      31.204  29.596  24.832  1.00  0.00     0.044 C 
ENDBRANCH  19  22
ENDBRANCH  12  18
ENDBRANCH   4   7
ENDBRANCH   2   3
ENDBRANCH   1   2
BRANCH   1  29
ATOM     29  C   UNL A   1      34.447  29.013  26.488  1.00  0.00     0.023 C 
BRANCH  29  30
ATOM     30  C   UNL A   1      34.856  29.963  27.613  1.00  0.00     0.116 C 
BRANCH  30  31
ATOM     31  N   UNL A   1      34.109  31.212  27.706  1.00  0.00    -0.352 N 
ATOM     32  C   UNL A   1      34.347  32.322  28.507  1.00  0.00     0.251 C 
ATOM     33  H   UNL A   1      33.323  31.278  27.117  1.00  0.00     0.163 HD
ATOM     34  O   UNL A   1      33.540  33.239  28.543  1.00  0.00    -0.269 OA
BRANCH  32  35
ATOM     35  C   UNL A   1      35.650  32.460  29.210  1.00  0.00     0.039 A 
ATOM     36  C   UNL A   1      36.690  33.121  28.542  1.00  0.00     0.014 A 
ATOM     37  C   UNL A   1      35.910  31.775  30.393  1.00  0.00     0.014 A 
ATOM     38  C   UNL A   1      38.010  32.851  28.898  1.00  0.00     0.010 A 
ATOM     39  C   UNL A   1      37.214  31.424  30.683  1.00  0.00     0.010 A 
ATOM     40  C   UNL A   1      38.257  31.892  29.876  1.00  0.00    -0.014 A 
BRANCH  40  41
ATOM     41  C   UNL A   1      39.536  31.206  30.023  1.00  0.00     0.031 A 
ATOM     42  C   UNL A   1      39.714  29.820  29.553  1.00  0.00     0.074 A 
ATOM     43  C   UNL A   1      40.600  31.897  30.494  1.00  0.00     0.049 A 
ATOM     44  N   UNL A   1      40.745  29.100  29.840  1.00  0.00    -0.248 NA
ATOM     45  C   UNL A   1      38.706  29.093  28.786  1.00  0.00     0.031 C 
ATOM     46  C   UNL A   1      42.015  31.532  30.412  1.00  0.00     0.029 A 
ATOM     47  N   UNL A   1      40.583  32.988  31.384  1.00  0.00    -0.354 N 
ATOM     48  C   UNL A   1      40.691  27.970  29.066  1.00  0.00     0.074 A 
ATOM     49  C   UNL A   1      39.345  27.942  28.551  1.00  0.00     0.031 C 
ATOM     50  C   UNL A   1      42.674  32.124  31.420  1.00  0.00     0.029 A 
ATOM     51  C   UNL A   1      41.675  32.756  32.260  1.00  0.00     0.049 A 
ATOM     52  H   UNL A   1      39.952  33.743  31.397  1.00  0.00     0.167 HD
ATOM     53  C   UNL A   1      41.841  27.273  28.856  1.00  0.00     0.037 A 
ATOM     54  C   UNL A   1      41.472  32.481  33.582  1.00  0.00     0.037 A 
ATOM     55  C   UNL A   1      42.871  27.635  29.833  1.00  0.00     0.049 A 
ATOM     56  C   UNL A   1      42.023  31.150  34.056  1.00  0.00     0.074 A 
ATOM     57  C   UNL A   1      44.098  28.273  29.805  1.00  0.00     0.029 A 
ATOM     58  N   UNL A   1      42.558  27.487  31.176  1.00  0.00    -0.354 N 
ATOM     59  N   UNL A   1      42.581  30.258  33.285  1.00  0.00    -0.248 NA
ATOM     60  C   UNL A   1      41.875  30.677  35.434  1.00  0.00     0.031 C 
ATOM     61  C   UNL A   1      44.498  28.526  31.156  1.00  0.00     0.029 A 
ATOM     62  C   UNL A   1      43.529  28.016  32.000  1.00  0.00     0.049 A 
ATOM     63  H   UNL A   1      41.737  27.053  31.504  1.00  0.00     0.167 HD
ATOM     64  C   UNL A   1      42.806  29.111  34.002  1.00  0.00     0.074 A 
ATOM     65  C   UNL A   1      42.340  29.421  35.342  1.00  0.00     0.031 C 
ATOM     66  C   UNL A   1      43.307  27.974  33.437  1.00  0.00     0.037 A 
BRANCH  53  67
ATOM     67  C   UNL A   1      42.086  26.332  27.694  1.00  0.00     0.064 A 
ATOM     68  C   UNL A   1      41.466  25.063  27.664  1.00  0.00     0.173 A 
ATOM     69  C   UNL A   1      43.010  26.557  26.650  1.00  0.00     0.173 A 
ATOM     70  F   UNL A   1      40.581  24.699  28.602  1.00  0.00    -0.203 F 
ATOM     71  C   UNL A   1      41.755  24.108  26.681  1.00  0.00     0.198 A 
ATOM     72  C   UNL A   1      43.251  25.626  25.635  1.00  0.00     0.198 A 
ATOM     73  F   UNL A   1      43.774  27.652  26.592  1.00  0.00    -0.203 F 
ATOM     74  F   UNL A   1      41.185  22.896  26.741  1.00  0.00    -0.200 F 
ATOM     75  C   UNL A   1      42.637  24.395  25.658  1.00  0.00     0.200 A 
ATOM     76  F   UNL A   1      44.116  25.926  24.654  1.00  0.00    -0.200 F 
ATOM     77  F   UNL A   1      42.912  23.485  24.715  1.00  0.00    -0.200 F 
ENDBRANCH  53  67
BRANCH  54  78
ATOM     78  C   UNL A   1      40.252  33.138  34.128  1.00  0.00     0.064 A 
ATOM     79  C   UNL A   1      39.055  32.396  34.189  1.00  0.00     0.173 A 
ATOM     80  C   UNL A   1      40.329  34.305  34.895  1.00  0.00     0.173 A 
ATOM     81  F   UNL A   1      38.930  31.262  33.480  1.00  0.00    -0.203 F 
ATOM     82  C   UNL A   1      38.034  32.742  35.070  1.00  0.00     0.198 A 
ATOM     83  C   UNL A   1      39.291  34.662  35.757  1.00  0.00     0.198 A 
ATOM     84  F   UNL A   1      41.450  35.040  34.906  1.00  0.00    -0.203 F 
ATOM     85  F   UNL A   1      36.965  31.943  35.198  1.00  0.00    -0.200 F 
ATOM     86  C   UNL A   1      38.163  33.862  35.871  1.00  0.00     0.200 A 
ATOM     87  F   UNL A   1      39.433  35.728  36.559  1.00  0.00    -0.200 F 
ATOM     88  F   UNL A   1      37.228  34.146  36.788  1.00  0.00    -0.200 F 
ENDBRANCH  54  78
BRANCH  66  89
ATOM     89  C   UNL A   1      43.563  26.699  34.201  1.00  0.00     0.064 A 
ATOM     90  C   UNL A   1      44.846  26.150  34.357  1.00  0.00     0.173 A 
ATOM     91  C   UNL A   1      42.500  25.931  34.729  1.00  0.00     0.173 A 
ATOM     92  F   UNL A   1      45.919  26.742  33.813  1.00  0.00    -0.203 F 
ATOM     93  C   UNL A   1      45.059  24.961  35.062  1.00  0.00     0.198 A 
ATOM     94  C   UNL A   1      42.711  24.717  35.383  1.00  0.00     0.198 A 
ATOM     95  F   UNL A   1      41.227  26.344  34.653  1.00  0.00    -0.203 F 
ATOM     96  F   UNL A   1      46.308  24.512  35.244  1.00  0.00    -0.200 F 
ATOM     97  C   UNL A   1      43.991  24.242  35.568  1.00  0.00     0.200 A 
ATOM     98  F   UNL A   1      41.661  24.020  35.843  1.00  0.00    -0.200 F 
ATOM     99  F   UNL A   1      44.196  23.096  36.231  1.00  0.00    -0.200 F 
ENDBRANCH  66  89
ENDBRANCH  40  41
ENDBRANCH  32  35
ENDBRANCH  30  31
ENDBRANCH  29  30
ENDBRANCH   1  29
TORSDOF 16
ENDMDL
