MODEL 1
REMARK VINA RESULT:     -12.8      0.000      0.000
REMARK SMILES O=C(NCCCCNC(=O)[C@H]1C[NH2+]C[C@H]1c1ccc(C2CC2)cc1)c1ccc(-c2c3nc(c(-c4c(F)c(F)c(F)c(F)c4F)c4ccc([nH]4)c(-c4c(F)c(F)c(F)c(F)c4F)c4nc(c(-c5c(F)c(F)c(F)c(F)c5F)c5ccc2[nH]5)C=C4)C=C3)cc1
REMARK SMILES IDX 5 1 4 2 3 3 1 4 2 5 25 7 26 8 87 9 27 10 86 11 28 12 29 13
REMARK SMILES IDX 30 14 80 15 31 16 85 17 79 18 81 19 32 20 84 21 78 22 77 23
REMARK SMILES IDX 33 25 65 26 45 27 64 28 46 29 49 30 63 31 82 32 47 33 48 34
REMARK SMILES IDX 62 36 83 37 50 38 34 39 35 40 43 41 36 42 37 43 41 44 44 45
REMARK SMILES IDX 38 46 39 47 42 48 40 49 66 50 67 51 75 52 68 53 69 54 73 55
REMARK SMILES IDX 76 56 70 57 71 58 74 59 72 60 51 61 52 62 60 63 53 64 54 65
REMARK SMILES IDX 58 66 61 67 55 68 56 69 59 70 57 71 6 72 7 73 8 74 9 75
REMARK SMILES IDX 10 77 11 78 12 79 15 80 13 81 14 82 16 85 17 86 24 87 18 88
REMARK SMILES IDX 23 89 19 90 20 91 21 92 22 93
REMARK H PARENT 3 6 81 24 49 35 8 76 13 83 13 84
REMARK Flexibility Score: inf
ROOT
ATOM      1  C   UNL A   1      37.948  19.583  24.987  1.00  0.00     0.023 C 
ENDROOT
BRANCH   1   2
ATOM      2  C   UNL A   1      39.154  20.107  25.743  1.00  0.00     0.116 C 
BRANCH   2   3
ATOM      3  N   UNL A   1      40.200  19.104  25.883  1.00  0.00    -0.352 N 
ATOM      4  O   UNL A   1      42.324  18.346  26.021  1.00  0.00    -0.269 OA
ATOM      5  C   UNL A   1      41.542  19.288  26.101  1.00  0.00     0.251 C 
ATOM      6  H   UNL A   1      39.904  18.168  25.812  1.00  0.00     0.163 HD
BRANCH   5   7
ATOM      7  C   UNL A   1      42.039  20.640  26.422  1.00  0.00     0.039 A 
ATOM      8  C   UNL A   1      42.289  21.558  25.398  1.00  0.00     0.014 A 
ATOM      9  C   UNL A   1      42.257  20.992  27.757  1.00  0.00     0.014 A 
ATOM     10  C   UNL A   1      42.876  22.778  25.694  1.00  0.00     0.010 A 
ATOM     11  C   UNL A   1      42.756  22.260  28.061  1.00  0.00     0.010 A 
ATOM     12  C   UNL A   1      43.076  23.157  27.029  1.00  0.00    -0.014 A 
BRANCH  12  13
ATOM     13  C   UNL A   1      43.484  24.549  27.324  1.00  0.00     0.031 A 
ATOM     14  C   UNL A   1      42.510  25.558  27.850  1.00  0.00     0.074 A 
ATOM     15  C   UNL A   1      44.768  24.885  27.091  1.00  0.00     0.049 A 
ATOM     16  N   UNL A   1      42.706  26.825  28.115  1.00  0.00    -0.248 NA
ATOM     17  C   UNL A   1      41.137  25.097  28.109  1.00  0.00     0.031 C 
ATOM     18  C   UNL A   1      45.790  23.977  26.559  1.00  0.00     0.029 A 
ATOM     19  N   UNL A   1      45.438  26.067  27.267  1.00  0.00    -0.354 N 
ATOM     20  C   UNL A   1      41.482  27.319  28.544  1.00  0.00     0.074 A 
ATOM     21  C   UNL A   1      40.543  26.218  28.500  1.00  0.00     0.031 C 
ATOM     22  C   UNL A   1      46.958  24.626  26.475  1.00  0.00     0.029 A 
ATOM     23  C   UNL A   1      46.753  26.012  26.873  1.00  0.00     0.049 A 
ATOM     24  H   UNL A   1      45.018  26.876  27.638  1.00  0.00     0.167 HD
ATOM     25  C   UNL A   1      41.183  28.580  28.937  1.00  0.00     0.037 A 
ATOM     26  C   UNL A   1      47.682  26.981  26.798  1.00  0.00     0.037 A 
ATOM     27  C   UNL A   1      42.140  29.654  29.004  1.00  0.00     0.049 A 
ATOM     28  C   UNL A   1      47.306  28.372  27.214  1.00  0.00     0.074 A 
ATOM     29  C   UNL A   1      41.960  30.941  29.480  1.00  0.00     0.029 A 
ATOM     30  N   UNL A   1      43.456  29.570  28.571  1.00  0.00    -0.354 N 
ATOM     31  N   UNL A   1      46.163  28.810  27.683  1.00  0.00    -0.248 NA
ATOM     32  C   UNL A   1      48.338  29.405  27.077  1.00  0.00     0.031 C 
ATOM     33  C   UNL A   1      43.147  31.652  29.280  1.00  0.00     0.029 A 
ATOM     34  C   UNL A   1      44.083  30.796  28.724  1.00  0.00     0.049 A 
ATOM     35  H   UNL A   1      43.881  28.760  28.208  1.00  0.00     0.167 HD
ATOM     36  C   UNL A   1      46.338  30.168  27.899  1.00  0.00     0.074 A 
ATOM     37  C   UNL A   1      47.707  30.475  27.540  1.00  0.00     0.031 C 
ATOM     38  C   UNL A   1      45.443  31.080  28.346  1.00  0.00     0.037 A 
BRANCH  25  39
ATOM     39  C   UNL A   1      39.765  28.893  29.309  1.00  0.00     0.064 A 
ATOM     40  C   UNL A   1      38.826  29.316  28.358  1.00  0.00     0.173 A 
ATOM     41  C   UNL A   1      39.316  28.666  30.620  1.00  0.00     0.173 A 
ATOM     42  F   UNL A   1      39.206  29.552  27.093  1.00  0.00    -0.203 F 
ATOM     43  C   UNL A   1      37.490  29.502  28.706  1.00  0.00     0.198 A 
ATOM     44  C   UNL A   1      37.975  28.833  30.959  1.00  0.00     0.198 A 
ATOM     45  F   UNL A   1      40.173  28.255  31.566  1.00  0.00    -0.203 F 
ATOM     46  F   UNL A   1      36.612  29.921  27.784  1.00  0.00    -0.200 F 
ATOM     47  C   UNL A   1      37.063  29.251  30.002  1.00  0.00     0.200 A 
ATOM     48  F   UNL A   1      37.564  28.577  32.209  1.00  0.00    -0.200 F 
ATOM     49  F   UNL A   1      35.774  29.411  30.329  1.00  0.00    -0.200 F 
ENDBRANCH  25  39
BRANCH  26  50
ATOM     50  C   UNL A   1      49.031  26.671  26.260  1.00  0.00     0.064 A 
ATOM     51  C   UNL A   1      50.022  26.103  27.069  1.00  0.00     0.173 A 
ATOM     52  C   UNL A   1      49.353  26.935  24.920  1.00  0.00     0.173 A 
ATOM     53  F   UNL A   1      49.767  25.849  28.362  1.00  0.00    -0.203 F 
ATOM     54  C   UNL A   1      51.291  25.829  26.564  1.00  0.00     0.198 A 
ATOM     55  C   UNL A   1      50.610  26.628  24.407  1.00  0.00     0.198 A 
ATOM     56  F   UNL A   1      48.436  27.472  24.101  1.00  0.00    -0.203 F 
ATOM     57  F   UNL A   1      52.236  25.328  27.372  1.00  0.00    -0.200 F 
ATOM     58  C   UNL A   1      51.582  26.085  25.232  1.00  0.00     0.200 A 
ATOM     59  F   UNL A   1      50.880  26.861  23.116  1.00  0.00    -0.200 F 
ATOM     60  F   UNL A   1      52.801  25.816  24.746  1.00  0.00    -0.200 F 
ENDBRANCH  26  50
BRANCH  38  61
ATOM     61  C   UNL A   1      45.920  32.496  28.463  1.00  0.00     0.064 A 
ATOM     62  C   UNL A   1      46.540  32.959  29.633  1.00  0.00     0.173 A 
ATOM     63  C   UNL A   1      45.786  33.387  27.389  1.00  0.00     0.173 A 
ATOM     64  F   UNL A   1      46.670  32.149  30.694  1.00  0.00    -0.203 F 
ATOM     65  C   UNL A   1      46.995  34.271  29.729  1.00  0.00     0.198 A 
ATOM     66  C   UNL A   1      46.268  34.689  27.478  1.00  0.00     0.198 A 
ATOM     67  F   UNL A   1      45.201  32.990  26.249  1.00  0.00    -0.203 F 
ATOM     68  F   UNL A   1      47.545  34.705  30.870  1.00  0.00    -0.200 F 
ATOM     69  C   UNL A   1      46.865  35.132  28.649  1.00  0.00     0.200 A 
ATOM     70  F   UNL A   1      46.152  35.518  26.431  1.00  0.00    -0.200 F 
ATOM     71  F   UNL A   1      47.311  36.392  28.740  1.00  0.00    -0.200 F 
ENDBRANCH  38  61
ENDBRANCH  12  13
ENDBRANCH   5   7
ENDBRANCH   2   3
ENDBRANCH   1   2
BRANCH   1  72
ATOM     72  C   UNL A   1      36.754  20.528  24.983  1.00  0.00     0.023 C 
BRANCH  72  73
ATOM     73  C   UNL A   1      37.097  22.013  24.919  1.00  0.00     0.116 C 
BRANCH  73  74
ATOM     74  N   UNL A   1      36.415  22.679  23.825  1.00  0.00    -0.356 N 
ATOM     75  C   UNL A   1      35.281  23.435  23.815  1.00  0.00     0.229 C 
ATOM     76  H   UNL A   1      36.842  22.564  22.946  1.00  0.00     0.163 HD
ATOM     77  O   UNL A   1      34.880  23.847  22.723  1.00  0.00    -0.275 OA
BRANCH  75  78
ATOM     78  C   UNL A   1      34.573  23.776  25.120  1.00  0.00     0.146 C 
ATOM     79  C   UNL A   1      34.376  25.284  25.213  1.00  0.00     0.274 C 
ATOM     80  C   UNL A   1      33.140  23.245  25.222  1.00  0.00     0.092 C 
ATOM     81  N   UNL A   1      33.101  25.593  24.554  1.00  0.00    -0.345 N 
ATOM     82  C   UNL A   1      32.295  24.356  24.577  1.00  0.00     0.269 C 
ATOM     83  H   UNL A   1      33.267  25.885  23.591  1.00  0.00     0.346 HD
ATOM     84  H   UNL A   1      32.617  26.353  25.032  1.00  0.00     0.346 HD
BRANCH  80  85
ATOM     85  C   UNL A   1      32.938  21.808  24.780  1.00  0.00    -0.038 A 
ATOM     86  C   UNL A   1      32.465  21.448  23.517  1.00  0.00     0.004 A 
ATOM     87  C   UNL A   1      33.265  20.769  25.662  1.00  0.00     0.004 A 
ATOM     88  C   UNL A   1      32.390  20.103  23.128  1.00  0.00     0.004 A 
ATOM     89  C   UNL A   1      33.187  19.423  25.265  1.00  0.00     0.004 A 
ATOM     90  C   UNL A   1      32.785  19.055  23.973  1.00  0.00    -0.045 A 
BRANCH  90  91
ATOM     91  C   UNL A   1      32.789  17.631  23.449  1.00  0.00     0.019 C 
ATOM     92  C   UNL A   1      34.072  16.959  23.019  1.00  0.00     0.009 C 
ATOM     93  C   UNL A   1      33.356  16.490  24.254  1.00  0.00     0.009 C 
ENDBRANCH  90  91
ENDBRANCH  80  85
ENDBRANCH  75  78
ENDBRANCH  73  74
ENDBRANCH  72  73
ENDBRANCH   1  72
TORSDOF 13
ENDMDL
MODEL 2
REMARK VINA RESULT:     -12.8      5.970     11.478
REMARK SMILES O=C(NCCCCNC(=O)[C@H]1C[NH2+]C[C@H]1c1ccc(C2CC2)cc1)c1ccc(-c2c3nc(c(-c4c(F)c(F)c(F)c(F)c4F)c4ccc([nH]4)c(-c4c(F)c(F)c(F)c(F)c4F)c4nc(c(-c5c(F)c(F)c(F)c(F)c5F)c5ccc2[nH]5)C=C4)C=C3)cc1
REMARK SMILES IDX 5 1 4 2 3 3 1 4 2 5 25 7 26 8 87 9 27 10 86 11 28 12 29 13
REMARK SMILES IDX 30 14 80 15 31 16 85 17 79 18 81 19 32 20 84 21 78 22 77 23
REMARK SMILES IDX 33 25 65 26 45 27 64 28 46 29 49 30 63 31 82 32 47 33 48 34
REMARK SMILES IDX 62 36 83 37 50 38 34 39 35 40 43 41 36 42 37 43 41 44 44 45
REMARK SMILES IDX 38 46 39 47 42 48 40 49 66 50 67 51 75 52 68 53 69 54 73 55
REMARK SMILES IDX 76 56 70 57 71 58 74 59 72 60 51 61 52 62 60 63 53 64 54 65
REMARK SMILES IDX 58 66 61 67 55 68 56 69 59 70 57 71 6 72 7 73 8 74 9 75
REMARK SMILES IDX 10 77 11 78 12 79 15 80 13 81 14 82 16 85 17 86 24 87 18 88
REMARK SMILES IDX 23 89 19 90 20 91 21 92 22 93
REMARK H PARENT 3 6 81 24 49 35 8 76 13 83 13 84
REMARK Flexibility Score: inf
ROOT
ATOM      1  C   UNL A   1      31.345  31.927  26.491  1.00  0.00     0.023 C 
ENDROOT
BRANCH   1   2
ATOM      2  C   UNL A   1      32.556  32.520  27.187  1.00  0.00     0.116 C 
BRANCH   2   3
ATOM      3  N   UNL A   1      32.368  33.922  27.528  1.00  0.00    -0.352 N 
ATOM      4  O   UNL A   1      32.634  35.797  28.761  1.00  0.00    -0.269 OA
ATOM      5  C   UNL A   1      33.028  34.672  28.470  1.00  0.00     0.251 C 
ATOM      6  H   UNL A   1      31.676  34.397  27.014  1.00  0.00     0.163 HD
BRANCH   5   7
ATOM      7  C   UNL A   1      34.213  34.103  29.141  1.00  0.00     0.039 A 
ATOM      8  C   UNL A   1      34.055  33.205  30.200  1.00  0.00     0.014 A 
ATOM      9  C   UNL A   1      35.489  34.471  28.709  1.00  0.00     0.014 A 
ATOM     10  C   UNL A   1      35.165  32.774  30.909  1.00  0.00     0.010 A 
ATOM     11  C   UNL A   1      36.611  33.956  29.361  1.00  0.00     0.010 A 
ATOM     12  C   UNL A   1      36.454  33.112  30.471  1.00  0.00    -0.014 A 
BRANCH  12  13
ATOM     13  C   UNL A   1      37.620  32.452  31.102  1.00  0.00     0.031 A 
ATOM     14  C   UNL A   1      38.354  31.336  30.422  1.00  0.00     0.074 A 
ATOM     15  C   UNL A   1      37.995  32.883  32.323  1.00  0.00     0.049 A 
ATOM     16  N   UNL A   1      39.364  30.631  30.865  1.00  0.00    -0.248 NA
ATOM     17  C   UNL A   1      37.898  30.953  29.077  1.00  0.00     0.031 C 
ATOM     18  C   UNL A   1      37.331  33.951  33.077  1.00  0.00     0.029 A 
ATOM     19  N   UNL A   1      39.017  32.487  33.145  1.00  0.00    -0.354 N 
ATOM     20  C   UNL A   1      39.648  29.706  29.870  1.00  0.00     0.074 A 
ATOM     21  C   UNL A   1      38.701  29.933  28.799  1.00  0.00     0.031 C 
ATOM     22  C   UNL A   1      37.973  34.141  34.236  1.00  0.00     0.029 A 
ATOM     23  C   UNL A   1      39.046  33.160  34.341  1.00  0.00     0.049 A 
ATOM     24  H   UNL A   1      39.665  31.787  32.902  1.00  0.00     0.167 HD
ATOM     25  C   UNL A   1      40.616  28.760  29.864  1.00  0.00     0.037 A 
ATOM     26  C   UNL A   1      39.822  32.981  35.424  1.00  0.00     0.037 A 
ATOM     27  C   UNL A   1      41.570  28.572  30.928  1.00  0.00     0.049 A 
ATOM     28  C   UNL A   1      40.864  31.903  35.392  1.00  0.00     0.074 A 
ATOM     29  C   UNL A   1      42.649  27.706  30.974  1.00  0.00     0.029 A 
ATOM     30  N   UNL A   1      41.552  29.253  32.137  1.00  0.00    -0.354 N 
ATOM     31  N   UNL A   1      41.167  31.080  34.418  1.00  0.00    -0.248 NA
ATOM     32  C   UNL A   1      41.660  31.716  36.610  1.00  0.00     0.031 C 
ATOM     33  C   UNL A   1      43.247  27.821  32.233  1.00  0.00     0.029 A 
ATOM     34  C   UNL A   1      42.572  28.792  32.953  1.00  0.00     0.049 A 
ATOM     35  H   UNL A   1      40.911  29.959  32.377  1.00  0.00     0.167 HD
ATOM     36  C   UNL A   1      42.190  30.280  34.903  1.00  0.00     0.074 A 
ATOM     37  C   UNL A   1      42.476  30.737  36.247  1.00  0.00     0.031 C 
ATOM     38  C   UNL A   1      42.828  29.253  34.293  1.00  0.00     0.037 A 
BRANCH  25  39
ATOM     39  C   UNL A   1      40.697  27.830  28.690  1.00  0.00     0.064 A 
ATOM     40  C   UNL A   1      39.946  26.648  28.629  1.00  0.00     0.173 A 
ATOM     41  C   UNL A   1      41.460  28.183  27.566  1.00  0.00     0.173 A 
ATOM     42  F   UNL A   1      39.205  26.264  29.680  1.00  0.00    -0.203 F 
ATOM     43  C   UNL A   1      39.958  25.852  27.486  1.00  0.00     0.198 A 
ATOM     44  C   UNL A   1      41.453  27.396  26.417  1.00  0.00     0.198 A 
ATOM     45  F   UNL A   1      42.192  29.308  27.572  1.00  0.00    -0.203 F 
ATOM     46  F   UNL A   1      39.244  24.718  27.454  1.00  0.00    -0.200 F 
ATOM     47  C   UNL A   1      40.703  26.231  26.378  1.00  0.00     0.200 A 
ATOM     48  F   UNL A   1      42.163  27.772  25.344  1.00  0.00    -0.200 F 
ATOM     49  F   UNL A   1      40.695  25.475  25.272  1.00  0.00    -0.200 F 
ENDBRANCH  25  39
BRANCH  26  50
ATOM     50  C   UNL A   1      39.599  33.807  36.638  1.00  0.00     0.064 A 
ATOM     51  C   UNL A   1      38.790  33.354  37.686  1.00  0.00     0.173 A 
ATOM     52  C   UNL A   1      40.198  35.070  36.773  1.00  0.00     0.173 A 
ATOM     53  F   UNL A   1      38.182  32.161  37.595  1.00  0.00    -0.203 F 
ATOM     54  C   UNL A   1      38.572  34.139  38.816  1.00  0.00     0.198 A 
ATOM     55  C   UNL A   1      40.007  35.839  37.918  1.00  0.00     0.198 A 
ATOM     56  F   UNL A   1      40.988  35.547  35.800  1.00  0.00    -0.203 F 
ATOM     57  F   UNL A   1      37.756  33.701  39.785  1.00  0.00    -0.200 F 
ATOM     58  C   UNL A   1      39.186  35.378  38.934  1.00  0.00     0.200 A 
ATOM     59  F   UNL A   1      40.617  37.026  38.034  1.00  0.00    -0.200 F 
ATOM     60  F   UNL A   1      38.979  36.130  40.024  1.00  0.00    -0.200 F 
ENDBRANCH  26  50
BRANCH  38  61
ATOM     61  C   UNL A   1      43.892  28.553  35.082  1.00  0.00     0.064 A 
ATOM     62  C   UNL A   1      43.596  27.425  35.860  1.00  0.00     0.173 A 
ATOM     63  C   UNL A   1      45.222  28.994  35.036  1.00  0.00     0.173 A 
ATOM     64  F   UNL A   1      42.333  26.981  35.952  1.00  0.00    -0.203 F 
ATOM     65  C   UNL A   1      44.592  26.771  36.579  1.00  0.00     0.198 A 
ATOM     66  C   UNL A   1      46.221  28.320  35.733  1.00  0.00     0.198 A 
ATOM     67  F   UNL A   1      45.555  30.068  34.305  1.00  0.00    -0.203 F 
ATOM     68  F   UNL A   1      44.280  25.721  37.349  1.00  0.00    -0.200 F 
ATOM     69  C   UNL A   1      45.905  27.215  36.508  1.00  0.00     0.200 A 
ATOM     70  F   UNL A   1      47.491  28.742  35.656  1.00  0.00    -0.200 F 
ATOM     71  F   UNL A   1      46.865  26.578  37.193  1.00  0.00    -0.200 F 
ENDBRANCH  38  61
ENDBRANCH  12  13
ENDBRANCH   5   7
ENDBRANCH   2   3
ENDBRANCH   1   2
BRANCH   1  72
ATOM     72  C   UNL A   1      31.577  30.540  25.906  1.00  0.00     0.023 C 
BRANCH  72  73
ATOM     73  C   UNL A   1      32.511  29.641  26.711  1.00  0.00     0.116 C 
BRANCH  73  74
ATOM     74  N   UNL A   1      31.899  28.360  27.014  1.00  0.00    -0.356 N 
ATOM     75  C   UNL A   1      32.064  27.138  26.434  1.00  0.00     0.229 C 
ATOM     76  H   UNL A   1      31.259  28.379  27.761  1.00  0.00     0.163 HD
ATOM     77  O   UNL A   1      31.372  26.208  26.857  1.00  0.00    -0.275 OA
BRANCH  75  78
ATOM     78  C   UNL A   1      33.097  26.944  25.332  1.00  0.00     0.146 C 
ATOM     79  C   UNL A   1      33.967  25.734  25.656  1.00  0.00     0.274 C 
ATOM     80  C   UNL A   1      32.508  26.574  23.967  1.00  0.00     0.092 C 
ATOM     81  N   UNL A   1      33.291  24.557  25.097  1.00  0.00    -0.345 N 
ATOM     82  C   UNL A   1      32.406  25.041  24.020  1.00  0.00     0.269 C 
ATOM     83  H   UNL A   1      32.742  24.092  25.820  1.00  0.00     0.346 HD
ATOM     84  H   UNL A   1      33.968  23.883  24.739  1.00  0.00     0.346 HD
BRANCH  80  85
ATOM     85  C   UNL A   1      31.301  27.384  23.532  1.00  0.00    -0.038 A 
ATOM     86  C   UNL A   1      29.982  26.981  23.748  1.00  0.00     0.004 A 
ATOM     87  C   UNL A   1      31.498  28.621  22.902  1.00  0.00     0.004 A 
ATOM     88  C   UNL A   1      28.906  27.814  23.412  1.00  0.00     0.004 A 
ATOM     89  C   UNL A   1      30.414  29.450  22.568  1.00  0.00     0.004 A 
ATOM     90  C   UNL A   1      29.090  29.086  22.850  1.00  0.00    -0.045 A 
BRANCH  90  91
ATOM     91  C   UNL A   1      27.888  29.984  22.617  1.00  0.00     0.019 C 
ATOM     92  C   UNL A   1      27.578  31.132  23.550  1.00  0.00     0.009 C 
ATOM     93  C   UNL A   1      28.040  31.408  22.147  1.00  0.00     0.009 C 
ENDBRANCH  90  91
ENDBRANCH  80  85
ENDBRANCH  75  78
ENDBRANCH  73  74
ENDBRANCH  72  73
ENDBRANCH   1  72
TORSDOF 13
ENDMDL
MODEL 3
REMARK VINA RESULT:     -12.8      0.062      1.612
REMARK SMILES O=C(NCCCCNC(=O)[C@H]1C[NH2+]C[C@H]1c1ccc(C2CC2)cc1)c1ccc(-c2c3nc(c(-c4c(F)c(F)c(F)c(F)c4F)c4ccc([nH]4)c(-c4c(F)c(F)c(F)c(F)c4F)c4nc(c(-c5c(F)c(F)c(F)c(F)c5F)c5ccc2[nH]5)C=C4)C=C3)cc1
REMARK SMILES IDX 5 1 4 2 3 3 1 4 2 5 25 7 26 8 87 9 27 10 86 11 28 12 29 13
REMARK SMILES IDX 30 14 80 15 31 16 85 17 79 18 81 19 32 20 84 21 78 22 77 23
REMARK SMILES IDX 33 25 65 26 45 27 64 28 46 29 49 30 63 31 82 32 47 33 48 34
REMARK SMILES IDX 62 36 83 37 50 38 34 39 35 40 43 41 36 42 37 43 41 44 44 45
REMARK SMILES IDX 38 46 39 47 42 48 40 49 66 50 67 51 75 52 68 53 69 54 73 55
REMARK SMILES IDX 76 56 70 57 71 58 74 59 72 60 51 61 52 62 60 63 53 64 54 65
REMARK SMILES IDX 58 66 61 67 55 68 56 69 59 70 57 71 6 72 7 73 8 74 9 75
REMARK SMILES IDX 10 77 11 78 12 79 15 80 13 81 14 82 16 85 17 86 24 87 18 88
REMARK SMILES IDX 23 89 19 90 20 91 21 92 22 93
REMARK H PARENT 3 6 81 24 49 35 8 76 13 83 13 84
REMARK Flexibility Score: inf
ROOT
ATOM      1  C   UNL A   1      38.051  19.593  24.919  1.00  0.00     0.023 C 
ENDROOT
BRANCH   1   2
ATOM      2  C   UNL A   1      39.212  20.086  25.763  1.00  0.00     0.116 C 
BRANCH   2   3
ATOM      3  N   UNL A   1      40.262  19.087  25.899  1.00  0.00    -0.352 N 
ATOM      4  O   UNL A   1      42.390  18.338  26.033  1.00  0.00    -0.269 OA
ATOM      5  C   UNL A   1      41.604  19.276  26.117  1.00  0.00     0.251 C 
ATOM      6  H   UNL A   1      39.971  18.149  25.826  1.00  0.00     0.163 HD
BRANCH   5   7
ATOM      7  C   UNL A   1      42.096  20.630  26.441  1.00  0.00     0.039 A 
ATOM      8  C   UNL A   1      42.430  21.519  25.417  1.00  0.00     0.014 A 
ATOM      9  C   UNL A   1      42.223  21.011  27.779  1.00  0.00     0.014 A 
ATOM     10  C   UNL A   1      43.011  22.739  25.725  1.00  0.00     0.010 A 
ATOM     11  C   UNL A   1      42.716  22.280  28.089  1.00  0.00     0.010 A 
ATOM     12  C   UNL A   1      43.121  23.148  27.062  1.00  0.00    -0.014 A 
BRANCH  12  13
ATOM     13  C   UNL A   1      43.526  24.542  27.354  1.00  0.00     0.031 A 
ATOM     14  C   UNL A   1      42.549  25.550  27.878  1.00  0.00     0.074 A 
ATOM     15  C   UNL A   1      44.809  24.880  27.118  1.00  0.00     0.049 A 
ATOM     16  N   UNL A   1      42.743  26.818  28.140  1.00  0.00    -0.248 NA
ATOM     17  C   UNL A   1      41.178  25.086  28.139  1.00  0.00     0.031 C 
ATOM     18  C   UNL A   1      45.832  23.973  26.588  1.00  0.00     0.029 A 
ATOM     19  N   UNL A   1      45.476  26.064  27.290  1.00  0.00    -0.354 N 
ATOM     20  C   UNL A   1      41.518  27.310  28.568  1.00  0.00     0.074 A 
ATOM     21  C   UNL A   1      40.582  26.207  28.528  1.00  0.00     0.031 C 
ATOM     22  C   UNL A   1      46.999  24.625  26.500  1.00  0.00     0.029 A 
ATOM     23  C   UNL A   1      46.790  26.011  26.895  1.00  0.00     0.049 A 
ATOM     24  H   UNL A   1      45.054  26.873  27.660  1.00  0.00     0.167 HD
ATOM     25  C   UNL A   1      41.216  28.571  28.958  1.00  0.00     0.037 A 
ATOM     26  C   UNL A   1      47.717  26.982  26.817  1.00  0.00     0.037 A 
ATOM     27  C   UNL A   1      42.171  29.648  29.021  1.00  0.00     0.049 A 
ATOM     28  C   UNL A   1      47.338  28.374  27.230  1.00  0.00     0.074 A 
ATOM     29  C   UNL A   1      41.988  30.935  29.495  1.00  0.00     0.029 A 
ATOM     30  N   UNL A   1      43.487  29.566  28.587  1.00  0.00    -0.354 N 
ATOM     31  N   UNL A   1      46.195  28.810  27.699  1.00  0.00    -0.248 NA
ATOM     32  C   UNL A   1      48.368  29.408  27.089  1.00  0.00     0.031 C 
ATOM     33  C   UNL A   1      43.173  31.648  29.292  1.00  0.00     0.029 A 
ATOM     34  C   UNL A   1      44.111  30.794  28.738  1.00  0.00     0.049 A 
ATOM     35  H   UNL A   1      43.913  28.755  28.227  1.00  0.00     0.167 HD
ATOM     36  C   UNL A   1      46.367  30.169  27.912  1.00  0.00     0.074 A 
ATOM     37  C   UNL A   1      47.735  30.478  27.550  1.00  0.00     0.031 C 
ATOM     38  C   UNL A   1      45.470  31.080  28.357  1.00  0.00     0.037 A 
BRANCH  25  39
ATOM     39  C   UNL A   1      39.798  28.882  29.332  1.00  0.00     0.064 A 
ATOM     40  C   UNL A   1      38.862  29.319  28.384  1.00  0.00     0.173 A 
ATOM     41  C   UNL A   1      39.345  28.637  30.637  1.00  0.00     0.173 A 
ATOM     42  F   UNL A   1      39.246  29.572  27.123  1.00  0.00    -0.203 F 
ATOM     43  C   UNL A   1      37.525  29.503  28.731  1.00  0.00     0.198 A 
ATOM     44  C   UNL A   1      38.004  28.802  30.976  1.00  0.00     0.198 A 
ATOM     45  F   UNL A   1      40.199  28.212  31.580  1.00  0.00    -0.203 F 
ATOM     46  F   UNL A   1      36.650  29.937  27.813  1.00  0.00    -0.200 F 
ATOM     47  C   UNL A   1      37.095  29.235  30.023  1.00  0.00     0.200 A 
ATOM     48  F   UNL A   1      37.589  28.530  32.221  1.00  0.00    -0.200 F 
ATOM     49  F   UNL A   1      35.805  29.393  30.348  1.00  0.00    -0.200 F 
ENDBRANCH  25  39
BRANCH  26  50
ATOM     50  C   UNL A   1      49.066  26.674  26.279  1.00  0.00     0.064 A 
ATOM     51  C   UNL A   1      49.378  26.898  24.932  1.00  0.00     0.173 A 
ATOM     52  C   UNL A   1      50.073  26.153  27.105  1.00  0.00     0.173 A 
ATOM     53  F   UNL A   1      48.442  27.378  24.099  1.00  0.00    -0.203 F 
ATOM     54  C   UNL A   1      50.640  26.593  24.428  1.00  0.00     0.198 A 
ATOM     55  C   UNL A   1      51.345  25.882  26.608  1.00  0.00     0.198 A 
ATOM     56  F   UNL A   1      49.828  25.928  28.405  1.00  0.00    -0.203 F 
ATOM     57  F   UNL A   1      50.899  26.773  23.125  1.00  0.00    -0.200 F 
ATOM     58  C   UNL A   1      51.625  26.092  25.267  1.00  0.00     0.200 A 
ATOM     59  F   UNL A   1      52.297  25.415  27.427  1.00  0.00    -0.200 F 
ATOM     60  F   UNL A   1      52.840  25.804  24.782  1.00  0.00    -0.200 F 
ENDBRANCH  26  50
BRANCH  38  61
ATOM     61  C   UNL A   1      45.944  32.497  28.470  1.00  0.00     0.064 A 
ATOM     62  C   UNL A   1      45.773  33.406  27.416  1.00  0.00     0.173 A 
ATOM     63  C   UNL A   1      46.544  32.958  29.651  1.00  0.00     0.173 A 
ATOM     64  F   UNL A   1      45.224  33.004  26.260  1.00  0.00    -0.203 F 
ATOM     65  C   UNL A   1      46.202  34.725  27.534  1.00  0.00     0.198 A 
ATOM     66  C   UNL A   1      46.946  34.285  29.775  1.00  0.00     0.198 A 
ATOM     67  F   UNL A   1      46.728  32.126  30.686  1.00  0.00    -0.203 F 
ATOM     68  F   UNL A   1      46.068  35.565  26.500  1.00  0.00    -0.200 F 
ATOM     69  C   UNL A   1      46.781  35.164  28.716  1.00  0.00     0.200 A 
ATOM     70  F   UNL A   1      47.495  34.712  30.921  1.00  0.00    -0.200 F 
ATOM     71  F   UNL A   1      47.185  36.437  28.831  1.00  0.00    -0.200 F 
ENDBRANCH  38  61
ENDBRANCH  12  13
ENDBRANCH   5   7
ENDBRANCH   2   3
ENDBRANCH   1   2
BRANCH   1  72
ATOM     72  C   UNL A   1      36.817  20.483  24.974  1.00  0.00     0.023 C 
BRANCH  72  73
ATOM     73  C   UNL A   1      37.094  21.984  24.968  1.00  0.00     0.116 C 
BRANCH  73  74
ATOM     74  N   UNL A   1      36.429  22.651  23.864  1.00  0.00    -0.356 N 
ATOM     75  C   UNL A   1      35.301  23.416  23.839  1.00  0.00     0.229 C 
ATOM     76  H   UNL A   1      36.866  22.532  22.990  1.00  0.00     0.163 HD
ATOM     77  O   UNL A   1      34.917  23.828  22.741  1.00  0.00    -0.275 OA
BRANCH  75  78
ATOM     78  C   UNL A   1      34.581  23.765  25.135  1.00  0.00     0.146 C 
ATOM     79  C   UNL A   1      34.387  25.275  25.218  1.00  0.00     0.274 C 
ATOM     80  C   UNL A   1      33.145  23.239  25.224  1.00  0.00     0.092 C 
ATOM     81  N   UNL A   1      33.120  25.584  24.544  1.00  0.00    -0.345 N 
ATOM     82  C   UNL A   1      32.310  24.350  24.564  1.00  0.00     0.269 C 
ATOM     83  H   UNL A   1      33.298  25.871  23.582  1.00  0.00     0.346 HD
ATOM     84  H   UNL A   1      32.634  26.348  25.013  1.00  0.00     0.346 HD
BRANCH  80  85
ATOM     85  C   UNL A   1      32.943  21.801  24.787  1.00  0.00    -0.038 A 
ATOM     86  C   UNL A   1      32.411  21.438  23.548  1.00  0.00     0.004 A 
ATOM     87  C   UNL A   1      33.332  20.764  25.646  1.00  0.00     0.004 A 
ATOM     88  C   UNL A   1      32.338  20.093  23.158  1.00  0.00     0.004 A 
ATOM     89  C   UNL A   1      33.254  19.419  25.247  1.00  0.00     0.004 A 
ATOM     90  C   UNL A   1      32.792  19.049  23.976  1.00  0.00    -0.045 A 
BRANCH  90  91
ATOM     91  C   UNL A   1      32.791  17.626  23.447  1.00  0.00     0.019 C 
ATOM     92  C   UNL A   1      34.075  16.944  23.036  1.00  0.00     0.009 C 
ATOM     93  C   UNL A   1      33.333  16.477  24.256  1.00  0.00     0.009 C 
ENDBRANCH  90  91
ENDBRANCH  80  85
ENDBRANCH  75  78
ENDBRANCH  73  74
ENDBRANCH  72  73
ENDBRANCH   1  72
TORSDOF 13
ENDMDL
