MODEL 1
REMARK VINA RESULT:     -13.2      0.000      0.000
REMARK SMILES O=C(NCCCCNC(=O)c1cc(-c2cccc(F)c2)nc2c(F)cccc12)c1ccc(-c2c3nc(c(-c4c(F)c(F)c(F)c(F)c4F)c4ccc([nH]4)c(-c4c(F)c(F)c(F)c(F)c4F)c4nc(c(-c5c(F)c(F)c(F)c(F)c5F)c5ccc2[nH]5)C=C4)C=C3)cc1
REMARK SMILES IDX 5 1 4 2 3 3 1 4 2 5 29 7 30 8 91 9 31 10 90 11 32 12 33 13
REMARK SMILES IDX 34 14 84 15 35 16 89 17 83 18 85 19 36 20 88 21 82 22 81 23
REMARK SMILES IDX 37 25 69 26 49 27 68 28 50 29 53 30 67 31 86 32 51 33 52 34
REMARK SMILES IDX 66 36 87 37 54 38 38 39 39 40 47 41 40 42 41 43 45 44 48 45
REMARK SMILES IDX 42 46 43 47 46 48 44 49 70 50 71 51 79 52 72 53 73 54 77 55
REMARK SMILES IDX 80 56 74 57 75 58 78 59 76 60 55 61 56 62 64 63 57 64 58 65
REMARK SMILES IDX 62 66 65 67 59 68 60 69 63 70 61 71 6 72 7 73 8 74 9 75
REMARK SMILES IDX 10 77 11 78 12 79 28 80 13 81 22 82 27 83 21 84 23 85 26 86
REMARK SMILES IDX 24 87 25 88 14 89 15 90 20 91 16 92 18 93 17 94 19 95
REMARK H PARENT 3 6 85 24 53 35 8 76
REMARK Flexibility Score: inf
ROOT
ATOM      1  C   UNL A   1      32.293  28.029  25.463  1.00  0.00     0.023 C 
ENDROOT
BRANCH   1   2
ATOM      2  C   UNL A   1      33.334  29.133  25.597  1.00  0.00     0.116 C 
BRANCH   2   3
ATOM      3  N   UNL A   1      32.779  30.395  26.063  1.00  0.00    -0.352 N 
ATOM      4  O   UNL A   1      32.574  32.224  27.368  1.00  0.00    -0.269 OA
ATOM      5  C   UNL A   1      33.250  31.260  27.022  1.00  0.00     0.251 C 
ATOM      6  H   UNL A   1      31.940  30.669  25.626  1.00  0.00     0.163 HD
BRANCH   5   7
ATOM      7  C   UNL A   1      34.560  31.012  27.664  1.00  0.00     0.039 A 
ATOM      8  C   UNL A   1      34.884  29.750  28.162  1.00  0.00     0.014 A 
ATOM      9  C   UNL A   1      35.477  32.063  27.775  1.00  0.00     0.014 A 
ATOM     10  C   UNL A   1      36.037  29.582  28.918  1.00  0.00     0.010 A 
ATOM     11  C   UNL A   1      36.685  31.867  28.455  1.00  0.00     0.010 A 
ATOM     12  C   UNL A   1      36.957  30.634  29.066  1.00  0.00    -0.014 A 
BRANCH  12  13
ATOM     13  C   UNL A   1      38.213  30.390  29.822  1.00  0.00     0.031 A 
ATOM     14  C   UNL A   1      38.374  30.848  31.245  1.00  0.00     0.074 A 
ATOM     15  C   UNL A   1      39.192  29.677  29.227  1.00  0.00     0.049 A 
ATOM     16  N   UNL A   1      39.382  30.655  32.061  1.00  0.00    -0.248 NA
ATOM     17  C   UNL A   1      37.270  31.621  31.833  1.00  0.00     0.031 C 
ATOM     18  C   UNL A   1      39.148  29.183  27.849  1.00  0.00     0.029 A 
ATOM     19  N   UNL A   1      40.389  29.213  29.707  1.00  0.00    -0.354 N 
ATOM     20  C   UNL A   1      39.039  31.290  33.248  1.00  0.00     0.074 A 
ATOM     21  C   UNL A   1      37.742  31.896  33.043  1.00  0.00     0.031 C 
ATOM     22  C   UNL A   1      40.228  28.424  27.620  1.00  0.00     0.029 A 
ATOM     23  C   UNL A   1      41.072  28.430  28.809  1.00  0.00     0.049 A 
ATOM     24  H   UNL A   1      40.725  29.419  30.609  1.00  0.00     0.167 HD
ATOM     25  C   UNL A   1      39.742  31.349  34.404  1.00  0.00     0.037 A 
ATOM     26  C   UNL A   1      42.250  27.790  28.925  1.00  0.00     0.037 A 
ATOM     27  C   UNL A   1      41.025  30.725  34.611  1.00  0.00     0.049 A 
ATOM     28  C   UNL A   1      43.014  27.894  30.213  1.00  0.00     0.074 A 
ATOM     29  C   UNL A   1      41.807  30.724  35.755  1.00  0.00     0.029 A 
ATOM     30  N   UNL A   1      41.710  29.987  33.659  1.00  0.00    -0.354 N 
ATOM     31  N   UNL A   1      42.676  28.497  31.326  1.00  0.00    -0.248 NA
ATOM     32  C   UNL A   1      44.328  27.239  30.258  1.00  0.00     0.031 C 
ATOM     33  C   UNL A   1      42.980  30.014  35.483  1.00  0.00     0.029 A 
ATOM     34  C   UNL A   1      42.911  29.537  34.185  1.00  0.00     0.049 A 
ATOM     35  H   UNL A   1      41.391  29.809  32.744  1.00  0.00     0.167 HD
ATOM     36  C   UNL A   1      43.728  28.288  32.206  1.00  0.00     0.074 A 
ATOM     37  C   UNL A   1      44.706  27.481  31.505  1.00  0.00     0.031 C 
ATOM     38  C   UNL A   1      43.872  28.733  33.476  1.00  0.00     0.037 A 
BRANCH  25  39
ATOM     39  C   UNL A   1      39.153  32.110  35.554  1.00  0.00     0.064 A 
ATOM     40  C   UNL A   1      39.467  33.465  35.747  1.00  0.00     0.173 A 
ATOM     41  C   UNL A   1      38.371  31.473  36.527  1.00  0.00     0.173 A 
ATOM     42  F   UNL A   1      40.219  34.118  34.848  1.00  0.00    -0.203 F 
ATOM     43  C   UNL A   1      39.038  34.146  36.883  1.00  0.00     0.198 A 
ATOM     44  C   UNL A   1      37.925  32.163  37.652  1.00  0.00     0.198 A 
ATOM     45  F   UNL A   1      38.036  30.181  36.384  1.00  0.00    -0.203 F 
ATOM     46  F   UNL A   1      39.383  35.429  37.064  1.00  0.00    -0.200 F 
ATOM     47  C   UNL A   1      38.268  33.495  37.834  1.00  0.00     0.200 A 
ATOM     48  F   UNL A   1      37.168  31.537  38.563  1.00  0.00    -0.200 F 
ATOM     49  F   UNL A   1      37.859  34.150  38.930  1.00  0.00    -0.200 F 
ENDBRANCH  25  39
BRANCH  26  50
ATOM     50  C   UNL A   1      42.767  26.986  27.789  1.00  0.00     0.064 A 
ATOM     51  C   UNL A   1      42.620  25.592  27.756  1.00  0.00     0.173 A 
ATOM     52  C   UNL A   1      43.443  27.598  26.725  1.00  0.00     0.173 A 
ATOM     53  F   UNL A   1      41.985  24.959  28.753  1.00  0.00    -0.203 F 
ATOM     54  C   UNL A   1      43.150  24.838  26.711  1.00  0.00     0.198 A 
ATOM     55  C   UNL A   1      43.946  26.845  25.666  1.00  0.00     0.198 A 
ATOM     56  F   UNL A   1      43.591  28.931  26.703  1.00  0.00    -0.203 F 
ATOM     57  F   UNL A   1      43.027  23.504  26.723  1.00  0.00    -0.200 F 
ATOM     58  C   UNL A   1      43.806  25.465  25.664  1.00  0.00     0.200 A 
ATOM     59  F   UNL A   1      44.559  27.457  24.643  1.00  0.00    -0.200 F 
ATOM     60  F   UNL A   1      44.302  24.740  24.652  1.00  0.00    -0.200 F 
ENDBRANCH  26  50
BRANCH  38  61
ATOM     61  C   UNL A   1      45.127  28.349  34.200  1.00  0.00     0.064 A 
ATOM     62  C   UNL A   1      45.182  27.166  34.951  1.00  0.00     0.173 A 
ATOM     63  C   UNL A   1      46.257  29.180  34.193  1.00  0.00     0.173 A 
ATOM     64  F   UNL A   1      44.124  26.342  34.994  1.00  0.00    -0.203 F 
ATOM     65  C   UNL A   1      46.323  26.832  35.676  1.00  0.00     0.198 A 
ATOM     66  C   UNL A   1      47.404  28.831  34.898  1.00  0.00     0.198 A 
ATOM     67  F   UNL A   1      46.254  30.315  33.477  1.00  0.00    -0.203 F 
ATOM     68  F   UNL A   1      46.347  25.710  36.406  1.00  0.00    -0.200 F 
ATOM     69  C   UNL A   1      47.434  27.663  35.645  1.00  0.00     0.200 A 
ATOM     70  F   UNL A   1      48.485  29.622  34.848  1.00  0.00    -0.200 F 
ATOM     71  F   UNL A   1      48.537  27.333  36.331  1.00  0.00    -0.200 F 
ENDBRANCH  38  61
ENDBRANCH  12  13
ENDBRANCH   5   7
ENDBRANCH   2   3
ENDBRANCH   1   2
BRANCH   1  72
ATOM     72  C   UNL A   1      32.631  26.716  26.162  1.00  0.00     0.023 C 
BRANCH  72  73
ATOM     73  C   UNL A   1      32.599  25.474  25.280  1.00  0.00     0.116 C 
BRANCH  73  74
ATOM     74  N   UNL A   1      32.986  25.727  23.900  1.00  0.00    -0.352 N 
ATOM     75  C   UNL A   1      33.775  24.956  23.080  1.00  0.00     0.252 C 
ATOM     76  H   UNL A   1      32.638  26.559  23.502  1.00  0.00     0.163 HD
ATOM     77  O   UNL A   1      34.007  25.296  21.926  1.00  0.00    -0.269 OA
BRANCH  75  78
ATOM     78  C   UNL A   1      34.397  23.737  23.626  1.00  0.00     0.051 A 
ATOM     79  C   UNL A   1      35.601  23.923  24.301  1.00  0.00     0.043 A 
ATOM     80  C   UNL A   1      33.775  22.473  23.553  1.00  0.00     0.016 A 
ATOM     81  C   UNL A   1      36.152  22.836  24.945  1.00  0.00     0.072 A 
ATOM     82  C   UNL A   1      34.383  21.441  24.289  1.00  0.00     0.107 A 
ATOM     83  C   UNL A   1      32.590  22.206  22.817  1.00  0.00     0.011 A 
ATOM     84  N   UNL A   1      35.547  21.625  24.953  1.00  0.00    -0.245 NA
ATOM     85  C   UNL A   1      33.724  20.211  24.336  1.00  0.00     0.149 A 
ATOM     86  C   UNL A   1      31.965  20.964  22.880  1.00  0.00     0.004 A 
ATOM     87  F   UNL A   1      34.234  19.211  25.074  1.00  0.00    -0.205 F 
ATOM     88  C   UNL A   1      32.526  19.968  23.662  1.00  0.00     0.041 A 
BRANCH  81  89
ATOM     89  C   UNL A   1      37.418  22.919  25.681  1.00  0.00     0.003 A 
ATOM     90  C   UNL A   1      38.315  21.834  25.680  1.00  0.00     0.010 A 
ATOM     91  C   UNL A   1      37.771  24.068  26.404  1.00  0.00     0.049 A 
ATOM     92  C   UNL A   1      39.532  21.900  26.366  1.00  0.00     0.004 A 
ATOM     93  C   UNL A   1      38.980  24.121  27.093  1.00  0.00     0.123 A 
ATOM     94  C   UNL A   1      39.864  23.050  27.076  1.00  0.00     0.039 A 
ATOM     95  F   UNL A   1      39.292  25.223  27.785  1.00  0.00    -0.207 F 
ENDBRANCH  81  89
ENDBRANCH  75  78
ENDBRANCH  73  74
ENDBRANCH  72  73
ENDBRANCH   1  72
TORSDOF 12
ENDMDL
MODEL 2
REMARK VINA RESULT:     -13.1      4.073      9.351
REMARK SMILES O=C(NCCCCNC(=O)c1cc(-c2cccc(F)c2)nc2c(F)cccc12)c1ccc(-c2c3nc(c(-c4c(F)c(F)c(F)c(F)c4F)c4ccc([nH]4)c(-c4c(F)c(F)c(F)c(F)c4F)c4nc(c(-c5c(F)c(F)c(F)c(F)c5F)c5ccc2[nH]5)C=C4)C=C3)cc1
REMARK SMILES IDX 5 1 4 2 3 3 1 4 2 5 29 7 30 8 91 9 31 10 90 11 32 12 33 13
REMARK SMILES IDX 34 14 84 15 35 16 89 17 83 18 85 19 36 20 88 21 82 22 81 23
REMARK SMILES IDX 37 25 69 26 49 27 68 28 50 29 53 30 67 31 86 32 51 33 52 34
REMARK SMILES IDX 66 36 87 37 54 38 38 39 39 40 47 41 40 42 41 43 45 44 48 45
REMARK SMILES IDX 42 46 43 47 46 48 44 49 70 50 71 51 79 52 72 53 73 54 77 55
REMARK SMILES IDX 80 56 74 57 75 58 78 59 76 60 55 61 56 62 64 63 57 64 58 65
REMARK SMILES IDX 62 66 65 67 59 68 60 69 63 70 61 71 6 72 7 73 8 74 9 75
REMARK SMILES IDX 10 77 11 78 12 79 28 80 13 81 22 82 27 83 21 84 23 85 26 86
REMARK SMILES IDX 24 87 25 88 14 89 15 90 20 91 16 92 18 93 17 94 19 95
REMARK H PARENT 3 6 85 24 53 35 8 76
REMARK Flexibility Score: inf
ROOT
ATOM      1  C   UNL A   1      35.183  21.917  25.370  1.00  0.00     0.023 C 
ENDROOT
BRANCH   1   2
ATOM      2  C   UNL A   1      36.560  22.393  25.813  1.00  0.00     0.116 C 
BRANCH   2   3
ATOM      3  N   UNL A   1      37.561  21.337  25.819  1.00  0.00    -0.352 N 
ATOM      4  O   UNL A   1      39.617  20.416  25.954  1.00  0.00    -0.269 OA
ATOM      5  C   UNL A   1      38.900  21.398  26.126  1.00  0.00     0.251 C 
ATOM      6  H   UNL A   1      37.229  20.445  25.565  1.00  0.00     0.163 HD
BRANCH   5   7
ATOM      7  C   UNL A   1      39.487  22.657  26.633  1.00  0.00     0.039 A 
ATOM      8  C   UNL A   1      39.071  23.891  26.133  1.00  0.00     0.014 A 
ATOM      9  C   UNL A   1      40.476  22.601  27.622  1.00  0.00     0.014 A 
ATOM     10  C   UNL A   1      39.757  25.046  26.489  1.00  0.00     0.010 A 
ATOM     11  C   UNL A   1      41.101  23.778  28.051  1.00  0.00     0.010 A 
ATOM     12  C   UNL A   1      40.773  25.007  27.459  1.00  0.00    -0.014 A 
BRANCH  12  13
ATOM     13  C   UNL A   1      41.431  26.276  27.863  1.00  0.00     0.031 A 
ATOM     14  C   UNL A   1      42.852  26.580  27.479  1.00  0.00     0.074 A 
ATOM     15  C   UNL A   1      40.699  27.195  28.526  1.00  0.00     0.049 A 
ATOM     16  N   UNL A   1      43.548  27.669  27.699  1.00  0.00    -0.248 NA
ATOM     17  C   UNL A   1      43.595  25.534  26.758  1.00  0.00     0.031 C 
ATOM     18  C   UNL A   1      39.311  27.010  28.954  1.00  0.00     0.029 A 
ATOM     19  N   UNL A   1      41.000  28.473  28.922  1.00  0.00    -0.354 N 
ATOM     20  C   UNL A   1      44.805  27.436  27.157  1.00  0.00     0.074 A 
ATOM     21  C   UNL A   1      44.790  26.093  26.618  1.00  0.00     0.031 C 
ATOM     22  C   UNL A   1      38.858  28.155  29.483  1.00  0.00     0.029 A 
ATOM     23  C   UNL A   1      39.940  29.133  29.492  1.00  0.00     0.049 A 
ATOM     24  H   UNL A   1      41.890  28.878  28.807  1.00  0.00     0.167 HD
ATOM     25  C   UNL A   1      45.869  28.273  27.106  1.00  0.00     0.037 A 
ATOM     26  C   UNL A   1      39.845  30.386  29.974  1.00  0.00     0.037 A 
ATOM     27  C   UNL A   1      45.874  29.617  27.625  1.00  0.00     0.049 A 
ATOM     28  C   UNL A   1      41.049  31.281  29.922  1.00  0.00     0.074 A 
ATOM     29  C   UNL A   1      46.905  30.543  27.608  1.00  0.00     0.029 A 
ATOM     30  N   UNL A   1      44.797  30.231  28.245  1.00  0.00    -0.354 N 
ATOM     31  N   UNL A   1      42.230  31.046  29.405  1.00  0.00    -0.248 NA
ATOM     32  C   UNL A   1      40.913  32.611  30.531  1.00  0.00     0.031 C 
ATOM     33  C   UNL A   1      46.462  31.704  28.249  1.00  0.00     0.029 A 
ATOM     34  C   UNL A   1      45.142  31.518  28.627  1.00  0.00     0.049 A 
ATOM     35  H   UNL A   1      43.916  29.814  28.392  1.00  0.00     0.167 HD
ATOM     36  C   UNL A   1      42.974  32.197  29.616  1.00  0.00     0.074 A 
ATOM     37  C   UNL A   1      42.103  33.141  30.287  1.00  0.00     0.031 C 
ATOM     38  C   UNL A   1      44.264  32.445  29.292  1.00  0.00     0.037 A 
BRANCH  25  39
ATOM     39  C   UNL A   1      47.132  27.778  26.466  1.00  0.00     0.064 A 
ATOM     40  C   UNL A   1      47.301  27.852  25.074  1.00  0.00     0.173 A 
ATOM     41  C   UNL A   1      48.124  27.129  27.214  1.00  0.00     0.173 A 
ATOM     42  F   UNL A   1      46.375  28.454  24.313  1.00  0.00    -0.203 F 
ATOM     43  C   UNL A   1      48.406  27.274  24.454  1.00  0.00     0.198 A 
ATOM     44  C   UNL A   1      49.239  26.572  26.594  1.00  0.00     0.198 A 
ATOM     45  F   UNL A   1      48.013  27.041  28.549  1.00  0.00    -0.203 F 
ATOM     46  F   UNL A   1      48.526  27.322  23.120  1.00  0.00    -0.200 F 
ATOM     47  C   UNL A   1      49.373  26.634  25.214  1.00  0.00     0.200 A 
ATOM     48  F   UNL A   1      50.182  25.967  27.330  1.00  0.00    -0.200 F 
ATOM     49  F   UNL A   1      50.435  26.074  24.617  1.00  0.00    -0.200 F 
ENDBRANCH  25  39
BRANCH  26  50
ATOM     50  C   UNL A   1      38.557  30.865  30.535  1.00  0.00     0.064 A 
ATOM     51  C   UNL A   1      37.541  31.364  29.706  1.00  0.00     0.173 A 
ATOM     52  C   UNL A   1      38.328  30.857  31.917  1.00  0.00     0.173 A 
ATOM     53  F   UNL A   1      37.714  31.397  28.377  1.00  0.00    -0.203 F 
ATOM     54  C   UNL A   1      36.354  31.857  30.242  1.00  0.00     0.198 A 
ATOM     55  C   UNL A   1      37.127  31.323  32.449  1.00  0.00     0.198 A 
ATOM     56  F   UNL A   1      39.262  30.372  32.748  1.00  0.00    -0.203 F 
ATOM     57  F   UNL A   1      35.415  32.362  29.430  1.00  0.00    -0.200 F 
ATOM     58  C   UNL A   1      36.145  31.829  31.612  1.00  0.00     0.200 A 
ATOM     59  F   UNL A   1      36.919  31.273  33.773  1.00  0.00    -0.200 F 
ATOM     60  F   UNL A   1      34.996  32.290  32.125  1.00  0.00    -0.200 F 
ENDBRANCH  26  50
BRANCH  38  61
ATOM     61  C   UNL A   1      44.815  33.794  29.644  1.00  0.00     0.064 A 
ATOM     62  C   UNL A   1      44.701  34.866  28.747  1.00  0.00     0.173 A 
ATOM     63  C   UNL A   1      45.501  34.010  30.848  1.00  0.00     0.173 A 
ATOM     64  F   UNL A   1      44.059  34.706  27.580  1.00  0.00    -0.203 F 
ATOM     65  C   UNL A   1      45.262  36.105  29.040  1.00  0.00     0.198 A 
ATOM     66  C   UNL A   1      46.039  35.257  31.149  1.00  0.00     0.198 A 
ATOM     67  F   UNL A   1      45.622  33.017  31.743  1.00  0.00    -0.203 F 
ATOM     68  F   UNL A   1      45.163  37.109  28.159  1.00  0.00    -0.200 F 
ATOM     69  C   UNL A   1      45.927  36.301  30.242  1.00  0.00     0.200 A 
ATOM     70  F   UNL A   1      46.660  35.451  32.320  1.00  0.00    -0.200 F 
ATOM     71  F   UNL A   1      46.454  37.499  30.530  1.00  0.00    -0.200 F 
ENDBRANCH  38  61
ENDBRANCH  12  13
ENDBRANCH   5   7
ENDBRANCH   2   3
ENDBRANCH   1   2
BRANCH   1  72
ATOM     72  C   UNL A   1      34.252  21.462  26.489  1.00  0.00     0.023 C 
BRANCH  72  73
ATOM     73  C   UNL A   1      33.791  22.554  27.447  1.00  0.00     0.116 C 
BRANCH  73  74
ATOM     74  N   UNL A   1      32.347  22.601  27.628  1.00  0.00    -0.352 N 
ATOM     75  C   UNL A   1      31.437  23.422  27.007  1.00  0.00     0.252 C 
ATOM     76  H   UNL A   1      31.975  21.964  28.280  1.00  0.00     0.163 HD
ATOM     77  O   UNL A   1      30.240  23.339  27.256  1.00  0.00    -0.269 OA
BRANCH  75  78
ATOM     78  C   UNL A   1      31.924  24.457  26.077  1.00  0.00     0.051 A 
ATOM     79  C   UNL A   1      32.162  25.710  26.637  1.00  0.00     0.043 A 
ATOM     80  C   UNL A   1      32.219  24.181  24.725  1.00  0.00     0.016 A 
ATOM     81  C   UNL A   1      32.746  26.671  25.840  1.00  0.00     0.072 A 
ATOM     82  C   UNL A   1      32.864  25.205  24.011  1.00  0.00     0.107 A 
ATOM     83  C   UNL A   1      31.928  22.950  24.079  1.00  0.00     0.011 A 
ATOM     84  N   UNL A   1      33.104  26.418  24.558  1.00  0.00    -0.245 NA
ATOM     85  C   UNL A   1      33.278  24.917  22.709  1.00  0.00     0.149 A 
ATOM     86  C   UNL A   1      32.348  22.701  22.776  1.00  0.00     0.004 A 
ATOM     87  F   UNL A   1      33.950  25.843  22.005  1.00  0.00    -0.205 F 
ATOM     88  C   UNL A   1      33.046  23.685  22.095  1.00  0.00     0.041 A 
BRANCH  81  89
ATOM     89  C   UNL A   1      33.036  28.023  26.326  1.00  0.00     0.003 A 
ATOM     90  C   UNL A   1      34.321  28.350  26.799  1.00  0.00     0.010 A 
ATOM     91  C   UNL A   1      32.053  29.024  26.338  1.00  0.00     0.049 A 
ATOM     92  C   UNL A   1      34.618  29.637  27.256  1.00  0.00     0.004 A 
ATOM     93  C   UNL A   1      32.356  30.300  26.805  1.00  0.00     0.123 A 
ATOM     94  C   UNL A   1      33.629  30.616  27.258  1.00  0.00     0.039 A 
ATOM     95  F   UNL A   1      31.399  31.238  26.817  1.00  0.00    -0.207 F 
ENDBRANCH  81  89
ENDBRANCH  75  78
ENDBRANCH  73  74
ENDBRANCH  72  73
ENDBRANCH   1  72
TORSDOF 12
ENDMDL
MODEL 3
REMARK VINA RESULT:     -13.1      2.362      4.199
REMARK SMILES O=C(NCCCCNC(=O)c1cc(-c2cccc(F)c2)nc2c(F)cccc12)c1ccc(-c2c3nc(c(-c4c(F)c(F)c(F)c(F)c4F)c4ccc([nH]4)c(-c4c(F)c(F)c(F)c(F)c4F)c4nc(c(-c5c(F)c(F)c(F)c(F)c5F)c5ccc2[nH]5)C=C4)C=C3)cc1
REMARK SMILES IDX 5 1 4 2 3 3 1 4 2 5 29 7 30 8 91 9 31 10 90 11 32 12 33 13
REMARK SMILES IDX 34 14 84 15 35 16 89 17 83 18 85 19 36 20 88 21 82 22 81 23
REMARK SMILES IDX 37 25 69 26 49 27 68 28 50 29 53 30 67 31 86 32 51 33 52 34
REMARK SMILES IDX 66 36 87 37 54 38 38 39 39 40 47 41 40 42 41 43 45 44 48 45
REMARK SMILES IDX 42 46 43 47 46 48 44 49 70 50 71 51 79 52 72 53 73 54 77 55
REMARK SMILES IDX 80 56 74 57 75 58 78 59 76 60 55 61 56 62 64 63 57 64 58 65
REMARK SMILES IDX 62 66 65 67 59 68 60 69 63 70 61 71 6 72 7 73 8 74 9 75
REMARK SMILES IDX 10 77 11 78 12 79 28 80 13 81 22 82 27 83 21 84 23 85 26 86
REMARK SMILES IDX 24 87 25 88 14 89 15 90 20 91 16 92 18 93 17 94 19 95
REMARK H PARENT 3 6 85 24 53 35 8 76
REMARK Flexibility Score: inf
ROOT
ATOM      1  C   UNL A   1      31.381  31.952  26.917  1.00  0.00     0.023 C 
ENDROOT
BRANCH   1   2
ATOM      2  C   UNL A   1      32.643  32.773  27.145  1.00  0.00     0.116 C 
BRANCH   2   3
ATOM      3  N   UNL A   1      32.374  34.127  27.603  1.00  0.00    -0.352 N 
ATOM      4  O   UNL A   1      32.548  35.955  28.915  1.00  0.00    -0.269 OA
ATOM      5  C   UNL A   1      32.999  34.862  28.583  1.00  0.00     0.251 C 
ATOM      6  H   UNL A   1      31.635  34.585  27.142  1.00  0.00     0.163 HD
BRANCH   5   7
ATOM      7  C   UNL A   1      34.197  34.324  29.264  1.00  0.00     0.039 A 
ATOM      8  C   UNL A   1      35.474  34.564  28.757  1.00  0.00     0.014 A 
ATOM      9  C   UNL A   1      34.039  33.560  30.425  1.00  0.00     0.014 A 
ATOM     10  C   UNL A   1      36.568  33.904  29.303  1.00  0.00     0.010 A 
ATOM     11  C   UNL A   1      35.155  32.973  31.032  1.00  0.00     0.010 A 
ATOM     12  C   UNL A   1      36.425  33.109  30.453  1.00  0.00    -0.014 A 
BRANCH  12  13
ATOM     13  C   UNL A   1      37.633  32.480  31.047  1.00  0.00     0.031 A 
ATOM     14  C   UNL A   1      38.098  32.829  32.433  1.00  0.00     0.074 A 
ATOM     15  C   UNL A   1      38.272  31.524  30.341  1.00  0.00     0.049 A 
ATOM     16  N   UNL A   1      39.094  32.321  33.118  1.00  0.00    -0.248 NA
ATOM     17  C   UNL A   1      37.358  33.881  33.148  1.00  0.00     0.031 C 
ATOM     18  C   UNL A   1      37.912  31.104  28.985  1.00  0.00     0.029 A 
ATOM     19  N   UNL A   1      39.325  30.710  30.671  1.00  0.00    -0.354 N 
ATOM     20  C   UNL A   1      39.107  32.996  34.332  1.00  0.00     0.074 A 
ATOM     21  C   UNL A   1      38.036  33.968  34.286  1.00  0.00     0.031 C 
ATOM     22  C   UNL A   1      38.678  30.064  28.629  1.00  0.00     0.029 A 
ATOM     23  C   UNL A   1      39.626  29.785  29.703  1.00  0.00     0.049 A 
ATOM     24  H   UNL A   1      39.815  30.782  31.521  1.00  0.00     0.167 HD
ATOM     25  C   UNL A   1      39.932  32.811  35.390  1.00  0.00     0.037 A 
ATOM     26  C   UNL A   1      40.562  28.819  29.676  1.00  0.00     0.037 A 
ATOM     27  C   UNL A   1      40.984  31.827  35.440  1.00  0.00     0.049 A 
ATOM     28  C   UNL A   1      41.474  28.654  30.857  1.00  0.00     0.074 A 
ATOM     29  C   UNL A   1      41.864  31.560  36.477  1.00  0.00     0.029 A 
ATOM     30  N   UNL A   1      41.293  30.944  34.417  1.00  0.00    -0.354 N 
ATOM     31  N   UNL A   1      41.473  29.299  31.997  1.00  0.00    -0.248 NA
ATOM     32  C   UNL A   1      42.527  27.636  30.742  1.00  0.00     0.031 C 
ATOM     33  C   UNL A   1      42.728  30.539  36.067  1.00  0.00     0.029 A 
ATOM     34  C   UNL A   1      42.359  30.141  34.792  1.00  0.00     0.049 A 
ATOM     35  H   UNL A   1      40.825  30.895  33.552  1.00  0.00     0.167 HD
ATOM     36  C   UNL A   1      42.514  28.761  32.739  1.00  0.00     0.074 A 
ATOM     37  C   UNL A   1      43.111  27.719  31.930  1.00  0.00     0.031 C 
ATOM     38  C   UNL A   1      42.940  29.107  33.976  1.00  0.00     0.037 A 
BRANCH  25  39
ATOM     39  C   UNL A   1      39.745  33.680  36.597  1.00  0.00     0.064 A 
ATOM     40  C   UNL A   1      38.880  33.288  37.630  1.00  0.00     0.173 A 
ATOM     41  C   UNL A   1      40.333  34.951  36.680  1.00  0.00     0.173 A 
ATOM     42  F   UNL A   1      38.286  32.086  37.593  1.00  0.00    -0.203 F 
ATOM     43  C   UNL A   1      38.592  34.145  38.690  1.00  0.00     0.198 A 
ATOM     44  C   UNL A   1      40.061  35.797  37.751  1.00  0.00     0.198 A 
ATOM     45  F   UNL A   1      41.175  35.368  35.722  1.00  0.00    -0.203 F 
ATOM     46  F   UNL A   1      37.732  33.764  39.644  1.00  0.00    -0.200 F 
ATOM     47  C   UNL A   1      39.183  35.398  38.749  1.00  0.00     0.200 A 
ATOM     48  F   UNL A   1      40.643  37.002  37.817  1.00  0.00    -0.200 F 
ATOM     49  F   UNL A   1      38.902  36.225  39.766  1.00  0.00    -0.200 F 
ENDBRANCH  25  39
BRANCH  26  50
ATOM     50  C   UNL A   1      40.670  27.929  28.492  1.00  0.00     0.064 A 
ATOM     51  C   UNL A   1      41.425  28.298  27.370  1.00  0.00     0.173 A 
ATOM     52  C   UNL A   1      39.997  26.701  28.453  1.00  0.00     0.173 A 
ATOM     53  F   UNL A   1      42.084  29.466  27.357  1.00  0.00    -0.203 F 
ATOM     54  C   UNL A   1      41.484  27.481  26.243  1.00  0.00     0.198 A 
ATOM     55  C   UNL A   1      40.081  25.871  27.336  1.00  0.00     0.198 A 
ATOM     56  F   UNL A   1      39.278  26.296  29.510  1.00  0.00    -0.203 F 
ATOM     57  F   UNL A   1      42.182  27.875  25.169  1.00  0.00    -0.200 F 
ATOM     58  C   UNL A   1      40.818  26.266  26.230  1.00  0.00     0.200 A 
ATOM     59  F   UNL A   1      39.455  24.686  27.337  1.00  0.00    -0.200 F 
ATOM     60  F   UNL A   1      40.887  25.474  25.151  1.00  0.00    -0.200 F 
ENDBRANCH  26  50
BRANCH  38  61
ATOM     61  C   UNL A   1      44.101  28.346  34.541  1.00  0.00     0.064 A 
ATOM     62  C   UNL A   1      43.893  27.170  35.276  1.00  0.00     0.173 A 
ATOM     63  C   UNL A   1      45.417  28.810  34.398  1.00  0.00     0.173 A 
ATOM     64  F   UNL A   1      42.651  26.690  35.445  1.00  0.00    -0.203 F 
ATOM     65  C   UNL A   1      44.960  26.490  35.855  1.00  0.00     0.198 A 
ATOM     66  C   UNL A   1      46.485  28.115  34.957  1.00  0.00     0.198 A 
ATOM     67  F   UNL A   1      45.666  29.924  33.691  1.00  0.00    -0.203 F 
ATOM     68  F   UNL A   1      44.737  25.382  36.573  1.00  0.00    -0.200 F 
ATOM     69  C   UNL A   1      46.255  26.960  35.691  1.00  0.00     0.200 A 
ATOM     70  F   UNL A   1      47.736  28.557  34.777  1.00  0.00    -0.200 F 
ATOM     71  F   UNL A   1      47.284  26.297  36.236  1.00  0.00    -0.200 F 
ENDBRANCH  38  61
ENDBRANCH  12  13
ENDBRANCH   5   7
ENDBRANCH   2   3
ENDBRANCH   1   2
BRANCH   1  72
ATOM     72  C   UNL A   1      31.489  30.858  25.859  1.00  0.00     0.023 C 
BRANCH  72  73
ATOM     73  C   UNL A   1      32.720  29.965  25.959  1.00  0.00     0.116 C 
BRANCH  73  74
ATOM     74  N   UNL A   1      33.461  29.850  24.711  1.00  0.00    -0.352 N 
ATOM     75  C   UNL A   1      33.275  28.950  23.690  1.00  0.00     0.252 C 
ATOM     76  H   UNL A   1      34.190  30.500  24.583  1.00  0.00     0.163 HD
ATOM     77  O   UNL A   1      33.977  28.981  22.686  1.00  0.00    -0.269 OA
BRANCH  75  78
ATOM     78  C   UNL A   1      32.257  27.895  23.842  1.00  0.00     0.051 A 
ATOM     79  C   UNL A   1      32.689  26.722  24.456  1.00  0.00     0.043 A 
ATOM     80  C   UNL A   1      30.909  28.086  23.473  1.00  0.00     0.016 A 
ATOM     81  C   UNL A   1      31.743  25.760  24.743  1.00  0.00     0.072 A 
ATOM     82  C   UNL A   1      30.013  27.075  23.859  1.00  0.00     0.107 A 
ATOM     83  C   UNL A   1      30.425  29.225  22.776  1.00  0.00     0.011 A 
ATOM     84  N   UNL A   1      30.430  25.941  24.465  1.00  0.00    -0.245 NA
ATOM     85  C   UNL A   1      28.655  27.293  23.617  1.00  0.00     0.149 A 
ATOM     86  C   UNL A   1      29.065  29.406  22.544  1.00  0.00     0.004 A 
ATOM     87  F   UNL A   1      27.752  26.383  24.019  1.00  0.00    -0.205 F 
ATOM     88  C   UNL A   1      28.173  28.442  22.986  1.00  0.00     0.041 A 
BRANCH  81  89
ATOM     89  C   UNL A   1      32.088  24.488  25.384  1.00  0.00     0.003 A 
ATOM     90  C   UNL A   1      31.253  23.365  25.235  1.00  0.00     0.010 A 
ATOM     91  C   UNL A   1      33.249  24.350  26.162  1.00  0.00     0.049 A 
ATOM     92  C   UNL A   1      31.572  22.140  25.830  1.00  0.00     0.004 A 
ATOM     93  C   UNL A   1      33.553  23.130  26.759  1.00  0.00     0.123 A 
ATOM     94  C   UNL A   1      32.729  22.024  26.596  1.00  0.00     0.039 A 
ATOM     95  F   UNL A   1      34.659  23.023  27.505  1.00  0.00    -0.207 F 
ENDBRANCH  81  89
ENDBRANCH  75  78
ENDBRANCH  73  74
ENDBRANCH  72  73
ENDBRANCH   1  72
TORSDOF 12
ENDMDL
