MODEL 1
REMARK VINA RESULT:     -12.8      0.000      0.000
REMARK SMILES O=C(NCCCCNC(=O)c1ccc(-c2c3nc(c(-c4c(F)c(F)c(F)c(F)c4F)c4ccc([nH]4)c(-c4c(F)c(F)c(F)c(F)c4F)c4nc(c(-c5c(F)c(F)c(F)c(F)c5F)c5ccc2[nH]5)C=C4)C=C3)cc1)c1ccc(CNC(=O)c2ccccc2I)cc1
REMARK SMILES IDX 5 1 4 2 3 3 1 4 2 5 74 7 75 8 90 9 76 10 89 11 77 12 78 13
REMARK SMILES IDX 79 14 80 15 81 17 82 18 83 19 87 20 84 21 86 22 88 23 85 24
REMARK SMILES IDX 6 25 7 26 8 27 9 28 10 30 11 31 12 32 73 33 13 34 72 35
REMARK SMILES IDX 14 36 15 37 16 38 66 39 17 40 71 41 65 42 67 43 18 44 70 45
REMARK SMILES IDX 64 46 63 47 19 49 51 50 31 51 50 52 32 53 35 54 49 55 68 56
REMARK SMILES IDX 33 57 34 58 48 60 69 61 36 62 20 63 21 64 29 65 22 66 23 67
REMARK SMILES IDX 27 68 30 69 24 70 25 71 28 72 26 73 52 74 53 75 61 76 54 77
REMARK SMILES IDX 55 78 59 79 62 80 56 81 57 82 60 83 58 84 37 85 38 86 46 87
REMARK SMILES IDX 39 88 40 89 44 90 47 91 41 92 42 93 45 94 43 95
REMARK H PARENT 3 6 79 16 8 29 67 48 35 59
REMARK Flexibility Score: inf
ROOT
ATOM      1  C   UNL A   1      36.692  19.628  25.001  1.00  0.00     0.023 C 
ENDROOT
BRANCH   1   2
ATOM      2  C   UNL A   1      35.278  20.202  25.001  1.00  0.00     0.116 C 
BRANCH   2   3
ATOM      3  N   UNL A   1      34.262  19.182  25.203  1.00  0.00    -0.352 N 
ATOM      4  O   UNL A   1      32.157  18.371  25.376  1.00  0.00    -0.269 OA
ATOM      5  C   UNL A   1      32.902  19.288  25.046  1.00  0.00     0.251 C 
ATOM      6  H   UNL A   1      34.591  18.300  25.491  1.00  0.00     0.163 HD
BRANCH   5   7
ATOM      7  C   UNL A   1      32.340  20.537  24.500  1.00  0.00     0.039 A 
ATOM      8  C   UNL A   1      32.290  20.746  23.118  1.00  0.00     0.014 A 
ATOM      9  C   UNL A   1      31.889  21.515  25.386  1.00  0.00     0.014 A 
ATOM     10  C   UNL A   1      31.855  21.973  22.625  1.00  0.00     0.006 A 
ATOM     11  C   UNL A   1      31.446  22.740  24.888  1.00  0.00     0.006 A 
ATOM     12  C   UNL A   1      31.439  22.984  23.505  1.00  0.00    -0.029 A 
BRANCH  12  13
ATOM     13  C   UNL A   1      30.972  24.307  22.961  1.00  0.00     0.152 C 
BRANCH  13  14
ATOM     14  N   UNL A   1      31.912  24.851  22.002  1.00  0.00    -0.348 N 
ATOM     15  C   UNL A   1      32.968  25.701  22.208  1.00  0.00     0.252 C 
ATOM     16  H   UNL A   1      31.774  24.568  21.069  1.00  0.00     0.164 HD
ATOM     17  O   UNL A   1      33.653  26.089  21.266  1.00  0.00    -0.269 OA
BRANCH  15  18
ATOM     18  C   UNL A   1      33.223  26.241  23.556  1.00  0.00     0.053 A 
ATOM     19  C   UNL A   1      32.619  27.476  23.845  1.00  0.00     0.015 A 
ATOM     20  C   UNL A   1      34.028  25.617  24.517  1.00  0.00     0.026 A 
ATOM     21  C   UNL A   1      32.765  28.054  25.105  1.00  0.00     0.001 A 
ATOM     22  C   UNL A   1      34.147  26.190  25.790  1.00  0.00     0.015 A 
ATOM     23  I   UNL A   1      35.150  23.886  24.144  1.00  0.00    -0.043 I 
ATOM     24  C   UNL A   1      33.511  27.401  26.083  1.00  0.00     0.001 A 
ENDBRANCH  15  18
ENDBRANCH  13  14
ENDBRANCH  12  13
ENDBRANCH   5   7
ENDBRANCH   2   3
ENDBRANCH   1   2
BRANCH   1  25
ATOM     25  C   UNL A   1      37.813  20.655  24.860  1.00  0.00     0.023 C 
BRANCH  25  26
ATOM     26  C   UNL A   1      38.836  20.675  25.991  1.00  0.00     0.116 C 
BRANCH  26  27
ATOM     27  N   UNL A   1      39.757  19.550  25.960  1.00  0.00    -0.352 N 
ATOM     28  C   UNL A   1      41.122  19.532  26.122  1.00  0.00     0.251 C 
ATOM     29  H   UNL A   1      39.341  18.672  25.800  1.00  0.00     0.163 HD
ATOM     30  O   UNL A   1      41.747  18.486  25.974  1.00  0.00    -0.269 OA
BRANCH  28  31
ATOM     31  C   UNL A   1      41.845  20.783  26.429  1.00  0.00     0.039 A 
ATOM     32  C   UNL A   1      42.170  21.644  25.377  1.00  0.00     0.014 A 
ATOM     33  C   UNL A   1      42.172  21.125  27.744  1.00  0.00     0.014 A 
ATOM     34  C   UNL A   1      42.738  22.889  25.651  1.00  0.00     0.010 A 
ATOM     35  C   UNL A   1      42.674  22.393  28.022  1.00  0.00     0.010 A 
ATOM     36  C   UNL A   1      42.947  23.292  26.979  1.00  0.00    -0.014 A 
BRANCH  36  37
ATOM     37  C   UNL A   1      43.406  24.665  27.302  1.00  0.00     0.031 A 
ATOM     38  C   UNL A   1      42.441  25.689  27.821  1.00  0.00     0.074 A 
ATOM     39  C   UNL A   1      44.680  25.014  27.037  1.00  0.00     0.049 A 
ATOM     40  N   UNL A   1      42.638  26.958  28.076  1.00  0.00    -0.248 NA
ATOM     41  C   UNL A   1      41.063  25.233  28.057  1.00  0.00     0.031 C 
ATOM     42  C   UNL A   1      45.699  24.128  26.470  1.00  0.00     0.029 A 
ATOM     43  N   UNL A   1      45.331  26.213  27.189  1.00  0.00    -0.354 N 
ATOM     44  C   UNL A   1      41.409  27.455  28.486  1.00  0.00     0.074 A 
ATOM     45  C   UNL A   1      40.462  26.363  28.402  1.00  0.00     0.031 C 
ATOM     46  C   UNL A   1      46.846  24.810  26.332  1.00  0.00     0.029 A 
ATOM     47  C   UNL A   1      46.637  26.186  26.770  1.00  0.00     0.049 A 
ATOM     48  H   UNL A   1      44.900  27.016  27.564  1.00  0.00     0.167 HD
ATOM     49  C   UNL A   1      41.104  28.704  28.913  1.00  0.00     0.037 A 
ATOM     50  C   UNL A   1      47.562  27.164  26.732  1.00  0.00     0.037 A 
ATOM     51  C   UNL A   1      42.052  29.781  29.021  1.00  0.00     0.049 A 
ATOM     52  C   UNL A   1      47.204  28.538  27.223  1.00  0.00     0.074 A 
ATOM     53  C   UNL A   1      41.859  31.054  29.526  1.00  0.00     0.029 A 
ATOM     54  N   UNL A   1      43.375  29.710  28.608  1.00  0.00    -0.354 N 
ATOM     55  N   UNL A   1      46.059  28.976  27.684  1.00  0.00    -0.248 NA
ATOM     56  C   UNL A   1      48.267  29.551  27.190  1.00  0.00     0.031 C 
ATOM     57  C   UNL A   1      43.054  31.768  29.383  1.00  0.00     0.029 A 
ATOM     58  C   UNL A   1      44.003  30.928  28.823  1.00  0.00     0.049 A 
ATOM     59  H   UNL A   1      43.803  28.914  28.220  1.00  0.00     0.167 HD
ATOM     60  C   UNL A   1      46.262  30.310  28.004  1.00  0.00     0.074 A 
ATOM     61  C   UNL A   1      47.648  30.606  27.703  1.00  0.00     0.031 C 
ATOM     62  C   UNL A   1      45.378  31.210  28.502  1.00  0.00     0.037 A 
BRANCH  49  63
ATOM     63  C   UNL A   1      39.678  28.967  29.298  1.00  0.00     0.064 A 
ATOM     64  C   UNL A   1      38.742  29.445  28.367  1.00  0.00     0.173 A 
ATOM     65  C   UNL A   1      39.237  28.726  30.608  1.00  0.00     0.173 A 
ATOM     66  F   UNL A   1      39.117  29.703  27.105  1.00  0.00    -0.203 F 
ATOM     67  C   UNL A   1      37.427  29.705  28.743  1.00  0.00     0.198 A 
ATOM     68  C   UNL A   1      37.915  28.961  30.972  1.00  0.00     0.198 A 
ATOM     69  F   UNL A   1      40.090  28.264  31.534  1.00  0.00    -0.203 F 
ATOM     70  F   UNL A   1      36.566  30.213  27.850  1.00  0.00    -0.200 F 
ATOM     71  C   UNL A   1      37.014  29.459  30.043  1.00  0.00     0.200 A 
ATOM     72  F   UNL A   1      37.513  28.714  32.227  1.00  0.00    -0.200 F 
ATOM     73  F   UNL A   1      35.748  29.712  30.404  1.00  0.00    -0.200 F 
ENDBRANCH  49  63
BRANCH  50  74
ATOM     74  C   UNL A   1      48.924  26.861  26.227  1.00  0.00     0.064 A 
ATOM     75  C   UNL A   1      49.912  26.358  27.083  1.00  0.00     0.173 A 
ATOM     76  C   UNL A   1      49.253  27.036  24.875  1.00  0.00     0.173 A 
ATOM     77  F   UNL A   1      49.646  26.192  28.387  1.00  0.00    -0.203 F 
ATOM     78  C   UNL A   1      51.182  26.045  26.607  1.00  0.00     0.198 A 
ATOM     79  C   UNL A   1      50.518  26.703  24.396  1.00  0.00     0.198 A 
ATOM     80  F   UNL A   1      48.339  27.510  24.017  1.00  0.00    -0.203 F 
ATOM     81  F   UNL A   1      52.118  25.589  27.450  1.00  0.00    -0.200 F 
ATOM     82  C   UNL A   1      51.482  26.211  25.262  1.00  0.00     0.200 A 
ATOM     83  F   UNL A   1      50.800  26.852  23.094  1.00  0.00    -0.200 F 
ATOM     84  F   UNL A   1      52.702  25.897  24.803  1.00  0.00    -0.200 F 
ENDBRANCH  50  74
BRANCH  62  85
ATOM     85  C   UNL A   1      45.885  32.599  28.748  1.00  0.00     0.064 A 
ATOM     86  C   UNL A   1      46.499  32.948  29.960  1.00  0.00     0.173 A 
ATOM     87  C   UNL A   1      45.789  33.583  27.752  1.00  0.00     0.173 A 
ATOM     88  F   UNL A   1      46.598  32.047  30.950  1.00  0.00    -0.203 F 
ATOM     89  C   UNL A   1      46.983  34.236  30.172  1.00  0.00     0.198 A 
ATOM     90  C   UNL A   1      46.295  34.863  27.959  1.00  0.00     0.198 A 
ATOM     91  F   UNL A   1      45.212  33.297  26.575  1.00  0.00    -0.203 F 
ATOM     92  F   UNL A   1      47.532  34.558  31.353  1.00  0.00    -0.200 F 
ATOM     93  C   UNL A   1      46.886  35.189  29.170  1.00  0.00     0.200 A 
ATOM     94  F   UNL A   1      46.209  35.780  26.987  1.00  0.00    -0.200 F 
ATOM     95  F   UNL A   1      47.358  36.426  29.374  1.00  0.00    -0.200 F 
ENDBRANCH  62  85
ENDBRANCH  36  37
ENDBRANCH  28  31
ENDBRANCH  26  27
ENDBRANCH  25  26
ENDBRANCH   1  25
TORSDOF 14
ENDMDL
MODEL 2
REMARK VINA RESULT:     -12.7      5.613     11.063
REMARK SMILES O=C(NCCCCNC(=O)c1ccc(-c2c3nc(c(-c4c(F)c(F)c(F)c(F)c4F)c4ccc([nH]4)c(-c4c(F)c(F)c(F)c(F)c4F)c4nc(c(-c5c(F)c(F)c(F)c(F)c5F)c5ccc2[nH]5)C=C4)C=C3)cc1)c1ccc(CNC(=O)c2ccccc2I)cc1
REMARK SMILES IDX 5 1 4 2 3 3 1 4 2 5 74 7 75 8 90 9 76 10 89 11 77 12 78 13
REMARK SMILES IDX 79 14 80 15 81 17 82 18 83 19 87 20 84 21 86 22 88 23 85 24
REMARK SMILES IDX 6 25 7 26 8 27 9 28 10 30 11 31 12 32 73 33 13 34 72 35
REMARK SMILES IDX 14 36 15 37 16 38 66 39 17 40 71 41 65 42 67 43 18 44 70 45
REMARK SMILES IDX 64 46 63 47 19 49 51 50 31 51 50 52 32 53 35 54 49 55 68 56
REMARK SMILES IDX 33 57 34 58 48 60 69 61 36 62 20 63 21 64 29 65 22 66 23 67
REMARK SMILES IDX 27 68 30 69 24 70 25 71 28 72 26 73 52 74 53 75 61 76 54 77
REMARK SMILES IDX 55 78 59 79 62 80 56 81 57 82 60 83 58 84 37 85 38 86 46 87
REMARK SMILES IDX 39 88 40 89 44 90 47 91 41 92 42 93 45 94 43 95
REMARK H PARENT 3 6 79 16 8 29 67 48 35 59
REMARK Flexibility Score: inf
ROOT
ATOM      1  C   UNL A   1      32.004  30.316  26.969  1.00  0.00     0.023 C 
ENDROOT
BRANCH   1   2
ATOM      2  C   UNL A   1      33.206  29.820  26.172  1.00  0.00     0.116 C 
BRANCH   2   3
ATOM      3  N   UNL A   1      32.931  29.726  24.748  1.00  0.00    -0.352 N 
ATOM      4  O   UNL A   1      32.663  28.677  22.761  1.00  0.00    -0.269 OA
ATOM      5  C   UNL A   1      32.767  28.599  23.981  1.00  0.00     0.251 C 
ATOM      6  H   UNL A   1      32.853  30.584  24.269  1.00  0.00     0.163 HD
BRANCH   5   7
ATOM      7  C   UNL A   1      32.746  27.281  24.641  1.00  0.00     0.039 A 
ATOM      8  C   UNL A   1      31.530  26.651  24.925  1.00  0.00     0.014 A 
ATOM      9  C   UNL A   1      33.957  26.693  25.005  1.00  0.00     0.014 A 
ATOM     10  C   UNL A   1      31.528  25.458  25.644  1.00  0.00     0.006 A 
ATOM     11  C   UNL A   1      33.950  25.493  25.717  1.00  0.00     0.006 A 
ATOM     12  C   UNL A   1      32.736  24.875  26.055  1.00  0.00    -0.029 A 
BRANCH  12  13
ATOM     13  C   UNL A   1      32.720  23.586  26.832  1.00  0.00     0.152 C 
BRANCH  13  14
ATOM     14  N   UNL A   1      32.155  22.502  26.054  1.00  0.00    -0.348 N 
ATOM     15  C   UNL A   1      32.757  21.697  25.121  1.00  0.00     0.252 C 
ATOM     16  H   UNL A   1      31.202  22.316  26.219  1.00  0.00     0.164 HD
ATOM     17  O   UNL A   1      32.114  20.836  24.529  1.00  0.00    -0.269 OA
BRANCH  15  18
ATOM     18  C   UNL A   1      34.163  21.933  24.746  1.00  0.00     0.053 A 
ATOM     19  C   UNL A   1      35.127  21.407  25.622  1.00  0.00     0.015 A 
ATOM     20  C   UNL A   1      34.568  22.651  23.614  1.00  0.00     0.026 A 
ATOM     21  C   UNL A   1      36.484  21.541  25.338  1.00  0.00     0.001 A 
ATOM     22  C   UNL A   1      35.934  22.757  23.320  1.00  0.00     0.015 A 
ATOM     23  I   UNL A   1      33.240  23.663  22.345  1.00  0.00    -0.043 I 
ATOM     24  C   UNL A   1      36.886  22.197  24.177  1.00  0.00     0.001 A 
ENDBRANCH  15  18
ENDBRANCH  13  14
ENDBRANCH  12  13
ENDBRANCH   5   7
ENDBRANCH   2   3
ENDBRANCH   1   2
BRANCH   1  25
ATOM     25  C   UNL A   1      31.735  31.816  26.879  1.00  0.00     0.023 C 
BRANCH  25  26
ATOM     26  C   UNL A   1      32.900  32.721  27.267  1.00  0.00     0.116 C 
BRANCH  26  27
ATOM     27  N   UNL A   1      32.490  34.069  27.631  1.00  0.00    -0.352 N 
ATOM     28  C   UNL A   1      33.014  34.916  28.579  1.00  0.00     0.251 C 
ATOM     29  H   UNL A   1      31.726  34.427  27.124  1.00  0.00     0.163 HD
ATOM     30  O   UNL A   1      32.475  35.994  28.807  1.00  0.00    -0.269 OA
BRANCH  28  31
ATOM     31  C   UNL A   1      34.201  34.508  29.357  1.00  0.00     0.039 A 
ATOM     32  C   UNL A   1      34.011  33.943  30.622  1.00  0.00     0.014 A 
ATOM     33  C   UNL A   1      35.490  34.649  28.837  1.00  0.00     0.014 A 
ATOM     34  C   UNL A   1      35.104  33.433  31.324  1.00  0.00     0.010 A 
ATOM     35  C   UNL A   1      36.570  34.079  29.506  1.00  0.00     0.010 A 
ATOM     36  C   UNL A   1      36.384  33.453  30.748  1.00  0.00    -0.014 A 
BRANCH  36  37
ATOM     37  C   UNL A   1      37.532  32.783  31.406  1.00  0.00     0.031 A 
ATOM     38  C   UNL A   1      38.213  31.618  30.751  1.00  0.00     0.074 A 
ATOM     39  C   UNL A   1      37.903  33.171  32.642  1.00  0.00     0.049 A 
ATOM     40  N   UNL A   1      39.172  30.854  31.210  1.00  0.00    -0.248 NA
ATOM     41  C   UNL A   1      37.730  31.241  29.414  1.00  0.00     0.031 C 
ATOM     42  C   UNL A   1      37.278  34.248  33.412  1.00  0.00     0.029 A 
ATOM     43  N   UNL A   1      38.880  32.690  33.477  1.00  0.00    -0.354 N 
ATOM     44  C   UNL A   1      39.396  29.900  30.228  1.00  0.00     0.074 A 
ATOM     45  C   UNL A   1      38.442  30.151  29.169  1.00  0.00     0.031 C 
ATOM     46  C   UNL A   1      37.893  34.352  34.600  1.00  0.00     0.029 A 
ATOM     47  C   UNL A   1      38.932  33.331  34.689  1.00  0.00     0.049 A 
ATOM     48  H   UNL A   1      39.486  31.954  33.229  1.00  0.00     0.167 HD
ATOM     49  C   UNL A   1      40.327  28.916  30.205  1.00  0.00     0.037 A 
ATOM     50  C   UNL A   1      39.722  33.115  35.758  1.00  0.00     0.037 A 
ATOM     51  C   UNL A   1      41.292  28.684  31.247  1.00  0.00     0.049 A 
ATOM     52  C   UNL A   1      40.755  32.026  35.704  1.00  0.00     0.074 A 
ATOM     53  C   UNL A   1      42.331  27.771  31.274  1.00  0.00     0.029 A 
ATOM     54  N   UNL A   1      41.330  29.370  32.453  1.00  0.00    -0.354 N 
ATOM     55  N   UNL A   1      41.012  31.181  34.737  1.00  0.00    -0.248 NA
ATOM     56  C   UNL A   1      41.610  31.864  36.888  1.00  0.00     0.031 C 
ATOM     57  C   UNL A   1      42.975  27.877  32.513  1.00  0.00     0.029 A 
ATOM     58  C   UNL A   1      42.359  28.882  33.243  1.00  0.00     0.049 A 
ATOM     59  H   UNL A   1      40.717  30.095  32.709  1.00  0.00     0.167 HD
ATOM     60  C   UNL A   1      42.060  30.392  35.188  1.00  0.00     0.074 A 
ATOM     61  C   UNL A   1      42.406  30.873  36.510  1.00  0.00     0.031 C 
ATOM     62  C   UNL A   1      42.679  29.361  34.563  1.00  0.00     0.037 A 
BRANCH  49  63
ATOM     63  C   UNL A   1      40.343  28.017  29.004  1.00  0.00     0.064 A 
ATOM     64  C   UNL A   1      41.086  28.336  27.857  1.00  0.00     0.173 A 
ATOM     65  C   UNL A   1      39.619  26.815  29.004  1.00  0.00     0.173 A 
ATOM     66  F   UNL A   1      41.785  29.480  27.803  1.00  0.00    -0.203 F 
ATOM     67  C   UNL A   1      41.075  27.504  26.741  1.00  0.00     0.198 A 
ATOM     68  C   UNL A   1      39.633  25.972  27.897  1.00  0.00     0.198 A 
ATOM     69  F   UNL A   1      38.896  26.461  30.077  1.00  0.00    -0.203 F 
ATOM     70  F   UNL A   1      41.749  27.857  25.639  1.00  0.00    -0.200 F 
ATOM     71  C   UNL A   1      40.352  26.320  26.764  1.00  0.00     0.200 A 
ATOM     72  F   UNL A   1      38.941  24.823  27.922  1.00  0.00    -0.200 F 
ATOM     73  F   UNL A   1      40.341  25.521  25.688  1.00  0.00    -0.200 F 
ENDBRANCH  49  63
BRANCH  50  74
ATOM     74  C   UNL A   1      39.571  33.969  36.961  1.00  0.00     0.064 A 
ATOM     75  C   UNL A   1      40.172  35.233  37.025  1.00  0.00     0.173 A 
ATOM     76  C   UNL A   1      38.796  33.555  38.055  1.00  0.00     0.173 A 
ATOM     77  F   UNL A   1      40.937  35.661  36.011  1.00  0.00    -0.203 F 
ATOM     78  C   UNL A   1      40.009  36.050  38.141  1.00  0.00     0.198 A 
ATOM     79  C   UNL A   1      38.616  34.383  39.161  1.00  0.00     0.198 A 
ATOM     80  F   UNL A   1      38.196  32.356  38.037  1.00  0.00    -0.203 F 
ATOM     81  F   UNL A   1      40.616  37.244  38.189  1.00  0.00    -0.200 F 
ATOM     82  C   UNL A   1      39.225  35.627  39.205  1.00  0.00     0.200 A 
ATOM     83  F   UNL A   1      37.848  33.976  40.181  1.00  0.00    -0.200 F 
ATOM     84  F   UNL A   1      39.059  36.420  40.273  1.00  0.00    -0.200 F 
ENDBRANCH  50  74
BRANCH  62  85
ATOM     85  C   UNL A   1      43.792  28.682  35.304  1.00  0.00     0.064 A 
ATOM     86  C   UNL A   1      43.545  27.592  36.152  1.00  0.00     0.173 A 
ATOM     87  C   UNL A   1      45.121  29.101  35.139  1.00  0.00     0.173 A 
ATOM     88  F   UNL A   1      42.289  27.167  36.356  1.00  0.00    -0.203 F 
ATOM     89  C   UNL A   1      44.587  26.957  36.822  1.00  0.00     0.198 A 
ATOM     90  C   UNL A   1      46.163  28.448  35.792  1.00  0.00     0.198 A 
ATOM     91  F   UNL A   1      45.408  30.137  34.337  1.00  0.00    -0.203 F 
ATOM     92  F   UNL A   1      44.325  25.942  37.657  1.00  0.00    -0.200 F 
ATOM     93  C   UNL A   1      45.895  27.382  36.636  1.00  0.00     0.200 A 
ATOM     94  F   UNL A   1      47.426  28.854  35.605  1.00  0.00    -0.200 F 
ATOM     95  F   UNL A   1      46.897  26.766  37.277  1.00  0.00    -0.200 F 
ENDBRANCH  62  85
ENDBRANCH  36  37
ENDBRANCH  28  31
ENDBRANCH  26  27
ENDBRANCH  25  26
ENDBRANCH   1  25
TORSDOF 14
ENDMDL
MODEL 3
REMARK VINA RESULT:     -12.6      0.859      1.504
REMARK SMILES O=C(NCCCCNC(=O)c1ccc(-c2c3nc(c(-c4c(F)c(F)c(F)c(F)c4F)c4ccc([nH]4)c(-c4c(F)c(F)c(F)c(F)c4F)c4nc(c(-c5c(F)c(F)c(F)c(F)c5F)c5ccc2[nH]5)C=C4)C=C3)cc1)c1ccc(CNC(=O)c2ccccc2I)cc1
REMARK SMILES IDX 5 1 4 2 3 3 1 4 2 5 74 7 75 8 90 9 76 10 89 11 77 12 78 13
REMARK SMILES IDX 79 14 80 15 81 17 82 18 83 19 87 20 84 21 86 22 88 23 85 24
REMARK SMILES IDX 6 25 7 26 8 27 9 28 10 30 11 31 12 32 73 33 13 34 72 35
REMARK SMILES IDX 14 36 15 37 16 38 66 39 17 40 71 41 65 42 67 43 18 44 70 45
REMARK SMILES IDX 64 46 63 47 19 49 51 50 31 51 50 52 32 53 35 54 49 55 68 56
REMARK SMILES IDX 33 57 34 58 48 60 69 61 36 62 20 63 21 64 29 65 22 66 23 67
REMARK SMILES IDX 27 68 30 69 24 70 25 71 28 72 26 73 52 74 53 75 61 76 54 77
REMARK SMILES IDX 55 78 59 79 62 80 56 81 57 82 60 83 58 84 37 85 38 86 46 87
REMARK SMILES IDX 39 88 40 89 44 90 47 91 41 92 42 93 45 94 43 95
REMARK H PARENT 3 6 79 16 8 29 67 48 35 59
REMARK Flexibility Score: inf
ROOT
ATOM      1  C   UNL A   1      36.862  21.323  24.696  1.00  0.00     0.023 C 
ENDROOT
BRANCH   1   2
ATOM      2  C   UNL A   1      35.667  21.492  25.629  1.00  0.00     0.116 C 
BRANCH   2   3
ATOM      3  N   UNL A   1      34.877  20.279  25.751  1.00  0.00    -0.352 N 
ATOM      4  O   UNL A   1      32.991  19.029  25.700  1.00  0.00    -0.269 OA
ATOM      5  C   UNL A   1      33.558  20.081  25.423  1.00  0.00     0.251 C 
ATOM      6  H   UNL A   1      35.348  19.495  26.116  1.00  0.00     0.163 HD
BRANCH   5   7
ATOM      7  C   UNL A   1      32.816  21.167  24.757  1.00  0.00     0.039 A 
ATOM      8  C   UNL A   1      32.908  21.341  23.372  1.00  0.00     0.014 A 
ATOM      9  C   UNL A   1      32.048  22.033  25.536  1.00  0.00     0.014 A 
ATOM     10  C   UNL A   1      32.286  22.435  22.776  1.00  0.00     0.006 A 
ATOM     11  C   UNL A   1      31.420  23.122  24.933  1.00  0.00     0.006 A 
ATOM     12  C   UNL A   1      31.546  23.341  23.551  1.00  0.00    -0.029 A 
BRANCH  12  13
ATOM     13  C   UNL A   1      30.879  24.520  22.896  1.00  0.00     0.152 C 
BRANCH  13  14
ATOM     14  N   UNL A   1      31.779  25.205  21.990  1.00  0.00    -0.348 N 
ATOM     15  C   UNL A   1      32.717  26.168  22.263  1.00  0.00     0.252 C 
ATOM     16  H   UNL A   1      31.709  24.941  21.045  1.00  0.00     0.164 HD
ATOM     17  O   UNL A   1      33.382  26.667  21.360  1.00  0.00    -0.269 OA
BRANCH  15  18
ATOM     18  C   UNL A   1      32.859  26.687  23.636  1.00  0.00     0.053 A 
ATOM     19  C   UNL A   1      33.787  26.018  24.450  1.00  0.00     0.015 A 
ATOM     20  C   UNL A   1      32.122  27.759  24.154  1.00  0.00     0.026 A 
ATOM     21  C   UNL A   1      34.025  26.454  25.752  1.00  0.00     0.001 A 
ATOM     22  C   UNL A   1      32.387  28.209  25.454  1.00  0.00     0.015 A 
ATOM     23  I   UNL A   1      30.564  28.705  23.118  1.00  0.00    -0.043 I 
ATOM     24  C   UNL A   1      33.340  27.562  26.246  1.00  0.00     0.001 A 
ENDBRANCH  15  18
ENDBRANCH  13  14
ENDBRANCH  12  13
ENDBRANCH   5   7
ENDBRANCH   2   3
ENDBRANCH   1   2
BRANCH   1  25
ATOM     25  C   UNL A   1      37.762  20.127  24.998  1.00  0.00     0.023 C 
BRANCH  25  26
ATOM     26  C   UNL A   1      39.053  20.444  25.745  1.00  0.00     0.116 C 
BRANCH  26  27
ATOM     27  N   UNL A   1      39.955  19.307  25.852  1.00  0.00    -0.352 N 
ATOM     28  C   UNL A   1      41.302  19.282  26.126  1.00  0.00     0.251 C 
ATOM     29  H   UNL A   1      39.539  18.427  25.708  1.00  0.00     0.163 HD
ATOM     30  O   UNL A   1      41.919  18.222  26.089  1.00  0.00    -0.269 OA
BRANCH  28  31
ATOM     31  C   UNL A   1      42.018  20.540  26.421  1.00  0.00     0.039 A 
ATOM     32  C   UNL A   1      42.445  21.334  25.353  1.00  0.00     0.014 A 
ATOM     33  C   UNL A   1      42.241  20.954  27.737  1.00  0.00     0.014 A 
ATOM     34  C   UNL A   1      43.009  22.585  25.602  1.00  0.00     0.010 A 
ATOM     35  C   UNL A   1      42.740  22.229  27.984  1.00  0.00     0.010 A 
ATOM     36  C   UNL A   1      43.115  23.062  26.919  1.00  0.00    -0.014 A 
BRANCH  36  37
ATOM     37  C   UNL A   1      43.569  24.446  27.199  1.00  0.00     0.031 A 
ATOM     38  C   UNL A   1      42.601  25.480  27.694  1.00  0.00     0.074 A 
ATOM     39  C   UNL A   1      44.840  24.793  26.919  1.00  0.00     0.049 A 
ATOM     40  N   UNL A   1      42.794  26.757  27.912  1.00  0.00    -0.248 NA
ATOM     41  C   UNL A   1      41.227  25.026  27.949  1.00  0.00     0.031 C 
ATOM     42  C   UNL A   1      45.860  23.896  26.373  1.00  0.00     0.029 A 
ATOM     43  N   UNL A   1      45.486  25.999  27.035  1.00  0.00    -0.354 N 
ATOM     44  C   UNL A   1      41.565  27.260  28.313  1.00  0.00     0.074 A 
ATOM     45  C   UNL A   1      40.623  26.162  28.264  1.00  0.00     0.031 C 
ATOM     46  C   UNL A   1      47.004  24.578  26.211  1.00  0.00     0.029 A 
ATOM     47  C   UNL A   1      46.791  25.965  26.610  1.00  0.00     0.049 A 
ATOM     48  H   UNL A   1      45.054  26.810  27.388  1.00  0.00     0.167 HD
ATOM     49  C   UNL A   1      41.256  28.519  28.705  1.00  0.00     0.037 A 
ATOM     50  C   UNL A   1      47.711  26.945  26.540  1.00  0.00     0.037 A 
ATOM     51  C   UNL A   1      42.200  29.603  28.779  1.00  0.00     0.049 A 
ATOM     52  C   UNL A   1      47.349  28.331  26.993  1.00  0.00     0.074 A 
ATOM     53  C   UNL A   1      42.004  30.889  29.248  1.00  0.00     0.029 A 
ATOM     54  N   UNL A   1      43.522  29.527  28.361  1.00  0.00    -0.354 N 
ATOM     55  N   UNL A   1      46.205  28.778  27.447  1.00  0.00    -0.248 NA
ATOM     56  C   UNL A   1      48.408  29.348  26.926  1.00  0.00     0.031 C 
ATOM     57  C   UNL A   1      43.196  31.604  29.080  1.00  0.00     0.029 A 
ATOM     58  C   UNL A   1      44.146  30.752  28.539  1.00  0.00     0.049 A 
ATOM     59  H   UNL A   1      43.952  28.722  27.995  1.00  0.00     0.167 HD
ATOM     60  C   UNL A   1      46.403  30.121  27.728  1.00  0.00     0.074 A 
ATOM     61  C   UNL A   1      47.787  30.415  27.412  1.00  0.00     0.031 C 
ATOM     62  C   UNL A   1      45.518  31.031  28.204  1.00  0.00     0.037 A 
BRANCH  49  63
ATOM     63  C   UNL A   1      39.831  28.787  29.089  1.00  0.00     0.064 A 
ATOM     64  C   UNL A   1      38.887  29.223  28.147  1.00  0.00     0.173 A 
ATOM     65  C   UNL A   1      39.400  28.593  30.410  1.00  0.00     0.173 A 
ATOM     66  F   UNL A   1      39.251  29.436  26.874  1.00  0.00    -0.203 F 
ATOM     67  C   UNL A   1      37.572  29.489  28.522  1.00  0.00     0.198 A 
ATOM     68  C   UNL A   1      38.078  28.833  30.774  1.00  0.00     0.198 A 
ATOM     69  F   UNL A   1      40.262  28.172  31.348  1.00  0.00    -0.203 F 
ATOM     70  F   UNL A   1      36.702  29.956  27.616  1.00  0.00    -0.200 F 
ATOM     71  C   UNL A   1      37.168  29.290  29.833  1.00  0.00     0.200 A 
ATOM     72  F   UNL A   1      37.686  28.632  32.040  1.00  0.00    -0.200 F 
ATOM     73  F   UNL A   1      35.903  29.548  30.192  1.00  0.00    -0.200 F 
ENDBRANCH  49  63
BRANCH  50  74
ATOM     74  C   UNL A   1      49.072  26.634  26.037  1.00  0.00     0.064 A 
ATOM     75  C   UNL A   1      49.436  26.931  24.718  1.00  0.00     0.173 A 
ATOM     76  C   UNL A   1      50.044  26.066  26.874  1.00  0.00     0.173 A 
ATOM     77  F   UNL A   1      48.532  27.457  23.878  1.00  0.00    -0.203 F 
ATOM     78  C   UNL A   1      50.720  26.668  24.250  1.00  0.00     0.198 A 
ATOM     79  C   UNL A   1      51.336  25.823  26.411  1.00  0.00     0.198 A 
ATOM     80  F   UNL A   1      49.744  25.769  28.146  1.00  0.00    -0.203 F 
ATOM     81  F   UNL A   1      51.036  26.938  22.976  1.00  0.00    -0.200 F 
ATOM     82  C   UNL A   1      51.672  26.121  25.100  1.00  0.00     0.200 A 
ATOM     83  F   UNL A   1      52.255  25.306  27.238  1.00  0.00    -0.200 F 
ATOM     84  F   UNL A   1      52.912  25.880  24.652  1.00  0.00    -0.200 F 
ENDBRANCH  50  74
BRANCH  62  85
ATOM     85  C   UNL A   1      46.020  32.429  28.408  1.00  0.00     0.064 A 
ATOM     86  C   UNL A   1      46.624  32.818  29.613  1.00  0.00     0.173 A 
ATOM     87  C   UNL A   1      45.929  33.379  27.380  1.00  0.00     0.173 A 
ATOM     88  F   UNL A   1      46.717  31.951  30.632  1.00  0.00    -0.203 F 
ATOM     89  C   UNL A   1      47.103  34.114  29.786  1.00  0.00     0.198 A 
ATOM     90  C   UNL A   1      46.431  34.666  27.548  1.00  0.00     0.198 A 
ATOM     91  F   UNL A   1      45.362  33.053  26.208  1.00  0.00    -0.203 F 
ATOM     92  F   UNL A   1      47.642  34.476  30.959  1.00  0.00    -0.200 F 
ATOM     93  C   UNL A   1      47.012  35.034  28.752  1.00  0.00     0.200 A 
ATOM     94  F   UNL A   1      46.350  35.551  26.546  1.00  0.00    -0.200 F 
ATOM     95  F   UNL A   1      47.479  36.278  28.919  1.00  0.00    -0.200 F 
ENDBRANCH  62  85
ENDBRANCH  36  37
ENDBRANCH  28  31
ENDBRANCH  26  27
ENDBRANCH  25  26
ENDBRANCH   1  25
TORSDOF 14
ENDMDL
