MODEL 1
REMARK VINA RESULT:     -13.0      0.000      0.000
REMARK SMILES C[C@H]1CCC[C@]1(C(=O)NCCCCNC(=O)c1ccc(-c2c3nc(c(-c4c(F)c(F)c(F)c(F)c4F)c4ccc([nH]4)c(-c4c(F)c(F)c(F)c(F)c4F)c4nc(c(-c5c(F)c(F)c(F)c(F)c5F)c5ccc2[nH]5)C=C4)C=C3)cc1)c1ccc2c(c1)OCO2
REMARK SMILES IDX 12 1 11 2 10 3 9 4 7 5 8 6 6 8 1 9 2 10 3 11 4 12 5 13 80 14
REMARK SMILES IDX 81 15 85 16 82 17 84 18 83 19 86 20 88 21 87 22 13 23 14 24
REMARK SMILES IDX 15 25 16 27 17 28 18 29 79 30 19 31 78 32 20 33 21 34 22 35
REMARK SMILES IDX 72 36 23 37 77 38 71 39 73 40 24 41 76 42 70 43 69 44 25 46
REMARK SMILES IDX 57 47 37 48 56 49 38 50 41 51 55 52 74 53 39 54 40 55 54 57
REMARK SMILES IDX 75 58 42 59 26 60 27 61 35 62 28 63 29 64 33 65 36 66 30 67
REMARK SMILES IDX 31 68 34 69 32 70 58 71 59 72 67 73 60 74 61 75 65 76 68 77
REMARK SMILES IDX 62 78 63 79 66 80 64 81 43 82 44 83 52 84 45 85 46 86 50 87
REMARK SMILES IDX 53 88 47 89 48 90 51 91 49 92
REMARK H PARENT 9 7 14 26 73 45 41 56
REMARK Flexibility Score: inf
ROOT
ATOM      1  C   UNL A   1      31.860  28.838  25.379  1.00  0.00     0.023 C 
ENDROOT
BRANCH   1   2
ATOM      2  C   UNL A   1      31.403  27.783  26.379  1.00  0.00     0.023 C 
BRANCH   2   3
ATOM      3  C   UNL A   1      30.635  26.611  25.775  1.00  0.00     0.116 C 
BRANCH   3   4
ATOM      4  N   UNL A   1      30.812  25.369  26.504  1.00  0.00    -0.355 N 
ATOM      5  C   UNL A   1      31.794  24.418  26.531  1.00  0.00     0.230 C 
ATOM      6  O   UNL A   1      31.710  23.671  27.513  1.00  0.00    -0.274 OA
ATOM      7  H   UNL A   1      30.063  25.167  27.110  1.00  0.00     0.163 HD
BRANCH   5   8
ATOM      8  C   UNL A   1      32.926  24.273  25.447  1.00  0.00     0.077 C 
ATOM      9  C   UNL A   1      31.036  23.512  23.781  1.00  0.00     0.009 C 
ATOM     10  C   UNL A   1      32.403  24.154  23.970  1.00  0.00     0.006 C 
ATOM     11  C   UNL A   1      32.585  25.521  23.325  1.00  0.00     0.005 C 
ATOM     12  C   UNL A   1      33.802  26.110  24.030  1.00  0.00     0.002 C 
ATOM     13  C   UNL A   1      33.793  25.566  25.462  1.00  0.00     0.022 C 
BRANCH   8  14
ATOM     14  C   UNL A   1      33.825  22.990  25.589  1.00  0.00    -0.028 A 
ATOM     15  C   UNL A   1      33.389  21.709  25.162  1.00  0.00     0.009 A 
ATOM     16  C   UNL A   1      35.205  23.143  25.878  1.00  0.00     0.055 A 
ATOM     17  C   UNL A   1      34.279  20.636  25.000  1.00  0.00     0.051 A 
ATOM     18  C   UNL A   1      36.063  22.089  25.652  1.00  0.00     0.166 A 
ATOM     19  C   UNL A   1      35.615  20.870  25.216  1.00  0.00     0.165 A 
ATOM     20  O   UNL A   1      37.420  22.150  25.731  1.00  0.00    -0.454 OA
ATOM     21  O   UNL A   1      36.636  20.005  24.970  1.00  0.00    -0.454 OA
ATOM     22  C   UNL A   1      37.766  20.890  25.125  1.00  0.00     0.468 C 
ENDBRANCH   8  14
ENDBRANCH   5   8
ENDBRANCH   3   4
ENDBRANCH   2   3
ENDBRANCH   1   2
BRANCH   1  23
ATOM     23  C   UNL A   1      33.048  29.673  25.832  1.00  0.00     0.116 C 
BRANCH  23  24
ATOM     24  N   UNL A   1      32.687  30.987  26.348  1.00  0.00    -0.352 N 
ATOM     25  C   UNL A   1      33.382  31.757  27.251  1.00  0.00     0.251 C 
ATOM     26  H   UNL A   1      31.845  31.370  26.011  1.00  0.00     0.163 HD
ATOM     27  O   UNL A   1      32.930  32.820  27.660  1.00  0.00    -0.269 OA
BRANCH  25  28
ATOM     28  C   UNL A   1      34.667  31.244  27.757  1.00  0.00     0.039 A 
ATOM     29  C   UNL A   1      35.717  32.141  27.960  1.00  0.00     0.014 A 
ATOM     30  C   UNL A   1      34.786  29.903  28.125  1.00  0.00     0.014 A 
ATOM     31  C   UNL A   1      36.869  31.704  28.610  1.00  0.00     0.010 A 
ATOM     32  C   UNL A   1      35.900  29.491  28.845  1.00  0.00     0.010 A 
ATOM     33  C   UNL A   1      36.950  30.387  29.093  1.00  0.00    -0.014 A 
BRANCH  33  34
ATOM     34  C   UNL A   1      38.132  29.922  29.855  1.00  0.00     0.031 A 
ATOM     35  C   UNL A   1      38.357  30.417  31.254  1.00  0.00     0.074 A 
ATOM     36  C   UNL A   1      39.033  29.115  29.262  1.00  0.00     0.049 A 
ATOM     37  N   UNL A   1      39.357  30.183  32.064  1.00  0.00    -0.248 NA
ATOM     38  C   UNL A   1      37.339  31.326  31.804  1.00  0.00     0.031 C 
ATOM     39  C   UNL A   1      38.955  28.624  27.885  1.00  0.00     0.029 A 
ATOM     40  N   UNL A   1      40.199  28.574  29.742  1.00  0.00    -0.354 N 
ATOM     41  C   UNL A   1      39.097  30.929  33.205  1.00  0.00     0.074 A 
ATOM     42  C   UNL A   1      37.879  31.669  32.963  1.00  0.00     0.031 C 
ATOM     43  C   UNL A   1      40.012  27.832  27.640  1.00  0.00     0.029 A 
ATOM     44  C   UNL A   1      40.855  27.783  28.830  1.00  0.00     0.049 A 
ATOM     45  H   UNL A   1      40.534  28.738  30.653  1.00  0.00     0.167 HD
ATOM     46  C   UNL A   1      39.797  30.970  34.363  1.00  0.00     0.037 A 
ATOM     47  C   UNL A   1      42.006  27.096  28.948  1.00  0.00     0.037 A 
ATOM     48  C   UNL A   1      40.987  30.201  34.612  1.00  0.00     0.049 A 
ATOM     49  C   UNL A   1      42.749  27.133  30.256  1.00  0.00     0.074 A 
ATOM     50  C   UNL A   1      41.733  30.116  35.774  1.00  0.00     0.029 A 
ATOM     51  N   UNL A   1      41.600  29.378  33.679  1.00  0.00    -0.354 N 
ATOM     52  N   UNL A   1      42.454  27.781  31.356  1.00  0.00    -0.248 NA
ATOM     53  C   UNL A   1      43.979  26.334  30.342  1.00  0.00     0.031 C 
ATOM     54  C   UNL A   1      42.818  29.267  35.533  1.00  0.00     0.029 A 
ATOM     55  C   UNL A   1      42.725  28.791  34.234  1.00  0.00     0.049 A 
ATOM     56  H   UNL A   1      41.284  29.234  32.758  1.00  0.00     0.167 HD
ATOM     57  C   UNL A   1      43.442  27.450  32.272  1.00  0.00     0.074 A 
ATOM     58  C   UNL A   1      44.339  26.530  31.603  1.00  0.00     0.031 C 
ATOM     59  C   UNL A   1      43.596  27.870  33.551  1.00  0.00     0.037 A 
BRANCH  46  60
ATOM     60  C   UNL A   1      39.281  31.866  35.449  1.00  0.00     0.064 A 
ATOM     61  C   UNL A   1      39.627  33.224  35.507  1.00  0.00     0.173 A 
ATOM     62  C   UNL A   1      38.414  31.367  36.433  1.00  0.00     0.173 A 
ATOM     63  F   UNL A   1      40.466  33.746  34.598  1.00  0.00    -0.203 F 
ATOM     64  C   UNL A   1      39.151  34.043  36.527  1.00  0.00     0.198 A 
ATOM     65  C   UNL A   1      37.916  32.196  37.435  1.00  0.00     0.198 A 
ATOM     66  F   UNL A   1      38.050  30.077  36.423  1.00  0.00    -0.203 F 
ATOM     67  F   UNL A   1      39.539  35.325  36.592  1.00  0.00    -0.200 F 
ATOM     68  C   UNL A   1      38.290  33.530  37.486  1.00  0.00     0.200 A 
ATOM     69  F   UNL A   1      37.077  31.702  38.355  1.00  0.00    -0.200 F 
ATOM     70  F   UNL A   1      37.829  34.320  38.465  1.00  0.00    -0.200 F 
ENDBRANCH  46  60
BRANCH  47  71
ATOM     71  C   UNL A   1      42.505  26.279  27.811  1.00  0.00     0.064 A 
ATOM     72  C   UNL A   1      43.472  26.789  26.932  1.00  0.00     0.173 A 
ATOM     73  C   UNL A   1      42.028  24.982  27.577  1.00  0.00     0.173 A 
ATOM     74  F   UNL A   1      43.944  28.032  27.105  1.00  0.00    -0.203 F 
ATOM     75  C   UNL A   1      43.927  26.039  25.850  1.00  0.00     0.198 A 
ATOM     76  C   UNL A   1      42.503  24.224  26.509  1.00  0.00     0.198 A 
ATOM     77  F   UNL A   1      41.108  24.447  28.392  1.00  0.00    -0.203 F 
ATOM     78  F   UNL A   1      44.819  26.566  25.001  1.00  0.00    -0.200 F 
ATOM     79  C   UNL A   1      43.446  24.755  25.642  1.00  0.00     0.200 A 
ATOM     80  F   UNL A   1      42.045  22.979  26.318  1.00  0.00    -0.200 F 
ATOM     81  F   UNL A   1      43.886  24.033  24.603  1.00  0.00    -0.200 F 
ENDBRANCH  47  71
BRANCH  59  82
ATOM     82  C   UNL A   1      44.757  27.312  34.320  1.00  0.00     0.064 A 
ATOM     83  C   UNL A   1      45.987  27.983  34.381  1.00  0.00     0.173 A 
ATOM     84  C   UNL A   1      44.621  26.116  35.039  1.00  0.00     0.173 A 
ATOM     85  F   UNL A   1      46.169  29.123  33.697  1.00  0.00    -0.203 F 
ATOM     86  C   UNL A   1      47.048  27.462  35.116  1.00  0.00     0.198 A 
ATOM     87  C   UNL A   1      45.675  25.612  35.794  1.00  0.00     0.198 A 
ATOM     88  F   UNL A   1      43.461  25.441  35.018  1.00  0.00    -0.203 F 
ATOM     89  F   UNL A   1      48.228  28.096  35.125  1.00  0.00    -0.200 F 
ATOM     90  C   UNL A   1      46.890  26.282  35.827  1.00  0.00     0.200 A 
ATOM     91  F   UNL A   1      45.518  24.479  36.492  1.00  0.00    -0.200 F 
ATOM     92  F   UNL A   1      47.910  25.786  36.539  1.00  0.00    -0.200 F 
ENDBRANCH  59  82
ENDBRANCH  33  34
ENDBRANCH  25  28
ENDBRANCH  23  24
ENDBRANCH   1  23
TORSDOF 12
ENDMDL
MODEL 2
REMARK VINA RESULT:     -13.0      0.154      1.609
REMARK SMILES C[C@H]1CCC[C@]1(C(=O)NCCCCNC(=O)c1ccc(-c2c3nc(c(-c4c(F)c(F)c(F)c(F)c4F)c4ccc([nH]4)c(-c4c(F)c(F)c(F)c(F)c4F)c4nc(c(-c5c(F)c(F)c(F)c(F)c5F)c5ccc2[nH]5)C=C4)C=C3)cc1)c1ccc2c(c1)OCO2
REMARK SMILES IDX 12 1 11 2 10 3 9 4 7 5 8 6 6 8 1 9 2 10 3 11 4 12 5 13 80 14
REMARK SMILES IDX 81 15 85 16 82 17 84 18 83 19 86 20 88 21 87 22 13 23 14 24
REMARK SMILES IDX 15 25 16 27 17 28 18 29 79 30 19 31 78 32 20 33 21 34 22 35
REMARK SMILES IDX 72 36 23 37 77 38 71 39 73 40 24 41 76 42 70 43 69 44 25 46
REMARK SMILES IDX 57 47 37 48 56 49 38 50 41 51 55 52 74 53 39 54 40 55 54 57
REMARK SMILES IDX 75 58 42 59 26 60 27 61 35 62 28 63 29 64 33 65 36 66 30 67
REMARK SMILES IDX 31 68 34 69 32 70 58 71 59 72 67 73 60 74 61 75 65 76 68 77
REMARK SMILES IDX 62 78 63 79 66 80 64 81 43 82 44 83 52 84 45 85 46 86 50 87
REMARK SMILES IDX 53 88 47 89 48 90 51 91 49 92
REMARK H PARENT 9 7 14 26 73 45 41 56
REMARK Flexibility Score: inf
ROOT
ATOM      1  C   UNL A   1      31.697  29.106  25.683  1.00  0.00     0.023 C 
ENDROOT
BRANCH   1   2
ATOM      2  C   UNL A   1      31.403  27.885  26.545  1.00  0.00     0.023 C 
BRANCH   2   3
ATOM      3  C   UNL A   1      30.703  26.738  25.822  1.00  0.00     0.116 C 
BRANCH   3   4
ATOM      4  N   UNL A   1      30.831  25.464  26.504  1.00  0.00    -0.355 N 
ATOM      5  C   UNL A   1      31.778  24.477  26.499  1.00  0.00     0.230 C 
ATOM      6  O   UNL A   1      31.662  23.698  27.452  1.00  0.00    -0.274 OA
ATOM      7  H   UNL A   1      30.072  25.266  27.098  1.00  0.00     0.163 HD
BRANCH   5   8
ATOM      8  C   UNL A   1      32.911  24.332  25.416  1.00  0.00     0.077 C 
ATOM      9  C   UNL A   1      31.028  23.525  23.763  1.00  0.00     0.009 C 
ATOM     10  C   UNL A   1      32.388  24.187  23.942  1.00  0.00     0.006 C 
ATOM     11  C   UNL A   1      32.551  25.547  23.277  1.00  0.00     0.005 C 
ATOM     12  C   UNL A   1      33.761  26.162  23.973  1.00  0.00     0.002 C 
ATOM     13  C   UNL A   1      33.761  25.637  25.412  1.00  0.00     0.022 C 
BRANCH   8  14
ATOM     14  C   UNL A   1      33.827  23.063  25.574  1.00  0.00    -0.028 A 
ATOM     15  C   UNL A   1      33.412  21.773  25.153  1.00  0.00     0.009 A 
ATOM     16  C   UNL A   1      35.202  23.238  25.873  1.00  0.00     0.055 A 
ATOM     17  C   UNL A   1      34.318  20.712  25.006  1.00  0.00     0.051 A 
ATOM     18  C   UNL A   1      36.076  22.195  25.661  1.00  0.00     0.166 A 
ATOM     19  C   UNL A   1      35.649  20.966  25.230  1.00  0.00     0.165 A 
ATOM     20  O   UNL A   1      37.432  22.275  25.750  1.00  0.00    -0.454 OA
ATOM     21  O   UNL A   1      36.685  20.114  24.999  1.00  0.00    -0.454 OA
ATOM     22  C   UNL A   1      37.801  21.016  25.156  1.00  0.00     0.468 C 
ENDBRANCH   8  14
ENDBRANCH   5   8
ENDBRANCH   3   4
ENDBRANCH   2   3
ENDBRANCH   1   2
BRANCH   1  23
ATOM     23  C   UNL A   1      32.944  29.882  26.080  1.00  0.00     0.116 C 
BRANCH  23  24
ATOM     24  N   UNL A   1      32.681  31.249  26.511  1.00  0.00    -0.352 N 
ATOM     25  C   UNL A   1      33.453  32.035  27.335  1.00  0.00     0.251 C 
ATOM     26  H   UNL A   1      31.852  31.659  26.174  1.00  0.00     0.163 HD
ATOM     27  O   UNL A   1      33.081  33.150  27.679  1.00  0.00    -0.269 OA
BRANCH  25  28
ATOM     28  C   UNL A   1      34.722  31.479  27.835  1.00  0.00     0.039 A 
ATOM     29  C   UNL A   1      35.810  32.336  28.008  1.00  0.00     0.014 A 
ATOM     30  C   UNL A   1      34.791  30.142  28.230  1.00  0.00     0.014 A 
ATOM     31  C   UNL A   1      36.952  31.865  28.653  1.00  0.00     0.010 A 
ATOM     32  C   UNL A   1      35.895  29.699  28.945  1.00  0.00     0.010 A 
ATOM     33  C   UNL A   1      36.984  30.556  29.162  1.00  0.00    -0.014 A 
BRANCH  33  34
ATOM     34  C   UNL A   1      38.156  30.057  29.919  1.00  0.00     0.031 A 
ATOM     35  C   UNL A   1      38.379  30.517  31.332  1.00  0.00     0.074 A 
ATOM     36  C   UNL A   1      39.050  29.253  29.313  1.00  0.00     0.049 A 
ATOM     37  N   UNL A   1      39.371  30.252  32.141  1.00  0.00    -0.248 NA
ATOM     38  C   UNL A   1      37.370  31.427  31.896  1.00  0.00     0.031 C 
ATOM     39  C   UNL A   1      38.973  28.794  27.925  1.00  0.00     0.029 A 
ATOM     40  N   UNL A   1      40.205  28.685  29.787  1.00  0.00    -0.354 N 
ATOM     41  C   UNL A   1      39.114  30.974  33.297  1.00  0.00     0.074 A 
ATOM     42  C   UNL A   1      37.908  31.736  33.066  1.00  0.00     0.031 C 
ATOM     43  C   UNL A   1      40.021  27.994  27.668  1.00  0.00     0.029 A 
ATOM     44  C   UNL A   1      40.857  27.907  28.861  1.00  0.00     0.049 A 
ATOM     45  H   UNL A   1      40.537  28.824  30.704  1.00  0.00     0.167 HD
ATOM     46  C   UNL A   1      39.808  30.980  34.460  1.00  0.00     0.037 A 
ATOM     47  C   UNL A   1      41.998  27.202  28.969  1.00  0.00     0.037 A 
ATOM     48  C   UNL A   1      40.986  30.189  34.697  1.00  0.00     0.049 A 
ATOM     49  C   UNL A   1      42.734  27.199  30.282  1.00  0.00     0.074 A 
ATOM     50  C   UNL A   1      41.724  30.068  35.861  1.00  0.00     0.029 A 
ATOM     51  N   UNL A   1      41.594  29.380  33.749  1.00  0.00    -0.354 N 
ATOM     52  N   UNL A   1      42.440  27.826  31.395  1.00  0.00    -0.248 NA
ATOM     53  C   UNL A   1      43.952  26.383  30.356  1.00  0.00     0.031 C 
ATOM     54  C   UNL A   1      42.800  29.210  35.607  1.00  0.00     0.029 A 
ATOM     55  C   UNL A   1      42.708  28.765  34.297  1.00  0.00     0.049 A 
ATOM     56  H   UNL A   1      41.281  29.261  32.824  1.00  0.00     0.167 HD
ATOM     57  C   UNL A   1      43.418  27.461  32.309  1.00  0.00     0.074 A 
ATOM     58  C   UNL A   1      44.307  26.545  31.623  1.00  0.00     0.031 C 
ATOM     59  C   UNL A   1      43.570  27.848  33.598  1.00  0.00     0.037 A 
BRANCH  46  60
ATOM     60  C   UNL A   1      39.298  31.857  35.564  1.00  0.00     0.064 A 
ATOM     61  C   UNL A   1      39.685  33.201  35.672  1.00  0.00     0.173 A 
ATOM     62  C   UNL A   1      38.395  31.356  36.513  1.00  0.00     0.173 A 
ATOM     63  F   UNL A   1      40.558  33.724  34.797  1.00  0.00    -0.203 F 
ATOM     64  C   UNL A   1      39.212  34.003  36.707  1.00  0.00     0.198 A 
ATOM     65  C   UNL A   1      37.901  32.168  37.531  1.00  0.00     0.198 A 
ATOM     66  F   UNL A   1      37.991  30.078  36.455  1.00  0.00    -0.203 F 
ATOM     67  F   UNL A   1      39.639  35.268  36.821  1.00  0.00    -0.200 F 
ATOM     68  C   UNL A   1      38.316  33.488  37.632  1.00  0.00     0.200 A 
ATOM     69  F   UNL A   1      37.028  31.672  38.418  1.00  0.00    -0.200 F 
ATOM     70  F   UNL A   1      37.860  34.260  38.627  1.00  0.00    -0.200 F 
ENDBRANCH  46  60
BRANCH  47  71
ATOM     71  C   UNL A   1      42.492  26.405  27.816  1.00  0.00     0.064 A 
ATOM     72  C   UNL A   1      42.019  25.105  27.590  1.00  0.00     0.173 A 
ATOM     73  C   UNL A   1      43.442  26.919  26.924  1.00  0.00     0.173 A 
ATOM     74  F   UNL A   1      41.123  24.563  28.428  1.00  0.00    -0.203 F 
ATOM     75  C   UNL A   1      42.494  24.342  26.525  1.00  0.00     0.198 A 
ATOM     76  C   UNL A   1      43.898  26.165  25.845  1.00  0.00     0.198 A 
ATOM     77  F   UNL A   1      43.921  28.161  27.094  1.00  0.00    -0.203 F 
ATOM     78  F   UNL A   1      42.057  23.086  26.357  1.00  0.00    -0.200 F 
ATOM     79  C   UNL A   1      43.429  24.874  25.651  1.00  0.00     0.200 A 
ATOM     80  F   UNL A   1      44.792  26.687  24.995  1.00  0.00    -0.200 F 
ATOM     81  F   UNL A   1      43.884  24.141  24.626  1.00  0.00    -0.200 F 
ENDBRANCH  47  71
BRANCH  59  82
ATOM     82  C   UNL A   1      44.720  27.258  34.360  1.00  0.00     0.064 A 
ATOM     83  C   UNL A   1      44.601  26.038  35.040  1.00  0.00     0.173 A 
ATOM     84  C   UNL A   1      45.965  27.902  34.372  1.00  0.00     0.173 A 
ATOM     85  F   UNL A   1      43.424  25.394  35.070  1.00  0.00    -0.203 F 
ATOM     86  C   UNL A   1      45.683  25.495  35.725  1.00  0.00     0.198 A 
ATOM     87  C   UNL A   1      47.053  27.343  35.035  1.00  0.00     0.198 A 
ATOM     88  F   UNL A   1      46.131  29.069  33.730  1.00  0.00    -0.203 F 
ATOM     89  F   UNL A   1      45.536  24.350  36.406  1.00  0.00    -0.200 F 
ATOM     90  C   UNL A   1      46.909  26.143  35.717  1.00  0.00     0.200 A 
ATOM     91  F   UNL A   1      48.241  27.963  35.016  1.00  0.00    -0.200 F 
ATOM     92  F   UNL A   1      47.952  25.615  36.372  1.00  0.00    -0.200 F 
ENDBRANCH  59  82
ENDBRANCH  33  34
ENDBRANCH  25  28
ENDBRANCH  23  24
ENDBRANCH   1  23
TORSDOF 12
ENDMDL
MODEL 3
REMARK VINA RESULT:     -13.0      2.575      4.358
REMARK SMILES C[C@H]1CCC[C@]1(C(=O)NCCCCNC(=O)c1ccc(-c2c3nc(c(-c4c(F)c(F)c(F)c(F)c4F)c4ccc([nH]4)c(-c4c(F)c(F)c(F)c(F)c4F)c4nc(c(-c5c(F)c(F)c(F)c(F)c5F)c5ccc2[nH]5)C=C4)C=C3)cc1)c1ccc2c(c1)OCO2
REMARK SMILES IDX 12 1 11 2 10 3 9 4 7 5 8 6 6 8 1 9 2 10 3 11 4 12 5 13 80 14
REMARK SMILES IDX 81 15 85 16 82 17 84 18 83 19 86 20 88 21 87 22 13 23 14 24
REMARK SMILES IDX 15 25 16 27 17 28 18 29 79 30 19 31 78 32 20 33 21 34 22 35
REMARK SMILES IDX 72 36 23 37 77 38 71 39 73 40 24 41 76 42 70 43 69 44 25 46
REMARK SMILES IDX 57 47 37 48 56 49 38 50 41 51 55 52 74 53 39 54 40 55 54 57
REMARK SMILES IDX 75 58 42 59 26 60 27 61 35 62 28 63 29 64 33 65 36 66 30 67
REMARK SMILES IDX 31 68 34 69 32 70 58 71 59 72 67 73 60 74 61 75 65 76 68 77
REMARK SMILES IDX 62 78 63 79 66 80 64 81 43 82 44 83 52 84 45 85 46 86 50 87
REMARK SMILES IDX 53 88 47 89 48 90 51 91 49 92
REMARK H PARENT 9 7 14 26 73 45 41 56
REMARK Flexibility Score: inf
ROOT
ATOM      1  C   UNL A   1      31.508  31.953  26.986  1.00  0.00     0.023 C 
ENDROOT
BRANCH   1   2
ATOM      2  C   UNL A   1      31.819  30.801  26.038  1.00  0.00     0.023 C 
BRANCH   2   3
ATOM      3  C   UNL A   1      33.050  29.978  26.404  1.00  0.00     0.116 C 
BRANCH   3   4
ATOM      4  N   UNL A   1      33.772  29.477  25.250  1.00  0.00    -0.355 N 
ATOM      5  C   UNL A   1      33.537  28.478  24.346  1.00  0.00     0.230 C 
ATOM      6  O   UNL A   1      34.240  28.574  23.333  1.00  0.00    -0.274 OA
ATOM      7  H   UNL A   1      34.613  29.959  25.081  1.00  0.00     0.163 HD
BRANCH   5   8
ATOM      8  C   UNL A   1      32.484  27.324  24.543  1.00  0.00     0.077 C 
ATOM      9  C   UNL A   1      33.834  25.978  22.728  1.00  0.00     0.009 C 
ATOM     10  C   UNL A   1      32.917  25.938  23.943  1.00  0.00     0.006 C 
ATOM     11  C   UNL A   1      33.400  25.083  25.106  1.00  0.00     0.005 C 
ATOM     12  C   UNL A   1      32.584  25.573  26.297  1.00  0.00     0.002 C 
ATOM     13  C   UNL A   1      32.316  27.064  26.069  1.00  0.00     0.022 C 
BRANCH   8  14
ATOM     14  C   UNL A   1      31.091  27.568  23.856  1.00  0.00    -0.028 A 
ATOM     15  C   UNL A   1      29.996  26.683  24.030  1.00  0.00     0.009 A 
ATOM     16  C   UNL A   1      30.816  28.836  23.284  1.00  0.00     0.055 A 
ATOM     17  C   UNL A   1      28.685  27.044  23.682  1.00  0.00     0.051 A 
ATOM     18  C   UNL A   1      29.512  29.185  23.010  1.00  0.00     0.166 A 
ATOM     19  C   UNL A   1      28.472  28.316  23.211  1.00  0.00     0.165 A 
ATOM     20  O   UNL A   1      29.095  30.418  22.616  1.00  0.00    -0.454 OA
ATOM     21  O   UNL A   1      27.265  28.894  22.963  1.00  0.00    -0.454 OA
ATOM     22  C   UNL A   1      27.670  30.266  22.769  1.00  0.00     0.468 C 
ENDBRANCH   8  14
ENDBRANCH   5   8
ENDBRANCH   3   4
ENDBRANCH   2   3
ENDBRANCH   1   2
BRANCH   1  23
ATOM     23  C   UNL A   1      32.703  32.822  27.347  1.00  0.00     0.116 C 
BRANCH  23  24
ATOM     24  N   UNL A   1      32.361  34.203  27.663  1.00  0.00    -0.352 N 
ATOM     25  C   UNL A   1      32.968  35.033  28.575  1.00  0.00     0.251 C 
ATOM     26  H   UNL A   1      31.604  34.587  27.164  1.00  0.00     0.163 HD
ATOM     27  O   UNL A   1      32.535  36.158  28.797  1.00  0.00    -0.269 OA
BRANCH  25  28
ATOM     28  C   UNL A   1      34.130  34.516  29.319  1.00  0.00     0.039 A 
ATOM     29  C   UNL A   1      33.912  33.824  30.511  1.00  0.00     0.014 A 
ATOM     30  C   UNL A   1      35.412  34.627  28.776  1.00  0.00     0.014 A 
ATOM     31  C   UNL A   1      34.981  33.171  31.124  1.00  0.00     0.010 A 
ATOM     32  C   UNL A   1      36.455  33.909  29.343  1.00  0.00     0.010 A 
ATOM     33  C   UNL A   1      36.249  33.176  30.521  1.00  0.00    -0.014 A 
BRANCH  33  34
ATOM     34  C   UNL A   1      37.381  32.425  31.113  1.00  0.00     0.031 A 
ATOM     35  C   UNL A   1      37.871  32.780  32.487  1.00  0.00     0.074 A 
ATOM     36  C   UNL A   1      38.007  31.480  30.386  1.00  0.00     0.049 A 
ATOM     37  N   UNL A   1      38.883  32.291  33.157  1.00  0.00    -0.248 NA
ATOM     38  C   UNL A   1      37.149  33.853  33.188  1.00  0.00     0.031 C 
ATOM     39  C   UNL A   1      37.662  31.096  29.016  1.00  0.00     0.029 A 
ATOM     40  N   UNL A   1      39.073  30.675  30.698  1.00  0.00    -0.354 N 
ATOM     41  C   UNL A   1      38.928  33.009  34.343  1.00  0.00     0.074 A 
ATOM     42  C   UNL A   1      37.883  34.005  34.280  1.00  0.00     0.031 C 
ATOM     43  C   UNL A   1      38.484  30.112  28.616  1.00  0.00     0.029 A 
ATOM     44  C   UNL A   1      39.429  29.816  29.687  1.00  0.00     0.049 A 
ATOM     45  H   UNL A   1      39.540  30.711  31.564  1.00  0.00     0.167 HD
ATOM     46  C   UNL A   1      39.751  32.833  35.404  1.00  0.00     0.037 A 
ATOM     47  C   UNL A   1      40.407  28.893  29.637  1.00  0.00     0.037 A 
ATOM     48  C   UNL A   1      40.763  31.814  35.477  1.00  0.00     0.049 A 
ATOM     49  C   UNL A   1      41.288  28.695  30.841  1.00  0.00     0.074 A 
ATOM     50  C   UNL A   1      41.602  31.505  36.532  1.00  0.00     0.029 A 
ATOM     51  N   UNL A   1      41.068  30.934  34.449  1.00  0.00    -0.354 N 
ATOM     52  N   UNL A   1      41.272  29.327  31.990  1.00  0.00    -0.248 NA
ATOM     53  C   UNL A   1      42.314  27.648  30.747  1.00  0.00     0.031 C 
ATOM     54  C   UNL A   1      42.439  30.458  36.130  1.00  0.00     0.029 A 
ATOM     55  C   UNL A   1      42.093  30.089  34.839  1.00  0.00     0.049 A 
ATOM     56  H   UNL A   1      40.622  30.914  33.572  1.00  0.00     0.167 HD
ATOM     57  C   UNL A   1      42.264  28.740  32.763  1.00  0.00     0.074 A 
ATOM     58  C   UNL A   1      42.853  27.689  31.957  1.00  0.00     0.031 C 
ATOM     59  C   UNL A   1      42.654  29.043  34.024  1.00  0.00     0.037 A 
BRANCH  46  60
ATOM     60  C   UNL A   1      39.574  33.755  36.574  1.00  0.00     0.064 A 
ATOM     61  C   UNL A   1      38.788  33.397  37.679  1.00  0.00     0.173 A 
ATOM     62  C   UNL A   1      40.215  35.003  36.600  1.00  0.00     0.173 A 
ATOM     63  F   UNL A   1      38.143  32.220  37.695  1.00  0.00    -0.203 F 
ATOM     64  C   UNL A   1      38.623  34.266  38.754  1.00  0.00     0.198 A 
ATOM     65  C   UNL A   1      40.071  35.859  37.690  1.00  0.00     0.198 A 
ATOM     66  F   UNL A   1      40.979  35.394  35.570  1.00  0.00    -0.203 F 
ATOM     67  F   UNL A   1      37.824  33.924  39.773  1.00  0.00    -0.200 F 
ATOM     68  C   UNL A   1      39.270  35.493  38.762  1.00  0.00     0.200 A 
ATOM     69  F   UNL A   1      40.704  37.039  37.701  1.00  0.00    -0.200 F 
ATOM     70  F   UNL A   1      39.113  36.328  39.798  1.00  0.00    -0.200 F 
ENDBRANCH  46  60
BRANCH  47  71
ATOM     71  C   UNL A   1      40.577  28.055  28.422  1.00  0.00     0.064 A 
ATOM     72  C   UNL A   1      41.356  28.503  27.346  1.00  0.00     0.173 A 
ATOM     73  C   UNL A   1      39.969  26.797  28.308  1.00  0.00     0.173 A 
ATOM     74  F   UNL A   1      41.943  29.708  27.401  1.00  0.00    -0.203 F 
ATOM     75  C   UNL A   1      41.502  27.735  26.193  1.00  0.00     0.198 A 
ATOM     76  C   UNL A   1      40.136  26.019  27.166  1.00  0.00     0.198 A 
ATOM     77  F   UNL A   1      39.219  26.321  29.313  1.00  0.00    -0.203 F 
ATOM     78  F   UNL A   1      42.217  28.206  25.163  1.00  0.00    -0.200 F 
ATOM     79  C   UNL A   1      40.896  26.490  26.106  1.00  0.00     0.200 A 
ATOM     80  F   UNL A   1      39.559  24.811  27.090  1.00  0.00    -0.200 F 
ATOM     81  F   UNL A   1      41.039  25.750  24.998  1.00  0.00    -0.200 F 
ENDBRANCH  47  71
BRANCH  59  82
ATOM     82  C   UNL A   1      43.747  28.207  34.623  1.00  0.00     0.064 A 
ATOM     83  C   UNL A   1      45.091  28.599  34.556  1.00  0.00     0.173 A 
ATOM     84  C   UNL A   1      43.437  27.022  35.307  1.00  0.00     0.173 A 
ATOM     85  F   UNL A   1      45.437  29.716  33.899  1.00  0.00    -0.203 F 
ATOM     86  C   UNL A   1      46.090  27.822  35.135  1.00  0.00     0.198 A 
ATOM     87  C   UNL A   1      44.435  26.262  35.907  1.00  0.00     0.198 A 
ATOM     88  F   UNL A   1      42.164  26.609  35.404  1.00  0.00    -0.203 F 
ATOM     89  F   UNL A   1      47.373  28.192  35.022  1.00  0.00    -0.200 F 
ATOM     90  C   UNL A   1      45.762  26.659  35.815  1.00  0.00     0.200 A 
ATOM     91  F   UNL A   1      44.116  25.145  36.576  1.00  0.00    -0.200 F 
ATOM     92  F   UNL A   1      46.724  25.916  36.377  1.00  0.00    -0.200 F 
ENDBRANCH  59  82
ENDBRANCH  33  34
ENDBRANCH  25  28
ENDBRANCH  23  24
ENDBRANCH   1  23
TORSDOF 12
ENDMDL
