MODEL 1
REMARK VINA RESULT:     -13.7      0.000      0.000
REMARK SMILES C[C@H](C(=O)NCCCCNC(=O)c1ccc(-c2c3nc(c(-c4c(F)c(F)c(F)c(F)c4F)c4ccc([nH]4)c(-c4c(F)c(F)c(F)c(F)c4F)c4nc(c(-c5c(F)c(F)c(F)c(F)c5F)c5ccc2[nH]5)C=C4)C=C3)cc1)c1ccc2c3cc(Cl)ccc3n(C(=O)c3cocn3)c2c1
REMARK SMILES IDX 7 1 6 2 5 3 3 4 4 5 2 7 1 8 76 9 77 10 96 11 78 12 95 13
REMARK SMILES IDX 79 14 87 15 80 16 86 17 81 18 85 19 82 20 84 21 83 22 88 23
REMARK SMILES IDX 89 24 90 25 91 26 94 27 92 28 93 29 8 30 9 31 10 32 11 33
REMARK SMILES IDX 12 35 13 36 14 37 75 38 15 39 74 40 16 41 17 42 18 43 68 44
REMARK SMILES IDX 19 45 73 46 67 47 69 48 20 49 72 50 66 51 65 52 21 54 53 55
REMARK SMILES IDX 33 56 52 57 34 58 37 59 51 60 70 61 35 62 36 63 50 65 71 66
REMARK SMILES IDX 38 67 22 68 23 69 31 70 24 71 25 72 29 73 32 74 26 75 27 76
REMARK SMILES IDX 30 77 28 78 54 79 55 80 63 81 56 82 57 83 61 84 64 85 58 86
REMARK SMILES IDX 59 87 62 88 60 89 39 90 40 91 48 92 41 93 42 94 46 95 49 96
REMARK SMILES IDX 43 97 44 98 47 99 45 100
REMARK H PARENT 5 6 10 34 69 53 37 64
REMARK Flexibility Score: inf
ROOT
ATOM      1  C   UNL A   1      31.702  30.208  26.607  1.00  0.00     0.023 C 
ENDROOT
BRANCH   1   2
ATOM      2  C   UNL A   1      32.578  29.695  25.462  1.00  0.00     0.116 C 
BRANCH   2   3
ATOM      3  N   UNL A   1      31.781  29.171  24.368  1.00  0.00    -0.356 N 
ATOM      4  C   UNL A   1      31.149  27.966  24.234  1.00  0.00     0.227 C 
ATOM      5  O   UNL A   1      30.565  27.753  23.167  1.00  0.00    -0.274 OA
ATOM      6  H   UNL A   1      31.679  29.780  23.601  1.00  0.00     0.163 HD
BRANCH   4   7
ATOM      7  C   UNL A   1      31.185  26.928  25.368  1.00  0.00     0.105 C 
ATOM      8  C   UNL A   1      29.872  26.136  25.376  1.00  0.00     0.023 C 
BRANCH   7   9
ATOM      9  C   UNL A   1      32.429  26.051  25.254  1.00  0.00    -0.034 A 
ATOM     10  C   UNL A   1      33.717  26.542  25.471  1.00  0.00     0.005 A 
ATOM     11  C   UNL A   1      32.263  24.678  25.009  1.00  0.00     0.032 A 
ATOM     12  C   UNL A   1      34.824  25.682  25.501  1.00  0.00     0.011 A 
ATOM     13  C   UNL A   1      33.363  23.804  25.113  1.00  0.00     0.058 A 
ATOM     14  C   UNL A   1      34.641  24.290  25.367  1.00  0.00     0.008 A 
ATOM     15  N   UNL A   1      33.419  22.405  25.098  1.00  0.00    -0.274 N 
ATOM     16  C   UNL A   1      35.518  23.171  25.426  1.00  0.00     0.009 A 
ATOM     17  C   UNL A   1      34.755  22.012  25.228  1.00  0.00     0.057 A 
ATOM     18  C   UNL A   1      36.911  23.062  25.618  1.00  0.00     0.031 A 
ATOM     19  C   UNL A   1      35.374  20.749  25.137  1.00  0.00     0.029 A 
ATOM     20  C   UNL A   1      37.515  21.807  25.563  1.00  0.00     0.041 A 
ATOM     21  C   UNL A   1      36.761  20.666  25.315  1.00  0.00     0.023 A 
ATOM     22  Cl  UNL A   1      39.217  21.677  25.776  1.00  0.00    -0.084 Cl
BRANCH  15  23
ATOM     23  C   UNL A   1      32.267  21.580  24.990  1.00  0.00     0.284 C 
ATOM     24  O   UNL A   1      31.267  21.984  25.572  1.00  0.00    -0.266 OA
BRANCH  23  25
ATOM     25  C   UNL A   1      32.248  20.269  24.336  1.00  0.00     0.167 A 
ATOM     26  C   UNL A   1      32.321  19.946  22.998  1.00  0.00     0.231 A 
ATOM     27  N   UNL A   1      32.297  19.089  25.069  1.00  0.00    -0.211 NA
ATOM     28  O   UNL A   1      32.401  18.589  22.881  1.00  0.00    -0.451 OA
ATOM     29  C   UNL A   1      32.394  18.144  24.165  1.00  0.00     0.308 A 
ENDBRANCH  23  25
ENDBRANCH  15  23
ENDBRANCH   7   9
ENDBRANCH   4   7
ENDBRANCH   2   3
ENDBRANCH   1   2
BRANCH   1  30
ATOM     30  C   UNL A   1      31.529  31.725  26.655  1.00  0.00     0.023 C 
BRANCH  30  31
ATOM     31  C   UNL A   1      32.685  32.488  27.284  1.00  0.00     0.116 C 
BRANCH  31  32
ATOM     32  N   UNL A   1      32.379  33.886  27.551  1.00  0.00    -0.352 N 
ATOM     33  C   UNL A   1      32.973  34.742  28.448  1.00  0.00     0.251 C 
ATOM     34  H   UNL A   1      31.647  34.271  27.016  1.00  0.00     0.163 HD
ATOM     35  O   UNL A   1      32.517  35.866  28.632  1.00  0.00    -0.269 OA
BRANCH  33  36
ATOM     36  C   UNL A   1      34.141  34.283  29.229  1.00  0.00     0.039 A 
ATOM     37  C   UNL A   1      33.921  33.612  30.434  1.00  0.00     0.014 A 
ATOM     38  C   UNL A   1      35.441  34.479  28.757  1.00  0.00     0.014 A 
ATOM     39  C   UNL A   1      35.004  33.067  31.127  1.00  0.00     0.010 A 
ATOM     40  C   UNL A   1      36.507  33.863  29.403  1.00  0.00     0.010 A 
ATOM     41  C   UNL A   1      36.300  33.152  30.595  1.00  0.00    -0.014 A 
BRANCH  41  42
ATOM     42  C   UNL A   1      37.455  32.509  31.270  1.00  0.00     0.031 A 
ATOM     43  C   UNL A   1      38.162  31.358  30.613  1.00  0.00     0.074 A 
ATOM     44  C   UNL A   1      37.818  32.912  32.502  1.00  0.00     0.049 A 
ATOM     45  N   UNL A   1      39.136  30.612  31.070  1.00  0.00    -0.248 NA
ATOM     46  C   UNL A   1      37.688  30.970  29.275  1.00  0.00     0.031 C 
ATOM     47  C   UNL A   1      37.175  33.981  33.268  1.00  0.00     0.029 A 
ATOM     48  N   UNL A   1      38.812  32.461  33.334  1.00  0.00    -0.354 N 
ATOM     49  C   UNL A   1      39.374  29.660  30.089  1.00  0.00     0.074 A 
ATOM     50  C   UNL A   1      38.404  29.883  29.038  1.00  0.00     0.031 C 
ATOM     51  C   UNL A   1      37.807  34.122  34.444  1.00  0.00     0.029 A 
ATOM     52  C   UNL A   1      38.875  33.130  34.531  1.00  0.00     0.049 A 
ATOM     53  H   UNL A   1      39.423  31.727  33.095  1.00  0.00     0.167 HD
ATOM     54  C   UNL A   1      40.330  28.701  30.054  1.00  0.00     0.037 A 
ATOM     55  C   UNL A   1      39.699  32.960  35.583  1.00  0.00     0.037 A 
ATOM     56  C   UNL A   1      41.312  28.504  31.087  1.00  0.00     0.049 A 
ATOM     57  C   UNL A   1      40.758  31.894  35.518  1.00  0.00     0.074 A 
ATOM     58  C   UNL A   1      42.366  27.609  31.118  1.00  0.00     0.029 A 
ATOM     59  N   UNL A   1      41.359  29.219  32.276  1.00  0.00    -0.354 N 
ATOM     60  N   UNL A   1      41.021  31.046  34.554  1.00  0.00    -0.248 NA
ATOM     61  C   UNL A   1      41.642  31.768  36.685  1.00  0.00     0.031 C 
ATOM     62  C   UNL A   1      43.025  27.751  32.344  1.00  0.00     0.029 A 
ATOM     63  C   UNL A   1      42.412  28.770  33.057  1.00  0.00     0.049 A 
ATOM     64  H   UNL A   1      40.736  29.939  32.527  1.00  0.00     0.167 HD
ATOM     65  C   UNL A   1      42.114  30.304  34.984  1.00  0.00     0.074 A 
ATOM     66  C   UNL A   1      42.473  30.813  36.292  1.00  0.00     0.031 C 
ATOM     67  C   UNL A   1      42.760  29.294  34.353  1.00  0.00     0.037 A 
BRANCH  54  68
ATOM     68  C   UNL A   1      40.357  27.796  28.856  1.00  0.00     0.064 A 
ATOM     69  C   UNL A   1      41.089  28.122  27.703  1.00  0.00     0.173 A 
ATOM     70  C   UNL A   1      39.655  26.582  28.864  1.00  0.00     0.173 A 
ATOM     71  F   UNL A   1      41.768  29.278  27.639  1.00  0.00    -0.203 F 
ATOM     72  C   UNL A   1      41.084  27.286  26.591  1.00  0.00     0.198 A 
ATOM     73  C   UNL A   1      39.679  25.732  27.761  1.00  0.00     0.198 A 
ATOM     74  F   UNL A   1      38.943  26.219  29.941  1.00  0.00    -0.203 F 
ATOM     75  F   UNL A   1      41.740  27.648  25.479  1.00  0.00    -0.200 F 
ATOM     76  C   UNL A   1      40.384  26.090  26.621  1.00  0.00     0.200 A 
ATOM     77  F   UNL A   1      39.012  24.571  27.797  1.00  0.00    -0.200 F 
ATOM     78  F   UNL A   1      40.381  25.286  25.550  1.00  0.00    -0.200 F 
ENDBRANCH  54  68
BRANCH  55  79
ATOM     79  C   UNL A   1      39.577  33.845  36.770  1.00  0.00     0.064 A 
ATOM     80  C   UNL A   1      40.222  35.090  36.803  1.00  0.00     0.173 A 
ATOM     81  C   UNL A   1      38.815  33.473  37.887  1.00  0.00     0.173 A 
ATOM     82  F   UNL A   1      40.977  35.481  35.766  1.00  0.00    -0.203 F 
ATOM     83  C   UNL A   1      40.120  35.924  37.915  1.00  0.00     0.198 A 
ATOM     84  C   UNL A   1      38.693  34.320  38.988  1.00  0.00     0.198 A 
ATOM     85  F   UNL A   1      38.176  32.296  37.902  1.00  0.00    -0.203 F 
ATOM     86  F   UNL A   1      40.778  37.091  37.936  1.00  0.00    -0.200 F 
ATOM     87  C   UNL A   1      39.351  35.541  39.004  1.00  0.00     0.200 A 
ATOM     88  F   UNL A   1      37.939  33.953  40.032  1.00  0.00    -0.200 F 
ATOM     89  F   UNL A   1      39.249  36.345  40.070  1.00  0.00    -0.200 F 
ENDBRANCH  55  79
BRANCH  67  90
ATOM     90  C   UNL A   1      43.945  28.694  35.051  1.00  0.00     0.064 A 
ATOM     91  C   UNL A   1      45.243  29.189  34.857  1.00  0.00     0.173 A 
ATOM     92  C   UNL A   1      43.772  27.639  35.961  1.00  0.00     0.173 A 
ATOM     93  F   UNL A   1      45.462  30.186  33.986  1.00  0.00    -0.203 F 
ATOM     94  C   UNL A   1      46.328  28.633  35.530  1.00  0.00     0.198 A 
ATOM     95  C   UNL A   1      44.855  27.106  36.653  1.00  0.00     0.198 A 
ATOM     96  F   UNL A   1      42.550  27.134  36.187  1.00  0.00    -0.203 F 
ATOM     97  F   UNL A   1      47.566  29.092  35.294  1.00  0.00    -0.200 F 
ATOM     98  C   UNL A   1      46.133  27.599  36.432  1.00  0.00     0.200 A 
ATOM     99  F   UNL A   1      44.663  26.116  37.536  1.00  0.00    -0.200 F 
ATOM    100  F   UNL A   1      47.177  27.071  37.086  1.00  0.00    -0.200 F 
ENDBRANCH  67  90
ENDBRANCH  41  42
ENDBRANCH  33  36
ENDBRANCH  31  32
ENDBRANCH  30  31
ENDBRANCH   1  30
TORSDOF 14
ENDMDL
MODEL 2
REMARK VINA RESULT:     -13.6      0.568      7.139
REMARK SMILES C[C@H](C(=O)NCCCCNC(=O)c1ccc(-c2c3nc(c(-c4c(F)c(F)c(F)c(F)c4F)c4ccc([nH]4)c(-c4c(F)c(F)c(F)c(F)c4F)c4nc(c(-c5c(F)c(F)c(F)c(F)c5F)c5ccc2[nH]5)C=C4)C=C3)cc1)c1ccc2c3cc(Cl)ccc3n(C(=O)c3cocn3)c2c1
REMARK SMILES IDX 7 1 6 2 5 3 3 4 4 5 2 7 1 8 76 9 77 10 96 11 78 12 95 13
REMARK SMILES IDX 79 14 87 15 80 16 86 17 81 18 85 19 82 20 84 21 83 22 88 23
REMARK SMILES IDX 89 24 90 25 91 26 94 27 92 28 93 29 8 30 9 31 10 32 11 33
REMARK SMILES IDX 12 35 13 36 14 37 75 38 15 39 74 40 16 41 17 42 18 43 68 44
REMARK SMILES IDX 19 45 73 46 67 47 69 48 20 49 72 50 66 51 65 52 21 54 53 55
REMARK SMILES IDX 33 56 52 57 34 58 37 59 51 60 70 61 35 62 36 63 50 65 71 66
REMARK SMILES IDX 38 67 22 68 23 69 31 70 24 71 25 72 29 73 32 74 26 75 27 76
REMARK SMILES IDX 30 77 28 78 54 79 55 80 63 81 56 82 57 83 61 84 64 85 58 86
REMARK SMILES IDX 59 87 62 88 60 89 39 90 40 91 48 92 41 93 42 94 46 95 49 96
REMARK SMILES IDX 43 97 44 98 47 99 45 100
REMARK H PARENT 5 6 10 34 69 53 37 64
REMARK Flexibility Score: inf
ROOT
ATOM      1  C   UNL A   1      31.404  30.383  26.520  1.00  0.00     0.023 C 
ENDROOT
BRANCH   1   2
ATOM      2  C   UNL A   1      32.307  29.707  25.487  1.00  0.00     0.116 C 
BRANCH   2   3
ATOM      3  N   UNL A   1      31.538  29.076  24.431  1.00  0.00    -0.356 N 
ATOM      4  C   UNL A   1      30.995  27.824  24.361  1.00  0.00     0.227 C 
ATOM      5  O   UNL A   1      30.415  27.520  23.314  1.00  0.00    -0.274 OA
ATOM      6  H   UNL A   1      31.383  29.640  23.639  1.00  0.00     0.163 HD
BRANCH   4   7
ATOM      7  C   UNL A   1      31.120  26.844  25.540  1.00  0.00     0.105 C 
ATOM      8  C   UNL A   1      29.827  26.028  25.664  1.00  0.00     0.023 C 
BRANCH   7   9
ATOM      9  C   UNL A   1      32.374  25.986  25.394  1.00  0.00    -0.034 A 
ATOM     10  C   UNL A   1      33.659  26.494  25.593  1.00  0.00     0.005 A 
ATOM     11  C   UNL A   1      32.224  24.614  25.139  1.00  0.00     0.032 A 
ATOM     12  C   UNL A   1      34.779  25.651  25.594  1.00  0.00     0.011 A 
ATOM     13  C   UNL A   1      33.338  23.755  25.215  1.00  0.00     0.058 A 
ATOM     14  C   UNL A   1      34.613  24.257  25.451  1.00  0.00     0.008 A 
ATOM     15  N   UNL A   1      33.414  22.357  25.185  1.00  0.00    -0.274 N 
ATOM     16  C   UNL A   1      35.507  23.151  25.482  1.00  0.00     0.009 A 
ATOM     17  C   UNL A   1      34.757  21.983  25.287  1.00  0.00     0.057 A 
ATOM     18  C   UNL A   1      36.905  23.060  25.648  1.00  0.00     0.031 A 
ATOM     19  C   UNL A   1      35.393  20.729  25.172  1.00  0.00     0.029 A 
ATOM     20  C   UNL A   1      37.526  21.815  25.570  1.00  0.00     0.041 A 
ATOM     21  C   UNL A   1      36.784  20.666  25.324  1.00  0.00     0.023 A 
ATOM     22  Cl  UNL A   1      39.234  21.708  25.751  1.00  0.00    -0.084 Cl
BRANCH  15  23
ATOM     23  C   UNL A   1      32.272  21.516  25.090  1.00  0.00     0.284 C 
ATOM     24  O   UNL A   1      31.301  21.862  25.752  1.00  0.00    -0.266 OA
BRANCH  23  25
ATOM     25  C   UNL A   1      32.238  20.249  24.355  1.00  0.00     0.167 A 
ATOM     26  C   UNL A   1      32.292  20.010  22.999  1.00  0.00     0.231 A 
ATOM     27  N   UNL A   1      32.292  19.025  25.012  1.00  0.00    -0.211 NA
ATOM     28  O   UNL A   1      32.365  18.663  22.795  1.00  0.00    -0.451 OA
ATOM     29  C   UNL A   1      32.373  18.138  24.049  1.00  0.00     0.308 A 
ENDBRANCH  23  25
ENDBRANCH  15  23
ENDBRANCH   7   9
ENDBRANCH   4   7
ENDBRANCH   2   3
ENDBRANCH   1   2
BRANCH   1  30
ATOM     30  C   UNL A   1      31.438  31.911  26.502  1.00  0.00     0.023 C 
BRANCH  30  31
ATOM     31  C   UNL A   1      32.611  32.540  27.240  1.00  0.00     0.116 C 
BRANCH  31  32
ATOM     32  N   UNL A   1      32.398  33.939  27.579  1.00  0.00    -0.352 N 
ATOM     33  C   UNL A   1      33.062  34.713  28.501  1.00  0.00     0.251 C 
ATOM     34  H   UNL A   1      31.680  34.393  27.081  1.00  0.00     0.163 HD
ATOM     35  O   UNL A   1      32.680  35.851  28.750  1.00  0.00    -0.269 OA
BRANCH  33  36
ATOM     36  C   UNL A   1      34.215  34.146  29.232  1.00  0.00     0.039 A 
ATOM     37  C   UNL A   1      33.974  33.348  30.353  1.00  0.00     0.014 A 
ATOM     38  C   UNL A   1      35.523  34.367  28.791  1.00  0.00     0.014 A 
ATOM     39  C   UNL A   1      35.041  32.708  30.986  1.00  0.00     0.010 A 
ATOM     40  C   UNL A   1      36.572  33.661  29.369  1.00  0.00     0.010 A 
ATOM     41  C   UNL A   1      36.342  32.826  30.473  1.00  0.00    -0.014 A 
BRANCH  41  42
ATOM     42  C   UNL A   1      37.480  32.088  31.077  1.00  0.00     0.031 A 
ATOM     43  C   UNL A   1      37.960  32.449  32.455  1.00  0.00     0.074 A 
ATOM     44  C   UNL A   1      38.125  31.149  30.360  1.00  0.00     0.049 A 
ATOM     45  N   UNL A   1      38.983  31.982  33.125  1.00  0.00    -0.248 NA
ATOM     46  C   UNL A   1      37.211  33.500  33.160  1.00  0.00     0.031 C 
ATOM     47  C   UNL A   1      37.789  30.749  28.993  1.00  0.00     0.029 A 
ATOM     48  N   UNL A   1      39.207  30.367  30.678  1.00  0.00    -0.354 N 
ATOM     49  C   UNL A   1      39.011  32.696  34.315  1.00  0.00     0.074 A 
ATOM     50  C   UNL A   1      37.940  33.667  34.252  1.00  0.00     0.031 C 
ATOM     51  C   UNL A   1      38.629  29.777  28.600  1.00  0.00     0.029 A 
ATOM     52  C   UNL A   1      39.584  29.513  29.671  1.00  0.00     0.049 A 
ATOM     53  H   UNL A   1      39.669  30.413  31.546  1.00  0.00     0.167 HD
ATOM     54  C   UNL A   1      39.836  32.539  35.377  1.00  0.00     0.037 A 
ATOM     55  C   UNL A   1      40.591  28.619  29.618  1.00  0.00     0.037 A 
ATOM     56  C   UNL A   1      40.878  31.550  35.449  1.00  0.00     0.049 A 
ATOM     57  C   UNL A   1      41.490  28.457  30.813  1.00  0.00     0.074 A 
ATOM     58  C   UNL A   1      41.726  31.262  36.504  1.00  0.00     0.029 A 
ATOM     59  N   UNL A   1      41.216  30.685  34.417  1.00  0.00    -0.354 N 
ATOM     60  N   UNL A   1      41.462  29.087  31.962  1.00  0.00    -0.248 NA
ATOM     61  C   UNL A   1      42.558  27.453  30.705  1.00  0.00     0.031 C 
ATOM     62  C   UNL A   1      42.604  30.252  36.097  1.00  0.00     0.029 A 
ATOM     63  C   UNL A   1      42.272  29.876  34.804  1.00  0.00     0.049 A 
ATOM     64  H   UNL A   1      40.770  30.651  33.539  1.00  0.00     0.167 HD
ATOM     65  C   UNL A   1      42.486  28.540  32.723  1.00  0.00     0.074 A 
ATOM     66  C   UNL A   1      43.108  27.516  31.910  1.00  0.00     0.031 C 
ATOM     67  C   UNL A   1      42.874  28.857  33.983  1.00  0.00     0.037 A 
BRANCH  54  68
ATOM     68  C   UNL A   1      39.640  33.460  36.547  1.00  0.00     0.064 A 
ATOM     69  C   UNL A   1      38.812  33.113  37.626  1.00  0.00     0.173 A 
ATOM     70  C   UNL A   1      40.296  34.698  36.597  1.00  0.00     0.173 A 
ATOM     71  F   UNL A   1      38.151  31.945  37.622  1.00  0.00    -0.203 F 
ATOM     72  C   UNL A   1      38.618  33.987  38.692  1.00  0.00     0.198 A 
ATOM     73  C   UNL A   1      40.125  35.557  37.681  1.00  0.00     0.198 A 
ATOM     74  F   UNL A   1      41.102  35.079  35.595  1.00  0.00    -0.203 F 
ATOM     75  F   UNL A   1      37.775  33.660  39.681  1.00  0.00    -0.200 F 
ATOM     76  C   UNL A   1      39.278  35.206  38.721  1.00  0.00     0.200 A 
ATOM     77  F   UNL A   1      40.774  36.729  37.714  1.00  0.00    -0.200 F 
ATOM     78  F   UNL A   1      39.092  36.046  39.748  1.00  0.00    -0.200 F 
ENDBRANCH  54  68
BRANCH  55  79
ATOM     79  C   UNL A   1      40.776  27.784  28.404  1.00  0.00     0.064 A 
ATOM     80  C   UNL A   1      41.593  28.222  27.351  1.00  0.00     0.173 A 
ATOM     81  C   UNL A   1      40.153  26.535  28.270  1.00  0.00     0.173 A 
ATOM     82  F   UNL A   1      42.195  29.418  27.425  1.00  0.00    -0.203 F 
ATOM     83  C   UNL A   1      41.767  27.449  26.205  1.00  0.00     0.198 A 
ATOM     84  C   UNL A   1      40.349  25.751  27.134  1.00  0.00     0.198 A 
ATOM     85  F   UNL A   1      39.366  26.069  29.250  1.00  0.00    -0.203 F 
ATOM     86  F   UNL A   1      42.522  27.910  25.198  1.00  0.00    -0.200 F 
ATOM     87  C   UNL A   1      41.150  26.212  26.100  1.00  0.00     0.200 A 
ATOM     88  F   UNL A   1      39.762  24.551  27.042  1.00  0.00    -0.200 F 
ATOM     89  F   UNL A   1      41.322  25.467  25.000  1.00  0.00    -0.200 F 
ENDBRANCH  55  79
BRANCH  67  90
ATOM     90  C   UNL A   1      44.004  28.064  34.573  1.00  0.00     0.064 A 
ATOM     91  C   UNL A   1      43.782  26.854  35.245  1.00  0.00     0.173 A 
ATOM     92  C   UNL A   1      45.330  28.501  34.424  1.00  0.00     0.173 A 
ATOM     93  F   UNL A   1      42.533  26.401  35.427  1.00  0.00    -0.203 F 
ATOM     94  C   UNL A   1      44.845  26.121  35.768  1.00  0.00     0.198 A 
ATOM     95  C   UNL A   1      46.391  27.752  34.922  1.00  0.00     0.198 A 
ATOM     96  F   UNL A   1      45.595  29.650  33.784  1.00  0.00    -0.203 F 
ATOM     97  F   UNL A   1      44.606  24.990  36.447  1.00  0.00    -0.200 F 
ATOM     98  C   UNL A   1      46.147  26.566  35.600  1.00  0.00     0.200 A 
ATOM     99  F   UNL A   1      47.650  28.176  34.747  1.00  0.00    -0.200 F 
ATOM    100  F   UNL A   1      47.169  25.856  36.096  1.00  0.00    -0.200 F 
ENDBRANCH  67  90
ENDBRANCH  41  42
ENDBRANCH  33  36
ENDBRANCH  31  32
ENDBRANCH  30  31
ENDBRANCH   1  30
TORSDOF 14
ENDMDL
MODEL 3
REMARK VINA RESULT:     -13.6      5.298     11.029
REMARK SMILES C[C@H](C(=O)NCCCCNC(=O)c1ccc(-c2c3nc(c(-c4c(F)c(F)c(F)c(F)c4F)c4ccc([nH]4)c(-c4c(F)c(F)c(F)c(F)c4F)c4nc(c(-c5c(F)c(F)c(F)c(F)c5F)c5ccc2[nH]5)C=C4)C=C3)cc1)c1ccc2c3cc(Cl)ccc3n(C(=O)c3cocn3)c2c1
REMARK SMILES IDX 7 1 6 2 5 3 3 4 4 5 2 7 1 8 76 9 77 10 96 11 78 12 95 13
REMARK SMILES IDX 79 14 87 15 80 16 86 17 81 18 85 19 82 20 84 21 83 22 88 23
REMARK SMILES IDX 89 24 90 25 91 26 94 27 92 28 93 29 8 30 9 31 10 32 11 33
REMARK SMILES IDX 12 35 13 36 14 37 75 38 15 39 74 40 16 41 17 42 18 43 68 44
REMARK SMILES IDX 19 45 73 46 67 47 69 48 20 49 72 50 66 51 65 52 21 54 53 55
REMARK SMILES IDX 33 56 52 57 34 58 37 59 51 60 70 61 35 62 36 63 50 65 71 66
REMARK SMILES IDX 38 67 22 68 23 69 31 70 24 71 25 72 29 73 32 74 26 75 27 76
REMARK SMILES IDX 30 77 28 78 54 79 55 80 63 81 56 82 57 83 61 84 64 85 58 86
REMARK SMILES IDX 59 87 62 88 60 89 39 90 40 91 48 92 41 93 42 94 46 95 49 96
REMARK SMILES IDX 43 97 44 98 47 99 45 100
REMARK H PARENT 5 6 10 34 69 53 37 64
REMARK Flexibility Score: inf
ROOT
ATOM      1  C   UNL A   1      37.043  21.136  24.475  1.00  0.00     0.023 C 
ENDROOT
BRANCH   1   2
ATOM      2  C   UNL A   1      36.014  21.699  25.457  1.00  0.00     0.116 C 
BRANCH   2   3
ATOM      3  N   UNL A   1      34.669  21.254  25.141  1.00  0.00    -0.356 N 
ATOM      4  C   UNL A   1      33.748  21.775  24.275  1.00  0.00     0.227 C 
ATOM      5  O   UNL A   1      32.646  21.220  24.227  1.00  0.00    -0.274 OA
ATOM      6  H   UNL A   1      34.374  20.451  25.627  1.00  0.00     0.163 HD
BRANCH   4   7
ATOM      7  C   UNL A   1      34.081  23.006  23.416  1.00  0.00     0.105 C 
ATOM      8  C   UNL A   1      33.330  22.915  22.082  1.00  0.00     0.023 C 
BRANCH   7   9
ATOM      9  C   UNL A   1      33.804  24.291  24.189  1.00  0.00    -0.034 A 
ATOM     10  C   UNL A   1      34.603  24.718  25.251  1.00  0.00     0.005 A 
ATOM     11  C   UNL A   1      32.758  25.123  23.758  1.00  0.00     0.032 A 
ATOM     12  C   UNL A   1      34.409  25.972  25.846  1.00  0.00     0.011 A 
ATOM     13  C   UNL A   1      32.609  26.413  24.305  1.00  0.00     0.058 A 
ATOM     14  C   UNL A   1      33.431  26.851  25.336  1.00  0.00     0.008 A 
ATOM     15  N   UNL A   1      31.779  27.474  23.921  1.00  0.00    -0.274 N 
ATOM     16  C   UNL A   1      33.043  28.183  25.653  1.00  0.00     0.009 A 
ATOM     17  C   UNL A   1      32.000  28.547  24.790  1.00  0.00     0.057 A 
ATOM     18  C   UNL A   1      33.494  29.101  26.624  1.00  0.00     0.031 A 
ATOM     19  C   UNL A   1      31.344  29.786  24.935  1.00  0.00     0.029 A 
ATOM     20  C   UNL A   1      32.866  30.340  26.741  1.00  0.00     0.041 A 
ATOM     21  C   UNL A   1      31.799  30.676  25.917  1.00  0.00     0.023 A 
ATOM     22  Cl  UNL A   1      33.404  31.451  27.940  1.00  0.00    -0.084 Cl
BRANCH  15  23
ATOM     23  C   UNL A   1      30.901  27.412  22.806  1.00  0.00     0.284 C 
ATOM     24  O   UNL A   1      31.365  26.911  21.789  1.00  0.00    -0.266 OA
BRANCH  23  25
ATOM     25  C   UNL A   1      29.557  27.996  22.781  1.00  0.00     0.167 A 
ATOM     26  C   UNL A   1      28.431  27.658  23.501  1.00  0.00     0.231 A 
ATOM     27  N   UNL A   1      29.278  29.151  22.060  1.00  0.00    -0.211 NA
ATOM     28  O   UNL A   1      27.452  28.570  23.235  1.00  0.00    -0.451 OA
ATOM     29  C   UNL A   1      28.038  29.443  22.372  1.00  0.00     0.308 A 
ENDBRANCH  23  25
ENDBRANCH  15  23
ENDBRANCH   7   9
ENDBRANCH   4   7
ENDBRANCH   2   3
ENDBRANCH   1   2
BRANCH   1  30
ATOM     30  C   UNL A   1      37.851  19.951  24.999  1.00  0.00     0.023 C 
BRANCH  30  31
ATOM     31  C   UNL A   1      39.143  20.316  25.717  1.00  0.00     0.116 C 
BRANCH  31  32
ATOM     32  N   UNL A   1      40.077  19.205  25.826  1.00  0.00    -0.352 N 
ATOM     33  C   UNL A   1      41.428  19.238  26.083  1.00  0.00     0.251 C 
ATOM     34  H   UNL A   1      39.690  18.309  25.699  1.00  0.00     0.163 HD
ATOM     35  O   UNL A   1      42.097  18.212  26.027  1.00  0.00    -0.269 OA
BRANCH  33  36
ATOM     36  C   UNL A   1      42.082  20.530  26.380  1.00  0.00     0.039 A 
ATOM     37  C   UNL A   1      42.505  21.328  25.315  1.00  0.00     0.014 A 
ATOM     38  C   UNL A   1      42.239  20.968  27.698  1.00  0.00     0.014 A 
ATOM     39  C   UNL A   1      43.017  22.602  25.570  1.00  0.00     0.010 A 
ATOM     40  C   UNL A   1      42.668  22.267  27.943  1.00  0.00     0.010 A 
ATOM     41  C   UNL A   1      43.062  23.097  26.883  1.00  0.00    -0.014 A 
BRANCH  41  42
ATOM     42  C   UNL A   1      43.523  24.478  27.171  1.00  0.00     0.031 A 
ATOM     43  C   UNL A   1      42.557  25.494  27.711  1.00  0.00     0.074 A 
ATOM     44  C   UNL A   1      44.788  24.836  26.879  1.00  0.00     0.049 A 
ATOM     45  N   UNL A   1      42.740  26.768  27.952  1.00  0.00    -0.248 NA
ATOM     46  C   UNL A   1      41.190  25.024  27.984  1.00  0.00     0.031 C 
ATOM     47  C   UNL A   1      45.804  23.956  26.300  1.00  0.00     0.029 A 
ATOM     48  N   UNL A   1      45.432  26.040  27.017  1.00  0.00    -0.354 N 
ATOM     49  C   UNL A   1      41.512  27.250  28.382  1.00  0.00     0.074 A 
ATOM     50  C   UNL A   1      40.576  26.149  28.313  1.00  0.00     0.031 C 
ATOM     51  C   UNL A   1      46.951  24.641  26.159  1.00  0.00     0.029 A 
ATOM     52  C   UNL A   1      46.740  26.016  26.602  1.00  0.00     0.049 A 
ATOM     53  H   UNL A   1      44.997  26.845  27.381  1.00  0.00     0.167 HD
ATOM     54  C   UNL A   1      41.197  28.493  28.820  1.00  0.00     0.037 A 
ATOM     55  C   UNL A   1      47.665  26.995  26.578  1.00  0.00     0.037 A 
ATOM     56  C   UNL A   1      42.139  29.575  28.918  1.00  0.00     0.049 A 
ATOM     57  C   UNL A   1      47.295  28.365  27.077  1.00  0.00     0.074 A 
ATOM     58  C   UNL A   1      41.941  30.852  29.413  1.00  0.00     0.029 A 
ATOM     59  N   UNL A   1      43.465  29.507  28.510  1.00  0.00    -0.354 N 
ATOM     60  N   UNL A   1      46.149  28.792  27.550  1.00  0.00    -0.248 NA
ATOM     61  C   UNL A   1      48.349  29.388  27.046  1.00  0.00     0.031 C 
ATOM     62  C   UNL A   1      43.133  31.569  29.265  1.00  0.00     0.029 A 
ATOM     63  C   UNL A   1      44.089  30.724  28.723  1.00  0.00     0.049 A 
ATOM     64  H   UNL A   1      43.897  28.709  28.126  1.00  0.00     0.167 HD
ATOM     65  C   UNL A   1      46.351  30.121  27.898  1.00  0.00     0.074 A 
ATOM     66  C   UNL A   1      47.733  30.426  27.594  1.00  0.00     0.031 C 
ATOM     67  C   UNL A   1      45.469  31.007  28.422  1.00  0.00     0.037 A 
BRANCH  54  68
ATOM     68  C   UNL A   1      39.774  28.741  29.229  1.00  0.00     0.064 A 
ATOM     69  C   UNL A   1      39.336  28.521  30.545  1.00  0.00     0.173 A 
ATOM     70  C   UNL A   1      38.838  29.216  28.299  1.00  0.00     0.173 A 
ATOM     71  F   UNL A   1      40.188  28.055  31.471  1.00  0.00    -0.203 F 
ATOM     72  C   UNL A   1      38.008  28.731  30.903  1.00  0.00     0.198 A 
ATOM     73  C   UNL A   1      37.517  29.456  28.669  1.00  0.00     0.198 A 
ATOM     74  F   UNL A   1      39.203  29.448  27.029  1.00  0.00    -0.203 F 
ATOM     75  F   UNL A   1      37.600  28.455  32.150  1.00  0.00    -0.200 F 
ATOM     76  C   UNL A   1      37.100  29.203  29.967  1.00  0.00     0.200 A 
ATOM     77  F   UNL A   1      36.644  29.924  27.766  1.00  0.00    -0.200 F 
ATOM     78  F   UNL A   1      35.822  29.405  30.314  1.00  0.00    -0.200 F 
ENDBRANCH  54  68
BRANCH  55  79
ATOM     79  C   UNL A   1      49.040  26.703  26.097  1.00  0.00     0.064 A 
ATOM     80  C   UNL A   1      49.986  26.114  26.949  1.00  0.00     0.173 A 
ATOM     81  C   UNL A   1      49.436  26.997  24.785  1.00  0.00     0.173 A 
ATOM     82  F   UNL A   1      49.659  25.833  28.219  1.00  0.00    -0.203 F 
ATOM     83  C   UNL A   1      51.281  25.844  26.510  1.00  0.00     0.198 A 
ATOM     84  C   UNL A   1      50.724  26.701  24.339  1.00  0.00     0.198 A 
ATOM     85  F   UNL A   1      48.568  27.555  23.930  1.00  0.00    -0.203 F 
ATOM     86  F   UNL A   1      52.176  25.317  27.356  1.00  0.00    -0.200 F 
ATOM     87  C   UNL A   1      51.646  26.132  25.204  1.00  0.00     0.200 A 
ATOM     88  F   UNL A   1      51.070  26.968  23.073  1.00  0.00    -0.200 F 
ATOM     89  F   UNL A   1      52.889  25.866  24.780  1.00  0.00    -0.200 F 
ENDBRANCH  55  79
BRANCH  67  90
ATOM     90  C   UNL A   1      45.983  32.383  28.734  1.00  0.00     0.064 A 
ATOM     91  C   UNL A   1      45.941  33.417  27.787  1.00  0.00     0.173 A 
ATOM     92  C   UNL A   1      46.480  32.681  30.012  1.00  0.00     0.173 A 
ATOM     93  F   UNL A   1      45.489  33.179  26.546  1.00  0.00    -0.203 F 
ATOM     94  C   UNL A   1      46.403  34.693  28.101  1.00  0.00     0.198 A 
ATOM     95  C   UNL A   1      46.912  33.964  30.331  1.00  0.00     0.198 A 
ATOM     96  F   UNL A   1      46.534  31.728  30.955  1.00  0.00    -0.203 F 
ATOM     97  F   UNL A   1      46.397  35.654  27.166  1.00  0.00    -0.200 F 
ATOM     98  C   UNL A   1      46.880  34.968  29.374  1.00  0.00     0.200 A 
ATOM     99  F   UNL A   1      47.360  34.232  31.566  1.00  0.00    -0.200 F 
ATOM    100  F   UNL A   1      47.315  36.198  29.677  1.00  0.00    -0.200 F 
ENDBRANCH  67  90
ENDBRANCH  41  42
ENDBRANCH  33  36
ENDBRANCH  31  32
ENDBRANCH  30  31
ENDBRANCH   1  30
TORSDOF 14
ENDMDL
