MODEL 1
REMARK VINA RESULT:     -14.0      0.000      0.000
REMARK SMILES O=C(NCCCCNC(=O)c1ccccc1NC(=O)c1cc2cc(Cl)cc(Cl)c2oc1=O)c1ccc(-c2c3nc(c(-c4c(F)c(F)c(F)c(F)c4F)c4ccc([nH]4)c(-c4c(F)c(F)c(F)c(F)c4F)c4nc(c(-c5c(F)c(F)c(F)c(F)c5F)c5ccc2[nH]5)C=C4)C=C3)cc1
REMARK SMILES IDX 5 1 4 2 3 3 1 4 2 5 33 7 34 8 95 9 35 10 94 11 36 12 37 13
REMARK SMILES IDX 38 14 88 15 39 16 93 17 87 18 89 19 40 20 92 21 86 22 85 23
REMARK SMILES IDX 41 25 73 26 53 27 72 28 54 29 57 30 71 31 90 32 55 33 56 34
REMARK SMILES IDX 70 36 91 37 58 38 42 39 43 40 51 41 44 42 45 43 49 44 52 45
REMARK SMILES IDX 46 46 47 47 50 48 48 49 74 50 75 51 83 52 76 53 77 54 81 55
REMARK SMILES IDX 84 56 78 57 79 58 82 59 80 60 59 61 60 62 68 63 61 64 62 65
REMARK SMILES IDX 66 66 69 67 63 68 64 69 67 70 65 71 6 72 7 73 8 74 9 75
REMARK SMILES IDX 10 77 11 78 12 79 16 80 13 81 15 82 14 83 17 84 18 85 19 87
REMARK SMILES IDX 20 88 21 89 31 90 22 91 30 92 32 93 23 94 29 95 24 96 27 97
REMARK SMILES IDX 25 98 26 99 28 100
REMARK H PARENT 3 6 89 24 57 35 8 76 17 86
REMARK Flexibility Score: inf
ROOT
ATOM      1  C   UNL A   1      31.169  32.357  26.496  1.00  0.00     0.023 C 
ENDROOT
BRANCH   1   2
ATOM      2  C   UNL A   1      32.448  32.863  27.162  1.00  0.00     0.116 C 
BRANCH   2   3
ATOM      3  N   UNL A   1      32.340  34.233  27.626  1.00  0.00    -0.352 N 
ATOM      4  O   UNL A   1      32.679  36.035  28.924  1.00  0.00    -0.269 OA
ATOM      5  C   UNL A   1      33.039  34.906  28.596  1.00  0.00     0.251 C 
ATOM      6  H   UNL A   1      31.652  34.769  27.169  1.00  0.00     0.163 HD
BRANCH   5   7
ATOM      7  C   UNL A   1      34.199  34.290  29.282  1.00  0.00     0.039 A 
ATOM      8  C   UNL A   1      35.508  34.453  28.818  1.00  0.00     0.014 A 
ATOM      9  C   UNL A   1      33.967  33.583  30.468  1.00  0.00     0.014 A 
ATOM     10  C   UNL A   1      36.566  33.818  29.476  1.00  0.00     0.010 A 
ATOM     11  C   UNL A   1      35.030  32.985  31.150  1.00  0.00     0.010 A 
ATOM     12  C   UNL A   1      36.334  33.071  30.641  1.00  0.00    -0.014 A 
BRANCH  12  13
ATOM     13  C   UNL A   1      37.458  32.389  31.331  1.00  0.00     0.031 A 
ATOM     14  C   UNL A   1      38.181  31.252  30.668  1.00  0.00     0.074 A 
ATOM     15  C   UNL A   1      37.826  32.786  32.562  1.00  0.00     0.049 A 
ATOM     16  N   UNL A   1      39.181  30.535  31.118  1.00  0.00    -0.248 NA
ATOM     17  C   UNL A   1      37.718  30.862  29.328  1.00  0.00     0.031 C 
ATOM     18  C   UNL A   1      37.188  33.858  33.329  1.00  0.00     0.029 A 
ATOM     19  N   UNL A   1      38.824  32.333  33.385  1.00  0.00    -0.354 N 
ATOM     20  C   UNL A   1      39.451  29.598  30.132  1.00  0.00     0.074 A 
ATOM     21  C   UNL A   1      38.506  29.829  29.058  1.00  0.00     0.031 C 
ATOM     22  C   UNL A   1      37.824  33.989  34.505  1.00  0.00     0.029 A 
ATOM     23  C   UNL A   1      38.897  33.001  34.579  1.00  0.00     0.049 A 
ATOM     24  H   UNL A   1      39.432  31.597  33.140  1.00  0.00     0.167 HD
ATOM     25  C   UNL A   1      40.402  28.635  30.117  1.00  0.00     0.037 A 
ATOM     26  C   UNL A   1      39.732  32.835  35.622  1.00  0.00     0.037 A 
ATOM     27  C   UNL A   1      41.373  28.420  31.156  1.00  0.00     0.049 A 
ATOM     28  C   UNL A   1      40.792  31.775  35.572  1.00  0.00     0.074 A 
ATOM     29  C   UNL A   1      42.426  27.522  31.183  1.00  0.00     0.029 A 
ATOM     30  N   UNL A   1      41.407  29.114  32.355  1.00  0.00    -0.354 N 
ATOM     31  N   UNL A   1      41.063  30.925  34.614  1.00  0.00    -0.248 NA
ATOM     32  C   UNL A   1      41.659  31.649  36.754  1.00  0.00     0.031 C 
ATOM     33  C   UNL A   1      43.089  27.661  32.408  1.00  0.00     0.029 A 
ATOM     34  C   UNL A   1      42.452  28.652  33.137  1.00  0.00     0.049 A 
ATOM     35  H   UNL A   1      40.781  29.830  32.612  1.00  0.00     0.167 HD
ATOM     36  C   UNL A   1      42.126  30.163  35.072  1.00  0.00     0.074 A 
ATOM     37  C   UNL A   1      42.461  30.656  36.393  1.00  0.00     0.031 C 
ATOM     38  C   UNL A   1      42.764  29.142  34.453  1.00  0.00     0.037 A 
BRANCH  25  39
ATOM     39  C   UNL A   1      40.442  27.729  28.928  1.00  0.00     0.064 A 
ATOM     40  C   UNL A   1      39.667  26.564  28.876  1.00  0.00     0.173 A 
ATOM     41  C   UNL A   1      41.235  28.051  27.818  1.00  0.00     0.173 A 
ATOM     42  F   UNL A   1      38.903  26.213  29.922  1.00  0.00    -0.203 F 
ATOM     43  C   UNL A   1      39.688  25.745  27.751  1.00  0.00     0.198 A 
ATOM     44  C   UNL A   1      41.248  27.234  26.692  1.00  0.00     0.198 A 
ATOM     45  F   UNL A   1      41.996  29.156  27.829  1.00  0.00    -0.203 F 
ATOM     46  F   UNL A   1      38.954  24.623  27.724  1.00  0.00    -0.200 F 
ATOM     47  C   UNL A   1      40.476  26.081  26.659  1.00  0.00     0.200 A 
ATOM     48  F   UNL A   1      42.011  27.559  25.638  1.00  0.00    -0.200 F 
ATOM     49  F   UNL A   1      40.497  25.291  25.577  1.00  0.00    -0.200 F 
ENDBRANCH  25  39
BRANCH  26  50
ATOM     50  C   UNL A   1      39.593  33.711  36.807  1.00  0.00     0.064 A 
ATOM     51  C   UNL A   1      40.254  34.943  36.867  1.00  0.00     0.173 A 
ATOM     52  C   UNL A   1      38.775  33.343  37.883  1.00  0.00     0.173 A 
ATOM     53  F   UNL A   1      41.059  35.322  35.864  1.00  0.00    -0.203 F 
ATOM     54  C   UNL A   1      40.101  35.782  37.968  1.00  0.00     0.198 A 
ATOM     55  C   UNL A   1      38.616  34.186  38.979  1.00  0.00     0.198 A 
ATOM     56  F   UNL A   1      38.130  32.167  37.865  1.00  0.00    -0.203 F 
ATOM     57  F   UNL A   1      40.752  36.951  38.012  1.00  0.00    -0.200 F 
ATOM     58  C   UNL A   1      39.279  35.405  39.021  1.00  0.00     0.200 A 
ATOM     59  F   UNL A   1      37.822  33.821  39.995  1.00  0.00    -0.200 F 
ATOM     60  F   UNL A   1      39.129  36.214  40.078  1.00  0.00    -0.200 F 
ENDBRANCH  26  50
BRANCH  38  61
ATOM     61  C   UNL A   1      43.878  28.481  35.199  1.00  0.00     0.064 A 
ATOM     62  C   UNL A   1      43.638  27.354  35.997  1.00  0.00     0.173 A 
ATOM     63  C   UNL A   1      45.194  28.951  35.089  1.00  0.00     0.173 A 
ATOM     64  F   UNL A   1      42.391  26.882  36.140  1.00  0.00    -0.203 F 
ATOM     65  C   UNL A   1      44.681  26.722  36.668  1.00  0.00     0.198 A 
ATOM     66  C   UNL A   1      46.235  28.311  35.755  1.00  0.00     0.198 A 
ATOM     67  F   UNL A   1      45.465  30.028  34.338  1.00  0.00    -0.203 F 
ATOM     68  F   UNL A   1      44.431  25.657  37.440  1.00  0.00    -0.200 F 
ATOM     69  C   UNL A   1      45.979  27.199  36.543  1.00  0.00     0.200 A 
ATOM     70  F   UNL A   1      47.488  28.773  35.636  1.00  0.00    -0.200 F 
ATOM     71  F   UNL A   1      46.981  26.588  37.190  1.00  0.00    -0.200 F 
ENDBRANCH  38  61
ENDBRANCH  12  13
ENDBRANCH   5   7
ENDBRANCH   2   3
ENDBRANCH   1   2
BRANCH   1  72
ATOM     72  C   UNL A   1      31.259  31.008  25.771  1.00  0.00     0.023 C 
BRANCH  72  73
ATOM     73  C   UNL A   1      32.378  30.068  26.217  1.00  0.00     0.116 C 
BRANCH  73  74
ATOM     74  N   UNL A   1      33.215  29.608  25.121  1.00  0.00    -0.352 N 
ATOM     75  C   UNL A   1      32.910  28.782  24.070  1.00  0.00     0.253 C 
ATOM     76  H   UNL A   1      34.142  29.941  25.135  1.00  0.00     0.163 HD
ATOM     77  O   UNL A   1      33.787  28.468  23.271  1.00  0.00    -0.269 OA
BRANCH  75  78
ATOM     78  C   UNL A   1      31.542  28.245  23.900  1.00  0.00     0.063 A 
ATOM     79  C   UNL A   1      30.658  29.071  23.188  1.00  0.00     0.016 A 
ATOM     80  C   UNL A   1      31.110  27.023  24.466  1.00  0.00     0.054 A 
ATOM     81  C   UNL A   1      29.343  28.671  22.986  1.00  0.00     0.001 A 
ATOM     82  C   UNL A   1      29.787  26.636  24.232  1.00  0.00     0.027 A 
ATOM     83  C   UNL A   1      28.912  27.453  23.500  1.00  0.00     0.002 A 
BRANCH  80  84
ATOM     84  N   UNL A   1      32.029  26.274  25.235  1.00  0.00    -0.321 N 
ATOM     85  C   UNL A   1      32.892  25.249  24.989  1.00  0.00     0.263 C 
ATOM     86  H   UNL A   1      32.050  26.562  26.175  1.00  0.00     0.170 HD
ATOM     87  O   UNL A   1      33.642  24.893  25.899  1.00  0.00    -0.269 OA
BRANCH  85  88
ATOM     88  C   UNL A   1      32.918  24.573  23.667  1.00  0.00     0.126 A 
ATOM     89  C   UNL A   1      34.129  24.212  23.188  1.00  0.00     0.033 A 
ATOM     90  C   UNL A   1      31.926  23.473  23.552  1.00  0.00     0.349 A 
ATOM     91  C   UNL A   1      34.668  23.000  23.844  1.00  0.00     0.021 A 
ATOM     92  O   UNL A   1      32.374  22.224  23.985  1.00  0.00    -0.421 OA
ATOM     93  O   UNL A   1      30.795  23.668  23.126  1.00  0.00    -0.245 OA
ATOM     94  C   UNL A   1      36.029  22.807  24.060  1.00  0.00     0.032 A 
ATOM     95  C   UNL A   1      33.748  22.031  24.265  1.00  0.00     0.157 A 
ATOM     96  C   UNL A   1      36.452  21.653  24.723  1.00  0.00     0.043 A 
ATOM     97  C   UNL A   1      34.172  20.881  24.929  1.00  0.00     0.085 A 
ATOM     98  Cl  UNL A   1      38.134  21.406  25.001  1.00  0.00    -0.084 Cl
ATOM     99  C   UNL A   1      35.534  20.694  25.164  1.00  0.00     0.045 A 
ATOM    100  Cl  UNL A   1      33.054  19.691  25.472  1.00  0.00    -0.080 Cl
ENDBRANCH  85  88
ENDBRANCH  80  84
ENDBRANCH  75  78
ENDBRANCH  73  74
ENDBRANCH  72  73
ENDBRANCH   1  72
TORSDOF 13
ENDMDL
MODEL 2
REMARK VINA RESULT:     -13.9      5.582     11.043
REMARK SMILES O=C(NCCCCNC(=O)c1ccccc1NC(=O)c1cc2cc(Cl)cc(Cl)c2oc1=O)c1ccc(-c2c3nc(c(-c4c(F)c(F)c(F)c(F)c4F)c4ccc([nH]4)c(-c4c(F)c(F)c(F)c(F)c4F)c4nc(c(-c5c(F)c(F)c(F)c(F)c5F)c5ccc2[nH]5)C=C4)C=C3)cc1
REMARK SMILES IDX 5 1 4 2 3 3 1 4 2 5 33 7 34 8 95 9 35 10 94 11 36 12 37 13
REMARK SMILES IDX 38 14 88 15 39 16 93 17 87 18 89 19 40 20 92 21 86 22 85 23
REMARK SMILES IDX 41 25 73 26 53 27 72 28 54 29 57 30 71 31 90 32 55 33 56 34
REMARK SMILES IDX 70 36 91 37 58 38 42 39 43 40 51 41 44 42 45 43 49 44 52 45
REMARK SMILES IDX 46 46 47 47 50 48 48 49 74 50 75 51 83 52 76 53 77 54 81 55
REMARK SMILES IDX 84 56 78 57 79 58 82 59 80 60 59 61 60 62 68 63 61 64 62 65
REMARK SMILES IDX 66 66 69 67 63 68 64 69 67 70 65 71 6 72 7 73 8 74 9 75
REMARK SMILES IDX 10 77 11 78 12 79 16 80 13 81 15 82 14 83 17 84 18 85 19 87
REMARK SMILES IDX 20 88 21 89 31 90 22 91 30 92 32 93 23 94 29 95 24 96 27 97
REMARK SMILES IDX 25 98 26 99 28 100
REMARK H PARENT 3 6 89 24 57 35 8 76 17 86
REMARK Flexibility Score: inf
ROOT
ATOM      1  C   UNL A   1      38.154  19.207  24.916  1.00  0.00     0.023 C 
ENDROOT
BRANCH   1   2
ATOM      2  C   UNL A   1      39.276  19.794  25.771  1.00  0.00     0.116 C 
BRANCH   2   3
ATOM      3  N   UNL A   1      40.414  18.904  25.899  1.00  0.00    -0.352 N 
ATOM      4  O   UNL A   1      42.562  18.264  26.054  1.00  0.00    -0.269 OA
ATOM      5  C   UNL A   1      41.740  19.176  26.124  1.00  0.00     0.251 C 
ATOM      6  H   UNL A   1      40.200  17.947  25.811  1.00  0.00     0.163 HD
BRANCH   5   7
ATOM      7  C   UNL A   1      42.210  20.550  26.418  1.00  0.00     0.039 A 
ATOM      8  C   UNL A   1      42.289  21.045  27.724  1.00  0.00     0.014 A 
ATOM      9  C   UNL A   1      42.648  21.342  25.350  1.00  0.00     0.014 A 
ATOM     10  C   UNL A   1      42.699  22.363  27.947  1.00  0.00     0.010 A 
ATOM     11  C   UNL A   1      43.099  22.645  25.578  1.00  0.00     0.010 A 
ATOM     12  C   UNL A   1      43.097  23.176  26.876  1.00  0.00    -0.014 A 
BRANCH  12  13
ATOM     13  C   UNL A   1      43.522  24.578  27.116  1.00  0.00     0.031 A 
ATOM     14  C   UNL A   1      42.539  25.595  27.622  1.00  0.00     0.074 A 
ATOM     15  C   UNL A   1      44.793  24.943  26.870  1.00  0.00     0.049 A 
ATOM     16  N   UNL A   1      42.727  26.866  27.885  1.00  0.00    -0.248 NA
ATOM     17  C   UNL A   1      41.164  25.131  27.857  1.00  0.00     0.031 C 
ATOM     18  C   UNL A   1      45.838  24.061  26.350  1.00  0.00     0.029 A 
ATOM     19  N   UNL A   1      45.419  26.153  27.024  1.00  0.00    -0.354 N 
ATOM     20  C   UNL A   1      41.495  27.355  28.292  1.00  0.00     0.074 A 
ATOM     21  C   UNL A   1      40.560  26.249  28.237  1.00  0.00     0.031 C 
ATOM     22  C   UNL A   1      46.982  24.757  26.244  1.00  0.00     0.029 A 
ATOM     23  C   UNL A   1      46.744  26.134  26.670  1.00  0.00     0.049 A 
ATOM     24  H   UNL A   1      44.962  26.959  27.358  1.00  0.00     0.167 HD
ATOM     25  C   UNL A   1      41.171  28.610  28.682  1.00  0.00     0.037 A 
ATOM     26  C   UNL A   1      47.664  27.116  26.682  1.00  0.00     0.037 A 
ATOM     27  C   UNL A   1      42.096  29.706  28.782  1.00  0.00     0.049 A 
ATOM     28  C   UNL A   1      47.284  28.493  27.140  1.00  0.00     0.074 A 
ATOM     29  C   UNL A   1      41.869  30.989  29.251  1.00  0.00     0.029 A 
ATOM     30  N   UNL A   1      43.428  29.648  28.406  1.00  0.00    -0.354 N 
ATOM     31  N   UNL A   1      46.125  28.930  27.563  1.00  0.00    -0.248 NA
ATOM     32  C   UNL A   1      48.342  29.515  27.114  1.00  0.00     0.031 C 
ATOM     33  C   UNL A   1      43.061  31.714  29.141  1.00  0.00     0.029 A 
ATOM     34  C   UNL A   1      44.031  30.877  28.614  1.00  0.00     0.049 A 
ATOM     35  H   UNL A   1      43.878  28.850  28.044  1.00  0.00     0.167 HD
ATOM     36  C   UNL A   1      46.309  30.273  27.853  1.00  0.00     0.074 A 
ATOM     37  C   UNL A   1      47.696  30.581  27.568  1.00  0.00     0.031 C 
ATOM     38  C   UNL A   1      45.406  31.171  28.312  1.00  0.00     0.037 A 
BRANCH  25  39
ATOM     39  C   UNL A   1      39.741  28.870  29.035  1.00  0.00     0.064 A 
ATOM     40  C   UNL A   1      39.269  28.684  30.340  1.00  0.00     0.173 A 
ATOM     41  C   UNL A   1      38.845  29.343  28.065  1.00  0.00     0.173 A 
ATOM     42  F   UNL A   1      40.090  28.221  31.295  1.00  0.00    -0.203 F 
ATOM     43  C   UNL A   1      37.944  28.959  30.664  1.00  0.00     0.198 A 
ATOM     44  C   UNL A   1      37.523  29.625  28.394  1.00  0.00     0.198 A 
ATOM     45  F   UNL A   1      39.255  29.530  26.801  1.00  0.00    -0.203 F 
ATOM     46  F   UNL A   1      37.505  28.758  31.915  1.00  0.00    -0.200 F 
ATOM     47  C   UNL A   1      37.073  29.431  29.693  1.00  0.00     0.200 A 
ATOM     48  F   UNL A   1      36.682  30.079  27.455  1.00  0.00    -0.200 F 
ATOM     49  F   UNL A   1      35.797  29.695  30.005  1.00  0.00    -0.200 F 
ENDBRANCH  25  39
BRANCH  26  50
ATOM     50  C   UNL A   1      49.046  26.818  26.245  1.00  0.00     0.064 A 
ATOM     51  C   UNL A   1      49.995  26.335  27.153  1.00  0.00     0.173 A 
ATOM     52  C   UNL A   1      49.431  26.984  24.908  1.00  0.00     0.173 A 
ATOM     53  F   UNL A   1      49.668  26.180  28.445  1.00  0.00    -0.203 F 
ATOM     54  C   UNL A   1      51.287  26.026  26.738  1.00  0.00     0.198 A 
ATOM     55  C   UNL A   1      50.721  26.666  24.493  1.00  0.00     0.198 A 
ATOM     56  F   UNL A   1      48.552  27.449  24.009  1.00  0.00    -0.203 F 
ATOM     57  F   UNL A   1      52.185  25.577  27.626  1.00  0.00    -0.200 F 
ATOM     58  C   UNL A   1      51.648  26.188  25.408  1.00  0.00     0.200 A 
ATOM     59  F   UNL A   1      51.068  26.822  23.208  1.00  0.00    -0.200 F 
ATOM     60  F   UNL A   1      52.892  25.887  25.009  1.00  0.00    -0.200 F 
ENDBRANCH  26  50
BRANCH  38  61
ATOM     61  C   UNL A   1      45.883  32.572  28.521  1.00  0.00     0.064 A 
ATOM     62  C   UNL A   1      45.773  33.528  27.503  1.00  0.00     0.173 A 
ATOM     63  C   UNL A   1      46.419  32.972  29.753  1.00  0.00     0.173 A 
ATOM     64  F   UNL A   1      45.279  33.182  26.305  1.00  0.00    -0.203 F 
ATOM     65  C   UNL A   1      46.190  34.840  27.708  1.00  0.00     0.198 A 
ATOM     66  C   UNL A   1      46.827  34.287  29.958  1.00  0.00     0.198 A 
ATOM     67  F   UNL A   1      46.544  32.087  30.753  1.00  0.00    -0.203 F 
ATOM     68  F   UNL A   1      46.093  35.736  26.718  1.00  0.00    -0.200 F 
ATOM     69  C   UNL A   1      46.713  35.218  28.937  1.00  0.00     0.200 A 
ATOM     70  F   UNL A   1      47.334  34.652  31.144  1.00  0.00    -0.200 F 
ATOM     71  F   UNL A   1      47.114  36.482  29.133  1.00  0.00    -0.200 F 
ENDBRANCH  38  61
ENDBRANCH  12  13
ENDBRANCH   5   7
ENDBRANCH   2   3
ENDBRANCH   1   2
BRANCH   1  72
ATOM     72  C   UNL A   1      36.789  19.900  25.001  1.00  0.00     0.023 C 
BRANCH  72  73
ATOM     73  C   UNL A   1      36.804  21.427  25.072  1.00  0.00     0.116 C 
BRANCH  73  74
ATOM     74  N   UNL A   1      35.980  21.962  26.145  1.00  0.00    -0.352 N 
ATOM     75  C   UNL A   1      34.619  22.107  26.217  1.00  0.00     0.253 C 
ATOM     76  H   UNL A   1      36.476  22.265  26.940  1.00  0.00     0.163 HD
ATOM     77  O   UNL A   1      34.118  22.639  27.203  1.00  0.00    -0.269 OA
BRANCH  75  78
ATOM     78  C   UNL A   1      33.748  21.651  25.112  1.00  0.00     0.063 A 
ATOM     79  C   UNL A   1      33.390  20.295  25.151  1.00  0.00     0.016 A 
ATOM     80  C   UNL A   1      33.349  22.485  24.041  1.00  0.00     0.054 A 
ATOM     81  C   UNL A   1      32.589  19.757  24.151  1.00  0.00     0.001 A 
ATOM     82  C   UNL A   1      32.529  21.924  23.058  1.00  0.00     0.027 A 
ATOM     83  C   UNL A   1      32.153  20.573  23.113  1.00  0.00     0.002 A 
BRANCH  80  84
ATOM     84  N   UNL A   1      33.804  23.823  24.023  1.00  0.00    -0.321 N 
ATOM     85  C   UNL A   1      33.405  24.992  24.597  1.00  0.00     0.263 C 
ATOM     86  H   UNL A   1      34.602  23.937  23.459  1.00  0.00     0.170 HD
ATOM     87  O   UNL A   1      34.117  25.985  24.440  1.00  0.00    -0.269 OA
BRANCH  85  88
ATOM     88  C   UNL A   1      32.144  25.069  25.375  1.00  0.00     0.126 A 
ATOM     89  C   UNL A   1      32.161  25.824  26.497  1.00  0.00     0.033 A 
ATOM     90  C   UNL A   1      30.952  25.355  24.534  1.00  0.00     0.349 A 
ATOM     91  C   UNL A   1      32.102  27.274  26.214  1.00  0.00     0.021 A 
ATOM     92  O   UNL A   1      30.684  26.709  24.329  1.00  0.00    -0.421 OA
ATOM     93  O   UNL A   1      30.278  24.458  24.047  1.00  0.00    -0.245 OA
ATOM     94  C   UNL A   1      32.745  28.219  27.008  1.00  0.00     0.032 A 
ATOM     95  C   UNL A   1      31.374  27.684  25.089  1.00  0.00     0.157 A 
ATOM     96  C   UNL A   1      32.673  29.567  26.649  1.00  0.00     0.043 A 
ATOM     97  C   UNL A   1      31.306  29.029  24.731  1.00  0.00     0.085 A 
ATOM     98  Cl  UNL A   1      33.469  30.745  27.620  1.00  0.00    -0.084 Cl
ATOM     99  C   UNL A   1      31.965  29.976  25.514  1.00  0.00     0.045 A 
ATOM    100  Cl  UNL A   1      30.434  29.546  23.341  1.00  0.00    -0.080 Cl
ENDBRANCH  85  88
ENDBRANCH  80  84
ENDBRANCH  75  78
ENDBRANCH  73  74
ENDBRANCH  72  73
ENDBRANCH   1  72
TORSDOF 13
ENDMDL
MODEL 3
REMARK VINA RESULT:     -13.9      5.604     11.087
REMARK SMILES O=C(NCCCCNC(=O)c1ccccc1NC(=O)c1cc2cc(Cl)cc(Cl)c2oc1=O)c1ccc(-c2c3nc(c(-c4c(F)c(F)c(F)c(F)c4F)c4ccc([nH]4)c(-c4c(F)c(F)c(F)c(F)c4F)c4nc(c(-c5c(F)c(F)c(F)c(F)c5F)c5ccc2[nH]5)C=C4)C=C3)cc1
REMARK SMILES IDX 5 1 4 2 3 3 1 4 2 5 33 7 34 8 95 9 35 10 94 11 36 12 37 13
REMARK SMILES IDX 38 14 88 15 39 16 93 17 87 18 89 19 40 20 92 21 86 22 85 23
REMARK SMILES IDX 41 25 73 26 53 27 72 28 54 29 57 30 71 31 90 32 55 33 56 34
REMARK SMILES IDX 70 36 91 37 58 38 42 39 43 40 51 41 44 42 45 43 49 44 52 45
REMARK SMILES IDX 46 46 47 47 50 48 48 49 74 50 75 51 83 52 76 53 77 54 81 55
REMARK SMILES IDX 84 56 78 57 79 58 82 59 80 60 59 61 60 62 68 63 61 64 62 65
REMARK SMILES IDX 66 66 69 67 63 68 64 69 67 70 65 71 6 72 7 73 8 74 9 75
REMARK SMILES IDX 10 77 11 78 12 79 16 80 13 81 15 82 14 83 17 84 18 85 19 87
REMARK SMILES IDX 20 88 21 89 31 90 22 91 30 92 32 93 23 94 29 95 24 96 27 97
REMARK SMILES IDX 25 98 26 99 28 100
REMARK H PARENT 3 6 89 24 57 35 8 76 17 86
REMARK Flexibility Score: inf
ROOT
ATOM      1  C   UNL A   1      38.161  19.243  24.894  1.00  0.00     0.023 C 
ENDROOT
BRANCH   1   2
ATOM      2  C   UNL A   1      39.278  19.806  25.771  1.00  0.00     0.116 C 
BRANCH   2   3
ATOM      3  N   UNL A   1      40.403  18.900  25.904  1.00  0.00    -0.352 N 
ATOM      4  O   UNL A   1      42.542  18.230  26.063  1.00  0.00    -0.269 OA
ATOM      5  C   UNL A   1      41.733  19.154  26.128  1.00  0.00     0.251 C 
ATOM      6  H   UNL A   1      40.176  17.946  25.821  1.00  0.00     0.163 HD
BRANCH   5   7
ATOM      7  C   UNL A   1      42.223  20.522  26.416  1.00  0.00     0.039 A 
ATOM      8  C   UNL A   1      42.351  21.007  27.721  1.00  0.00     0.014 A 
ATOM      9  C   UNL A   1      42.629  21.320  25.338  1.00  0.00     0.014 A 
ATOM     10  C   UNL A   1      42.778  22.320  27.940  1.00  0.00     0.010 A 
ATOM     11  C   UNL A   1      43.097  22.617  25.560  1.00  0.00     0.010 A 
ATOM     12  C   UNL A   1      43.145  23.139  26.861  1.00  0.00    -0.014 A 
BRANCH  12  13
ATOM     13  C   UNL A   1      43.587  24.536  27.096  1.00  0.00     0.031 A 
ATOM     14  C   UNL A   1      42.619  25.567  27.602  1.00  0.00     0.074 A 
ATOM     15  C   UNL A   1      44.862  24.884  26.846  1.00  0.00     0.049 A 
ATOM     16  N   UNL A   1      42.823  26.835  27.861  1.00  0.00    -0.248 NA
ATOM     17  C   UNL A   1      41.239  25.120  27.841  1.00  0.00     0.031 C 
ATOM     18  C   UNL A   1      45.895  23.988  26.326  1.00  0.00     0.029 A 
ATOM     19  N   UNL A   1      45.504  26.086  26.995  1.00  0.00    -0.354 N 
ATOM     20  C   UNL A   1      41.598  27.341  28.269  1.00  0.00     0.074 A 
ATOM     21  C   UNL A   1      40.650  26.247  28.220  1.00  0.00     0.031 C 
ATOM     22  C   UNL A   1      47.048  24.669  26.215  1.00  0.00     0.029 A 
ATOM     23  C   UNL A   1      46.827  26.050  26.638  1.00  0.00     0.049 A 
ATOM     24  H   UNL A   1      45.058  26.899  27.328  1.00  0.00     0.167 HD
ATOM     25  C   UNL A   1      41.291  28.601  28.657  1.00  0.00     0.037 A 
ATOM     26  C   UNL A   1      47.760  27.020  26.645  1.00  0.00     0.037 A 
ATOM     27  C   UNL A   1      42.230  29.686  28.752  1.00  0.00     0.049 A 
ATOM     28  C   UNL A   1      47.399  28.403  27.100  1.00  0.00     0.074 A 
ATOM     29  C   UNL A   1      42.020  30.973  29.218  1.00  0.00     0.029 A 
ATOM     30  N   UNL A   1      43.560  29.610  28.373  1.00  0.00    -0.354 N 
ATOM     31  N   UNL A   1      46.246  28.856  27.526  1.00  0.00    -0.248 NA
ATOM     32  C   UNL A   1      48.469  29.412  27.070  1.00  0.00     0.031 C 
ATOM     33  C   UNL A   1      43.222  31.682  29.104  1.00  0.00     0.029 A 
ATOM     34  C   UNL A   1      44.180  30.832  28.576  1.00  0.00     0.049 A 
ATOM     35  H   UNL A   1      43.999  28.805  28.011  1.00  0.00     0.167 HD
ATOM     36  C   UNL A   1      46.448  30.197  27.811  1.00  0.00     0.074 A 
ATOM     37  C   UNL A   1      47.838  30.487  27.522  1.00  0.00     0.031 C 
ATOM     38  C   UNL A   1      45.557  31.108  28.270  1.00  0.00     0.037 A 
BRANCH  25  39
ATOM     39  C   UNL A   1      39.865  28.880  29.013  1.00  0.00     0.064 A 
ATOM     40  C   UNL A   1      38.945  29.308  28.047  1.00  0.00     0.173 A 
ATOM     41  C   UNL A   1      39.410  28.681  30.323  1.00  0.00     0.173 A 
ATOM     42  F   UNL A   1      39.344  29.522  26.784  1.00  0.00    -0.203 F 
ATOM     43  C   UNL A   1      37.614  29.534  28.383  1.00  0.00     0.198 A 
ATOM     44  C   UNL A   1      38.076  28.900  30.654  1.00  0.00     0.198 A 
ATOM     45  F   UNL A   1      40.259  28.276  31.280  1.00  0.00    -0.203 F 
ATOM     46  F   UNL A   1      36.751  29.961  27.451  1.00  0.00    -0.200 F 
ATOM     47  C   UNL A   1      37.180  29.328  29.685  1.00  0.00     0.200 A 
ATOM     48  F   UNL A   1      37.658  28.703  31.912  1.00  0.00    -0.200 F 
ATOM     49  F   UNL A   1      35.898  29.547  30.008  1.00  0.00    -0.200 F 
ENDBRANCH  25  39
BRANCH  26  50
ATOM     50  C   UNL A   1      49.137  26.704  26.206  1.00  0.00     0.064 A 
ATOM     51  C   UNL A   1      49.517  26.869  24.869  1.00  0.00     0.173 A 
ATOM     52  C   UNL A   1      50.101  26.258  27.119  1.00  0.00     0.173 A 
ATOM     53  F   UNL A   1      48.616  27.276  23.962  1.00  0.00    -0.203 F 
ATOM     54  C   UNL A   1      50.819  26.599  24.458  1.00  0.00     0.198 A 
ATOM     55  C   UNL A   1      51.406  25.998  26.709  1.00  0.00     0.198 A 
ATOM     56  F   UNL A   1      49.774  26.082  28.408  1.00  0.00    -0.203 F 
ATOM     57  F   UNL A   1      51.159  26.752  23.172  1.00  0.00    -0.200 F 
ATOM     58  C   UNL A   1      51.764  26.169  25.379  1.00  0.00     0.200 A 
ATOM     59  F   UNL A   1      52.316  25.582  27.600  1.00  0.00    -0.200 F 
ATOM     60  F   UNL A   1      53.018  25.913  24.984  1.00  0.00    -0.200 F 
ENDBRANCH  26  50
BRANCH  38  61
ATOM     61  C   UNL A   1      46.052  32.503  28.474  1.00  0.00     0.064 A 
ATOM     62  C   UNL A   1      45.958  33.456  27.451  1.00  0.00     0.173 A 
ATOM     63  C   UNL A   1      46.589  32.901  29.706  1.00  0.00     0.173 A 
ATOM     64  F   UNL A   1      45.464  33.111  26.253  1.00  0.00    -0.203 F 
ATOM     65  C   UNL A   1      46.392  34.763  27.652  1.00  0.00     0.198 A 
ATOM     66  C   UNL A   1      47.015  34.212  29.906  1.00  0.00     0.198 A 
ATOM     67  F   UNL A   1      46.699  32.020  30.711  1.00  0.00    -0.203 F 
ATOM     68  F   UNL A   1      46.311  35.655  26.657  1.00  0.00    -0.200 F 
ATOM     69  C   UNL A   1      46.917  35.140  28.881  1.00  0.00     0.200 A 
ATOM     70  F   UNL A   1      47.523  34.576  31.092  1.00  0.00    -0.200 F 
ATOM     71  F   UNL A   1      47.334  36.399  29.072  1.00  0.00    -0.200 F 
ENDBRANCH  38  61
ENDBRANCH  12  13
ENDBRANCH   5   7
ENDBRANCH   2   3
ENDBRANCH   1   2
BRANCH   1  72
ATOM     72  C   UNL A   1      36.793  19.927  25.001  1.00  0.00     0.023 C 
BRANCH  72  73
ATOM     73  C   UNL A   1      36.798  21.453  25.070  1.00  0.00     0.116 C 
BRANCH  73  74
ATOM     74  N   UNL A   1      35.973  21.985  26.143  1.00  0.00    -0.352 N 
ATOM     75  C   UNL A   1      34.612  22.141  26.209  1.00  0.00     0.253 C 
ATOM     76  H   UNL A   1      36.467  22.276  26.944  1.00  0.00     0.163 HD
ATOM     77  O   UNL A   1      34.110  22.668  27.198  1.00  0.00    -0.269 OA
BRANCH  75  78
ATOM     78  C   UNL A   1      33.743  21.704  25.095  1.00  0.00     0.063 A 
ATOM     79  C   UNL A   1      33.386  20.346  25.110  1.00  0.00     0.016 A 
ATOM     80  C   UNL A   1      33.345  22.556  24.038  1.00  0.00     0.054 A 
ATOM     81  C   UNL A   1      32.587  19.826  24.100  1.00  0.00     0.001 A 
ATOM     82  C   UNL A   1      32.527  22.011  23.044  1.00  0.00     0.027 A 
ATOM     83  C   UNL A   1      32.152  20.659  23.075  1.00  0.00     0.002 A 
BRANCH  80  84
ATOM     84  N   UNL A   1      33.800  23.894  24.044  1.00  0.00    -0.321 N 
ATOM     85  C   UNL A   1      33.390  25.056  24.624  1.00  0.00     0.263 C 
ATOM     86  H   UNL A   1      34.607  24.015  23.494  1.00  0.00     0.170 HD
ATOM     87  O   UNL A   1      34.104  26.051  24.492  1.00  0.00    -0.269 OA
BRANCH  85  88
ATOM     88  C   UNL A   1      32.116  25.123  25.382  1.00  0.00     0.126 A 
ATOM     89  C   UNL A   1      32.108  25.881  26.501  1.00  0.00     0.033 A 
ATOM     90  C   UNL A   1      30.936  25.394  24.521  1.00  0.00     0.349 A 
ATOM     91  C   UNL A   1      32.039  27.330  26.213  1.00  0.00     0.021 A 
ATOM     92  O   UNL A   1      30.657  26.746  24.307  1.00  0.00    -0.421 OA
ATOM     93  O   UNL A   1      30.278  24.489  24.025  1.00  0.00    -0.245 OA
ATOM     94  C   UNL A   1      32.659  28.284  27.014  1.00  0.00     0.032 A 
ATOM     95  C   UNL A   1      31.326  27.729  25.075  1.00  0.00     0.157 A 
ATOM     96  C   UNL A   1      32.580  29.630  26.649  1.00  0.00     0.043 A 
ATOM     97  C   UNL A   1      31.251  29.072  24.711  1.00  0.00     0.085 A 
ATOM     98  Cl  UNL A   1      33.349  30.818  27.630  1.00  0.00    -0.084 Cl
ATOM     99  C   UNL A   1      31.887  30.029  25.502  1.00  0.00     0.045 A 
ATOM    100  Cl  UNL A   1      30.396  29.577  23.305  1.00  0.00    -0.080 Cl
ENDBRANCH  85  88
ENDBRANCH  80  84
ENDBRANCH  75  78
ENDBRANCH  73  74
ENDBRANCH  72  73
ENDBRANCH   1  72
TORSDOF 13
ENDMDL
