MODEL 1
REMARK VINA RESULT:     -12.9      0.000      0.000
REMARK SMILES COc1ccc(-c2nc(C(C)C)cc3nn(CC(=O)NCCCCNC(=O)c4ccc(-c5c6nc(c(-c7c(F)c(F)c(F)c(F)c7F)c7ccc([nH]7)c(-c7c(F)c(F)c(F)c(F)c7F)c7nc(c(-c8c(F)c(F)c(F)c(F)c8F)c8ccc5[nH]8)C=C7)C=C6)cc4)c(=O)n23)cc1
REMARK SMILES IDX 22 1 21 2 20 3 18 4 19 5 17 7 16 8 7 9 8 10 93 11 9 12 14 13
REMARK SMILES IDX 91 14 13 15 15 16 92 17 6 18 3 19 4 20 95 21 5 22 94 23 2 24
REMARK SMILES IDX 1 25 10 26 11 27 12 28 23 29 24 30 25 31 26 32 27 34 28 35
REMARK SMILES IDX 29 36 90 37 30 38 89 39 31 40 32 41 33 42 83 43 34 44 88 45
REMARK SMILES IDX 82 46 84 47 35 48 87 49 81 50 80 51 36 53 68 54 48 55 67 56
REMARK SMILES IDX 49 57 52 58 66 59 85 60 50 61 51 62 65 64 86 65 53 66 37 67
REMARK SMILES IDX 38 68 46 69 39 70 40 71 44 72 47 73 41 74 42 75 45 76 43 77
REMARK SMILES IDX 69 78 70 79 78 80 71 81 72 82 76 83 79 84 73 85 74 86 77 87
REMARK SMILES IDX 75 88 54 89 55 90 63 91 56 92 57 93 61 94 64 95 58 96 59 97
REMARK SMILES IDX 62 98 60 99
REMARK H PARENT 20 6 25 33 84 52 52 63
REMARK Flexibility Score: inf
ROOT
ATOM      1  C   UNL A   1      33.755  27.865  25.006  1.00  0.00     0.023 C 
ENDROOT
BRANCH   1   2
ATOM      2  C   UNL A   1      32.647  27.463  24.026  1.00  0.00     0.116 C 
BRANCH   2   3
ATOM      3  N   UNL A   1      33.148  27.153  22.701  1.00  0.00    -0.354 N 
ATOM      4  C   UNL A   1      33.091  25.983  21.995  1.00  0.00     0.241 C 
ATOM      5  O   UNL A   1      33.356  26.047  20.790  1.00  0.00    -0.273 OA
ATOM      6  H   UNL A   1      33.598  27.898  22.240  1.00  0.00     0.163 HD
BRANCH   4   7
ATOM      7  C   UNL A   1      32.564  24.688  22.615  1.00  0.00     0.249 C 
BRANCH   7   8
ATOM      8  N   UNL A   1      33.559  24.042  23.430  1.00  0.00    -0.203 N 
ATOM      9  C   UNL A   1      35.270  21.438  25.210  1.00  0.00     0.150 A 
ATOM     10  N   UNL A   1      36.411  21.529  25.832  1.00  0.00    -0.234 NA
ATOM     11  N   UNL A   1      34.680  22.532  24.590  1.00  0.00    -0.226 N 
ATOM     12  C   UNL A   1      37.061  22.750  25.838  1.00  0.00     0.049 A 
ATOM     13  C   UNL A   1      35.296  23.733  24.564  1.00  0.00     0.165 A 
ATOM     14  C   UNL A   1      33.491  22.724  23.898  1.00  0.00     0.352 A 
ATOM     15  C   UNL A   1      36.577  23.853  25.244  1.00  0.00     0.073 A 
ATOM     16  N   UNL A   1      34.685  24.670  23.906  1.00  0.00    -0.149 NA
ATOM     17  O   UNL A   1      32.566  21.944  23.712  1.00  0.00    -0.245 OA
BRANCH   9  18
ATOM     18  C   UNL A   1      34.571  20.136  25.134  1.00  0.00     0.018 A 
ATOM     19  C   UNL A   1      33.260  17.667  24.968  1.00  0.00     0.118 A 
ATOM     20  C   UNL A   1      32.682  18.728  25.668  1.00  0.00     0.047 A 
ATOM     21  C   UNL A   1      34.487  17.854  24.326  1.00  0.00     0.047 A 
ATOM     22  C   UNL A   1      33.330  19.963  25.752  1.00  0.00     0.016 A 
ATOM     23  C   UNL A   1      35.139  19.092  24.401  1.00  0.00     0.016 A 
BRANCH  19  24
ATOM     24  O   UNL A   1      32.509  16.524  24.939  1.00  0.00    -0.497 OA
ATOM     25  C   UNL A   1      33.127  15.346  25.440  1.00  0.00     0.278 C 
ENDBRANCH  19  24
ENDBRANCH   9  18
BRANCH  12  26
ATOM     26  C   UNL A   1      38.404  22.776  26.560  1.00  0.00     0.032 C 
ATOM     27  C   UNL A   1      39.390  21.772  25.953  1.00  0.00     0.014 C 
ATOM     28  C   UNL A   1      39.014  24.181  26.582  1.00  0.00     0.014 C 
ENDBRANCH  12  26
ENDBRANCH   7   8
ENDBRANCH   4   7
ENDBRANCH   2   3
ENDBRANCH   1   2
BRANCH   1  29
ATOM     29  C   UNL A   1      33.463  29.087  25.889  1.00  0.00     0.023 C 
BRANCH  29  30
ATOM     30  C   UNL A   1      34.604  29.516  26.803  1.00  0.00     0.116 C 
BRANCH  30  31
ATOM     31  N   UNL A   1      34.409  30.841  27.385  1.00  0.00    -0.352 N 
ATOM     32  C   UNL A   1      34.987  31.352  28.532  1.00  0.00     0.251 C 
ATOM     33  H   UNL A   1      33.794  31.441  26.905  1.00  0.00     0.163 HD
ATOM     34  O   UNL A   1      34.450  32.265  29.150  1.00  0.00    -0.269 OA
BRANCH  32  35
ATOM     35  C   UNL A   1      36.268  30.794  29.005  1.00  0.00     0.039 A 
ATOM     36  C   UNL A   1      36.336  29.515  29.563  1.00  0.00     0.014 A 
ATOM     37  C   UNL A   1      37.419  31.575  28.887  1.00  0.00     0.014 A 
ATOM     38  C   UNL A   1      37.583  29.001  29.917  1.00  0.00     0.010 A 
ATOM     39  C   UNL A   1      38.658  31.024  29.114  1.00  0.00     0.010 A 
ATOM     40  C   UNL A   1      38.746  29.751  29.661  1.00  0.00    -0.014 A 
BRANCH  40  41
ATOM     41  C   UNL A   1      40.064  29.120  29.756  1.00  0.00     0.031 A 
ATOM     42  C   UNL A   1      40.531  29.019  31.165  1.00  0.00     0.074 A 
ATOM     43  C   UNL A   1      40.693  28.503  28.727  1.00  0.00     0.049 A 
ATOM     44  N   UNL A   1      41.489  29.686  31.713  1.00  0.00    -0.248 NA
ATOM     45  C   UNL A   1      39.731  28.243  32.130  1.00  0.00     0.031 C 
ATOM     46  C   UNL A   1      40.163  28.275  27.377  1.00  0.00     0.029 A 
ATOM     47  N   UNL A   1      41.901  27.855  28.681  1.00  0.00    -0.354 N 
ATOM     48  C   UNL A   1      41.590  29.199  33.014  1.00  0.00     0.074 A 
ATOM     49  C   UNL A   1      40.358  28.513  33.278  1.00  0.00     0.031 C 
ATOM     50  C   UNL A   1      40.917  27.354  26.736  1.00  0.00     0.029 A 
ATOM     51  C   UNL A   1      42.078  27.051  27.551  1.00  0.00     0.049 A 
ATOM     52  H   UNL A   1      42.583  27.949  29.383  1.00  0.00     0.167 HD
ATOM     53  C   UNL A   1      42.822  29.094  33.588  1.00  0.00     0.037 A 
ATOM     54  C   UNL A   1      43.106  26.197  27.300  1.00  0.00     0.037 A 
ATOM     55  C   UNL A   1      43.778  29.862  32.828  1.00  0.00     0.049 A 
ATOM     56  C   UNL A   1      44.242  26.622  28.145  1.00  0.00     0.074 A 
ATOM     57  C   UNL A   1      44.090  31.190  32.640  1.00  0.00     0.029 A 
ATOM     58  N   UNL A   1      44.286  29.169  31.763  1.00  0.00    -0.354 N 
ATOM     59  N   UNL A   1      44.899  27.730  27.950  1.00  0.00    -0.248 NA
ATOM     60  C   UNL A   1      44.442  25.986  29.441  1.00  0.00     0.031 C 
ATOM     61  C   UNL A   1      44.724  31.276  31.364  1.00  0.00     0.029 A 
ATOM     62  C   UNL A   1      44.845  29.995  30.832  1.00  0.00     0.049 A 
ATOM     63  H   UNL A   1      44.252  28.189  31.677  1.00  0.00     0.167 HD
ATOM     64  C   UNL A   1      45.212  28.153  29.224  1.00  0.00     0.074 A 
ATOM     65  C   UNL A   1      45.081  26.975  30.072  1.00  0.00     0.031 C 
ATOM     66  C   UNL A   1      45.186  29.481  29.528  1.00  0.00     0.037 A 
BRANCH  53  67
ATOM     67  C   UNL A   1      43.301  27.908  34.417  1.00  0.00     0.064 A 
ATOM     68  C   UNL A   1      43.296  26.626  33.816  1.00  0.00     0.173 A 
ATOM     69  C   UNL A   1      43.433  27.905  35.822  1.00  0.00     0.173 A 
ATOM     70  F   UNL A   1      43.168  26.494  32.487  1.00  0.00    -0.203 F 
ATOM     71  C   UNL A   1      43.324  25.448  34.572  1.00  0.00     0.198 A 
ATOM     72  C   UNL A   1      43.505  26.727  36.568  1.00  0.00     0.198 A 
ATOM     73  F   UNL A   1      43.393  29.022  36.553  1.00  0.00    -0.203 F 
ATOM     74  F   UNL A   1      43.187  24.263  33.963  1.00  0.00    -0.200 F 
ATOM     75  C   UNL A   1      43.417  25.500  35.949  1.00  0.00     0.200 A 
ATOM     76  F   UNL A   1      43.572  26.801  37.905  1.00  0.00    -0.200 F 
ATOM     77  F   UNL A   1      43.380  24.379  36.680  1.00  0.00    -0.200 F 
ENDBRANCH  53  67
BRANCH  54  78
ATOM     78  C   UNL A   1      43.164  24.930  26.528  1.00  0.00     0.064 A 
ATOM     79  C   UNL A   1      43.985  24.807  25.389  1.00  0.00     0.173 A 
ATOM     80  C   UNL A   1      42.677  23.729  27.074  1.00  0.00     0.173 A 
ATOM     81  F   UNL A   1      44.517  25.899  24.819  1.00  0.00    -0.203 F 
ATOM     82  C   UNL A   1      44.343  23.560  24.866  1.00  0.00     0.198 A 
ATOM     83  C   UNL A   1      43.033  22.482  26.549  1.00  0.00     0.198 A 
ATOM     84  F   UNL A   1      41.931  23.739  28.187  1.00  0.00    -0.203 F 
ATOM     85  F   UNL A   1      45.191  23.486  23.831  1.00  0.00    -0.200 F 
ATOM     86  C   UNL A   1      43.882  22.397  25.459  1.00  0.00     0.200 A 
ATOM     87  F   UNL A   1      42.609  21.362  27.151  1.00  0.00    -0.200 F 
ATOM     88  F   UNL A   1      44.288  21.201  25.011  1.00  0.00    -0.200 F 
ENDBRANCH  54  78
BRANCH  66  89
ATOM     89  C   UNL A   1      45.397  30.453  28.414  1.00  0.00     0.064 A 
ATOM     90  C   UNL A   1      44.378  31.005  27.622  1.00  0.00     0.173 A 
ATOM     91  C   UNL A   1      46.707  30.898  28.196  1.00  0.00     0.173 A 
ATOM     92  F   UNL A   1      43.093  30.680  27.821  1.00  0.00    -0.203 F 
ATOM     93  C   UNL A   1      44.673  31.943  26.633  1.00  0.00     0.198 A 
ATOM     94  C   UNL A   1      46.992  31.860  27.237  1.00  0.00     0.198 A 
ATOM     95  F   UNL A   1      47.712  30.423  28.948  1.00  0.00    -0.203 F 
ATOM     96  F   UNL A   1      43.690  32.449  25.873  1.00  0.00    -0.200 F 
ATOM     97  C   UNL A   1      45.977  32.375  26.447  1.00  0.00     0.200 A 
ATOM     98  F   UNL A   1      48.249  32.302  27.092  1.00  0.00    -0.200 F 
ATOM     99  F   UNL A   1      46.255  33.303  25.521  1.00  0.00    -0.200 F 
ENDBRANCH  66  89
ENDBRANCH  40  41
ENDBRANCH  32  35
ENDBRANCH  30  31
ENDBRANCH  29  30
ENDBRANCH   1  29
TORSDOF 15
ENDMDL
MODEL 2
REMARK VINA RESULT:     -12.8      2.781      8.656
REMARK SMILES COc1ccc(-c2nc(C(C)C)cc3nn(CC(=O)NCCCCNC(=O)c4ccc(-c5c6nc(c(-c7c(F)c(F)c(F)c(F)c7F)c7ccc([nH]7)c(-c7c(F)c(F)c(F)c(F)c7F)c7nc(c(-c8c(F)c(F)c(F)c(F)c8F)c8ccc5[nH]8)C=C7)C=C6)cc4)c(=O)n23)cc1
REMARK SMILES IDX 22 1 21 2 20 3 18 4 19 5 17 7 16 8 7 9 8 10 93 11 9 12 14 13
REMARK SMILES IDX 91 14 13 15 15 16 92 17 6 18 3 19 4 20 95 21 5 22 94 23 2 24
REMARK SMILES IDX 1 25 10 26 11 27 12 28 23 29 24 30 25 31 26 32 27 34 28 35
REMARK SMILES IDX 29 36 90 37 30 38 89 39 31 40 32 41 33 42 83 43 34 44 88 45
REMARK SMILES IDX 82 46 84 47 35 48 87 49 81 50 80 51 36 53 68 54 48 55 67 56
REMARK SMILES IDX 49 57 52 58 66 59 85 60 50 61 51 62 65 64 86 65 53 66 37 67
REMARK SMILES IDX 38 68 46 69 39 70 40 71 44 72 47 73 41 74 42 75 45 76 43 77
REMARK SMILES IDX 69 78 70 79 78 80 71 81 72 82 76 83 79 84 73 85 74 86 77 87
REMARK SMILES IDX 75 88 54 89 55 90 63 91 56 92 57 93 61 94 64 95 58 96 59 97
REMARK SMILES IDX 62 98 60 99
REMARK H PARENT 20 6 25 33 84 52 52 63
REMARK Flexibility Score: inf
ROOT
ATOM      1  C   UNL A   1      40.794  21.444  27.397  1.00  0.00     0.023 C 
ENDROOT
BRANCH   1   2
ATOM      2  C   UNL A   1      39.548  21.282  26.519  1.00  0.00     0.116 C 
BRANCH   2   3
ATOM      3  N   UNL A   1      39.210  22.489  25.789  1.00  0.00    -0.354 N 
ATOM      4  C   UNL A   1      38.107  23.291  25.888  1.00  0.00     0.241 C 
ATOM      5  O   UNL A   1      38.175  24.400  25.346  1.00  0.00    -0.273 OA
ATOM      6  H   UNL A   1      39.876  22.773  25.122  1.00  0.00     0.163 HD
BRANCH   4   7
ATOM      7  C   UNL A   1      36.909  22.917  26.762  1.00  0.00     0.249 C 
BRANCH   7   8
ATOM      8  N   UNL A   1      35.870  22.276  26.000  1.00  0.00    -0.203 N 
ATOM      9  C   UNL A   1      33.013  21.909  23.860  1.00  0.00     0.150 A 
ATOM     10  N   UNL A   1      32.505  20.797  23.410  1.00  0.00    -0.234 NA
ATOM     11  N   UNL A   1      34.101  21.925  24.723  1.00  0.00    -0.226 N 
ATOM     12  C   UNL A   1      33.099  19.605  23.782  1.00  0.00     0.049 A 
ATOM     13  C   UNL A   1      34.713  20.780  25.093  1.00  0.00     0.165 A 
ATOM     14  C   UNL A   1      34.810  22.933  25.364  1.00  0.00     0.352 A 
ATOM     15  C   UNL A   1      34.168  19.527  24.592  1.00  0.00     0.073 A 
ATOM     16  N   UNL A   1      35.757  20.914  25.853  1.00  0.00    -0.149 NA
ATOM     17  O   UNL A   1      34.594  24.138  25.390  1.00  0.00    -0.245 OA
BRANCH   9  18
ATOM     18  C   UNL A   1      32.439  23.207  23.441  1.00  0.00     0.018 A 
ATOM     19  C   UNL A   1      31.329  25.654  22.655  1.00  0.00     0.118 A 
ATOM     20  C   UNL A   1      32.442  25.137  21.988  1.00  0.00     0.047 A 
ATOM     21  C   UNL A   1      30.754  24.927  23.700  1.00  0.00     0.047 A 
ATOM     22  C   UNL A   1      32.999  23.915  22.374  1.00  0.00     0.016 A 
ATOM     23  C   UNL A   1      31.303  23.698  24.088  1.00  0.00     0.016 A 
BRANCH  19  24
ATOM     24  O   UNL A   1      30.867  26.842  22.160  1.00  0.00    -0.497 OA
ATOM     25  C   UNL A   1      31.513  28.020  22.629  1.00  0.00     0.278 C 
ENDBRANCH  19  24
ENDBRANCH   9  18
BRANCH  12  26
ATOM     26  C   UNL A   1      32.471  18.345  23.195  1.00  0.00     0.032 C 
ATOM     27  C   UNL A   1      32.188  18.502  21.697  1.00  0.00     0.014 C 
ATOM     28  C   UNL A   1      33.331  17.104  23.452  1.00  0.00     0.014 C 
ENDBRANCH  12  26
ENDBRANCH   7   8
ENDBRANCH   4   7
ENDBRANCH   2   3
ENDBRANCH   1   2
BRANCH   1  29
ATOM     29  C   UNL A   1      41.935  20.448  27.137  1.00  0.00     0.023 C 
BRANCH  29  30
ATOM     30  C   UNL A   1      41.996  19.883  25.723  1.00  0.00     0.116 C 
BRANCH  30  31
ATOM     31  N   UNL A   1      43.350  19.546  25.294  1.00  0.00    -0.352 N 
ATOM     32  C   UNL A   1      44.341  20.410  24.871  1.00  0.00     0.251 C 
ATOM     33  H   UNL A   1      43.585  18.590  25.308  1.00  0.00     0.163 HD
ATOM     34  O   UNL A   1      45.250  20.015  24.149  1.00  0.00    -0.269 OA
BRANCH  32  35
ATOM     35  C   UNL A   1      44.304  21.819  25.305  1.00  0.00     0.039 A 
ATOM     36  C   UNL A   1      43.413  22.729  24.729  1.00  0.00     0.014 A 
ATOM     37  C   UNL A   1      45.183  22.231  26.308  1.00  0.00     0.014 A 
ATOM     38  C   UNL A   1      43.358  24.028  25.232  1.00  0.00     0.010 A 
ATOM     39  C   UNL A   1      45.041  23.469  26.890  1.00  0.00     0.010 A 
ATOM     40  C   UNL A   1      44.155  24.384  26.336  1.00  0.00    -0.014 A 
BRANCH  40  41
ATOM     41  C   UNL A   1      43.904  25.636  27.052  1.00  0.00     0.031 A 
ATOM     42  C   UNL A   1      44.882  26.694  26.679  1.00  0.00     0.074 A 
ATOM     43  C   UNL A   1      42.799  25.885  27.794  1.00  0.00     0.049 A 
ATOM     44  N   UNL A   1      45.824  27.174  27.419  1.00  0.00    -0.248 NA
ATOM     45  C   UNL A   1      44.958  27.135  25.274  1.00  0.00     0.031 C 
ATOM     46  C   UNL A   1      41.629  25.013  27.956  1.00  0.00     0.029 A 
ATOM     47  N   UNL A   1      42.425  27.008  28.487  1.00  0.00    -0.354 N 
ATOM     48  C   UNL A   1      46.422  28.177  26.660  1.00  0.00     0.074 A 
ATOM     49  C   UNL A   1      46.022  27.942  25.303  1.00  0.00     0.031 C 
ATOM     50  C   UNL A   1      40.600  25.715  28.481  1.00  0.00     0.029 A 
ATOM     51  C   UNL A   1      41.076  27.033  28.854  1.00  0.00     0.049 A 
ATOM     52  H   UNL A   1      43.054  27.733  28.707  1.00  0.00     0.167 HD
ATOM     53  C   UNL A   1      46.871  29.303  27.287  1.00  0.00     0.037 A 
ATOM     54  C   UNL A   1      40.398  28.063  29.426  1.00  0.00     0.037 A 
ATOM     55  C   UNL A   1      46.948  29.067  28.708  1.00  0.00     0.049 A 
ATOM     56  C   UNL A   1      41.398  28.947  30.060  1.00  0.00     0.074 A 
ATOM     57  C   UNL A   1      47.766  28.379  29.577  1.00  0.00     0.029 A 
ATOM     58  N   UNL A   1      45.754  29.267  29.344  1.00  0.00    -0.354 N 
ATOM     59  N   UNL A   1      42.090  28.604  31.109  1.00  0.00    -0.248 NA
ATOM     60  C   UNL A   1      41.899  30.100  29.320  1.00  0.00     0.031 C 
ATOM     61  C   UNL A   1      46.972  28.089  30.728  1.00  0.00     0.029 A 
ATOM     62  C   UNL A   1      45.715  28.662  30.566  1.00  0.00     0.049 A 
ATOM     63  H   UNL A   1      45.008  29.786  28.964  1.00  0.00     0.167 HD
ATOM     64  C   UNL A   1      43.320  29.186  30.896  1.00  0.00     0.074 A 
ATOM     65  C   UNL A   1      43.094  30.229  29.903  1.00  0.00     0.031 C 
ATOM     66  C   UNL A   1      44.458  28.531  31.263  1.00  0.00     0.037 A 
BRANCH  53  67
ATOM     67  C   UNL A   1      46.681  30.724  26.771  1.00  0.00     0.064 A 
ATOM     68  C   UNL A   1      47.794  31.597  26.793  1.00  0.00     0.173 A 
ATOM     69  C   UNL A   1      45.433  31.356  26.585  1.00  0.00     0.173 A 
ATOM     70  F   UNL A   1      49.036  31.120  26.971  1.00  0.00    -0.203 F 
ATOM     71  C   UNL A   1      47.652  32.989  26.731  1.00  0.00     0.198 A 
ATOM     72  C   UNL A   1      45.301  32.742  26.480  1.00  0.00     0.198 A 
ATOM     73  F   UNL A   1      44.276  30.689  26.603  1.00  0.00    -0.203 F 
ATOM     74  F   UNL A   1      48.726  33.775  26.885  1.00  0.00    -0.200 F 
ATOM     75  C   UNL A   1      46.404  33.560  26.585  1.00  0.00     0.200 A 
ATOM     76  F   UNL A   1      44.077  33.277  26.362  1.00  0.00    -0.200 F 
ATOM     77  F   UNL A   1      46.256  34.891  26.589  1.00  0.00    -0.200 F 
ENDBRANCH  53  67
BRANCH  54  78
ATOM     78  C   UNL A   1      38.972  28.469  29.339  1.00  0.00     0.064 A 
ATOM     79  C   UNL A   1      38.180  28.605  30.498  1.00  0.00     0.173 A 
ATOM     80  C   UNL A   1      38.454  29.041  28.164  1.00  0.00     0.173 A 
ATOM     81  F   UNL A   1      38.609  28.113  31.670  1.00  0.00    -0.203 F 
ATOM     82  C   UNL A   1      36.978  29.319  30.492  1.00  0.00     0.198 A 
ATOM     83  C   UNL A   1      37.251  29.754  28.159  1.00  0.00     0.198 A 
ATOM     84  F   UNL A   1      39.157  29.009  27.023  1.00  0.00    -0.203 F 
ATOM     85  F   UNL A   1      36.296  29.494  31.633  1.00  0.00    -0.200 F 
ATOM     86  C   UNL A   1      36.523  29.910  29.326  1.00  0.00     0.200 A 
ATOM     87  F   UNL A   1      36.837  30.351  27.032  1.00  0.00    -0.200 F 
ATOM     88  F   UNL A   1      35.415  30.664  29.335  1.00  0.00    -0.200 F 
ENDBRANCH  54  78
BRANCH  66  89
ATOM     89  C   UNL A   1      44.358  27.529  32.366  1.00  0.00     0.064 A 
ATOM     90  C   UNL A   1      44.186  26.147  32.186  1.00  0.00     0.173 A 
ATOM     91  C   UNL A   1      44.522  28.001  33.673  1.00  0.00     0.173 A 
ATOM     92  F   UNL A   1      44.093  25.615  30.959  1.00  0.00    -0.203 F 
ATOM     93  C   UNL A   1      44.149  25.285  33.281  1.00  0.00     0.198 A 
ATOM     94  C   UNL A   1      44.524  27.136  34.758  1.00  0.00     0.198 A 
ATOM     95  F   UNL A   1      44.720  29.311  33.895  1.00  0.00    -0.203 F 
ATOM     96  F   UNL A   1      43.967  23.969  33.094  1.00  0.00    -0.200 F 
ATOM     97  C   UNL A   1      44.327  25.779  34.564  1.00  0.00     0.200 A 
ATOM     98  F   UNL A   1      44.737  27.617  35.992  1.00  0.00    -0.200 F 
ATOM     99  F   UNL A   1      44.329  24.946  35.614  1.00  0.00    -0.200 F 
ENDBRANCH  66  89
ENDBRANCH  40  41
ENDBRANCH  32  35
ENDBRANCH  30  31
ENDBRANCH  29  30
ENDBRANCH   1  29
TORSDOF 15
ENDMDL
MODEL 3
REMARK VINA RESULT:     -12.8      3.632      6.140
REMARK SMILES COc1ccc(-c2nc(C(C)C)cc3nn(CC(=O)NCCCCNC(=O)c4ccc(-c5c6nc(c(-c7c(F)c(F)c(F)c(F)c7F)c7ccc([nH]7)c(-c7c(F)c(F)c(F)c(F)c7F)c7nc(c(-c8c(F)c(F)c(F)c(F)c8F)c8ccc5[nH]8)C=C7)C=C6)cc4)c(=O)n23)cc1
REMARK SMILES IDX 22 1 21 2 20 3 18 4 19 5 17 7 16 8 7 9 8 10 93 11 9 12 14 13
REMARK SMILES IDX 91 14 13 15 15 16 92 17 6 18 3 19 4 20 95 21 5 22 94 23 2 24
REMARK SMILES IDX 1 25 10 26 11 27 12 28 23 29 24 30 25 31 26 32 27 34 28 35
REMARK SMILES IDX 29 36 90 37 30 38 89 39 31 40 32 41 33 42 83 43 34 44 88 45
REMARK SMILES IDX 82 46 84 47 35 48 87 49 81 50 80 51 36 53 68 54 48 55 67 56
REMARK SMILES IDX 49 57 52 58 66 59 85 60 50 61 51 62 65 64 86 65 53 66 37 67
REMARK SMILES IDX 38 68 46 69 39 70 40 71 44 72 47 73 41 74 42 75 45 76 43 77
REMARK SMILES IDX 69 78 70 79 78 80 71 81 72 82 76 83 79 84 73 85 74 86 77 87
REMARK SMILES IDX 75 88 54 89 55 90 63 91 56 92 57 93 61 94 64 95 58 96 59 97
REMARK SMILES IDX 62 98 60 99
REMARK H PARENT 20 6 25 33 84 52 52 63
REMARK Flexibility Score: inf
ROOT
ATOM      1  C   UNL A   1      34.041  33.458  28.262  1.00  0.00     0.023 C 
ENDROOT
BRANCH   1   2
ATOM      2  C   UNL A   1      33.467  32.178  27.644  1.00  0.00     0.116 C 
BRANCH   2   3
ATOM      3  N   UNL A   1      33.998  30.971  28.248  1.00  0.00    -0.354 N 
ATOM      4  C   UNL A   1      34.545  29.865  27.657  1.00  0.00     0.241 C 
ATOM      5  O   UNL A   1      35.161  29.088  28.395  1.00  0.00    -0.273 OA
ATOM      6  H   UNL A   1      33.959  30.943  29.231  1.00  0.00     0.163 HD
BRANCH   4   7
ATOM      7  C   UNL A   1      34.547  29.675  26.139  1.00  0.00     0.249 C 
BRANCH   7   8
ATOM      8  N   UNL A   1      33.627  28.647  25.728  1.00  0.00    -0.203 N 
ATOM      9  C   UNL A   1      30.820  27.101  24.115  1.00  0.00     0.150 A 
ATOM     10  N   UNL A   1      30.527  25.832  24.092  1.00  0.00    -0.234 NA
ATOM     11  N   UNL A   1      31.915  27.591  24.814  1.00  0.00    -0.226 N 
ATOM     12  C   UNL A   1      31.360  24.953  24.759  1.00  0.00     0.049 A 
ATOM     13  C   UNL A   1      32.758  26.758  25.462  1.00  0.00     0.165 A 
ATOM     14  C   UNL A   1      32.434  28.861  25.028  1.00  0.00     0.352 A 
ATOM     15  C   UNL A   1      32.453  25.334  25.439  1.00  0.00     0.073 A 
ATOM     16  N   UNL A   1      33.782  27.315  26.030  1.00  0.00    -0.149 NA
ATOM     17  O   UNL A   1      31.984  29.951  24.694  1.00  0.00    -0.245 OA
BRANCH   9  18
ATOM     18  C   UNL A   1      29.983  28.066  23.368  1.00  0.00     0.018 A 
ATOM     19  C   UNL A   1      28.380  29.876  21.956  1.00  0.00     0.118 A 
ATOM     20  C   UNL A   1      29.752  29.804  21.707  1.00  0.00     0.047 A 
ATOM     21  C   UNL A   1      27.806  29.017  22.897  1.00  0.00     0.047 A 
ATOM     22  C   UNL A   1      30.557  28.902  22.406  1.00  0.00     0.016 A 
ATOM     23  C   UNL A   1      28.606  28.104  23.596  1.00  0.00     0.016 A 
BRANCH  19  24
ATOM     24  O   UNL A   1      27.704  30.781  21.184  1.00  0.00    -0.497 OA
ATOM     25  C   UNL A   1      28.362  32.017  20.934  1.00  0.00     0.278 C 
ENDBRANCH  19  24
ENDBRANCH   9  18
BRANCH  12  26
ATOM     26  C   UNL A   1      30.973  23.481  24.667  1.00  0.00     0.032 C 
ATOM     27  C   UNL A   1      31.775  22.753  23.582  1.00  0.00     0.014 C 
ATOM     28  C   UNL A   1      31.118  22.765  26.013  1.00  0.00     0.014 C 
ENDBRANCH  12  26
ENDBRANCH   7   8
ENDBRANCH   4   7
ENDBRANCH   2   3
ENDBRANCH   1   2
BRANCH   1  29
ATOM     29  C   UNL A   1      33.029  34.573  28.565  1.00  0.00     0.023 C 
BRANCH  29  30
ATOM     30  C   UNL A   1      33.595  35.783  29.299  1.00  0.00     0.116 C 
BRANCH  30  31
ATOM     31  N   UNL A   1      32.966  36.018  30.595  1.00  0.00    -0.352 N 
ATOM     32  C   UNL A   1      33.101  35.268  31.747  1.00  0.00     0.251 C 
ATOM     33  H   UNL A   1      32.376  36.803  30.656  1.00  0.00     0.163 HD
ATOM     34  O   UNL A   1      32.233  35.288  32.613  1.00  0.00    -0.269 OA
BRANCH  32  35
ATOM     35  C   UNL A   1      34.310  34.443  31.934  1.00  0.00     0.039 A 
ATOM     36  C   UNL A   1      34.267  33.054  31.783  1.00  0.00     0.014 A 
ATOM     37  C   UNL A   1      35.505  35.080  32.270  1.00  0.00     0.014 A 
ATOM     38  C   UNL A   1      35.453  32.329  31.888  1.00  0.00     0.010 A 
ATOM     39  C   UNL A   1      36.692  34.386  32.245  1.00  0.00     0.010 A 
ATOM     40  C   UNL A   1      36.671  33.006  32.089  1.00  0.00    -0.014 A 
BRANCH  40  41
ATOM     41  C   UNL A   1      37.942  32.302  31.913  1.00  0.00     0.031 A 
ATOM     42  C   UNL A   1      38.627  32.061  33.212  1.00  0.00     0.074 A 
ATOM     43  C   UNL A   1      38.352  31.741  30.751  1.00  0.00     0.049 A 
ATOM     44  N   UNL A   1      39.704  32.630  33.638  1.00  0.00    -0.248 NA
ATOM     45  C   UNL A   1      37.947  31.250  34.239  1.00  0.00     0.031 C 
ATOM     46  C   UNL A   1      37.594  31.653  29.497  1.00  0.00     0.029 A 
ATOM     47  N   UNL A   1      39.491  31.037  30.454  1.00  0.00    -0.354 N 
ATOM     48  C   UNL A   1      39.984  32.032  34.864  1.00  0.00     0.074 A 
ATOM     49  C   UNL A   1      38.770  31.391  35.282  1.00  0.00     0.031 C 
ATOM     50  C   UNL A   1      38.170  30.751  28.672  1.00  0.00     0.029 A 
ATOM     51  C   UNL A   1      39.427  30.321  29.255  1.00  0.00     0.049 A 
ATOM     52  H   UNL A   1      40.285  31.036  31.036  1.00  0.00     0.167 HD
ATOM     53  C   UNL A   1      41.284  31.815  35.213  1.00  0.00     0.037 A 
ATOM     54  C   UNL A   1      40.342  29.439  28.773  1.00  0.00     0.037 A 
ATOM     55  C   UNL A   1      42.150  32.593  34.360  1.00  0.00     0.049 A 
ATOM     56  C   UNL A   1      41.627  29.732  29.442  1.00  0.00     0.074 A 
ATOM     57  C   UNL A   1      42.514  33.914  34.220  1.00  0.00     0.029 A 
ATOM     58  N   UNL A   1      42.431  31.965  33.176  1.00  0.00    -0.354 N 
ATOM     59  N   UNL A   1      42.314  30.817  29.221  1.00  0.00    -0.248 NA
ATOM     60  C   UNL A   1      41.995  28.981  30.636  1.00  0.00     0.031 C 
ATOM     61  C   UNL A   1      42.933  34.072  32.864  1.00  0.00     0.029 A 
ATOM     62  C   UNL A   1      42.882  32.835  32.228  1.00  0.00     0.049 A 
ATOM     63  H   UNL A   1      42.319  30.998  33.027  1.00  0.00     0.167 HD
ATOM     64  C   UNL A   1      42.859  31.116  30.451  1.00  0.00     0.074 A 
ATOM     65  C   UNL A   1      42.793  29.880  31.220  1.00  0.00     0.031 C 
ATOM     66  C   UNL A   1      42.970  32.414  30.851  1.00  0.00     0.037 A 
BRANCH  53  67
ATOM     67  C   UNL A   1      41.815  30.541  35.860  1.00  0.00     0.064 A 
ATOM     68  C   UNL A   1      42.847  30.659  36.820  1.00  0.00     0.173 A 
ATOM     69  C   UNL A   1      41.616  29.238  35.359  1.00  0.00     0.173 A 
ATOM     70  F   UNL A   1      43.141  31.849  37.367  1.00  0.00    -0.203 F 
ATOM     71  C   UNL A   1      43.667  29.580  37.171  1.00  0.00     0.198 A 
ATOM     72  C   UNL A   1      42.408  28.154  35.744  1.00  0.00     0.198 A 
ATOM     73  F   UNL A   1      40.727  28.960  34.400  1.00  0.00    -0.203 F 
ATOM     74  F   UNL A   1      44.711  29.774  37.988  1.00  0.00    -0.200 F 
ATOM     75  C   UNL A   1      43.453  28.330  36.624  1.00  0.00     0.200 A 
ATOM     76  F   UNL A   1      42.197  26.955  35.183  1.00  0.00    -0.200 F 
ATOM     77  F   UNL A   1      44.272  27.309  36.907  1.00  0.00    -0.200 F 
ENDBRANCH  53  67
BRANCH  54  78
ATOM     78  C   UNL A   1      40.191  28.238  27.912  1.00  0.00     0.064 A 
ATOM     79  C   UNL A   1      40.935  28.094  26.724  1.00  0.00     0.173 A 
ATOM     80  C   UNL A   1      39.566  27.076  28.397  1.00  0.00     0.173 A 
ATOM     81  F   UNL A   1      41.588  29.144  26.204  1.00  0.00    -0.203 F 
ATOM     82  C   UNL A   1      41.094  26.854  26.096  1.00  0.00     0.198 A 
ATOM     83  C   UNL A   1      39.723  25.837  27.767  1.00  0.00     0.198 A 
ATOM     84  F   UNL A   1      38.878  27.100  29.547  1.00  0.00    -0.203 F 
ATOM     85  F   UNL A   1      41.877  26.746  25.013  1.00  0.00    -0.200 F 
ATOM     86  C   UNL A   1      40.503  25.722  26.629  1.00  0.00     0.200 A 
ATOM     87  F   UNL A   1      39.175  24.741  28.311  1.00  0.00    -0.200 F 
ATOM     88  F   UNL A   1      40.719  24.520  26.078  1.00  0.00    -0.200 F 
ENDBRANCH  54  78
BRANCH  66  89
ATOM     89  C   UNL A   1      43.058  33.463  29.791  1.00  0.00     0.064 A 
ATOM     90  C   UNL A   1      41.999  34.292  29.387  1.00  0.00     0.173 A 
ATOM     91  C   UNL A   1      44.314  33.679  29.212  1.00  0.00     0.173 A 
ATOM     92  F   UNL A   1      40.787  34.189  29.949  1.00  0.00    -0.203 F 
ATOM     93  C   UNL A   1      42.193  35.275  28.418  1.00  0.00     0.198 A 
ATOM     94  C   UNL A   1      44.514  34.684  28.276  1.00  0.00     0.198 A 
ATOM     95  F   UNL A   1      45.365  32.933  29.587  1.00  0.00    -0.203 F 
ATOM     96  F   UNL A   1      41.168  36.048  28.030  1.00  0.00    -0.200 F 
ATOM     97  C   UNL A   1      43.452  35.476  27.870  1.00  0.00     0.200 A 
ATOM     98  F   UNL A   1      45.741  34.899  27.781  1.00  0.00    -0.200 F 
ATOM     99  F   UNL A   1      43.646  36.445  26.965  1.00  0.00    -0.200 F 
ENDBRANCH  66  89
ENDBRANCH  40  41
ENDBRANCH  32  35
ENDBRANCH  30  31
ENDBRANCH  29  30
ENDBRANCH   1  29
TORSDOF 15
ENDMDL
