MODEL 1
REMARK VINA RESULT:     -12.5      0.000      0.000
REMARK SMILES C[C@@H](O)[C@@H](NC(=O)Nc1ccc(F)cc1F)C(=O)NCCCCNC(=O)c1ccc(-c2c3nc(c(-c4c(F)c(F)c(F)c(F)c4F)c4ccc([nH]4)c(-c4c(F)c(F)c(F)c(F)c4F)c4nc(c(-c5c(F)c(F)c(F)c(F)c5F)c5ccc2[nH]5)C=C4)C=C3)cc1
REMARK SMILES IDX 21 1 20 2 19 3 17 4 18 5 4 7 2 8 1 9 3 10 5 12 6 13 7 15
REMARK SMILES IDX 8 16 9 18 10 19 15 20 11 21 14 22 16 23 12 24 13 25 22 26
REMARK SMILES IDX 23 27 24 28 25 29 26 31 27 32 28 33 89 34 29 35 88 36 30 37
REMARK SMILES IDX 31 38 32 39 82 40 33 41 87 42 81 43 83 44 34 45 86 46 80 47
REMARK SMILES IDX 79 48 35 50 67 51 47 52 66 53 48 54 51 55 65 56 84 57 49 58
REMARK SMILES IDX 50 59 64 61 85 62 52 63 36 64 37 65 45 66 38 67 39 68 43 69
REMARK SMILES IDX 46 70 40 71 41 72 44 73 42 74 68 75 69 76 77 77 70 78 71 79
REMARK SMILES IDX 75 80 78 81 72 82 73 83 76 84 74 85 53 86 54 87 62 88 55 89
REMARK SMILES IDX 56 90 60 91 63 92 57 93 58 94 61 95 59 96
REMARK H PARENT 19 6 3 11 5 14 8 17 24 30 83 49 51 60
REMARK Flexibility Score: inf
ROOT
ATOM      1  C   UNL A   1      31.783  30.241  26.574  1.00  0.00     0.023 C 
ENDROOT
BRANCH   1   2
ATOM      2  C   UNL A   1      32.231  29.700  25.214  1.00  0.00     0.116 C 
BRANCH   2   3
ATOM      3  N   UNL A   1      31.074  29.635  24.350  1.00  0.00    -0.354 N 
ATOM      4  C   UNL A   1      31.009  28.937  23.184  1.00  0.00     0.245 C 
ATOM      5  O   UNL A   1      30.757  29.552  22.145  1.00  0.00    -0.273 OA
ATOM      6  H   UNL A   1      30.271  30.135  24.627  1.00  0.00     0.163 HD
BRANCH   4   7
ATOM      7  C   UNL A   1      31.345  27.439  23.170  1.00  0.00     0.201 C 
BRANCH   7   8
ATOM      8  C   UNL A   1      30.023  26.734  23.585  1.00  0.00     0.143 C 
ATOM      9  C   UNL A   1      29.967  26.294  25.040  1.00  0.00     0.041 C 
BRANCH   8  10
ATOM     10  O   UNL A   1      28.913  27.628  23.398  1.00  0.00    -0.391 OA
ATOM     11  H   UNL A   1      28.972  28.037  22.521  1.00  0.00     0.211 HD
ENDBRANCH   8  10
ENDBRANCH   7   8
BRANCH   7  12
ATOM     12  N   UNL A   1      31.945  26.995  21.900  1.00  0.00    -0.323 N 
ATOM     13  C   UNL A   1      32.803  26.007  21.562  1.00  0.00     0.320 C 
ATOM     14  H   UNL A   1      31.659  27.537  21.129  1.00  0.00     0.166 HD
ATOM     15  O   UNL A   1      33.125  25.934  20.373  1.00  0.00    -0.248 OA
ATOM     16  N   UNL A   1      33.465  25.244  22.459  1.00  0.00    -0.305 N 
ATOM     17  H   UNL A   1      34.329  24.903  22.130  1.00  0.00     0.171 HD
BRANCH  16  18
ATOM     18  C   UNL A   1      33.162  24.844  23.766  1.00  0.00     0.079 A 
ATOM     19  C   UNL A   1      33.756  25.437  24.879  1.00  0.00     0.032 A 
ATOM     20  C   UNL A   1      32.276  23.770  23.946  1.00  0.00     0.149 A 
ATOM     21  C   UNL A   1      33.570  24.868  26.141  1.00  0.00     0.041 A 
ATOM     22  C   UNL A   1      32.108  23.185  25.193  1.00  0.00     0.080 A 
ATOM     23  F   UNL A   1      31.701  23.193  22.877  1.00  0.00    -0.205 F 
ATOM     24  C   UNL A   1      32.779  23.730  26.280  1.00  0.00     0.126 A 
ATOM     25  F   UNL A   1      32.675  23.142  27.479  1.00  0.00    -0.207 F 
ENDBRANCH  16  18
ENDBRANCH   7  12
ENDBRANCH   4   7
ENDBRANCH   2   3
ENDBRANCH   1   2
BRANCH   1  26
ATOM     26  C   UNL A   1      31.663  31.774  26.614  1.00  0.00     0.023 C 
BRANCH  26  27
ATOM     27  C   UNL A   1      32.802  32.460  27.358  1.00  0.00     0.116 C 
BRANCH  27  28
ATOM     28  N   UNL A   1      32.520  33.874  27.545  1.00  0.00    -0.352 N 
ATOM     29  C   UNL A   1      33.024  34.711  28.510  1.00  0.00     0.251 C 
ATOM     30  H   UNL A   1      31.892  34.279  26.905  1.00  0.00     0.163 HD
ATOM     31  O   UNL A   1      32.515  35.796  28.737  1.00  0.00    -0.269 OA
BRANCH  29  32
ATOM     32  C   UNL A   1      34.201  34.256  29.269  1.00  0.00     0.039 A 
ATOM     33  C   UNL A   1      34.020  33.560  30.465  1.00  0.00     0.014 A 
ATOM     34  C   UNL A   1      35.480  34.479  28.750  1.00  0.00     0.014 A 
ATOM     35  C   UNL A   1      35.133  33.041  31.126  1.00  0.00     0.010 A 
ATOM     36  C   UNL A   1      36.578  33.904  29.373  1.00  0.00     0.010 A 
ATOM     37  C   UNL A   1      36.415  33.186  30.569  1.00  0.00    -0.014 A 
BRANCH  37  38
ATOM     38  C   UNL A   1      37.618  32.615  31.218  1.00  0.00     0.031 A 
ATOM     39  C   UNL A   1      38.353  31.491  30.547  1.00  0.00     0.074 A 
ATOM     40  C   UNL A   1      37.982  33.033  32.444  1.00  0.00     0.049 A 
ATOM     41  N   UNL A   1      39.314  30.736  31.012  1.00  0.00    -0.248 NA
ATOM     42  C   UNL A   1      37.926  31.151  29.180  1.00  0.00     0.031 C 
ATOM     43  C   UNL A   1      37.326  34.098  33.204  1.00  0.00     0.029 A 
ATOM     44  N   UNL A   1      38.981  32.594  33.276  1.00  0.00    -0.354 N 
ATOM     45  C   UNL A   1      39.589  29.818  30.006  1.00  0.00     0.074 A 
ATOM     46  C   UNL A   1      38.663  30.079  28.925  1.00  0.00     0.031 C 
ATOM     47  C   UNL A   1      37.945  34.234  34.388  1.00  0.00     0.029 A 
ATOM     48  C   UNL A   1      39.006  33.238  34.489  1.00  0.00     0.049 A 
ATOM     49  H   UNL A   1      39.619  31.888  33.027  1.00  0.00     0.167 HD
ATOM     50  C   UNL A   1      40.540  28.855  29.984  1.00  0.00     0.037 A 
ATOM     51  C   UNL A   1      39.784  33.030  35.568  1.00  0.00     0.037 A 
ATOM     52  C   UNL A   1      41.476  28.622  31.053  1.00  0.00     0.049 A 
ATOM     53  C   UNL A   1      40.828  31.947  35.522  1.00  0.00     0.074 A 
ATOM     54  C   UNL A   1      42.515  27.712  31.103  1.00  0.00     0.029 A 
ATOM     55  N   UNL A   1      41.484  29.307  32.260  1.00  0.00    -0.354 N 
ATOM     56  N   UNL A   1      41.109  31.110  34.552  1.00  0.00    -0.248 NA
ATOM     57  C   UNL A   1      41.664  31.782  36.718  1.00  0.00     0.031 C 
ATOM     58  C   UNL A   1      43.119  27.806  32.361  1.00  0.00     0.029 A 
ATOM     59  C   UNL A   1      42.495  28.819  33.072  1.00  0.00     0.049 A 
ATOM     60  H   UNL A   1      40.863  30.031  32.503  1.00  0.00     0.167 HD
ATOM     61  C   UNL A   1      42.163  30.331  35.013  1.00  0.00     0.074 A 
ATOM     62  C   UNL A   1      42.488  30.814  36.338  1.00  0.00     0.031 C 
ATOM     63  C   UNL A   1      42.801  29.306  34.395  1.00  0.00     0.037 A 
BRANCH  50  64
ATOM     64  C   UNL A   1      40.621  27.982  28.766  1.00  0.00     0.064 A 
ATOM     65  C   UNL A   1      41.392  28.374  27.660  1.00  0.00     0.173 A 
ATOM     66  C   UNL A   1      39.894  26.786  28.667  1.00  0.00     0.173 A 
ATOM     67  F   UNL A   1      42.105  29.510  27.701  1.00  0.00    -0.203 F 
ATOM     68  C   UNL A   1      41.421  27.608  26.498  1.00  0.00     0.198 A 
ATOM     69  C   UNL A   1      39.952  26.006  27.514  1.00  0.00     0.198 A 
ATOM     70  F   UNL A   1      39.154  26.357  29.700  1.00  0.00    -0.203 F 
ATOM     71  F   UNL A   1      42.138  28.020  25.444  1.00  0.00    -0.200 F 
ATOM     72  C   UNL A   1      40.705  26.423  26.428  1.00  0.00     0.200 A 
ATOM     73  F   UNL A   1      39.284  24.845  27.460  1.00  0.00    -0.200 F 
ATOM     74  F   UNL A   1      40.745  25.679  25.313  1.00  0.00    -0.200 F 
ENDBRANCH  50  64
BRANCH  51  75
ATOM     75  C   UNL A   1      39.610  33.880  36.775  1.00  0.00     0.064 A 
ATOM     76  C   UNL A   1      38.816  33.465  37.855  1.00  0.00     0.173 A 
ATOM     77  C   UNL A   1      40.218  35.140  36.859  1.00  0.00     0.173 A 
ATOM     78  F   UNL A   1      38.210  32.270  37.823  1.00  0.00    -0.203 F 
ATOM     79  C   UNL A   1      38.622  34.288  38.962  1.00  0.00     0.198 A 
ATOM     80  C   UNL A   1      40.046  35.949  37.980  1.00  0.00     0.198 A 
ATOM     81  F   UNL A   1      41.003  35.571  35.861  1.00  0.00    -0.203 F 
ATOM     82  F   UNL A   1      37.829  33.883  39.964  1.00  0.00    -0.200 F 
ATOM     83  C   UNL A   1      39.241  35.527  39.026  1.00  0.00     0.200 A 
ATOM     84  F   UNL A   1      40.667  37.135  38.048  1.00  0.00    -0.200 F 
ATOM     85  F   UNL A   1      39.064  36.313  40.098  1.00  0.00    -0.200 F 
ENDBRANCH  51  75
BRANCH  63  86
ATOM     86  C   UNL A   1      43.924  28.643  35.139  1.00  0.00     0.064 A 
ATOM     87  C   UNL A   1      43.671  27.558  35.992  1.00  0.00     0.173 A 
ATOM     88  C   UNL A   1      45.244  29.108  35.046  1.00  0.00     0.173 A 
ATOM     89  F   UNL A   1      42.425  27.078  36.127  1.00  0.00    -0.203 F 
ATOM     90  C   UNL A   1      44.696  26.970  36.729  1.00  0.00     0.198 A 
ATOM     91  C   UNL A   1      46.273  28.496  35.757  1.00  0.00     0.198 A 
ATOM     92  F   UNL A   1      45.542  30.135  34.235  1.00  0.00    -0.203 F 
ATOM     93  F   UNL A   1      44.423  25.956  37.562  1.00  0.00    -0.200 F 
ATOM     94  C   UNL A   1      45.996  27.433  36.604  1.00  0.00     0.200 A 
ATOM     95  F   UNL A   1      47.533  28.926  35.611  1.00  0.00    -0.200 F 
ATOM     96  F   UNL A   1      46.986  26.851  37.296  1.00  0.00    -0.200 F 
ENDBRANCH  63  86
ENDBRANCH  37  38
ENDBRANCH  29  32
ENDBRANCH  27  28
ENDBRANCH  26  27
ENDBRANCH   1  26
TORSDOF 15
ENDMDL
MODEL 2
REMARK VINA RESULT:     -12.4      5.732     10.966
REMARK SMILES C[C@@H](O)[C@@H](NC(=O)Nc1ccc(F)cc1F)C(=O)NCCCCNC(=O)c1ccc(-c2c3nc(c(-c4c(F)c(F)c(F)c(F)c4F)c4ccc([nH]4)c(-c4c(F)c(F)c(F)c(F)c4F)c4nc(c(-c5c(F)c(F)c(F)c(F)c5F)c5ccc2[nH]5)C=C4)C=C3)cc1
REMARK SMILES IDX 21 1 20 2 19 3 17 4 18 5 4 7 2 8 1 9 3 10 5 12 6 13 7 15
REMARK SMILES IDX 8 16 9 18 10 19 15 20 11 21 14 22 16 23 12 24 13 25 22 26
REMARK SMILES IDX 23 27 24 28 25 29 26 31 27 32 28 33 89 34 29 35 88 36 30 37
REMARK SMILES IDX 31 38 32 39 82 40 33 41 87 42 81 43 83 44 34 45 86 46 80 47
REMARK SMILES IDX 79 48 35 50 67 51 47 52 66 53 48 54 51 55 65 56 84 57 49 58
REMARK SMILES IDX 50 59 64 61 85 62 52 63 36 64 37 65 45 66 38 67 39 68 43 69
REMARK SMILES IDX 46 70 40 71 41 72 44 73 42 74 68 75 69 76 77 77 70 78 71 79
REMARK SMILES IDX 75 80 78 81 72 82 73 83 76 84 74 85 53 86 54 87 62 88 55 89
REMARK SMILES IDX 56 90 60 91 63 92 57 93 58 94 61 95 59 96
REMARK H PARENT 19 6 3 11 5 14 8 17 24 30 83 49 51 60
REMARK Flexibility Score: inf
ROOT
ATOM      1  C   UNL A   1      36.833  21.166  24.680  1.00  0.00     0.023 C 
ENDROOT
BRANCH   1   2
ATOM      2  C   UNL A   1      35.606  21.209  25.595  1.00  0.00     0.116 C 
BRANCH   2   3
ATOM      3  N   UNL A   1      34.548  20.453  24.964  1.00  0.00    -0.354 N 
ATOM      4  C   UNL A   1      33.225  20.559  25.268  1.00  0.00     0.245 C 
ATOM      5  O   UNL A   1      32.629  19.551  25.654  1.00  0.00    -0.273 OA
ATOM      6  H   UNL A   1      34.802  19.812  24.261  1.00  0.00     0.163 HD
BRANCH   4   7
ATOM      7  C   UNL A   1      32.539  21.931  25.220  1.00  0.00     0.201 C 
BRANCH   7   8
ATOM      8  C   UNL A   1      32.192  22.149  23.721  1.00  0.00     0.143 C 
ATOM      9  C   UNL A   1      33.189  23.006  22.957  1.00  0.00     0.041 C 
BRANCH   8  10
ATOM     10  O   UNL A   1      32.153  20.883  23.041  1.00  0.00    -0.391 OA
ATOM     11  H   UNL A   1      31.237  20.569  22.996  1.00  0.00     0.211 HD
ENDBRANCH   8  10
ENDBRANCH   7   8
BRANCH   7  12
ATOM     12  N   UNL A   1      31.416  22.046  26.168  1.00  0.00    -0.323 N 
ATOM     13  C   UNL A   1      30.814  23.085  26.790  1.00  0.00     0.320 C 
ATOM     14  H   UNL A   1      31.016  21.176  26.399  1.00  0.00     0.166 HD
ATOM     15  O   UNL A   1      29.891  22.811  27.561  1.00  0.00    -0.248 OA
ATOM     16  N   UNL A   1      31.286  24.351  26.770  1.00  0.00    -0.305 N 
ATOM     17  H   UNL A   1      31.042  24.878  27.565  1.00  0.00     0.171 HD
BRANCH  16  18
ATOM     18  C   UNL A   1      32.054  25.059  25.837  1.00  0.00     0.079 A 
ATOM     19  C   UNL A   1      33.426  25.248  25.998  1.00  0.00     0.032 A 
ATOM     20  C   UNL A   1      31.400  25.642  24.740  1.00  0.00     0.149 A 
ATOM     21  C   UNL A   1      34.103  26.126  25.148  1.00  0.00     0.041 A 
ATOM     22  C   UNL A   1      32.062  26.536  23.909  1.00  0.00     0.080 A 
ATOM     23  F   UNL A   1      30.079  25.465  24.580  1.00  0.00    -0.205 F 
ATOM     24  C   UNL A   1      33.408  26.786  24.137  1.00  0.00     0.126 A 
ATOM     25  F   UNL A   1      34.046  27.689  23.381  1.00  0.00    -0.207 F 
ENDBRANCH  16  18
ENDBRANCH   7  12
ENDBRANCH   4   7
ENDBRANCH   2   3
ENDBRANCH   1   2
BRANCH   1  26
ATOM     26  C   UNL A   1      37.785  19.998  24.986  1.00  0.00     0.023 C 
BRANCH  26  27
ATOM     27  C   UNL A   1      39.051  20.413  25.725  1.00  0.00     0.116 C 
BRANCH  27  28
ATOM     28  N   UNL A   1      39.949  19.282  25.890  1.00  0.00    -0.352 N 
ATOM     29  C   UNL A   1      41.315  19.306  26.029  1.00  0.00     0.251 C 
ATOM     30  H   UNL A   1      39.528  18.393  25.903  1.00  0.00     0.163 HD
ATOM     31  O   UNL A   1      41.985  18.297  25.887  1.00  0.00    -0.269 OA
BRANCH  29  32
ATOM     32  C   UNL A   1      41.951  20.595  26.352  1.00  0.00     0.039 A 
ATOM     33  C   UNL A   1      42.251  21.489  25.324  1.00  0.00     0.014 A 
ATOM     34  C   UNL A   1      42.192  20.924  27.690  1.00  0.00     0.014 A 
ATOM     35  C   UNL A   1      42.757  22.749  25.644  1.00  0.00     0.010 A 
ATOM     36  C   UNL A   1      42.630  22.201  28.008  1.00  0.00     0.010 A 
ATOM     37  C   UNL A   1      42.923  23.122  26.989  1.00  0.00    -0.014 A 
BRANCH  37  38
ATOM     38  C   UNL A   1      43.418  24.464  27.372  1.00  0.00     0.031 A 
ATOM     39  C   UNL A   1      42.455  25.474  27.927  1.00  0.00     0.074 A 
ATOM     40  C   UNL A   1      44.697  24.803  27.127  1.00  0.00     0.049 A 
ATOM     41  N   UNL A   1      42.635  26.747  28.162  1.00  0.00    -0.248 NA
ATOM     42  C   UNL A   1      41.098  24.990  28.226  1.00  0.00     0.031 C 
ATOM     43  C   UNL A   1      45.715  23.914  26.566  1.00  0.00     0.029 A 
ATOM     44  N   UNL A   1      45.353  25.996  27.299  1.00  0.00    -0.354 N 
ATOM     45  C   UNL A   1      41.410  27.222  28.612  1.00  0.00     0.074 A 
ATOM     46  C   UNL A   1      40.482  26.112  28.573  1.00  0.00     0.031 C 
ATOM     47  C   UNL A   1      46.868  24.591  26.447  1.00  0.00     0.029 A 
ATOM     48  C   UNL A   1      46.659  25.970  26.876  1.00  0.00     0.049 A 
ATOM     49  H   UNL A   1      44.928  26.793  27.689  1.00  0.00     0.167 HD
ATOM     50  C   UNL A   1      41.095  28.468  29.036  1.00  0.00     0.037 A 
ATOM     51  C   UNL A   1      47.575  26.955  26.820  1.00  0.00     0.037 A 
ATOM     52  C   UNL A   1      42.033  29.558  29.098  1.00  0.00     0.049 A 
ATOM     53  C   UNL A   1      47.197  28.334  27.287  1.00  0.00     0.074 A 
ATOM     54  C   UNL A   1      41.829  30.843  29.566  1.00  0.00     0.029 A 
ATOM     55  N   UNL A   1      43.354  29.490  28.678  1.00  0.00    -0.354 N 
ATOM     56  N   UNL A   1      46.048  28.766  27.749  1.00  0.00    -0.248 NA
ATOM     57  C   UNL A   1      48.244  29.363  27.227  1.00  0.00     0.031 C 
ATOM     58  C   UNL A   1      43.009  31.569  29.381  1.00  0.00     0.029 A 
ATOM     59  C   UNL A   1      43.969  30.720  28.854  1.00  0.00     0.049 A 
ATOM     60  H   UNL A   1      43.789  28.688  28.310  1.00  0.00     0.167 HD
ATOM     61  C   UNL A   1      46.237  30.109  28.051  1.00  0.00     0.074 A 
ATOM     62  C   UNL A   1      47.619  30.413  27.743  1.00  0.00     0.031 C 
ATOM     63  C   UNL A   1      45.345  31.009  28.535  1.00  0.00     0.037 A 
BRANCH  50  64
ATOM     64  C   UNL A   1      39.681  28.723  29.466  1.00  0.00     0.064 A 
ATOM     65  C   UNL A   1      38.751  29.269  28.566  1.00  0.00     0.173 A 
ATOM     66  C   UNL A   1      39.255  28.483  30.781  1.00  0.00     0.173 A 
ATOM     67  F   UNL A   1      39.106  29.520  27.297  1.00  0.00    -0.203 F 
ATOM     68  C   UNL A   1      37.455  29.575  28.971  1.00  0.00     0.198 A 
ATOM     69  C   UNL A   1      37.947  28.760  31.174  1.00  0.00     0.198 A 
ATOM     70  F   UNL A   1      40.098  27.948  31.678  1.00  0.00    -0.203 F 
ATOM     71  F   UNL A   1      36.596  30.126  28.103  1.00  0.00    -0.200 F 
ATOM     72  C   UNL A   1      37.053  29.316  30.272  1.00  0.00     0.200 A 
ATOM     73  F   UNL A   1      37.552  28.481  32.424  1.00  0.00    -0.200 F 
ATOM     74  F   UNL A   1      35.800  29.598  30.657  1.00  0.00    -0.200 F 
ENDBRANCH  50  64
BRANCH  51  75
ATOM     75  C   UNL A   1      48.942  26.660  26.315  1.00  0.00     0.064 A 
ATOM     76  C   UNL A   1      49.946  26.170  27.164  1.00  0.00     0.173 A 
ATOM     77  C   UNL A   1      49.276  26.890  24.974  1.00  0.00     0.173 A 
ATOM     78  F   UNL A   1      49.679  25.936  28.457  1.00  0.00    -0.203 F 
ATOM     79  C   UNL A   1      51.237  25.940  26.692  1.00  0.00     0.198 A 
ATOM     80  C   UNL A   1      50.559  26.633  24.497  1.00  0.00     0.198 A 
ATOM     81  F   UNL A   1      48.344  27.339  24.120  1.00  0.00    -0.203 F 
ATOM     82  F   UNL A   1      52.187  25.507  27.532  1.00  0.00    -0.200 F 
ATOM     83  C   UNL A   1      51.541  26.167  25.358  1.00  0.00     0.200 A 
ATOM     84  F   UNL A   1      50.842  26.829  23.202  1.00  0.00    -0.200 F 
ATOM     85  F   UNL A   1      52.780  25.934  24.903  1.00  0.00    -0.200 F 
ENDBRANCH  51  75
BRANCH  63  86
ATOM     86  C   UNL A   1      45.837  32.408  28.774  1.00  0.00     0.064 A 
ATOM     87  C   UNL A   1      46.379  32.770  30.017  1.00  0.00     0.173 A 
ATOM     88  C   UNL A   1      45.732  33.403  27.791  1.00  0.00     0.173 A 
ATOM     89  F   UNL A   1      46.495  31.860  30.996  1.00  0.00    -0.203 F 
ATOM     90  C   UNL A   1      46.789  34.076  30.269  1.00  0.00     0.198 A 
ATOM     91  C   UNL A   1      46.175  34.700  28.034  1.00  0.00     0.198 A 
ATOM     92  F   UNL A   1      45.233  33.107  26.581  1.00  0.00    -0.203 F 
ATOM     93  F   UNL A   1      47.272  34.405  31.474  1.00  0.00    -0.200 F 
ATOM     94  C   UNL A   1      46.695  35.037  29.274  1.00  0.00     0.200 A 
ATOM     95  F   UNL A   1      46.112  35.620  27.062  1.00  0.00    -0.200 F 
ATOM     96  F   UNL A   1      47.111  36.289  29.510  1.00  0.00    -0.200 F 
ENDBRANCH  63  86
ENDBRANCH  37  38
ENDBRANCH  29  32
ENDBRANCH  27  28
ENDBRANCH  26  27
ENDBRANCH   1  26
TORSDOF 15
ENDMDL
MODEL 3
REMARK VINA RESULT:     -12.4      5.687     10.952
REMARK SMILES C[C@@H](O)[C@@H](NC(=O)Nc1ccc(F)cc1F)C(=O)NCCCCNC(=O)c1ccc(-c2c3nc(c(-c4c(F)c(F)c(F)c(F)c4F)c4ccc([nH]4)c(-c4c(F)c(F)c(F)c(F)c4F)c4nc(c(-c5c(F)c(F)c(F)c(F)c5F)c5ccc2[nH]5)C=C4)C=C3)cc1
REMARK SMILES IDX 21 1 20 2 19 3 17 4 18 5 4 7 2 8 1 9 3 10 5 12 6 13 7 15
REMARK SMILES IDX 8 16 9 18 10 19 15 20 11 21 14 22 16 23 12 24 13 25 22 26
REMARK SMILES IDX 23 27 24 28 25 29 26 31 27 32 28 33 89 34 29 35 88 36 30 37
REMARK SMILES IDX 31 38 32 39 82 40 33 41 87 42 81 43 83 44 34 45 86 46 80 47
REMARK SMILES IDX 79 48 35 50 67 51 47 52 66 53 48 54 51 55 65 56 84 57 49 58
REMARK SMILES IDX 50 59 64 61 85 62 52 63 36 64 37 65 45 66 38 67 39 68 43 69
REMARK SMILES IDX 46 70 40 71 41 72 44 73 42 74 68 75 69 76 77 77 70 78 71 79
REMARK SMILES IDX 75 80 78 81 72 82 73 83 76 84 74 85 53 86 54 87 62 88 55 89
REMARK SMILES IDX 56 90 60 91 63 92 57 93 58 94 61 95 59 96
REMARK H PARENT 19 6 3 11 5 14 8 17 24 30 83 49 51 60
REMARK Flexibility Score: inf
ROOT
ATOM      1  C   UNL A   1      36.752  21.284  24.795  1.00  0.00     0.023 C 
ENDROOT
BRANCH   1   2
ATOM      2  C   UNL A   1      35.564  21.200  25.756  1.00  0.00     0.116 C 
BRANCH   2   3
ATOM      3  N   UNL A   1      34.527  20.416  25.123  1.00  0.00    -0.354 N 
ATOM      4  C   UNL A   1      33.196  20.523  25.390  1.00  0.00     0.245 C 
ATOM      5  O   UNL A   1      32.596  19.523  25.793  1.00  0.00    -0.273 OA
ATOM      6  H   UNL A   1      34.803  19.755  24.448  1.00  0.00     0.163 HD
BRANCH   4   7
ATOM      7  C   UNL A   1      32.502  21.888  25.281  1.00  0.00     0.201 C 
BRANCH   7   8
ATOM      8  C   UNL A   1      32.156  22.037  23.774  1.00  0.00     0.143 C 
ATOM      9  C   UNL A   1      33.134  22.889  22.979  1.00  0.00     0.041 C 
BRANCH   8  10
ATOM     10  O   UNL A   1      32.153  20.745  23.143  1.00  0.00    -0.391 OA
ATOM     11  H   UNL A   1      33.042  20.359  23.192  1.00  0.00     0.211 HD
ENDBRANCH   8  10
ENDBRANCH   7   8
BRANCH   7  12
ATOM     12  N   UNL A   1      31.378  22.038  26.222  1.00  0.00    -0.323 N 
ATOM     13  C   UNL A   1      30.788  23.098  26.819  1.00  0.00     0.320 C 
ATOM     14  H   UNL A   1      30.965  21.178  26.469  1.00  0.00     0.166 HD
ATOM     15  O   UNL A   1      29.858  22.853  27.592  1.00  0.00    -0.248 OA
ATOM     16  N   UNL A   1      31.277  24.356  26.773  1.00  0.00    -0.305 N 
ATOM     17  H   UNL A   1      31.037  24.904  27.556  1.00  0.00     0.171 HD
BRANCH  16  18
ATOM     18  C   UNL A   1      32.058  25.034  25.829  1.00  0.00     0.079 A 
ATOM     19  C   UNL A   1      33.434  25.195  25.984  1.00  0.00     0.032 A 
ATOM     20  C   UNL A   1      31.415  25.616  24.725  1.00  0.00     0.149 A 
ATOM     21  C   UNL A   1      34.128  26.045  25.120  1.00  0.00     0.041 A 
ATOM     22  C   UNL A   1      32.094  26.482  23.879  1.00  0.00     0.080 A 
ATOM     23  F   UNL A   1      30.089  25.466  24.571  1.00  0.00    -0.205 F 
ATOM     24  C   UNL A   1      33.445  26.706  24.101  1.00  0.00     0.126 A 
ATOM     25  F   UNL A   1      34.102  27.584  23.331  1.00  0.00    -0.207 F 
ENDBRANCH  16  18
ENDBRANCH   7  12
ENDBRANCH   4   7
ENDBRANCH   2   3
ENDBRANCH   1   2
BRANCH   1  26
ATOM     26  C   UNL A   1      37.767  20.143  24.972  1.00  0.00     0.023 C 
BRANCH  26  27
ATOM     27  C   UNL A   1      39.027  20.553  25.725  1.00  0.00     0.116 C 
BRANCH  27  28
ATOM     28  N   UNL A   1      39.921  19.419  25.894  1.00  0.00    -0.352 N 
ATOM     29  C   UNL A   1      41.285  19.439  26.045  1.00  0.00     0.251 C 
ATOM     30  H   UNL A   1      39.497  18.531  25.901  1.00  0.00     0.163 HD
ATOM     31  O   UNL A   1      41.954  18.429  25.906  1.00  0.00    -0.269 OA
BRANCH  29  32
ATOM     32  C   UNL A   1      41.922  20.726  26.377  1.00  0.00     0.039 A 
ATOM     33  C   UNL A   1      42.203  21.636  25.358  1.00  0.00     0.014 A 
ATOM     34  C   UNL A   1      42.183  21.036  27.715  1.00  0.00     0.014 A 
ATOM     35  C   UNL A   1      42.709  22.892  25.689  1.00  0.00     0.010 A 
ATOM     36  C   UNL A   1      42.622  22.309  28.046  1.00  0.00     0.010 A 
ATOM     37  C   UNL A   1      42.895  23.246  27.036  1.00  0.00    -0.014 A 
BRANCH  37  38
ATOM     38  C   UNL A   1      43.392  24.584  27.431  1.00  0.00     0.031 A 
ATOM     39  C   UNL A   1      42.429  25.592  27.991  1.00  0.00     0.074 A 
ATOM     40  C   UNL A   1      44.672  24.923  27.193  1.00  0.00     0.049 A 
ATOM     41  N   UNL A   1      42.611  26.863  28.237  1.00  0.00    -0.248 NA
ATOM     42  C   UNL A   1      41.070  25.109  28.282  1.00  0.00     0.031 C 
ATOM     43  C   UNL A   1      45.690  24.037  26.628  1.00  0.00     0.029 A 
ATOM     44  N   UNL A   1      45.329  26.114  27.376  1.00  0.00    -0.354 N 
ATOM     45  C   UNL A   1      41.385  27.336  28.686  1.00  0.00     0.074 A 
ATOM     46  C   UNL A   1      40.455  26.229  28.636  1.00  0.00     0.031 C 
ATOM     47  C   UNL A   1      46.845  24.712  26.517  1.00  0.00     0.029 A 
ATOM     48  C   UNL A   1      46.637  26.088  26.956  1.00  0.00     0.049 A 
ATOM     49  H   UNL A   1      44.905  26.908  27.771  1.00  0.00     0.167 HD
ATOM     50  C   UNL A   1      41.071  28.580  29.119  1.00  0.00     0.037 A 
ATOM     51  C   UNL A   1      47.555  27.072  26.911  1.00  0.00     0.037 A 
ATOM     52  C   UNL A   1      42.011  29.668  29.192  1.00  0.00     0.049 A 
ATOM     53  C   UNL A   1      47.178  28.448  27.388  1.00  0.00     0.074 A 
ATOM     54  C   UNL A   1      41.808  30.949  29.670  1.00  0.00     0.029 A 
ATOM     55  N   UNL A   1      43.333  29.601  28.776  1.00  0.00    -0.354 N 
ATOM     56  N   UNL A   1      46.029  28.878  27.850  1.00  0.00    -0.248 NA
ATOM     57  C   UNL A   1      48.228  29.476  27.339  1.00  0.00     0.031 C 
ATOM     58  C   UNL A   1      42.990  31.675  29.494  1.00  0.00     0.029 A 
ATOM     59  C   UNL A   1      43.950  30.828  28.963  1.00  0.00     0.049 A 
ATOM     60  H   UNL A   1      43.768  28.800  28.404  1.00  0.00     0.167 HD
ATOM     61  C   UNL A   1      46.219  30.219  28.163  1.00  0.00     0.074 A 
ATOM     62  C   UNL A   1      47.603  30.522  27.862  1.00  0.00     0.031 C 
ATOM     63  C   UNL A   1      45.327  31.117  28.651  1.00  0.00     0.037 A 
BRANCH  50  64
ATOM     64  C   UNL A   1      39.656  28.834  29.547  1.00  0.00     0.064 A 
ATOM     65  C   UNL A   1      38.724  29.369  28.642  1.00  0.00     0.173 A 
ATOM     66  C   UNL A   1      39.231  28.604  30.864  1.00  0.00     0.173 A 
ATOM     67  F   UNL A   1      39.079  29.610  27.371  1.00  0.00    -0.203 F 
ATOM     68  C   UNL A   1      37.428  29.674  29.044  1.00  0.00     0.198 A 
ATOM     69  C   UNL A   1      37.922  28.881  31.254  1.00  0.00     0.198 A 
ATOM     70  F   UNL A   1      40.075  28.080  31.765  1.00  0.00    -0.203 F 
ATOM     71  F   UNL A   1      36.567  30.215  28.171  1.00  0.00    -0.200 F 
ATOM     72  C   UNL A   1      37.026  29.426  30.348  1.00  0.00     0.200 A 
ATOM     73  F   UNL A   1      37.528  28.612  32.507  1.00  0.00    -0.200 F 
ATOM     74  F   UNL A   1      35.772  29.707  30.730  1.00  0.00    -0.200 F 
ENDBRANCH  50  64
BRANCH  51  75
ATOM     75  C   UNL A   1      48.923  26.779  26.409  1.00  0.00     0.064 A 
ATOM     76  C   UNL A   1      49.272  26.994  25.067  1.00  0.00     0.173 A 
ATOM     77  C   UNL A   1      49.902  26.251  27.261  1.00  0.00     0.173 A 
ATOM     78  F   UNL A   1      48.370  27.494  24.210  1.00  0.00    -0.203 F 
ATOM     79  C   UNL A   1      50.543  26.673  24.595  1.00  0.00     0.198 A 
ATOM     80  C   UNL A   1      51.181  25.958  26.794  1.00  0.00     0.198 A 
ATOM     81  F   UNL A   1      49.622  26.048  28.557  1.00  0.00    -0.203 F 
ATOM     82  F   UNL A   1      50.840  26.854  23.300  1.00  0.00    -0.200 F 
ATOM     83  C   UNL A   1      51.498  26.160  25.460  1.00  0.00     0.200 A 
ATOM     84  F   UNL A   1      52.109  25.487  27.639  1.00  0.00    -0.200 F 
ATOM     85  F   UNL A   1      52.725  25.864  25.007  1.00  0.00    -0.200 F 
ENDBRANCH  51  75
BRANCH  63  86
ATOM     86  C   UNL A   1      45.821  32.512  28.903  1.00  0.00     0.064 A 
ATOM     87  C   UNL A   1      45.735  33.491  27.901  1.00  0.00     0.173 A 
ATOM     88  C   UNL A   1      46.422  32.872  30.118  1.00  0.00     0.173 A 
ATOM     89  F   UNL A   1      45.177  33.199  26.715  1.00  0.00    -0.203 F 
ATOM     90  C   UNL A   1      46.238  34.773  28.103  1.00  0.00     0.198 A 
ATOM     91  C   UNL A   1      46.893  34.165  30.331  1.00  0.00     0.198 A 
ATOM     92  F   UNL A   1      46.519  31.977  31.114  1.00  0.00    -0.203 F 
ATOM     93  F   UNL A   1      46.173  35.680  27.119  1.00  0.00    -0.200 F 
ATOM     94  C   UNL A   1      46.808  35.111  29.321  1.00  0.00     0.200 A 
ATOM     95  F   UNL A   1      47.416  34.498  31.519  1.00  0.00    -0.200 F 
ATOM     96  F   UNL A   1      47.272  36.352  29.523  1.00  0.00    -0.200 F 
ENDBRANCH  63  86
ENDBRANCH  37  38
ENDBRANCH  29  32
ENDBRANCH  27  28
ENDBRANCH  26  27
ENDBRANCH   1  26
TORSDOF 15
ENDMDL
