MODEL 1
REMARK VINA RESULT:     -12.4      0.000      0.000
REMARK SMILES COCc1cc(OCC(=O)NCCCCNC(=O)c2ccc(-c3c4nc(c(-c5c(F)c(F)c(F)c(F)c5F)c5ccc([nH]5)c(-c5c(F)c(F)c(F)c(F)c5F)c5nc(c(-c6c(F)c(F)c(F)c(F)c6F)c6ccc3[nH]6)C=C5)C=C4)cc2)nc(Nc2cccc(C)c2C)n1
REMARK SMILES IDX 12 1 11 2 9 3 10 4 8 6 7 7 6 8 4 9 5 10 93 11 83 12 82 13
REMARK SMILES IDX 3 14 2 15 1 16 84 17 85 19 86 20 91 21 87 22 89 23 92 24
REMARK SMILES IDX 88 25 90 26 13 27 14 28 15 29 16 30 17 31 18 33 19 34 20 35
REMARK SMILES IDX 81 36 21 37 80 38 22 39 23 40 24 41 74 42 25 43 79 44 73 45
REMARK SMILES IDX 75 46 26 47 78 48 72 49 71 50 27 52 59 53 39 54 58 55 40 56
REMARK SMILES IDX 43 57 57 58 76 59 41 60 42 61 56 63 77 64 44 65 28 66 29 67
REMARK SMILES IDX 37 68 30 69 31 70 35 71 38 72 32 73 33 74 36 75 34 76 60 77
REMARK SMILES IDX 61 78 69 79 62 80 63 81 67 82 70 83 64 84 65 85 68 86 66 87
REMARK SMILES IDX 45 88 46 89 54 90 47 91 48 92 52 93 55 94 49 95 50 96 53 97
REMARK SMILES IDX 51 98
REMARK H PARENT 11 5 84 18 16 32 75 51 43 62
REMARK Flexibility Score: inf
ROOT
ATOM      1  C   UNL A   1      31.339  30.024  25.130  1.00  0.00     0.116 C 
ENDROOT
BRANCH   1   2
ATOM      2  N   UNL A   1      32.439  29.493  24.349  1.00  0.00    -0.353 N 
ATOM      3  C   UNL A   1      32.401  28.968  23.092  1.00  0.00     0.258 C 
ATOM      4  O   UNL A   1      33.461  28.666  22.542  1.00  0.00    -0.271 OA
ATOM      5  H   UNL A   1      33.324  29.517  24.779  1.00  0.00     0.163 HD
BRANCH   3   6
ATOM      6  C   UNL A   1      31.056  28.785  22.373  1.00  0.00     0.331 C 
BRANCH   6   7
ATOM      7  O   UNL A   1      30.667  27.470  22.018  1.00  0.00    -0.467 OA
BRANCH   7   8
ATOM      8  C   UNL A   1      30.838  26.473  22.937  1.00  0.00     0.218 A 
ATOM      9  C   UNL A   1      30.441  25.293  24.919  1.00  0.00     0.076 A 
ATOM     10  C   UNL A   1      30.247  26.437  24.178  1.00  0.00     0.095 A 
ATOM     11  N   UNL A   1      31.233  24.302  24.475  1.00  0.00    -0.215 NA
ATOM     12  C   UNL A   1      31.831  24.439  23.283  1.00  0.00     0.230 A 
ATOM     13  N   UNL A   1      31.656  25.503  22.493  1.00  0.00    -0.177 NA
BRANCH   9  14
ATOM     14  C   UNL A   1      29.822  25.107  26.285  1.00  0.00     0.216 C 
BRANCH  14  15
ATOM     15  O   UNL A   1      30.377  24.029  27.044  1.00  0.00    -0.378 OA
ATOM     16  C   UNL A   1      29.498  22.929  27.230  1.00  0.00     0.195 C 
ENDBRANCH  14  15
ENDBRANCH   9  14
BRANCH  12  17
ATOM     17  N   UNL A   1      32.708  23.453  22.837  1.00  0.00    -0.324 N 
ATOM     18  H   UNL A   1      33.013  23.539  21.904  1.00  0.00     0.170 HD
BRANCH  17  19
ATOM     19  C   UNL A   1      33.211  22.353  23.549  1.00  0.00     0.044 A 
ATOM     20  C   UNL A   1      32.439  21.181  23.579  1.00  0.00     0.026 A 
ATOM     21  C   UNL A   1      34.495  22.351  24.152  1.00  0.00    -0.025 A 
ATOM     22  C   UNL A   1      32.929  20.013  24.155  1.00  0.00     0.002 A 
ATOM     23  C   UNL A   1      35.001  21.153  24.711  1.00  0.00    -0.046 A 
ATOM     24  C   UNL A   1      35.318  23.616  24.216  1.00  0.00     0.047 C 
ATOM     25  C   UNL A   1      34.206  19.998  24.708  1.00  0.00     0.004 A 
ATOM     26  C   UNL A   1      36.373  21.045  25.324  1.00  0.00     0.044 C 
ENDBRANCH  17  19
ENDBRANCH  12  17
ENDBRANCH   7   8
ENDBRANCH   6   7
ENDBRANCH   3   6
ENDBRANCH   1   2
BRANCH   1  27
ATOM     27  C   UNL A   1      31.782  30.529  26.501  1.00  0.00     0.023 C 
BRANCH  27  28
ATOM     28  C   UNL A   1      31.540  32.019  26.760  1.00  0.00     0.023 C 
BRANCH  28  29
ATOM     29  C   UNL A   1      32.755  32.826  27.206  1.00  0.00     0.116 C 
BRANCH  29  30
ATOM     30  N   UNL A   1      32.427  34.181  27.618  1.00  0.00    -0.352 N 
ATOM     31  C   UNL A   1      32.991  34.960  28.603  1.00  0.00     0.251 C 
ATOM     32  H   UNL A   1      31.693  34.605  27.118  1.00  0.00     0.163 HD
ATOM     33  O   UNL A   1      32.499  36.046  28.881  1.00  0.00    -0.269 OA
BRANCH  31  34
ATOM     34  C   UNL A   1      34.172  34.474  29.351  1.00  0.00     0.039 A 
ATOM     35  C   UNL A   1      33.972  33.863  30.592  1.00  0.00     0.014 A 
ATOM     36  C   UNL A   1      35.464  34.612  28.839  1.00  0.00     0.014 A 
ATOM     37  C   UNL A   1      35.060  33.326  31.285  1.00  0.00     0.010 A 
ATOM     38  C   UNL A   1      36.536  34.009  29.493  1.00  0.00     0.010 A 
ATOM     39  C   UNL A   1      36.347  33.357  30.721  1.00  0.00    -0.014 A 
BRANCH  39  40
ATOM     40  C   UNL A   1      37.498  32.702  31.395  1.00  0.00     0.031 A 
ATOM     41  C   UNL A   1      38.208  31.550  30.740  1.00  0.00     0.074 A 
ATOM     42  C   UNL A   1      37.865  33.103  32.628  1.00  0.00     0.049 A 
ATOM     43  N   UNL A   1      39.186  30.810  31.198  1.00  0.00    -0.248 NA
ATOM     44  C   UNL A   1      37.737  31.160  29.401  1.00  0.00     0.031 C 
ATOM     45  C   UNL A   1      37.229  34.178  33.392  1.00  0.00     0.029 A 
ATOM     46  N   UNL A   1      38.855  32.646  33.464  1.00  0.00    -0.354 N 
ATOM     47  C   UNL A   1      39.439  29.864  30.212  1.00  0.00     0.074 A 
ATOM     48  C   UNL A   1      38.475  30.086  29.157  1.00  0.00     0.031 C 
ATOM     49  C   UNL A   1      37.858  34.313  34.571  1.00  0.00     0.029 A 
ATOM     50  C   UNL A   1      38.911  33.308  34.666  1.00  0.00     0.049 A 
ATOM     51  H   UNL A   1      39.468  31.914  33.222  1.00  0.00     0.167 HD
ATOM     52  C   UNL A   1      40.403  28.913  30.180  1.00  0.00     0.037 A 
ATOM     53  C   UNL A   1      39.713  33.118  35.732  1.00  0.00     0.037 A 
ATOM     54  C   UNL A   1      41.371  28.704  31.226  1.00  0.00     0.049 A 
ATOM     55  C   UNL A   1      40.762  32.039  35.679  1.00  0.00     0.074 A 
ATOM     56  C   UNL A   1      42.422  27.805  31.262  1.00  0.00     0.029 A 
ATOM     57  N   UNL A   1      41.401  29.400  32.426  1.00  0.00    -0.354 N 
ATOM     58  N   UNL A   1      41.038  31.199  34.712  1.00  0.00    -0.248 NA
ATOM     59  C   UNL A   1      41.613  31.885  36.867  1.00  0.00     0.031 C 
ATOM     60  C   UNL A   1      43.051  27.915  32.505  1.00  0.00     0.029 A 
ATOM     61  C   UNL A   1      42.435  28.929  33.220  1.00  0.00     0.049 A 
ATOM     62  H   UNL A   1      40.781  30.122  32.677  1.00  0.00     0.167 HD
ATOM     63  C   UNL A   1      42.114  30.442  35.158  1.00  0.00     0.074 A 
ATOM     64  C   UNL A   1      42.449  30.932  36.479  1.00  0.00     0.031 C 
ATOM     65  C   UNL A   1      42.764  29.431  34.530  1.00  0.00     0.037 A 
BRANCH  52  66
ATOM     66  C   UNL A   1      40.457  28.018  28.974  1.00  0.00     0.064 A 
ATOM     67  C   UNL A   1      39.728  26.819  28.911  1.00  0.00     0.173 A 
ATOM     68  C   UNL A   1      41.218  28.379  27.851  1.00  0.00     0.173 A 
ATOM     69  F   UNL A   1      38.992  26.421  29.960  1.00  0.00    -0.203 F 
ATOM     70  C   UNL A   1      39.785  26.003  27.784  1.00  0.00     0.198 A 
ATOM     71  C   UNL A   1      41.243  27.578  26.713  1.00  0.00     0.198 A 
ATOM     72  F   UNL A   1      41.929  29.517  27.853  1.00  0.00    -0.203 F 
ATOM     73  F   UNL A   1      39.123  24.837  27.770  1.00  0.00    -0.200 F 
ATOM     74  C   UNL A   1      40.535  26.386  26.684  1.00  0.00     0.200 A 
ATOM     75  F   UNL A   1      41.957  27.958  25.644  1.00  0.00    -0.200 F 
ATOM     76  F   UNL A   1      40.582  25.604  25.597  1.00  0.00    -0.200 F 
ENDBRANCH  52  66
BRANCH  53  77
ATOM     77  C   UNL A   1      39.568  33.979  36.936  1.00  0.00     0.064 A 
ATOM     78  C   UNL A   1      40.193  35.232  37.005  1.00  0.00     0.173 A 
ATOM     79  C   UNL A   1      38.816  33.565  38.044  1.00  0.00     0.173 A 
ATOM     80  F   UNL A   1      40.942  35.665  35.980  1.00  0.00    -0.203 F 
ATOM     81  C   UNL A   1      40.092  36.027  38.146  1.00  0.00     0.198 A 
ATOM     82  C   UNL A   1      38.688  34.375  39.171  1.00  0.00     0.198 A 
ATOM     83  F   UNL A   1      38.195  32.377  38.029  1.00  0.00    -0.203 F 
ATOM     84  F   UNL A   1      40.744  37.196  38.205  1.00  0.00    -0.200 F 
ATOM     85  C   UNL A   1      39.334  35.600  39.225  1.00  0.00     0.200 A 
ATOM     86  F   UNL A   1      37.942  33.965  40.206  1.00  0.00    -0.200 F 
ATOM     87  F   UNL A   1      39.235  36.366  40.321  1.00  0.00    -0.200 F 
ENDBRANCH  53  77
BRANCH  65  88
ATOM     88  C   UNL A   1      43.933  28.813  35.244  1.00  0.00     0.064 A 
ATOM     89  C   UNL A   1      45.242  29.289  35.072  1.00  0.00     0.173 A 
ATOM     90  C   UNL A   1      43.735  27.755  36.144  1.00  0.00     0.173 A 
ATOM     91  F   UNL A   1      45.489  30.290  34.214  1.00  0.00    -0.203 F 
ATOM     92  C   UNL A   1      46.310  28.710  35.752  1.00  0.00     0.198 A 
ATOM     93  C   UNL A   1      44.800  27.200  36.848  1.00  0.00     0.198 A 
ATOM     94  F   UNL A   1      42.503  27.265  36.352  1.00  0.00    -0.203 F 
ATOM     95  F   UNL A   1      47.559  29.146  35.532  1.00  0.00    -0.200 F 
ATOM     96  C   UNL A   1      46.088  27.672  36.644  1.00  0.00     0.200 A 
ATOM     97  F   UNL A   1      44.580  26.209  37.723  1.00  0.00    -0.200 F 
ATOM     98  F   UNL A   1      47.116  27.122  37.305  1.00  0.00    -0.200 F 
ENDBRANCH  65  88
ENDBRANCH  39  40
ENDBRANCH  31  34
ENDBRANCH  29  30
ENDBRANCH  28  29
ENDBRANCH  27  28
ENDBRANCH   1  27
TORSDOF 17
ENDMDL
MODEL 2
REMARK VINA RESULT:     -12.3      2.160      8.048
REMARK SMILES COCc1cc(OCC(=O)NCCCCNC(=O)c2ccc(-c3c4nc(c(-c5c(F)c(F)c(F)c(F)c5F)c5ccc([nH]5)c(-c5c(F)c(F)c(F)c(F)c5F)c5nc(c(-c6c(F)c(F)c(F)c(F)c6F)c6ccc3[nH]6)C=C5)C=C4)cc2)nc(Nc2cccc(C)c2C)n1
REMARK SMILES IDX 12 1 11 2 9 3 10 4 8 6 7 7 6 8 4 9 5 10 93 11 83 12 82 13
REMARK SMILES IDX 3 14 2 15 1 16 84 17 85 19 86 20 91 21 87 22 89 23 92 24
REMARK SMILES IDX 88 25 90 26 13 27 14 28 15 29 16 30 17 31 18 33 19 34 20 35
REMARK SMILES IDX 81 36 21 37 80 38 22 39 23 40 24 41 74 42 25 43 79 44 73 45
REMARK SMILES IDX 75 46 26 47 78 48 72 49 71 50 27 52 59 53 39 54 58 55 40 56
REMARK SMILES IDX 43 57 57 58 76 59 41 60 42 61 56 63 77 64 44 65 28 66 29 67
REMARK SMILES IDX 37 68 30 69 31 70 35 71 38 72 32 73 33 74 36 75 34 76 60 77
REMARK SMILES IDX 61 78 69 79 62 80 63 81 67 82 70 83 64 84 65 85 68 86 66 87
REMARK SMILES IDX 45 88 46 89 54 90 47 91 48 92 52 93 55 94 49 95 50 96 53 97
REMARK SMILES IDX 51 98
REMARK H PARENT 11 5 84 18 16 32 75 51 43 62
REMARK Flexibility Score: inf
ROOT
ATOM      1  C   UNL A   1      31.720  25.933  26.135  1.00  0.00     0.116 C 
ENDROOT
BRANCH   1   2
ATOM      2  N   UNL A   1      30.572  25.156  26.557  1.00  0.00    -0.353 N 
ATOM      3  C   UNL A   1      30.543  23.858  26.973  1.00  0.00     0.258 C 
ATOM      4  O   UNL A   1      29.484  23.396  27.403  1.00  0.00    -0.271 OA
ATOM      5  H   UNL A   1      29.706  25.624  26.544  1.00  0.00     0.163 HD
BRANCH   3   6
ATOM      6  C   UNL A   1      31.818  23.005  26.930  1.00  0.00     0.331 C 
BRANCH   6   7
ATOM      7  O   UNL A   1      31.995  22.132  25.829  1.00  0.00    -0.467 OA
BRANCH   7   8
ATOM      8  C   UNL A   1      32.790  22.544  24.797  1.00  0.00     0.218 A 
ATOM      9  C   UNL A   1      33.360  23.768  22.885  1.00  0.00     0.076 A 
ATOM     10  C   UNL A   1      32.385  23.363  23.769  1.00  0.00     0.095 A 
ATOM     11  N   UNL A   1      34.622  23.317  22.985  1.00  0.00    -0.215 NA
ATOM     12  C   UNL A   1      34.926  22.466  23.974  1.00  0.00     0.230 A 
ATOM     13  N   UNL A   1      34.042  22.061  24.892  1.00  0.00    -0.177 NA
BRANCH   9  14
ATOM     14  C   UNL A   1      33.059  24.694  21.729  1.00  0.00     0.216 C 
BRANCH  14  15
ATOM     15  O   UNL A   1      33.858  25.880  21.698  1.00  0.00    -0.378 OA
ATOM     16  C   UNL A   1      33.303  26.981  22.403  1.00  0.00     0.195 C 
ENDBRANCH  14  15
ENDBRANCH   9  14
BRANCH  12  17
ATOM     17  N   UNL A   1      36.212  21.935  24.054  1.00  0.00    -0.324 N 
ATOM     18  H   UNL A   1      36.396  21.165  23.468  1.00  0.00     0.170 HD
BRANCH  17  19
ATOM     19  C   UNL A   1      37.277  22.361  24.863  1.00  0.00     0.044 A 
ATOM     20  C   UNL A   1      37.290  23.701  25.280  1.00  0.00     0.026 A 
ATOM     21  C   UNL A   1      38.276  21.477  25.344  1.00  0.00    -0.025 A 
ATOM     22  C   UNL A   1      38.240  24.162  26.187  1.00  0.00     0.002 A 
ATOM     23  C   UNL A   1      39.224  21.942  26.287  1.00  0.00    -0.046 A 
ATOM     24  C   UNL A   1      38.346  20.051  24.851  1.00  0.00     0.047 C 
ATOM     25  C   UNL A   1      39.194  23.285  26.694  1.00  0.00     0.004 A 
ATOM     26  C   UNL A   1      40.285  21.061  26.893  1.00  0.00     0.044 C 
ENDBRANCH  17  19
ENDBRANCH  12  17
ENDBRANCH   7   8
ENDBRANCH   6   7
ENDBRANCH   3   6
ENDBRANCH   1   2
BRANCH   1  27
ATOM     27  C   UNL A   1      31.353  27.365  25.754  1.00  0.00     0.023 C 
BRANCH  27  28
ATOM     28  C   UNL A   1      31.910  28.453  26.677  1.00  0.00     0.023 C 
BRANCH  28  29
ATOM     29  C   UNL A   1      32.899  29.425  26.041  1.00  0.00     0.116 C 
BRANCH  29  30
ATOM     30  N   UNL A   1      32.662  30.811  26.412  1.00  0.00    -0.352 N 
ATOM     31  C   UNL A   1      33.385  31.634  27.245  1.00  0.00     0.251 C 
ATOM     32  H   UNL A   1      31.865  31.224  26.006  1.00  0.00     0.163 HD
ATOM     33  O   UNL A   1      32.961  32.748  27.527  1.00  0.00    -0.269 OA
BRANCH  31  34
ATOM     34  C   UNL A   1      34.660  31.163  27.831  1.00  0.00     0.039 A 
ATOM     35  C   UNL A   1      35.698  32.083  28.001  1.00  0.00     0.014 A 
ATOM     36  C   UNL A   1      34.837  29.831  28.211  1.00  0.00     0.014 A 
ATOM     37  C   UNL A   1      36.885  31.685  28.622  1.00  0.00     0.010 A 
ATOM     38  C   UNL A   1      35.989  29.454  28.898  1.00  0.00     0.010 A 
ATOM     39  C   UNL A   1      37.025  30.376  29.113  1.00  0.00    -0.014 A 
BRANCH  39  40
ATOM     40  C   UNL A   1      38.238  29.962  29.865  1.00  0.00     0.031 A 
ATOM     41  C   UNL A   1      38.480  30.473  31.259  1.00  0.00     0.074 A 
ATOM     42  C   UNL A   1      39.156  29.177  29.269  1.00  0.00     0.049 A 
ATOM     43  N   UNL A   1      39.508  30.278  32.047  1.00  0.00    -0.248 NA
ATOM     44  C   UNL A   1      37.440  31.339  31.834  1.00  0.00     0.031 C 
ATOM     45  C   UNL A   1      39.063  28.652  27.906  1.00  0.00     0.029 A 
ATOM     46  N   UNL A   1      40.356  28.690  29.728  1.00  0.00    -0.354 N 
ATOM     47  C   UNL A   1      39.244  31.004  33.201  1.00  0.00     0.074 A 
ATOM     48  C   UNL A   1      37.988  31.690  32.989  1.00  0.00     0.031 C 
ATOM     49  C   UNL A   1      40.145  27.900  27.647  1.00  0.00     0.029 A 
ATOM     50  C   UNL A   1      41.029  27.924  28.807  1.00  0.00     0.049 A 
ATOM     51  H   UNL A   1      40.701  28.873  30.632  1.00  0.00     0.167 HD
ATOM     52  C   UNL A   1      39.971  31.074  34.342  1.00  0.00     0.037 A 
ATOM     53  C   UNL A   1      42.230  27.319  28.884  1.00  0.00     0.037 A 
ATOM     54  C   UNL A   1      41.214  30.378  34.554  1.00  0.00     0.049 A 
ATOM     55  C   UNL A   1      43.029  27.430  30.156  1.00  0.00     0.074 A 
ATOM     56  C   UNL A   1      41.996  30.338  35.695  1.00  0.00     0.029 A 
ATOM     57  N   UNL A   1      41.860  29.604  33.601  1.00  0.00    -0.354 N 
ATOM     58  N   UNL A   1      42.734  28.060  31.267  1.00  0.00    -0.248 NA
ATOM     59  C   UNL A   1      44.326  26.742  30.186  1.00  0.00     0.031 C 
ATOM     60  C   UNL A   1      43.144  29.591  35.414  1.00  0.00     0.029 A 
ATOM     61  C   UNL A   1      43.046  29.108  34.119  1.00  0.00     0.049 A 
ATOM     62  H   UNL A   1      41.526  29.432  32.691  1.00  0.00     0.167 HD
ATOM     63  C   UNL A   1      43.789  27.817  32.137  1.00  0.00     0.074 A 
ATOM     64  C   UNL A   1      44.725  26.969  31.428  1.00  0.00     0.031 C 
ATOM     65  C   UNL A   1      43.966  28.258  33.407  1.00  0.00     0.037 A 
BRANCH  52  66
ATOM     66  C   UNL A   1      39.443  31.938  35.451  1.00  0.00     0.064 A 
ATOM     67  C   UNL A   1      38.567  31.435  36.427  1.00  0.00     0.173 A 
ATOM     68  C   UNL A   1      39.847  33.278  35.566  1.00  0.00     0.173 A 
ATOM     69  F   UNL A   1      38.142  30.165  36.361  1.00  0.00    -0.203 F 
ATOM     70  C   UNL A   1      38.091  32.248  37.452  1.00  0.00     0.198 A 
ATOM     71  C   UNL A   1      39.397  34.077  36.613  1.00  0.00     0.198 A 
ATOM     72  F   UNL A   1      40.689  33.810  34.666  1.00  0.00    -0.203 F 
ATOM     73  F   UNL A   1      37.213  31.759  38.339  1.00  0.00    -0.200 F 
ATOM     74  C   UNL A   1      38.512  33.565  37.549  1.00  0.00     0.200 A 
ATOM     75  F   UNL A   1      39.817  35.346  36.714  1.00  0.00    -0.200 F 
ATOM     76  F   UNL A   1      38.059  34.344  38.541  1.00  0.00    -0.200 F 
ENDBRANCH  52  66
BRANCH  53  77
ATOM     77  C   UNL A   1      42.746  26.538  27.729  1.00  0.00     0.064 A 
ATOM     78  C   UNL A   1      42.434  25.180  27.579  1.00  0.00     0.173 A 
ATOM     79  C   UNL A   1      43.571  27.127  26.759  1.00  0.00     0.173 A 
ATOM     80  F   UNL A   1      41.667  24.564  28.491  1.00  0.00    -0.203 F 
ATOM     81  C   UNL A   1      42.946  24.434  26.518  1.00  0.00     0.198 A 
ATOM     82  C   UNL A   1      44.055  26.389  25.681  1.00  0.00     0.198 A 
ATOM     83  F   UNL A   1      43.897  28.424  26.852  1.00  0.00    -0.203 F 
ATOM     84  F   UNL A   1      42.675  23.126  26.430  1.00  0.00    -0.200 F 
ATOM     85  C   UNL A   1      43.751  25.041  25.567  1.00  0.00     0.200 A 
ATOM     86  F   UNL A   1      44.820  26.983  24.755  1.00  0.00    -0.200 F 
ATOM     87  F   UNL A   1      44.241  24.325  24.545  1.00  0.00    -0.200 F 
ENDBRANCH  53  77
BRANCH  65  88
ATOM     88  C   UNL A   1      45.199  27.797  34.132  1.00  0.00     0.064 A 
ATOM     89  C   UNL A   1      45.218  26.610  34.881  1.00  0.00     0.173 A 
ATOM     90  C   UNL A   1      46.390  28.534  34.044  1.00  0.00     0.173 A 
ATOM     91  F   UNL A   1      44.103  25.874  35.008  1.00  0.00    -0.203 F 
ATOM     92  C   UNL A   1      46.374  26.194  35.536  1.00  0.00     0.198 A 
ATOM     93  C   UNL A   1      47.554  28.098  34.672  1.00  0.00     0.198 A 
ATOM     94  F   UNL A   1      46.430  29.673  33.336  1.00  0.00    -0.203 F 
ATOM     95  F   UNL A   1      46.354  25.085  36.289  1.00  0.00    -0.200 F 
ATOM     96  C   UNL A   1      47.542  26.934  35.425  1.00  0.00     0.200 A 
ATOM     97  F   UNL A   1      48.685  28.805  34.549  1.00  0.00    -0.200 F 
ATOM     98  F   UNL A   1      48.656  26.528  36.049  1.00  0.00    -0.200 F 
ENDBRANCH  65  88
ENDBRANCH  39  40
ENDBRANCH  31  34
ENDBRANCH  29  30
ENDBRANCH  28  29
ENDBRANCH  27  28
ENDBRANCH   1  27
TORSDOF 17
ENDMDL
MODEL 3
REMARK VINA RESULT:     -12.1      5.593     11.063
REMARK SMILES COCc1cc(OCC(=O)NCCCCNC(=O)c2ccc(-c3c4nc(c(-c5c(F)c(F)c(F)c(F)c5F)c5ccc([nH]5)c(-c5c(F)c(F)c(F)c(F)c5F)c5nc(c(-c6c(F)c(F)c(F)c(F)c6F)c6ccc3[nH]6)C=C5)C=C4)cc2)nc(Nc2cccc(C)c2C)n1
REMARK SMILES IDX 12 1 11 2 9 3 10 4 8 6 7 7 6 8 4 9 5 10 93 11 83 12 82 13
REMARK SMILES IDX 3 14 2 15 1 16 84 17 85 19 86 20 91 21 87 22 89 23 92 24
REMARK SMILES IDX 88 25 90 26 13 27 14 28 15 29 16 30 17 31 18 33 19 34 20 35
REMARK SMILES IDX 81 36 21 37 80 38 22 39 23 40 24 41 74 42 25 43 79 44 73 45
REMARK SMILES IDX 75 46 26 47 78 48 72 49 71 50 27 52 59 53 39 54 58 55 40 56
REMARK SMILES IDX 43 57 57 58 76 59 41 60 42 61 56 63 77 64 44 65 28 66 29 67
REMARK SMILES IDX 37 68 30 69 31 70 35 71 38 72 32 73 33 74 36 75 34 76 60 77
REMARK SMILES IDX 61 78 69 79 62 80 63 81 67 82 70 83 64 84 65 85 68 86 66 87
REMARK SMILES IDX 45 88 46 89 54 90 47 91 48 92 52 93 55 94 49 95 50 96 53 97
REMARK SMILES IDX 51 98
REMARK H PARENT 11 5 84 18 16 32 75 51 43 62
REMARK Flexibility Score: inf
ROOT
ATOM      1  C   UNL A   1      35.382  20.226  25.072  1.00  0.00     0.116 C 
ENDROOT
BRANCH   1   2
ATOM      2  N   UNL A   1      35.264  18.852  24.627  1.00  0.00    -0.353 N 
ATOM      3  C   UNL A   1      34.143  18.196  24.212  1.00  0.00     0.258 C 
ATOM      4  O   UNL A   1      34.255  17.054  23.762  1.00  0.00    -0.271 OA
ATOM      5  H   UNL A   1      36.097  18.327  24.622  1.00  0.00     0.163 HD
BRANCH   3   6
ATOM      6  C   UNL A   1      32.774  18.888  24.282  1.00  0.00     0.331 C 
BRANCH   6   7
ATOM      7  O   UNL A   1      32.540  19.985  23.418  1.00  0.00    -0.467 OA
BRANCH   7   8
ATOM      8  C   UNL A   1      32.214  21.190  23.974  1.00  0.00     0.218 A 
ATOM      9  C   UNL A   1      31.816  22.718  25.702  1.00  0.00     0.076 A 
ATOM     10  C   UNL A   1      32.019  21.412  25.317  1.00  0.00     0.095 A 
ATOM     11  N   UNL A   1      31.735  23.707  24.795  1.00  0.00    -0.215 NA
ATOM     12  C   UNL A   1      31.867  23.403  23.496  1.00  0.00     0.230 A 
ATOM     13  N   UNL A   1      32.106  22.164  23.053  1.00  0.00    -0.177 NA
BRANCH   9  14
ATOM     14  C   UNL A   1      31.621  23.106  27.150  1.00  0.00     0.216 C 
BRANCH  14  15
ATOM     15  O   UNL A   1      30.308  23.579  27.463  1.00  0.00    -0.378 OA
ATOM     16  C   UNL A   1      29.270  22.645  27.206  1.00  0.00     0.195 C 
ENDBRANCH  14  15
ENDBRANCH   9  14
BRANCH  12  17
ATOM     17  N   UNL A   1      31.719  24.404  22.538  1.00  0.00    -0.324 N 
ATOM     18  H   UNL A   1      31.367  24.115  21.665  1.00  0.00     0.170 HD
BRANCH  17  19
ATOM     19  C   UNL A   1      32.009  25.772  22.661  1.00  0.00     0.044 A 
ATOM     20  C   UNL A   1      33.295  26.205  22.302  1.00  0.00     0.026 A 
ATOM     21  C   UNL A   1      31.037  26.731  23.041  1.00  0.00    -0.025 A 
ATOM     22  C   UNL A   1      33.615  27.559  22.275  1.00  0.00     0.002 A 
ATOM     23  C   UNL A   1      31.358  28.109  22.985  1.00  0.00    -0.046 A 
ATOM     24  C   UNL A   1      29.670  26.298  23.517  1.00  0.00     0.047 C 
ATOM     25  C   UNL A   1      32.649  28.504  22.605  1.00  0.00     0.004 A 
ATOM     26  C   UNL A   1      30.372  29.199  23.318  1.00  0.00     0.044 C 
ENDBRANCH  17  19
ENDBRANCH  12  17
ENDBRANCH   7   8
ENDBRANCH   6   7
ENDBRANCH   3   6
ENDBRANCH   1   2
BRANCH   1  27
ATOM     27  C   UNL A   1      36.805  20.764  24.944  1.00  0.00     0.023 C 
BRANCH  27  28
ATOM     28  C   UNL A   1      37.914  19.712  25.025  1.00  0.00     0.023 C 
BRANCH  28  29
ATOM     29  C   UNL A   1      39.170  20.123  25.787  1.00  0.00     0.116 C 
BRANCH  29  30
ATOM     30  N   UNL A   1      40.177  19.075  25.846  1.00  0.00    -0.352 N 
ATOM     31  C   UNL A   1      41.531  19.168  26.071  1.00  0.00     0.251 C 
ATOM     32  H   UNL A   1      39.839  18.160  25.704  1.00  0.00     0.163 HD
ATOM     33  O   UNL A   1      42.240  18.175  25.970  1.00  0.00    -0.269 OA
BRANCH  31  34
ATOM     34  C   UNL A   1      42.140  20.476  26.403  1.00  0.00     0.039 A 
ATOM     35  C   UNL A   1      42.593  21.287  25.359  1.00  0.00     0.014 A 
ATOM     36  C   UNL A   1      42.265  20.905  27.726  1.00  0.00     0.014 A 
ATOM     37  C   UNL A   1      43.102  22.558  25.637  1.00  0.00     0.010 A 
ATOM     38  C   UNL A   1      42.699  22.201  27.996  1.00  0.00     0.010 A 
ATOM     39  C   UNL A   1      43.121  23.043  26.955  1.00  0.00    -0.014 A 
BRANCH  39  40
ATOM     40  C   UNL A   1      43.563  24.429  27.259  1.00  0.00     0.031 A 
ATOM     41  C   UNL A   1      42.583  25.442  27.786  1.00  0.00     0.074 A 
ATOM     42  C   UNL A   1      44.833  24.795  27.000  1.00  0.00     0.049 A 
ATOM     43  N   UNL A   1      42.764  26.712  28.046  1.00  0.00    -0.248 NA
ATOM     44  C   UNL A   1      41.211  24.969  28.026  1.00  0.00     0.031 C 
ATOM     45  C   UNL A   1      45.869  23.922  26.446  1.00  0.00     0.029 A 
ATOM     46  N   UNL A   1      45.470  26.003  27.157  1.00  0.00    -0.354 N 
ATOM     47  C   UNL A   1      41.530  27.191  28.469  1.00  0.00     0.074 A 
ATOM     48  C   UNL A   1      40.596  26.090  28.375  1.00  0.00     0.031 C 
ATOM     49  C   UNL A   1      47.014  24.613  26.331  1.00  0.00     0.029 A 
ATOM     50  C   UNL A   1      46.785  25.988  26.761  1.00  0.00     0.049 A 
ATOM     51  H   UNL A   1      45.025  26.803  27.520  1.00  0.00     0.167 HD
ATOM     52  C   UNL A   1      41.211  28.429  28.917  1.00  0.00     0.037 A 
ATOM     53  C   UNL A   1      47.700  26.976  26.734  1.00  0.00     0.037 A 
ATOM     54  C   UNL A   1      42.148  29.519  29.023  1.00  0.00     0.049 A 
ATOM     55  C   UNL A   1      47.314  28.349  27.217  1.00  0.00     0.074 A 
ATOM     56  C   UNL A   1      41.936  30.793  29.518  1.00  0.00     0.029 A 
ATOM     57  N   UNL A   1      43.474  29.463  28.620  1.00  0.00    -0.354 N 
ATOM     58  N   UNL A   1      46.164  28.770  27.683  1.00  0.00    -0.248 NA
ATOM     59  C   UNL A   1      48.357  29.384  27.174  1.00  0.00     0.031 C 
ATOM     60  C   UNL A   1      43.115  31.527  29.360  1.00  0.00     0.029 A 
ATOM     61  C   UNL A   1      44.083  30.691  28.828  1.00  0.00     0.049 A 
ATOM     62  H   UNL A   1      43.918  28.670  28.242  1.00  0.00     0.167 HD
ATOM     63  C   UNL A   1      46.353  30.105  28.019  1.00  0.00     0.074 A 
ATOM     64  C   UNL A   1      47.734  30.419  27.716  1.00  0.00     0.031 C 
ATOM     65  C   UNL A   1      45.461  30.989  28.530  1.00  0.00     0.037 A 
BRANCH  52  66
ATOM     66  C   UNL A   1      39.786  28.677  29.323  1.00  0.00     0.064 A 
ATOM     67  C   UNL A   1      39.344  28.455  30.638  1.00  0.00     0.173 A 
ATOM     68  C   UNL A   1      38.857  29.177  28.398  1.00  0.00     0.173 A 
ATOM     69  F   UNL A   1      40.187  27.968  31.560  1.00  0.00    -0.203 F 
ATOM     70  C   UNL A   1      38.021  28.695  31.000  1.00  0.00     0.198 A 
ATOM     71  C   UNL A   1      37.545  29.449  28.773  1.00  0.00     0.198 A 
ATOM     72  F   UNL A   1      39.226  29.415  27.129  1.00  0.00    -0.203 F 
ATOM     73  F   UNL A   1      37.610  28.423  32.247  1.00  0.00    -0.200 F 
ATOM     74  C   UNL A   1      37.125  29.198  30.070  1.00  0.00     0.200 A 
ATOM     75  F   UNL A   1      36.684  29.951  27.876  1.00  0.00    -0.200 F 
ATOM     76  F   UNL A   1      35.854  29.436  30.422  1.00  0.00    -0.200 F 
ENDBRANCH  52  66
BRANCH  53  77
ATOM     77  C   UNL A   1      49.079  26.701  26.248  1.00  0.00     0.064 A 
ATOM     78  C   UNL A   1      49.440  26.957  24.918  1.00  0.00     0.173 A 
ATOM     79  C   UNL A   1      50.059  26.167  27.097  1.00  0.00     0.173 A 
ATOM     80  F   UNL A   1      48.532  27.448  24.061  1.00  0.00    -0.203 F 
ATOM     81  C   UNL A   1      50.720  26.667  24.449  1.00  0.00     0.198 A 
ATOM     82  C   UNL A   1      51.348  25.908  26.635  1.00  0.00     0.198 A 
ATOM     83  F   UNL A   1      49.769  25.906  28.380  1.00  0.00    -0.203 F 
ATOM     84  F   UNL A   1      51.020  26.871  23.160  1.00  0.00    -0.200 F 
ATOM     85  C   UNL A   1      51.675  26.148  25.310  1.00  0.00     0.200 A 
ATOM     86  F   UNL A   1      52.273  25.420  27.474  1.00  0.00    -0.200 F 
ATOM     87  F   UNL A   1      52.906  25.871  24.858  1.00  0.00    -0.200 F 
ENDBRANCH  53  77
BRANCH  65  88
ATOM     88  C   UNL A   1      45.961  32.373  28.839  1.00  0.00     0.064 A 
ATOM     89  C   UNL A   1      45.862  33.421  27.910  1.00  0.00     0.173 A 
ATOM     90  C   UNL A   1      46.510  32.664  30.097  1.00  0.00     0.173 A 
ATOM     91  F   UNL A   1      45.357  33.194  26.688  1.00  0.00    -0.203 F 
ATOM     92  C   UNL A   1      46.321  34.698  28.220  1.00  0.00     0.198 A 
ATOM     93  C   UNL A   1      46.937  33.949  30.416  1.00  0.00     0.198 A 
ATOM     94  F   UNL A   1      46.622  31.701  31.026  1.00  0.00    -0.203 F 
ATOM     95  F   UNL A   1      46.265  35.670  27.299  1.00  0.00    -0.200 F 
ATOM     96  C   UNL A   1      46.850  34.964  29.474  1.00  0.00     0.200 A 
ATOM     97  F   UNL A   1      47.431  34.208  31.635  1.00  0.00    -0.200 F 
ATOM     98  F   UNL A   1      47.282  36.196  29.774  1.00  0.00    -0.200 F 
ENDBRANCH  65  88
ENDBRANCH  39  40
ENDBRANCH  31  34
ENDBRANCH  29  30
ENDBRANCH  28  29
ENDBRANCH  27  28
ENDBRANCH   1  27
TORSDOF 17
ENDMDL
