MODEL 1
REMARK VINA RESULT:     -12.2      0.000      0.000
REMARK SMILES CCc1ccc(OCC(=O)Nc2cc(C)c(O)c(C(=O)NCCCCNC(=O)c3ccc(-c4c5nc(c(-c6c(F)c(F)c(F)c(F)c6F)c6ccc([nH]6)c(-c6c(F)c(F)c(F)c(F)c6F)c6nc(c(-c7c(F)c(F)c(F)c(F)c7F)c7ccc4[nH]7)C=C6)C=C5)cc3)c2)cc1
REMARK SMILES IDX 22 1 21 2 19 3 20 4 18 6 12 7 13 8 92 9 14 10 15 11 16 12
REMARK SMILES IDX 11 13 9 14 10 15 8 17 7 18 6 19 3 20 4 21 94 22 5 23 93 24
REMARK SMILES IDX 2 25 1 26 17 27 23 29 24 30 25 31 26 32 27 33 28 35 29 36
REMARK SMILES IDX 30 37 91 38 31 39 90 40 32 41 33 42 34 43 84 44 35 45 89 46
REMARK SMILES IDX 83 47 85 48 36 49 88 50 82 51 81 52 37 54 69 55 49 56 68 57
REMARK SMILES IDX 50 58 53 59 67 60 86 61 51 62 52 63 66 65 87 66 54 67 38 68
REMARK SMILES IDX 39 69 47 70 40 71 41 72 45 73 48 74 42 75 43 76 46 77 44 78
REMARK SMILES IDX 70 79 71 80 79 81 72 82 73 83 77 84 80 85 74 86 75 87 78 88
REMARK SMILES IDX 76 89 55 90 56 91 64 92 57 93 58 94 62 95 65 96 59 97 60 98
REMARK SMILES IDX 63 99 61 100
REMARK H PARENT 21 5 11 16 17 28 26 34 85 53 53 64
REMARK Flexibility Score: inf
ROOT
ATOM      1  C   UNL A   1      35.362  20.735  25.207  1.00  0.00     0.116 C 
ENDROOT
BRANCH   1   2
ATOM      2  N   UNL A   1      34.199  19.899  25.252  1.00  0.00    -0.352 N 
ATOM      3  C   UNL A   1      32.922  20.187  24.829  1.00  0.00     0.255 C 
ATOM      4  O   UNL A   1      32.070  19.304  24.968  1.00  0.00    -0.269 OA
ATOM      5  H   UNL A   1      34.332  19.002  25.634  1.00  0.00     0.163 HD
BRANCH   3   6
ATOM      6  C   UNL A   1      32.471  21.531  24.323  1.00  0.00     0.083 A 
ATOM      7  C   UNL A   1      32.326  23.336  22.674  1.00  0.00     0.042 A 
ATOM      8  C   UNL A   1      31.682  24.122  23.646  1.00  0.00     0.033 A 
ATOM      9  C   UNL A   1      32.673  22.018  23.002  1.00  0.00     0.043 A 
ATOM     10  C   UNL A   1      31.385  23.641  24.926  1.00  0.00    -0.006 A 
ATOM     11  C   UNL A   1      30.622  24.528  25.870  1.00  0.00     0.048 C 
ATOM     12  C   UNL A   1      31.794  22.349  25.258  1.00  0.00     0.131 A 
BRANCH   7  13
ATOM     13  N   UNL A   1      32.611  24.037  21.486  1.00  0.00    -0.323 N 
ATOM     14  C   UNL A   1      32.904  25.307  21.102  1.00  0.00     0.262 C 
ATOM     15  O   UNL A   1      32.953  25.521  19.884  1.00  0.00    -0.271 OA
ATOM     16  H   UNL A   1      32.593  23.433  20.709  1.00  0.00     0.170 HD
BRANCH  14  17
ATOM     17  C   UNL A   1      33.273  26.415  22.069  1.00  0.00     0.329 C 
BRANCH  17  18
ATOM     18  O   UNL A   1      32.283  27.335  22.455  1.00  0.00    -0.484 OA
BRANCH  18  19
ATOM     19  C   UNL A   1      32.249  27.777  23.741  1.00  0.00     0.120 A 
ATOM     20  C   UNL A   1      32.901  28.742  26.316  1.00  0.00    -0.048 A 
ATOM     21  C   UNL A   1      33.637  27.722  25.743  1.00  0.00     0.007 A 
ATOM     22  C   UNL A   1      31.770  29.213  25.622  1.00  0.00     0.007 A 
ATOM     23  C   UNL A   1      33.296  27.271  24.482  1.00  0.00     0.047 A 
ATOM     24  C   UNL A   1      31.439  28.731  24.330  1.00  0.00     0.047 A 
BRANCH  20  25
ATOM     25  C   UNL A   1      33.454  29.363  27.573  1.00  0.00     0.032 C 
ATOM     26  C   UNL A   1      34.673  30.236  27.359  1.00  0.00     0.009 C 
ENDBRANCH  20  25
ENDBRANCH  18  19
ENDBRANCH  17  18
ENDBRANCH  14  17
ENDBRANCH   7  13
BRANCH  12  27
ATOM     27  O   UNL A   1      31.514  21.931  26.537  1.00  0.00    -0.507 OA
ATOM     28  H   UNL A   1      31.331  21.028  26.706  1.00  0.00     0.293 HD
ENDBRANCH  12  27
ENDBRANCH   3   6
ENDBRANCH   1   2
BRANCH   1  29
ATOM     29  C   UNL A   1      35.441  21.858  26.240  1.00  0.00     0.023 C 
BRANCH  29  30
ATOM     30  C   UNL A   1      35.696  23.303  25.787  1.00  0.00     0.023 C 
BRANCH  30  31
ATOM     31  C   UNL A   1      37.058  23.757  25.254  1.00  0.00     0.116 C 
BRANCH  31  32
ATOM     32  N   UNL A   1      38.208  22.903  25.549  1.00  0.00    -0.352 N 
ATOM     33  C   UNL A   1      39.396  23.136  26.214  1.00  0.00     0.251 C 
ATOM     34  H   UNL A   1      38.118  21.983  25.208  1.00  0.00     0.163 HD
ATOM     35  O   UNL A   1      40.279  22.293  26.238  1.00  0.00    -0.269 OA
BRANCH  33  36
ATOM     36  C   UNL A   1      39.603  24.409  26.922  1.00  0.00     0.039 A 
ATOM     37  C   UNL A   1      39.167  24.561  28.241  1.00  0.00     0.014 A 
ATOM     38  C   UNL A   1      40.224  25.462  26.258  1.00  0.00     0.014 A 
ATOM     39  C   UNL A   1      39.458  25.742  28.923  1.00  0.00     0.010 A 
ATOM     40  C   UNL A   1      40.649  26.560  26.976  1.00  0.00     0.010 A 
ATOM     41  C   UNL A   1      40.248  26.725  28.305  1.00  0.00    -0.014 A 
BRANCH  41  42
ATOM     42  C   UNL A   1      40.643  27.972  28.993  1.00  0.00     0.031 A 
ATOM     43  C   UNL A   1      42.048  28.104  29.513  1.00  0.00     0.074 A 
ATOM     44  C   UNL A   1      39.714  28.910  29.246  1.00  0.00     0.049 A 
ATOM     45  N   UNL A   1      42.572  29.039  30.262  1.00  0.00    -0.248 NA
ATOM     46  C   UNL A   1      42.975  27.002  29.196  1.00  0.00     0.031 C 
ATOM     47  C   UNL A   1      38.307  28.844  28.843  1.00  0.00     0.029 A 
ATOM     48  N   UNL A   1      39.812  30.103  29.911  1.00  0.00    -0.354 N 
ATOM     49  C   UNL A   1      43.872  28.623  30.520  1.00  0.00     0.074 A 
ATOM     50  C   UNL A   1      44.027  27.312  29.936  1.00  0.00     0.031 C 
ATOM     51  C   UNL A   1      37.686  29.969  29.227  1.00  0.00     0.029 A 
ATOM     52  C   UNL A   1      38.637  30.812  29.942  1.00  0.00     0.049 A 
ATOM     53  H   UNL A   1      40.645  30.422  30.327  1.00  0.00     0.167 HD
ATOM     54  C   UNL A   1      44.861  29.297  31.151  1.00  0.00     0.037 A 
ATOM     55  C   UNL A   1      38.372  32.014  30.484  1.00  0.00     0.037 A 
ATOM     56  C   UNL A   1      44.692  30.614  31.700  1.00  0.00     0.049 A 
ATOM     57  C   UNL A   1      39.488  32.748  31.177  1.00  0.00     0.074 A 
ATOM     58  C   UNL A   1      45.624  31.421  32.324  1.00  0.00     0.029 A 
ATOM     59  N   UNL A   1      43.494  31.321  31.681  1.00  0.00    -0.354 N 
ATOM     60  N   UNL A   1      40.733  32.380  31.363  1.00  0.00    -0.248 NA
ATOM     61  C   UNL A   1      39.163  34.070  31.724  1.00  0.00     0.031 C 
ATOM     62  C   UNL A   1      44.980  32.597  32.725  1.00  0.00     0.029 A 
ATOM     63  C   UNL A   1      43.662  32.550  32.293  1.00  0.00     0.049 A 
ATOM     64  H   UNL A   1      42.652  30.995  31.289  1.00  0.00     0.167 HD
ATOM     65  C   UNL A   1      41.354  33.440  32.007  1.00  0.00     0.074 A 
ATOM     66  C   UNL A   1      40.345  34.469  32.172  1.00  0.00     0.031 C 
ATOM     67  C   UNL A   1      42.640  33.559  32.423  1.00  0.00     0.037 A 
BRANCH  54  68
ATOM     68  C   UNL A   1      46.197  28.615  31.262  1.00  0.00     0.064 A 
ATOM     69  C   UNL A   1      47.174  28.737  30.258  1.00  0.00     0.173 A 
ATOM     70  C   UNL A   1      46.501  27.812  32.371  1.00  0.00     0.173 A 
ATOM     71  F   UNL A   1      46.933  29.479  29.167  1.00  0.00    -0.203 F 
ATOM     72  C   UNL A   1      48.377  28.041  30.336  1.00  0.00     0.198 A 
ATOM     73  C   UNL A   1      47.724  27.150  32.466  1.00  0.00     0.198 A 
ATOM     74  F   UNL A   1      45.610  27.659  33.362  1.00  0.00    -0.203 F 
ATOM     75  F   UNL A   1      49.256  28.110  29.327  1.00  0.00    -0.200 F 
ATOM     76  C   UNL A   1      48.655  27.253  31.442  1.00  0.00     0.200 A 
ATOM     77  F   UNL A   1      47.995  26.399  33.541  1.00  0.00    -0.200 F 
ATOM     78  F   UNL A   1      49.811  26.581  31.515  1.00  0.00    -0.200 F 
ENDBRANCH  54  68
BRANCH  55  79
ATOM     79  C   UNL A   1      37.025  32.622  30.327  1.00  0.00     0.064 A 
ATOM     80  C   UNL A   1      36.063  32.495  31.340  1.00  0.00     0.173 A 
ATOM     81  C   UNL A   1      36.670  33.348  29.181  1.00  0.00     0.173 A 
ATOM     82  F   UNL A   1      36.350  31.801  32.452  1.00  0.00    -0.203 F 
ATOM     83  C   UNL A   1      34.792  33.046  31.202  1.00  0.00     0.198 A 
ATOM     84  C   UNL A   1      35.408  33.925  29.056  1.00  0.00     0.198 A 
ATOM     85  F   UNL A   1      37.556  33.513  28.189  1.00  0.00    -0.203 F 
ATOM     86  F   UNL A   1      33.878  32.869  32.167  1.00  0.00    -0.200 F 
ATOM     87  C   UNL A   1      34.466  33.766  30.062  1.00  0.00     0.200 A 
ATOM     88  F   UNL A   1      35.103  34.637  27.963  1.00  0.00    -0.200 F 
ATOM     89  F   UNL A   1      33.244  34.301  29.932  1.00  0.00    -0.200 F 
ENDBRANCH  55  79
BRANCH  67  90
ATOM     90  C   UNL A   1      43.040  34.871  33.033  1.00  0.00     0.064 A 
ATOM     91  C   UNL A   1      43.500  35.944  32.255  1.00  0.00     0.173 A 
ATOM     92  C   UNL A   1      42.930  35.063  34.419  1.00  0.00     0.173 A 
ATOM     93  F   UNL A   1      43.635  35.806  30.927  1.00  0.00    -0.203 F 
ATOM     94  C   UNL A   1      43.871  37.147  32.847  1.00  0.00     0.198 A 
ATOM     95  C   UNL A   1      43.264  36.280  35.002  1.00  0.00     0.198 A 
ATOM     96  F   UNL A   1      42.485  34.071  35.206  1.00  0.00    -0.203 F 
ATOM     97  F   UNL A   1      44.367  38.137  32.092  1.00  0.00    -0.200 F 
ATOM     98  C   UNL A   1      43.745  37.316  34.218  1.00  0.00     0.200 A 
ATOM     99  F   UNL A   1      43.124  36.448  36.324  1.00  0.00    -0.200 F 
ATOM    100  F   UNL A   1      44.098  38.479  34.786  1.00  0.00    -0.200 F 
ENDBRANCH  67  90
ENDBRANCH  41  42
ENDBRANCH  33  36
ENDBRANCH  31  32
ENDBRANCH  30  31
ENDBRANCH  29  30
ENDBRANCH   1  29
TORSDOF 17
ENDMDL
MODEL 2
REMARK VINA RESULT:     -12.2      3.704      7.832
REMARK SMILES CCc1ccc(OCC(=O)Nc2cc(C)c(O)c(C(=O)NCCCCNC(=O)c3ccc(-c4c5nc(c(-c6c(F)c(F)c(F)c(F)c6F)c6ccc([nH]6)c(-c6c(F)c(F)c(F)c(F)c6F)c6nc(c(-c7c(F)c(F)c(F)c(F)c7F)c7ccc4[nH]7)C=C6)C=C5)cc3)c2)cc1
REMARK SMILES IDX 22 1 21 2 19 3 20 4 18 6 12 7 13 8 92 9 14 10 15 11 16 12
REMARK SMILES IDX 11 13 9 14 10 15 8 17 7 18 6 19 3 20 4 21 94 22 5 23 93 24
REMARK SMILES IDX 2 25 1 26 17 27 23 29 24 30 25 31 26 32 27 33 28 35 29 36
REMARK SMILES IDX 30 37 91 38 31 39 90 40 32 41 33 42 34 43 84 44 35 45 89 46
REMARK SMILES IDX 83 47 85 48 36 49 88 50 82 51 81 52 37 54 69 55 49 56 68 57
REMARK SMILES IDX 50 58 53 59 67 60 86 61 51 62 52 63 66 65 87 66 54 67 38 68
REMARK SMILES IDX 39 69 47 70 40 71 41 72 45 73 48 74 42 75 43 76 46 77 44 78
REMARK SMILES IDX 70 79 71 80 79 81 72 82 73 83 77 84 80 85 74 86 75 87 78 88
REMARK SMILES IDX 76 89 55 90 56 91 64 92 57 93 58 94 62 95 65 96 59 97 60 98
REMARK SMILES IDX 63 99 61 100
REMARK H PARENT 21 5 11 16 17 28 26 34 85 53 53 64
REMARK Flexibility Score: inf
ROOT
ATOM      1  C   UNL A   1      34.602  29.460  27.620  1.00  0.00     0.116 C 
ENDROOT
BRANCH   1   2
ATOM      2  N   UNL A   1      33.258  29.033  27.876  1.00  0.00    -0.352 N 
ATOM      3  C   UNL A   1      32.556  28.012  27.278  1.00  0.00     0.255 C 
ATOM      4  O   UNL A   1      31.398  27.824  27.663  1.00  0.00    -0.269 OA
ATOM      5  H   UNL A   1      32.775  29.536  28.571  1.00  0.00     0.163 HD
BRANCH   3   6
ATOM      6  C   UNL A   1      33.057  27.194  26.118  1.00  0.00     0.083 A 
ATOM      7  C   UNL A   1      34.078  25.224  25.081  1.00  0.00     0.042 A 
ATOM      8  C   UNL A   1      34.087  25.919  23.858  1.00  0.00     0.033 A 
ATOM      9  C   UNL A   1      33.511  25.848  26.201  1.00  0.00     0.043 A 
ATOM     10  C   UNL A   1      33.562  27.209  23.722  1.00  0.00    -0.006 A 
ATOM     11  C   UNL A   1      33.544  27.838  22.358  1.00  0.00     0.048 C 
ATOM     12  C   UNL A   1      33.061  27.842  24.860  1.00  0.00     0.131 A 
BRANCH   7  13
ATOM     13  N   UNL A   1      34.734  23.978  25.022  1.00  0.00    -0.323 N 
ATOM     14  C   UNL A   1      34.526  22.702  25.438  1.00  0.00     0.262 C 
ATOM     15  O   UNL A   1      35.464  21.909  25.285  1.00  0.00    -0.271 OA
ATOM     16  H   UNL A   1      35.589  24.055  24.541  1.00  0.00     0.170 HD
BRANCH  14  17
ATOM     17  C   UNL A   1      33.198  22.193  25.963  1.00  0.00     0.329 C 
BRANCH  17  18
ATOM     18  O   UNL A   1      32.156  21.951  25.051  1.00  0.00    -0.484 OA
BRANCH  18  19
ATOM     19  C   UNL A   1      31.386  22.989  24.628  1.00  0.00     0.120 A 
ATOM     20  C   UNL A   1      30.094  25.484  24.320  1.00  0.00    -0.048 A 
ATOM     21  C   UNL A   1      30.189  24.893  25.566  1.00  0.00     0.007 A 
ATOM     22  C   UNL A   1      30.572  24.763  23.208  1.00  0.00     0.007 A 
ATOM     23  C   UNL A   1      30.827  23.673  25.687  1.00  0.00     0.047 A 
ATOM     24  C   UNL A   1      31.220  23.511  23.359  1.00  0.00     0.047 A 
BRANCH  20  25
ATOM     25  C   UNL A   1      29.613  26.911  24.274  1.00  0.00     0.032 C 
ATOM     26  C   UNL A   1      29.879  27.622  22.964  1.00  0.00     0.009 C 
ENDBRANCH  20  25
ENDBRANCH  18  19
ENDBRANCH  17  18
ENDBRANCH  14  17
ENDBRANCH   7  13
BRANCH  12  27
ATOM     27  O   UNL A   1      32.590  29.121  24.687  1.00  0.00    -0.507 OA
ATOM     28  H   UNL A   1      32.014  29.498  25.323  1.00  0.00     0.293 HD
ENDBRANCH  12  27
ENDBRANCH   3   6
ENDBRANCH   1   2
BRANCH   1  29
ATOM     29  C   UNL A   1      34.856  30.966  27.619  1.00  0.00     0.023 C 
BRANCH  29  30
ATOM     30  C   UNL A   1      33.768  31.931  28.113  1.00  0.00     0.023 C 
BRANCH  30  31
ATOM     31  C   UNL A   1      33.013  32.859  27.157  1.00  0.00     0.116 C 
BRANCH  31  32
ATOM     32  N   UNL A   1      32.664  34.189  27.654  1.00  0.00    -0.352 N 
ATOM     33  C   UNL A   1      33.098  34.920  28.742  1.00  0.00     0.251 C 
ATOM     34  H   UNL A   1      31.990  34.653  27.107  1.00  0.00     0.163 HD
ATOM     35  O   UNL A   1      32.573  35.983  29.036  1.00  0.00    -0.269 OA
BRANCH  33  36
ATOM     36  C   UNL A   1      34.222  34.429  29.555  1.00  0.00     0.039 A 
ATOM     37  C   UNL A   1      33.985  33.811  30.786  1.00  0.00     0.014 A 
ATOM     38  C   UNL A   1      35.522  34.600  29.090  1.00  0.00     0.014 A 
ATOM     39  C   UNL A   1      35.058  33.270  31.494  1.00  0.00     0.010 A 
ATOM     40  C   UNL A   1      36.557  33.930  29.706  1.00  0.00     0.010 A 
ATOM     41  C   UNL A   1      36.343  33.282  30.927  1.00  0.00    -0.014 A 
BRANCH  41  42
ATOM     42  C   UNL A   1      37.510  32.672  31.597  1.00  0.00     0.031 A 
ATOM     43  C   UNL A   1      38.231  31.541  30.918  1.00  0.00     0.074 A 
ATOM     44  C   UNL A   1      37.831  33.056  32.845  1.00  0.00     0.049 A 
ATOM     45  N   UNL A   1      39.184  30.770  31.375  1.00  0.00    -0.248 NA
ATOM     46  C   UNL A   1      37.778  31.190  29.560  1.00  0.00     0.031 C 
ATOM     47  C   UNL A   1      37.149  34.098  33.616  1.00  0.00     0.029 A 
ATOM     48  N   UNL A   1      38.811  32.607  33.690  1.00  0.00    -0.354 N 
ATOM     49  C   UNL A   1      39.420  29.838  30.373  1.00  0.00     0.074 A 
ATOM     50  C   UNL A   1      38.449  30.073  29.330  1.00  0.00     0.031 C 
ATOM     51  C   UNL A   1      37.761  34.241  34.801  1.00  0.00     0.029 A 
ATOM     52  C   UNL A   1      38.847  33.272  34.891  1.00  0.00     0.049 A 
ATOM     53  H   UNL A   1      39.431  31.878  33.458  1.00  0.00     0.167 HD
ATOM     54  C   UNL A   1      40.390  28.896  30.310  1.00  0.00     0.037 A 
ATOM     55  C   UNL A   1      39.676  33.111  35.937  1.00  0.00     0.037 A 
ATOM     56  C   UNL A   1      41.364  28.699  31.348  1.00  0.00     0.049 A 
ATOM     57  C   UNL A   1      40.751  32.062  35.845  1.00  0.00     0.074 A 
ATOM     58  C   UNL A   1      42.422  27.811  31.388  1.00  0.00     0.029 A 
ATOM     59  N   UNL A   1      41.394  29.417  32.539  1.00  0.00    -0.354 N 
ATOM     60  N   UNL A   1      41.012  31.226  34.868  1.00  0.00    -0.248 NA
ATOM     61  C   UNL A   1      41.654  31.945  36.995  1.00  0.00     0.031 C 
ATOM     62  C   UNL A   1      43.065  27.958  32.622  1.00  0.00     0.029 A 
ATOM     63  C   UNL A   1      42.447  28.983  33.325  1.00  0.00     0.049 A 
ATOM     64  H   UNL A   1      40.760  30.129  32.785  1.00  0.00     0.167 HD
ATOM     65  C   UNL A   1      42.134  30.513  35.265  1.00  0.00     0.074 A 
ATOM     66  C   UNL A   1      42.507  31.025  36.569  1.00  0.00     0.031 C 
ATOM     67  C   UNL A   1      42.802  29.528  34.612  1.00  0.00     0.037 A 
BRANCH  54  68
ATOM     68  C   UNL A   1      40.434  28.034  29.079  1.00  0.00     0.064 A 
ATOM     69  C   UNL A   1      41.197  28.394  27.953  1.00  0.00     0.173 A 
ATOM     70  C   UNL A   1      39.694  26.845  29.010  1.00  0.00     0.173 A 
ATOM     71  F   UNL A   1      41.912  29.528  27.955  1.00  0.00    -0.203 F 
ATOM     72  C   UNL A   1      41.171  27.626  26.791  1.00  0.00     0.198 A 
ATOM     73  C   UNL A   1      39.704  26.057  27.860  1.00  0.00     0.198 A 
ATOM     74  F   UNL A   1      38.950  26.449  30.053  1.00  0.00    -0.203 F 
ATOM     75  F   UNL A   1      41.840  28.036  25.705  1.00  0.00    -0.200 F 
ATOM     76  C   UNL A   1      40.430  26.456  26.748  1.00  0.00     0.200 A 
ATOM     77  F   UNL A   1      38.998  24.920  27.824  1.00  0.00    -0.200 F 
ATOM     78  F   UNL A   1      40.404  25.719  25.628  1.00  0.00    -0.200 F 
ENDBRANCH  54  68
BRANCH  55  79
ATOM     79  C   UNL A   1      39.569  34.008  37.118  1.00  0.00     0.064 A 
ATOM     80  C   UNL A   1      38.832  33.618  38.245  1.00  0.00     0.173 A 
ATOM     81  C   UNL A   1      40.201  35.259  37.156  1.00  0.00     0.173 A 
ATOM     82  F   UNL A   1      38.200  32.434  38.254  1.00  0.00    -0.203 F 
ATOM     83  C   UNL A   1      38.709  34.452  39.353  1.00  0.00     0.198 A 
ATOM     84  C   UNL A   1      40.103  36.082  38.277  1.00  0.00     0.198 A 
ATOM     85  F   UNL A   1      40.930  35.676  36.111  1.00  0.00    -0.203 F 
ATOM     86  F   UNL A   1      37.961  34.071  40.397  1.00  0.00    -0.200 F 
ATOM     87  C   UNL A   1      39.350  35.682  39.370  1.00  0.00     0.200 A 
ATOM     88  F   UNL A   1      40.739  37.261  38.298  1.00  0.00    -0.200 F 
ATOM     89  F   UNL A   1      39.236  36.483  40.439  1.00  0.00    -0.200 F 
ENDBRANCH  55  79
BRANCH  67  90
ATOM     90  C   UNL A   1      44.039  28.992  35.270  1.00  0.00     0.064 A 
ATOM     91  C   UNL A   1      43.995  27.922  36.176  1.00  0.00     0.173 A 
ATOM     92  C   UNL A   1      45.293  29.543  34.962  1.00  0.00     0.173 A 
ATOM     93  F   UNL A   1      42.820  27.371  36.514  1.00  0.00    -0.203 F 
ATOM     94  C   UNL A   1      45.157  27.449  36.779  1.00  0.00     0.198 A 
ATOM     95  C   UNL A   1      46.456  29.040  35.536  1.00  0.00     0.198 A 
ATOM     96  F   UNL A   1      45.390  30.560  34.092  1.00  0.00    -0.203 F 
ATOM     97  F   UNL A   1      45.085  26.469  37.689  1.00  0.00    -0.200 F 
ATOM     98  C   UNL A   1      46.386  28.003  36.452  1.00  0.00     0.200 A 
ATOM     99  F   UNL A   1      47.644  29.565  35.204  1.00  0.00    -0.200 F 
ATOM    100  F   UNL A   1      47.505  27.541  37.029  1.00  0.00    -0.200 F 
ENDBRANCH  67  90
ENDBRANCH  41  42
ENDBRANCH  33  36
ENDBRANCH  31  32
ENDBRANCH  30  31
ENDBRANCH  29  30
ENDBRANCH   1  29
TORSDOF 17
ENDMDL
MODEL 3
REMARK VINA RESULT:     -12.2      2.785      8.134
REMARK SMILES CCc1ccc(OCC(=O)Nc2cc(C)c(O)c(C(=O)NCCCCNC(=O)c3ccc(-c4c5nc(c(-c6c(F)c(F)c(F)c(F)c6F)c6ccc([nH]6)c(-c6c(F)c(F)c(F)c(F)c6F)c6nc(c(-c7c(F)c(F)c(F)c(F)c7F)c7ccc4[nH]7)C=C6)C=C5)cc3)c2)cc1
REMARK SMILES IDX 22 1 21 2 19 3 20 4 18 6 12 7 13 8 92 9 14 10 15 11 16 12
REMARK SMILES IDX 11 13 9 14 10 15 8 17 7 18 6 19 3 20 4 21 94 22 5 23 93 24
REMARK SMILES IDX 2 25 1 26 17 27 23 29 24 30 25 31 26 32 27 33 28 35 29 36
REMARK SMILES IDX 30 37 91 38 31 39 90 40 32 41 33 42 34 43 84 44 35 45 89 46
REMARK SMILES IDX 83 47 85 48 36 49 88 50 82 51 81 52 37 54 69 55 49 56 68 57
REMARK SMILES IDX 50 58 53 59 67 60 86 61 51 62 52 63 66 65 87 66 54 67 38 68
REMARK SMILES IDX 39 69 47 70 40 71 41 72 45 73 48 74 42 75 43 76 46 77 44 78
REMARK SMILES IDX 70 79 71 80 79 81 72 82 73 83 77 84 80 85 74 86 75 87 78 88
REMARK SMILES IDX 76 89 55 90 56 91 64 92 57 93 58 94 62 95 65 96 59 97 60 98
REMARK SMILES IDX 63 99 61 100
REMARK H PARENT 21 5 11 16 17 28 26 34 85 53 53 64
REMARK Flexibility Score: inf
ROOT
ATOM      1  C   UNL A   1      35.371  21.287  25.905  1.00  0.00     0.116 C 
ENDROOT
BRANCH   1   2
ATOM      2  N   UNL A   1      34.314  20.321  25.840  1.00  0.00    -0.352 N 
ATOM      3  C   UNL A   1      33.085  20.437  25.233  1.00  0.00     0.255 C 
ATOM      4  O   UNL A   1      32.326  19.466  25.307  1.00  0.00    -0.269 OA
ATOM      5  H   UNL A   1      34.491  19.463  26.288  1.00  0.00     0.163 HD
BRANCH   3   6
ATOM      6  C   UNL A   1      32.561  21.696  24.594  1.00  0.00     0.083 A 
ATOM      7  C   UNL A   1      32.372  23.346  22.795  1.00  0.00     0.042 A 
ATOM      8  C   UNL A   1      31.616  24.152  23.664  1.00  0.00     0.033 A 
ATOM      9  C   UNL A   1      32.800  22.090  23.248  1.00  0.00     0.043 A 
ATOM     10  C   UNL A   1      31.284  23.752  24.963  1.00  0.00    -0.006 A 
ATOM     11  C   UNL A   1      30.403  24.646  25.789  1.00  0.00     0.048 C 
ATOM     12  C   UNL A   1      31.771  22.528  25.422  1.00  0.00     0.131 A 
BRANCH   7  13
ATOM     13  N   UNL A   1      32.670  23.971  21.567  1.00  0.00    -0.323 N 
ATOM     14  C   UNL A   1      32.853  25.229  21.087  1.00  0.00     0.262 C 
ATOM     15  O   UNL A   1      32.971  25.342  19.860  1.00  0.00    -0.271 OA
ATOM     16  H   UNL A   1      32.775  23.304  20.851  1.00  0.00     0.170 HD
BRANCH  14  17
ATOM     17  C   UNL A   1      33.027  26.450  21.969  1.00  0.00     0.329 C 
BRANCH  17  18
ATOM     18  O   UNL A   1      34.022  26.432  22.962  1.00  0.00    -0.484 OA
BRANCH  18  19
ATOM     19  C   UNL A   1      33.804  27.084  24.136  1.00  0.00     0.120 A 
ATOM     20  C   UNL A   1      32.797  28.732  26.199  1.00  0.00    -0.048 A 
ATOM     21  C   UNL A   1      32.951  29.228  24.918  1.00  0.00     0.007 A 
ATOM     22  C   UNL A   1      33.245  27.422  26.459  1.00  0.00     0.007 A 
ATOM     23  C   UNL A   1      33.445  28.399  23.929  1.00  0.00     0.047 A 
ATOM     24  C   UNL A   1      33.751  26.593  25.427  1.00  0.00     0.047 A 
BRANCH  20  25
ATOM     25  C   UNL A   1      32.033  29.587  27.177  1.00  0.00     0.032 C 
ATOM     26  C   UNL A   1      32.018  31.063  26.843  1.00  0.00     0.009 C 
ENDBRANCH  20  25
ENDBRANCH  18  19
ENDBRANCH  17  18
ENDBRANCH  14  17
ENDBRANCH   7  13
BRANCH  12  27
ATOM     27  O   UNL A   1      31.452  22.192  26.716  1.00  0.00    -0.507 OA
ATOM     28  H   UNL A   1      31.053  22.825  27.280  1.00  0.00     0.293 HD
ENDBRANCH  12  27
ENDBRANCH   3   6
ENDBRANCH   1   2
BRANCH   1  29
ATOM     29  C   UNL A   1      36.436  21.214  24.813  1.00  0.00     0.023 C 
BRANCH  29  30
ATOM     30  C   UNL A   1      37.610  20.232  24.946  1.00  0.00     0.023 C 
BRANCH  30  31
ATOM     31  C   UNL A   1      38.867  20.577  25.749  1.00  0.00     0.116 C 
BRANCH  31  32
ATOM     32  N   UNL A   1      39.902  19.548  25.842  1.00  0.00    -0.352 N 
ATOM     33  C   UNL A   1      41.261  19.611  26.079  1.00  0.00     0.251 C 
ATOM     34  H   UNL A   1      39.564  18.632  25.710  1.00  0.00     0.163 HD
ATOM     35  O   UNL A   1      41.962  18.615  25.993  1.00  0.00    -0.269 OA
BRANCH  33  36
ATOM     36  C   UNL A   1      41.880  20.891  26.460  1.00  0.00     0.039 A 
ATOM     37  C   UNL A   1      42.310  21.786  25.476  1.00  0.00     0.014 A 
ATOM     38  C   UNL A   1      42.043  21.192  27.807  1.00  0.00     0.014 A 
ATOM     39  C   UNL A   1      42.807  23.032  25.859  1.00  0.00     0.010 A 
ATOM     40  C   UNL A   1      42.382  22.476  28.180  1.00  0.00     0.010 A 
ATOM     41  C   UNL A   1      42.794  23.399  27.214  1.00  0.00    -0.014 A 
BRANCH  41  42
ATOM     42  C   UNL A   1      43.248  24.726  27.679  1.00  0.00     0.031 A 
ATOM     43  C   UNL A   1      42.221  25.768  28.026  1.00  0.00     0.074 A 
ATOM     44  C   UNL A   1      44.561  25.015  27.671  1.00  0.00     0.049 A 
ATOM     45  N   UNL A   1      42.387  27.032  28.320  1.00  0.00    -0.248 NA
ATOM     46  C   UNL A   1      40.810  25.345  27.978  1.00  0.00     0.031 C 
ATOM     47  C   UNL A   1      45.632  24.093  27.284  1.00  0.00     0.029 A 
ATOM     48  N   UNL A   1      45.220  26.173  27.989  1.00  0.00    -0.354 N 
ATOM     49  C   UNL A   1      41.107  27.550  28.465  1.00  0.00     0.074 A 
ATOM     50  C   UNL A   1      40.177  26.496  28.131  1.00  0.00     0.031 C 
ATOM     51  C   UNL A   1      46.816  24.706  27.435  1.00  0.00     0.029 A 
ATOM     52  C   UNL A   1      46.585  26.074  27.883  1.00  0.00     0.049 A 
ATOM     53  H   UNL A   1      44.759  26.996  28.268  1.00  0.00     0.167 HD
ATOM     54  C   UNL A   1      40.740  28.784  28.883  1.00  0.00     0.037 A 
ATOM     55  C   UNL A   1      47.535  26.994  28.130  1.00  0.00     0.037 A 
ATOM     56  C   UNL A   1      41.684  29.808  29.237  1.00  0.00     0.049 A 
ATOM     57  C   UNL A   1      47.106  28.358  28.598  1.00  0.00     0.074 A 
ATOM     58  C   UNL A   1      41.444  31.082  29.714  1.00  0.00     0.029 A 
ATOM     59  N   UNL A   1      43.064  29.662  29.153  1.00  0.00    -0.354 N 
ATOM     60  N   UNL A   1      45.896  28.824  28.797  1.00  0.00    -0.248 NA
ATOM     61  C   UNL A   1      48.176  29.318  28.888  1.00  0.00     0.031 C 
ATOM     62  C   UNL A   1      42.677  31.725  29.875  1.00  0.00     0.029 A 
ATOM     63  C   UNL A   1      43.688  30.828  29.559  1.00  0.00     0.049 A 
ATOM     64  H   UNL A   1      43.529  28.849  28.849  1.00  0.00     0.167 HD
ATOM     65  C   UNL A   1      46.057  30.116  29.277  1.00  0.00     0.074 A 
ATOM     66  C   UNL A   1      47.487  30.353  29.347  1.00  0.00     0.031 C 
ATOM     67  C   UNL A   1      45.115  31.024  29.634  1.00  0.00     0.037 A 
BRANCH  54  68
ATOM     68  C   UNL A   1      39.267  29.068  28.981  1.00  0.00     0.064 A 
ATOM     69  C   UNL A   1      38.507  29.424  27.852  1.00  0.00     0.173 A 
ATOM     70  C   UNL A   1      38.606  29.005  30.216  1.00  0.00     0.173 A 
ATOM     71  F   UNL A   1      39.088  29.516  26.647  1.00  0.00    -0.203 F 
ATOM     72  C   UNL A   1      37.160  29.758  27.968  1.00  0.00     0.198 A 
ATOM     73  C   UNL A   1      37.247  29.299  30.321  1.00  0.00     0.198 A 
ATOM     74  F   UNL A   1      39.278  28.668  31.328  1.00  0.00    -0.203 F 
ATOM     75  F   UNL A   1      36.480  30.174  26.891  1.00  0.00    -0.200 F 
ATOM     76  C   UNL A   1      36.530  29.689  29.200  1.00  0.00     0.200 A 
ATOM     77  F   UNL A   1      36.637  29.220  31.510  1.00  0.00    -0.200 F 
ATOM     78  F   UNL A   1      35.234  30.013  29.311  1.00  0.00    -0.200 F 
ENDBRANCH  54  68
BRANCH  55  79
ATOM     79  C   UNL A   1      48.972  26.631  28.013  1.00  0.00     0.064 A 
ATOM     80  C   UNL A   1      49.600  26.606  26.760  1.00  0.00     0.173 A 
ATOM     81  C   UNL A   1      49.749  26.316  29.137  1.00  0.00     0.173 A 
ATOM     82  F   UNL A   1      48.897  26.891  25.653  1.00  0.00    -0.203 F 
ATOM     83  C   UNL A   1      50.942  26.255  26.631  1.00  0.00     0.198 A 
ATOM     84  C   UNL A   1      51.099  25.993  29.011  1.00  0.00     0.198 A 
ATOM     85  F   UNL A   1      49.202  26.338  30.360  1.00  0.00    -0.203 F 
ATOM     86  F   UNL A   1      51.504  26.195  25.416  1.00  0.00    -0.200 F 
ATOM     87  C   UNL A   1      51.692  25.953  27.758  1.00  0.00     0.200 A 
ATOM     88  F   UNL A   1      51.826  25.721  30.103  1.00  0.00    -0.200 F 
ATOM     89  F   UNL A   1      52.984  25.620  27.634  1.00  0.00    -0.200 F 
ENDBRANCH  55  79
BRANCH  67  90
ATOM     90  C   UNL A   1      45.603  32.328  30.194  1.00  0.00     0.064 A 
ATOM     91  C   UNL A   1      45.874  32.498  31.559  1.00  0.00     0.173 A 
ATOM     92  C   UNL A   1      45.832  33.417  29.337  1.00  0.00     0.173 A 
ATOM     93  F   UNL A   1      45.659  31.492  32.420  1.00  0.00    -0.203 F 
ATOM     94  C   UNL A   1      46.319  33.720  32.052  1.00  0.00     0.198 A 
ATOM     95  C   UNL A   1      46.314  34.625  29.828  1.00  0.00     0.198 A 
ATOM     96  F   UNL A   1      45.599  33.303  28.021  1.00  0.00    -0.203 F 
ATOM     97  F   UNL A   1      46.511  33.879  33.369  1.00  0.00    -0.200 F 
ATOM     98  C   UNL A   1      46.546  34.780  31.185  1.00  0.00     0.200 A 
ATOM     99  F   UNL A   1      46.551  35.641  28.987  1.00  0.00    -0.200 F 
ATOM    100  F   UNL A   1      46.981  35.955  31.662  1.00  0.00    -0.200 F 
ENDBRANCH  67  90
ENDBRANCH  41  42
ENDBRANCH  33  36
ENDBRANCH  31  32
ENDBRANCH  30  31
ENDBRANCH  29  30
ENDBRANCH   1  29
TORSDOF 17
ENDMDL
