MODEL 1
REMARK VINA RESULT:     -12.0      0.000      0.000
REMARK SMILES C[NH2+][C@@]1(C(=O)NCCCCNC(=O)c2ccc(-c3c4nc(c(-c5c(F)c(F)c(F)c(F)c5F)c5ccc([nH]5)c(-c5c(F)c(F)c(F)c(F)c5F)c5nc(c(-c6c(F)c(F)c(F)c(F)c6F)c6ccc3[nH]6)C=C5)C=C4)cc2)CC[C@H](Sc2nccc(=O)[nH]2)C1
REMARK SMILES IDX 8 1 7 2 6 3 4 4 5 5 3 7 77 8 88 9 78 10 79 11 2 12 1 13
REMARK SMILES IDX 80 16 81 17 82 18 87 19 83 20 85 21 84 23 86 24 9 25 10 26
REMARK SMILES IDX 11 27 12 28 13 30 14 31 15 32 76 33 16 34 75 35 17 36 18 37
REMARK SMILES IDX 19 38 69 39 20 40 74 41 68 42 70 43 21 44 73 45 67 46 66 47
REMARK SMILES IDX 22 49 54 50 34 51 53 52 35 53 38 54 52 55 71 56 36 57 37 58
REMARK SMILES IDX 51 60 72 61 39 62 23 63 24 64 32 65 25 66 26 67 30 68 33 69
REMARK SMILES IDX 27 70 28 71 31 72 29 73 55 74 56 75 64 76 57 77 58 78 62 79
REMARK SMILES IDX 65 80 59 81 60 82 63 83 61 84 40 85 41 86 49 87 42 88 43 89
REMARK SMILES IDX 47 90 50 91 44 92 45 93 48 94 46 95
REMARK H PARENT 6 6 2 14 2 15 87 22 11 29 70 48 38 59
REMARK Flexibility Score: inf
ROOT
ATOM      1  C   UNL A   1      39.073  22.957  26.403  1.00  0.00     0.023 C 
ENDROOT
BRANCH   1   2
ATOM      2  C   UNL A   1      37.865  23.709  25.872  1.00  0.00     0.116 C 
BRANCH   2   3
ATOM      3  N   UNL A   1      37.456  23.324  24.546  1.00  0.00    -0.351 N 
ATOM      4  C   UNL A   1      36.213  23.240  23.988  1.00  0.00     0.281 C 
ATOM      5  O   UNL A   1      36.218  23.197  22.751  1.00  0.00    -0.268 OA
ATOM      6  H   UNL A   1      38.196  23.082  23.942  1.00  0.00     0.163 HD
BRANCH   4   7
ATOM      7  C   UNL A   1      34.870  23.255  24.828  1.00  0.00     0.176 C 
ATOM      8  C   UNL A   1      35.004  22.323  26.057  1.00  0.00     0.080 C 
ATOM      9  C   UNL A   1      33.616  22.751  24.071  1.00  0.00     0.094 C 
ATOM     10  C   UNL A   1      34.169  21.080  25.791  1.00  0.00     0.022 C 
ATOM     11  C   UNL A   1      33.049  21.549  24.868  1.00  0.00     0.062 C 
BRANCH   7  12
ATOM     12  N   UNL A   1      34.572  24.612  25.392  1.00  0.00    -0.336 N 
ATOM     13  C   UNL A   1      33.220  25.126  25.192  1.00  0.00     0.331 C 
ATOM     14  H   UNL A   1      34.741  24.573  26.397  1.00  0.00     0.346 HD
ATOM     15  H   UNL A   1      35.180  25.252  24.881  1.00  0.00     0.346 HD
ENDBRANCH   7  12
BRANCH  11  16
ATOM     16  S   UNL A   1      32.210  20.369  23.747  1.00  0.00    -0.084 SA
BRANCH  16  17
ATOM     17  C   UNL A   1      32.574  18.761  24.286  1.00  0.00     0.168 A 
ATOM     18  N   UNL A   1      32.155  18.246  25.392  1.00  0.00    -0.233 NA
ATOM     19  N   UNL A   1      33.335  18.086  23.378  1.00  0.00    -0.301 N 
ATOM     20  C   UNL A   1      32.527  16.945  25.638  1.00  0.00     0.120 A 
ATOM     21  C   UNL A   1      33.723  16.792  23.564  1.00  0.00     0.251 A 
ATOM     22  H   UNL A   1      33.615  18.551  22.557  1.00  0.00     0.172 HD
ATOM     23  C   UNL A   1      33.265  16.187  24.822  1.00  0.00     0.091 A 
ATOM     24  O   UNL A   1      34.403  16.181  22.751  1.00  0.00    -0.269 OA
ENDBRANCH  16  17
ENDBRANCH  11  16
ENDBRANCH   4   7
ENDBRANCH   2   3
ENDBRANCH   1   2
BRANCH   1  25
ATOM     25  C   UNL A   1      39.268  21.561  25.837  1.00  0.00     0.023 C 
BRANCH  25  26
ATOM     26  C   UNL A   1      39.651  20.490  26.848  1.00  0.00     0.116 C 
BRANCH  26  27
ATOM     27  N   UNL A   1      40.460  19.394  26.317  1.00  0.00    -0.352 N 
ATOM     28  C   UNL A   1      41.822  19.354  26.127  1.00  0.00     0.251 C 
ATOM     29  H   UNL A   1      39.966  18.581  26.063  1.00  0.00     0.163 HD
ATOM     30  O   UNL A   1      42.386  18.348  25.729  1.00  0.00    -0.269 OA
BRANCH  28  31
ATOM     31  C   UNL A   1      42.587  20.584  26.393  1.00  0.00     0.039 A 
ATOM     32  C   UNL A   1      43.045  21.346  25.317  1.00  0.00     0.014 A 
ATOM     33  C   UNL A   1      42.707  21.042  27.707  1.00  0.00     0.014 A 
ATOM     34  C   UNL A   1      43.550  22.624  25.556  1.00  0.00     0.010 A 
ATOM     35  C   UNL A   1      43.114  22.347  27.929  1.00  0.00     0.010 A 
ATOM     36  C   UNL A   1      43.541  23.152  26.857  1.00  0.00    -0.014 A 
BRANCH  36  37
ATOM     37  C   UNL A   1      43.992  24.534  27.148  1.00  0.00     0.031 A 
ATOM     38  C   UNL A   1      42.999  25.531  27.673  1.00  0.00     0.074 A 
ATOM     39  C   UNL A   1      45.247  24.916  26.845  1.00  0.00     0.049 A 
ATOM     40  N   UNL A   1      43.124  26.822  27.838  1.00  0.00    -0.248 NA
ATOM     41  C   UNL A   1      41.663  25.011  28.009  1.00  0.00     0.031 C 
ATOM     42  C   UNL A   1      46.287  24.055  26.277  1.00  0.00     0.029 A 
ATOM     43  N   UNL A   1      45.858  26.140  26.956  1.00  0.00    -0.354 N 
ATOM     44  C   UNL A   1      41.878  27.268  28.256  1.00  0.00     0.074 A 
ATOM     45  C   UNL A   1      40.995  26.124  28.263  1.00  0.00     0.031 C 
ATOM     46  C   UNL A   1      47.411  24.772  26.111  1.00  0.00     0.029 A 
ATOM     47  C   UNL A   1      47.161  26.149  26.523  1.00  0.00     0.049 A 
ATOM     48  H   UNL A   1      45.404  26.938  27.313  1.00  0.00     0.167 HD
ATOM     49  C   UNL A   1      41.511  28.516  28.629  1.00  0.00     0.037 A 
ATOM     50  C   UNL A   1      48.050  27.160  26.461  1.00  0.00     0.037 A 
ATOM     51  C   UNL A   1      42.410  29.637  28.676  1.00  0.00     0.049 A 
ATOM     52  C   UNL A   1      47.629  28.530  26.922  1.00  0.00     0.074 A 
ATOM     53  C   UNL A   1      42.163  30.926  29.111  1.00  0.00     0.029 A 
ATOM     54  N   UNL A   1      43.741  29.592  28.286  1.00  0.00    -0.354 N 
ATOM     55  N   UNL A   1      46.464  28.930  27.371  1.00  0.00    -0.248 NA
ATOM     56  C   UNL A   1      48.649  29.586  26.876  1.00  0.00     0.031 C 
ATOM     57  C   UNL A   1      43.336  31.671  28.954  1.00  0.00     0.029 A 
ATOM     58  C   UNL A   1      44.326  30.834  28.461  1.00  0.00     0.049 A 
ATOM     59  H   UNL A   1      44.201  28.795  27.935  1.00  0.00     0.167 HD
ATOM     60  C   UNL A   1      46.617  30.274  27.685  1.00  0.00     0.074 A 
ATOM     61  C   UNL A   1      47.992  30.617  27.389  1.00  0.00     0.031 C 
ATOM     62  C   UNL A   1      45.702  31.147  28.173  1.00  0.00     0.037 A 
BRANCH  49  63
ATOM     63  C   UNL A   1      40.079  28.725  29.027  1.00  0.00     0.064 A 
ATOM     64  C   UNL A   1      39.104  29.110  28.093  1.00  0.00     0.173 A 
ATOM     65  C   UNL A   1      39.673  28.530  30.354  1.00  0.00     0.173 A 
ATOM     66  F   UNL A   1      39.443  29.328  26.813  1.00  0.00    -0.203 F 
ATOM     67  C   UNL A   1      37.785  29.326  28.481  1.00  0.00     0.198 A 
ATOM     68  C   UNL A   1      38.345  28.714  30.733  1.00  0.00     0.198 A 
ATOM     69  F   UNL A   1      40.564  28.159  31.287  1.00  0.00    -0.203 F 
ATOM     70  F   UNL A   1      36.885  29.752  27.583  1.00  0.00    -0.200 F 
ATOM     71  C   UNL A   1      37.406  29.122  29.799  1.00  0.00     0.200 A 
ATOM     72  F   UNL A   1      37.978  28.506  32.005  1.00  0.00    -0.200 F 
ATOM     73  F   UNL A   1      36.134  29.328  30.171  1.00  0.00    -0.200 F 
ENDBRANCH  49  63
BRANCH  50  74
ATOM     74  C   UNL A   1      49.432  26.910  25.978  1.00  0.00     0.064 A 
ATOM     75  C   UNL A   1      50.443  26.523  26.871  1.00  0.00     0.173 A 
ATOM     76  C   UNL A   1      49.777  27.054  24.627  1.00  0.00     0.173 A 
ATOM     77  F   UNL A   1      50.166  26.392  28.177  1.00  0.00    -0.203 F 
ATOM     78  C   UNL A   1      51.748  26.309  26.434  1.00  0.00     0.198 A 
ATOM     79  C   UNL A   1      51.078  26.815  24.186  1.00  0.00     0.198 A 
ATOM     80  F   UNL A   1      48.847  27.417  23.731  1.00  0.00    -0.203 F 
ATOM     81  F   UNL A   1      52.702  25.984  27.316  1.00  0.00    -0.200 F 
ATOM     82  C   UNL A   1      52.064  26.451  25.092  1.00  0.00     0.200 A 
ATOM     83  F   UNL A   1      51.376  26.940  22.886  1.00  0.00    -0.200 F 
ATOM     84  F   UNL A   1      53.319  26.243  24.671  1.00  0.00    -0.200 F 
ENDBRANCH  50  74
BRANCH  62  85
ATOM     85  C   UNL A   1      46.168  32.544  28.455  1.00  0.00     0.064 A 
ATOM     86  C   UNL A   1      46.077  33.557  27.491  1.00  0.00     0.173 A 
ATOM     87  C   UNL A   1      46.667  32.880  29.723  1.00  0.00     0.173 A 
ATOM     88  F   UNL A   1      45.618  33.280  26.261  1.00  0.00    -0.203 F 
ATOM     89  C   UNL A   1      46.489  34.855  27.779  1.00  0.00     0.198 A 
ATOM     90  C   UNL A   1      47.053  34.185  30.015  1.00  0.00     0.198 A 
ATOM     91  F   UNL A   1      46.767  31.946  30.680  1.00  0.00    -0.203 F 
ATOM     92  F   UNL A   1      46.433  35.799  26.830  1.00  0.00    -0.200 F 
ATOM     93  C   UNL A   1      46.970  35.169  29.042  1.00  0.00     0.200 A 
ATOM     94  F   UNL A   1      47.506  34.489  31.240  1.00  0.00    -0.200 F 
ATOM     95  F   UNL A   1      47.360  36.421  29.320  1.00  0.00    -0.200 F 
ENDBRANCH  62  85
ENDBRANCH  36  37
ENDBRANCH  28  31
ENDBRANCH  26  27
ENDBRANCH  25  26
ENDBRANCH   1  25
TORSDOF 14
ENDMDL
MODEL 2
REMARK VINA RESULT:     -12.0      0.617      7.557
REMARK SMILES C[NH2+][C@@]1(C(=O)NCCCCNC(=O)c2ccc(-c3c4nc(c(-c5c(F)c(F)c(F)c(F)c5F)c5ccc([nH]5)c(-c5c(F)c(F)c(F)c(F)c5F)c5nc(c(-c6c(F)c(F)c(F)c(F)c6F)c6ccc3[nH]6)C=C5)C=C4)cc2)CC[C@H](Sc2nccc(=O)[nH]2)C1
REMARK SMILES IDX 8 1 7 2 6 3 4 4 5 5 3 7 77 8 88 9 78 10 79 11 2 12 1 13
REMARK SMILES IDX 80 16 81 17 82 18 87 19 83 20 85 21 84 23 86 24 9 25 10 26
REMARK SMILES IDX 11 27 12 28 13 30 14 31 15 32 76 33 16 34 75 35 17 36 18 37
REMARK SMILES IDX 19 38 69 39 20 40 74 41 68 42 70 43 21 44 73 45 67 46 66 47
REMARK SMILES IDX 22 49 54 50 34 51 53 52 35 53 38 54 52 55 71 56 36 57 37 58
REMARK SMILES IDX 51 60 72 61 39 62 23 63 24 64 32 65 25 66 26 67 30 68 33 69
REMARK SMILES IDX 27 70 28 71 31 72 29 73 55 74 56 75 64 76 57 77 58 78 62 79
REMARK SMILES IDX 65 80 59 81 60 82 63 83 61 84 40 85 41 86 49 87 42 88 43 89
REMARK SMILES IDX 47 90 50 91 44 92 45 93 48 94 46 95
REMARK H PARENT 6 6 2 14 2 15 87 22 11 29 70 48 38 59
REMARK Flexibility Score: inf
ROOT
ATOM      1  C   UNL A   1      39.243  22.640  26.521  1.00  0.00     0.023 C 
ENDROOT
BRANCH   1   2
ATOM      2  C   UNL A   1      38.115  23.464  25.924  1.00  0.00     0.116 C 
BRANCH   2   3
ATOM      3  N   UNL A   1      37.719  23.063  24.598  1.00  0.00    -0.351 N 
ATOM      4  C   UNL A   1      36.489  23.035  24.008  1.00  0.00     0.281 C 
ATOM      5  O   UNL A   1      36.524  22.955  22.774  1.00  0.00    -0.268 OA
ATOM      6  H   UNL A   1      38.458  22.760  24.023  1.00  0.00     0.163 HD
BRANCH   4   7
ATOM      7  C   UNL A   1      35.126  23.156  24.809  1.00  0.00     0.176 C 
ATOM      8  C   UNL A   1      35.170  22.252  26.065  1.00  0.00     0.080 C 
ATOM      9  C   UNL A   1      33.865  22.709  24.029  1.00  0.00     0.094 C 
ATOM     10  C   UNL A   1      34.267  21.055  25.807  1.00  0.00     0.022 C 
ATOM     11  C   UNL A   1      33.203  21.566  24.840  1.00  0.00     0.062 C 
BRANCH   7  12
ATOM     12  N   UNL A   1      34.898  24.544  25.329  1.00  0.00    -0.336 N 
ATOM     13  C   UNL A   1      33.610  24.806  25.964  1.00  0.00     0.331 C 
ATOM     14  H   UNL A   1      35.626  24.740  26.016  1.00  0.00     0.346 HD
ATOM     15  H   UNL A   1      34.917  25.143  24.504  1.00  0.00     0.346 HD
ENDBRANCH   7  12
BRANCH  11  16
ATOM     16  S   UNL A   1      32.323  20.410  23.727  1.00  0.00    -0.084 SA
BRANCH  16  17
ATOM     17  C   UNL A   1      32.638  18.793  24.271  1.00  0.00     0.168 A 
ATOM     18  N   UNL A   1      32.197  18.292  25.375  1.00  0.00    -0.233 NA
ATOM     19  N   UNL A   1      33.384  18.094  23.369  1.00  0.00    -0.301 N 
ATOM     20  C   UNL A   1      32.530  16.981  25.626  1.00  0.00     0.120 A 
ATOM     21  C   UNL A   1      33.734  16.790  23.559  1.00  0.00     0.251 A 
ATOM     22  H   UNL A   1      33.683  18.550  22.548  1.00  0.00     0.172 HD
ATOM     23  C   UNL A   1      33.251  16.201  24.815  1.00  0.00     0.091 A 
ATOM     24  O   UNL A   1      34.401  16.158  22.751  1.00  0.00    -0.269 OA
ENDBRANCH  16  17
ENDBRANCH  11  16
ENDBRANCH   4   7
ENDBRANCH   2   3
ENDBRANCH   1   2
BRANCH   1  25
ATOM     25  C   UNL A   1      39.466  21.284  25.877  1.00  0.00     0.023 C 
BRANCH  25  26
ATOM     26  C   UNL A   1      40.024  20.205  26.795  1.00  0.00     0.116 C 
BRANCH  26  27
ATOM     27  N   UNL A   1      40.952  19.269  26.162  1.00  0.00    -0.352 N 
ATOM     28  C   UNL A   1      42.279  19.462  25.851  1.00  0.00     0.251 C 
ATOM     29  H   UNL A   1      40.580  18.388  25.928  1.00  0.00     0.163 HD
ATOM     30  O   UNL A   1      42.963  18.571  25.375  1.00  0.00    -0.269 OA
BRANCH  28  31
ATOM     31  C   UNL A   1      42.849  20.800  26.086  1.00  0.00     0.039 A 
ATOM     32  C   UNL A   1      43.042  21.655  25.000  1.00  0.00     0.014 A 
ATOM     33  C   UNL A   1      43.040  21.240  27.397  1.00  0.00     0.014 A 
ATOM     34  C   UNL A   1      43.347  22.995  25.238  1.00  0.00     0.010 A 
ATOM     35  C   UNL A   1      43.242  22.590  27.630  1.00  0.00     0.010 A 
ATOM     36  C   UNL A   1      43.399  23.482  26.554  1.00  0.00    -0.014 A 
BRANCH  36  37
ATOM     37  C   UNL A   1      43.639  24.914  26.854  1.00  0.00     0.031 A 
ATOM     38  C   UNL A   1      45.011  25.486  26.639  1.00  0.00     0.074 A 
ATOM     39  C   UNL A   1      42.668  25.662  27.411  1.00  0.00     0.049 A 
ATOM     40  N   UNL A   1      45.490  26.652  26.984  1.00  0.00    -0.248 NA
ATOM     41  C   UNL A   1      45.995  24.602  25.990  1.00  0.00     0.031 C 
ATOM     42  C   UNL A   1      41.312  25.205  27.723  1.00  0.00     0.029 A 
ATOM     43  N   UNL A   1      42.681  26.968  27.834  1.00  0.00    -0.354 N 
ATOM     44  C   UNL A   1      46.833  26.624  26.633  1.00  0.00     0.074 A 
ATOM     45  C   UNL A   1      47.108  25.308  26.102  1.00  0.00     0.031 C 
ATOM     46  C   UNL A   1      40.618  26.220  28.265  1.00  0.00     0.029 A 
ATOM     47  C   UNL A   1      41.490  27.385  28.377  1.00  0.00     0.049 A 
ATOM     48  H   UNL A   1      43.470  27.552  27.757  1.00  0.00     0.167 HD
ATOM     49  C   UNL A   1      47.748  27.617  26.720  1.00  0.00     0.037 A 
ATOM     50  C   UNL A   1      41.146  28.574  28.909  1.00  0.00     0.037 A 
ATOM     51  C   UNL A   1      47.452  28.942  27.193  1.00  0.00     0.049 A 
ATOM     52  C   UNL A   1      42.170  29.677  28.953  1.00  0.00     0.074 A 
ATOM     53  C   UNL A   1      48.284  30.045  27.251  1.00  0.00     0.029 A 
ATOM     54  N   UNL A   1      46.215  29.344  27.679  1.00  0.00    -0.354 N 
ATOM     55  N   UNL A   1      43.422  29.659  28.566  1.00  0.00    -0.248 NA
ATOM     56  C   UNL A   1      41.730  30.967  29.502  1.00  0.00     0.031 C 
ATOM     57  C   UNL A   1      47.560  31.108  27.801  1.00  0.00     0.029 A 
ATOM     58  C   UNL A   1      46.265  30.677  28.047  1.00  0.00     0.049 A 
ATOM     59  H   UNL A   1      45.421  28.766  27.752  1.00  0.00     0.167 HD
ATOM     60  C   UNL A   1      43.912  30.937  28.798  1.00  0.00     0.074 A 
ATOM     61  C   UNL A   1      42.817  31.709  29.347  1.00  0.00     0.031 C 
ATOM     62  C   UNL A   1      45.156  31.428  28.578  1.00  0.00     0.037 A 
BRANCH  49  63
ATOM     63  C   UNL A   1      49.148  27.307  26.278  1.00  0.00     0.064 A 
ATOM     64  C   UNL A   1      50.131  26.885  27.187  1.00  0.00     0.173 A 
ATOM     65  C   UNL A   1      49.512  27.424  24.929  1.00  0.00     0.173 A 
ATOM     66  F   UNL A   1      49.840  26.774  28.493  1.00  0.00    -0.203 F 
ATOM     67  C   UNL A   1      51.433  26.626  26.768  1.00  0.00     0.198 A 
ATOM     68  C   UNL A   1      50.806  27.131  24.507  1.00  0.00     0.198 A 
ATOM     69  F   UNL A   1      48.611  27.821  24.017  1.00  0.00    -0.203 F 
ATOM     70  F   UNL A   1      52.368  26.283  27.665  1.00  0.00    -0.200 F 
ATOM     71  C   UNL A   1      51.767  26.743  25.428  1.00  0.00     0.200 A 
ATOM     72  F   UNL A   1      51.126  27.235  23.210  1.00  0.00    -0.200 F 
ATOM     73  F   UNL A   1      53.021  26.491  25.025  1.00  0.00    -0.200 F 
ENDBRANCH  49  63
BRANCH  50  74
ATOM     74  C   UNL A   1      39.765  28.796  29.408  1.00  0.00     0.064 A 
ATOM     75  C   UNL A   1      38.748  29.216  28.537  1.00  0.00     0.173 A 
ATOM     76  C   UNL A   1      39.429  28.602  30.755  1.00  0.00     0.173 A 
ATOM     77  F   UNL A   1      39.025  29.435  27.243  1.00  0.00    -0.203 F 
ATOM     78  C   UNL A   1      37.455  29.451  28.998  1.00  0.00     0.198 A 
ATOM     79  C   UNL A   1      38.128  28.814  31.211  1.00  0.00     0.198 A 
ATOM     80  F   UNL A   1      40.362  28.196  31.629  1.00  0.00    -0.203 F 
ATOM     81  F   UNL A   1      36.515  29.894  28.152  1.00  0.00    -0.200 F 
ATOM     82  C   UNL A   1      37.144  29.245  30.333  1.00  0.00     0.200 A 
ATOM     83  F   UNL A   1      37.829  28.601  32.499  1.00  0.00    -0.200 F 
ATOM     84  F   UNL A   1      35.900  29.470  30.776  1.00  0.00    -0.200 F 
ENDBRANCH  50  74
BRANCH  62  85
ATOM     85  C   UNL A   1      45.388  32.875  28.892  1.00  0.00     0.064 A 
ATOM     86  C   UNL A   1      45.906  33.284  30.130  1.00  0.00     0.173 A 
ATOM     87  C   UNL A   1      45.133  33.859  27.925  1.00  0.00     0.173 A 
ATOM     88  F   UNL A   1      46.153  32.380  31.090  1.00  0.00    -0.203 F 
ATOM     89  C   UNL A   1      46.141  34.630  30.395  1.00  0.00     0.198 A 
ATOM     90  C   UNL A   1      45.395  35.201  28.185  1.00  0.00     0.198 A 
ATOM     91  F   UNL A   1      44.644  33.517  26.724  1.00  0.00    -0.203 F 
ATOM     92  F   UNL A   1      46.596  35.004  31.599  1.00  0.00    -0.200 F 
ATOM     93  C   UNL A   1      45.892  35.586  29.421  1.00  0.00     0.200 A 
ATOM     94  F   UNL A   1      45.165  36.122  27.239  1.00  0.00    -0.200 F 
ATOM     95  F   UNL A   1      46.125  36.881  29.676  1.00  0.00    -0.200 F 
ENDBRANCH  62  85
ENDBRANCH  36  37
ENDBRANCH  28  31
ENDBRANCH  26  27
ENDBRANCH  25  26
ENDBRANCH   1  25
TORSDOF 14
ENDMDL
MODEL 3
REMARK VINA RESULT:     -11.9      6.259     10.645
REMARK SMILES C[NH2+][C@@]1(C(=O)NCCCCNC(=O)c2ccc(-c3c4nc(c(-c5c(F)c(F)c(F)c(F)c5F)c5ccc([nH]5)c(-c5c(F)c(F)c(F)c(F)c5F)c5nc(c(-c6c(F)c(F)c(F)c(F)c6F)c6ccc3[nH]6)C=C5)C=C4)cc2)CC[C@H](Sc2nccc(=O)[nH]2)C1
REMARK SMILES IDX 8 1 7 2 6 3 4 4 5 5 3 7 77 8 88 9 78 10 79 11 2 12 1 13
REMARK SMILES IDX 80 16 81 17 82 18 87 19 83 20 85 21 84 23 86 24 9 25 10 26
REMARK SMILES IDX 11 27 12 28 13 30 14 31 15 32 76 33 16 34 75 35 17 36 18 37
REMARK SMILES IDX 19 38 69 39 20 40 74 41 68 42 70 43 21 44 73 45 67 46 66 47
REMARK SMILES IDX 22 49 54 50 34 51 53 52 35 53 38 54 52 55 71 56 36 57 37 58
REMARK SMILES IDX 51 60 72 61 39 62 23 63 24 64 32 65 25 66 26 67 30 68 33 69
REMARK SMILES IDX 27 70 28 71 31 72 29 73 55 74 56 75 64 76 57 77 58 78 62 79
REMARK SMILES IDX 65 80 59 81 60 82 63 83 61 84 40 85 41 86 49 87 42 88 43 89
REMARK SMILES IDX 47 90 50 91 44 92 45 93 48 94 46 95
REMARK H PARENT 6 6 2 14 2 15 87 22 11 29 70 48 38 59
REMARK Flexibility Score: inf
ROOT
ATOM      1  C   UNL A   1      32.158  30.481  26.639  1.00  0.00     0.023 C 
ENDROOT
BRANCH   1   2
ATOM      2  C   UNL A   1      31.936  30.032  25.205  1.00  0.00     0.116 C 
BRANCH   2   3
ATOM      3  N   UNL A   1      33.135  29.646  24.507  1.00  0.00    -0.351 N 
ATOM      4  C   UNL A   1      33.555  28.423  24.069  1.00  0.00     0.281 C 
ATOM      5  O   UNL A   1      34.461  28.473  23.228  1.00  0.00    -0.268 OA
ATOM      6  H   UNL A   1      33.754  30.387  24.314  1.00  0.00     0.163 HD
BRANCH   4   7
ATOM      7  C   UNL A   1      32.911  27.053  24.539  1.00  0.00     0.176 C 
ATOM      8  C   UNL A   1      32.994  26.012  23.396  1.00  0.00     0.080 C 
ATOM      9  C   UNL A   1      31.411  27.127  24.914  1.00  0.00     0.094 C 
ATOM     10  C   UNL A   1      31.594  25.833  22.828  1.00  0.00     0.022 C 
ATOM     11  C   UNL A   1      30.656  26.135  23.993  1.00  0.00     0.062 C 
BRANCH   7  12
ATOM     12  N   UNL A   1      33.659  26.442  25.686  1.00  0.00    -0.336 N 
ATOM     13  C   UNL A   1      34.130  25.072  25.510  1.00  0.00     0.331 C 
ATOM     14  H   UNL A   1      34.475  27.027  25.869  1.00  0.00     0.346 HD
ATOM     15  H   UNL A   1      32.985  26.397  26.449  1.00  0.00     0.346 HD
ENDBRANCH   7  12
BRANCH  11  16
ATOM     16  S   UNL A   1      28.946  26.711  23.686  1.00  0.00    -0.084 SA
BRANCH  16  17
ATOM     17  C   UNL A   1      29.026  28.317  23.035  1.00  0.00     0.168 A 
ATOM     18  N   UNL A   1      29.869  28.704  22.139  1.00  0.00    -0.233 NA
ATOM     19  N   UNL A   1      28.060  29.122  23.562  1.00  0.00    -0.301 N 
ATOM     20  C   UNL A   1      29.763  30.011  21.725  1.00  0.00     0.120 A 
ATOM     21  C   UNL A   1      27.902  30.422  23.182  1.00  0.00     0.251 A 
ATOM     22  H   UNL A   1      27.455  28.751  24.244  1.00  0.00     0.172 HD
ATOM     23  C   UNL A   1      28.857  30.888  22.168  1.00  0.00     0.091 A 
ATOM     24  O   UNL A   1      27.035  31.148  23.650  1.00  0.00    -0.269 OA
ENDBRANCH  16  17
ENDBRANCH  11  16
ENDBRANCH   4   7
ENDBRANCH   2   3
ENDBRANCH   1   2
BRANCH   1  25
ATOM     25  C   UNL A   1      31.745  31.911  26.941  1.00  0.00     0.023 C 
BRANCH  25  26
ATOM     26  C   UNL A   1      32.872  32.844  27.362  1.00  0.00     0.116 C 
BRANCH  26  27
ATOM     27  N   UNL A   1      32.454  34.195  27.735  1.00  0.00    -0.352 N 
ATOM     28  C   UNL A   1      33.027  35.041  28.656  1.00  0.00     0.251 C 
ATOM     29  H   UNL A   1      31.661  34.543  27.266  1.00  0.00     0.163 HD
ATOM     30  O   UNL A   1      32.613  36.175  28.830  1.00  0.00    -0.269 OA
BRANCH  28  31
ATOM     31  C   UNL A   1      34.150  34.523  29.457  1.00  0.00     0.039 A 
ATOM     32  C   UNL A   1      33.878  33.797  30.618  1.00  0.00     0.014 A 
ATOM     33  C   UNL A   1      35.450  34.635  28.960  1.00  0.00     0.014 A 
ATOM     34  C   UNL A   1      34.914  33.102  31.240  1.00  0.00     0.010 A 
ATOM     35  C   UNL A   1      36.452  33.862  29.523  1.00  0.00     0.010 A 
ATOM     36  C   UNL A   1      36.196  33.089  30.669  1.00  0.00    -0.014 A 
BRANCH  36  37
ATOM     37  C   UNL A   1      37.308  32.298  31.250  1.00  0.00     0.031 A 
ATOM     38  C   UNL A   1      37.805  32.638  32.626  1.00  0.00     0.074 A 
ATOM     39  C   UNL A   1      37.931  31.360  30.512  1.00  0.00     0.049 A 
ATOM     40  N   UNL A   1      38.860  32.200  33.261  1.00  0.00    -0.248 NA
ATOM     41  C   UNL A   1      37.036  33.651  33.369  1.00  0.00     0.031 C 
ATOM     42  C   UNL A   1      37.579  30.979  29.143  1.00  0.00     0.029 A 
ATOM     43  N   UNL A   1      39.011  30.566  30.807  1.00  0.00    -0.354 N 
ATOM     44  C   UNL A   1      38.901  32.910  34.453  1.00  0.00     0.074 A 
ATOM     45  C   UNL A   1      37.802  33.848  34.429  1.00  0.00     0.031 C 
ATOM     46  C   UNL A   1      38.411  30.011  28.726  1.00  0.00     0.029 A 
ATOM     47  C   UNL A   1      39.380  29.730  29.781  1.00  0.00     0.049 A 
ATOM     48  H   UNL A   1      39.480  30.593  31.673  1.00  0.00     0.167 HD
ATOM     49  C   UNL A   1      39.763  32.772  35.488  1.00  0.00     0.037 A 
ATOM     50  C   UNL A   1      40.390  28.842  29.704  1.00  0.00     0.037 A 
ATOM     51  C   UNL A   1      40.816  31.795  35.530  1.00  0.00     0.049 A 
ATOM     52  C   UNL A   1      41.308  28.676  30.886  1.00  0.00     0.074 A 
ATOM     53  C   UNL A   1      41.697  31.517  36.559  1.00  0.00     0.029 A 
ATOM     54  N   UNL A   1      41.120  30.924  34.493  1.00  0.00    -0.354 N 
ATOM     55  N   UNL A   1      41.303  29.312  32.032  1.00  0.00    -0.248 NA
ATOM     56  C   UNL A   1      42.365  27.663  30.765  1.00  0.00     0.031 C 
ATOM     57  C   UNL A   1      42.555  30.498  36.134  1.00  0.00     0.029 A 
ATOM     58  C   UNL A   1      42.182  30.113  34.856  1.00  0.00     0.049 A 
ATOM     59  H   UNL A   1      40.651  30.888  33.628  1.00  0.00     0.167 HD
ATOM     60  C   UNL A   1      42.336  28.761  32.778  1.00  0.00     0.074 A 
ATOM     61  C   UNL A   1      42.936  27.728  31.959  1.00  0.00     0.031 C 
ATOM     62  C   UNL A   1      42.752  29.081  34.028  1.00  0.00     0.037 A 
BRANCH  49  63
ATOM     63  C   UNL A   1      39.586  33.690  36.661  1.00  0.00     0.064 A 
ATOM     64  C   UNL A   1      38.817  33.321  37.777  1.00  0.00     0.173 A 
ATOM     65  C   UNL A   1      40.198  34.952  36.677  1.00  0.00     0.173 A 
ATOM     66  F   UNL A   1      38.195  32.133  37.804  1.00  0.00    -0.203 F 
ATOM     67  C   UNL A   1      38.640  34.194  38.846  1.00  0.00     0.198 A 
ATOM     68  C   UNL A   1      40.047  35.810  37.763  1.00  0.00     0.198 A 
ATOM     69  F   UNL A   1      40.946  35.354  35.638  1.00  0.00    -0.203 F 
ATOM     70  F   UNL A   1      37.852  33.843  39.872  1.00  0.00    -0.200 F 
ATOM     71  C   UNL A   1      39.260  35.434  38.842  1.00  0.00     0.200 A 
ATOM     72  F   UNL A   1      40.655  37.004  37.762  1.00  0.00    -0.200 F 
ATOM     73  F   UNL A   1      39.090  36.273  39.874  1.00  0.00    -0.200 F 
ENDBRANCH  49  63
BRANCH  50  74
ATOM     74  C   UNL A   1      40.566  28.018  28.480  1.00  0.00     0.064 A 
ATOM     75  C   UNL A   1      39.966  26.754  28.377  1.00  0.00     0.173 A 
ATOM     76  C   UNL A   1      41.334  28.465  27.396  1.00  0.00     0.173 A 
ATOM     77  F   UNL A   1      39.240  26.274  29.397  1.00  0.00    -0.203 F 
ATOM     78  C   UNL A   1      40.145  25.961  27.245  1.00  0.00     0.198 A 
ATOM     79  C   UNL A   1      41.491  27.682  26.253  1.00  0.00     0.198 A 
ATOM     80  F   UNL A   1      41.924  29.669  27.441  1.00  0.00    -0.203 F 
ATOM     81  F   UNL A   1      39.597  24.740  27.193  1.00  0.00    -0.200 F 
ATOM     82  C   UNL A   1      40.902  26.428  26.182  1.00  0.00     0.200 A 
ATOM     83  F   UNL A   1      42.213  28.141  25.223  1.00  0.00    -0.200 F 
ATOM     84  F   UNL A   1      41.072  25.666  25.093  1.00  0.00    -0.200 F 
ENDBRANCH  50  74
BRANCH  62  85
ATOM     85  C   UNL A   1      43.882  28.280  34.601  1.00  0.00     0.064 A 
ATOM     86  C   UNL A   1      45.212  28.711  34.501  1.00  0.00     0.173 A 
ATOM     87  C   UNL A   1      43.623  27.091  35.300  1.00  0.00     0.173 A 
ATOM     88  F   UNL A   1      45.510  29.834  33.831  1.00  0.00    -0.203 F 
ATOM     89  C   UNL A   1      46.247  27.968  35.063  1.00  0.00     0.198 A 
ATOM     90  C   UNL A   1      44.658  26.366  35.884  1.00  0.00     0.198 A 
ATOM     91  F   UNL A   1      42.366  26.642  35.429  1.00  0.00    -0.203 F 
ATOM     92  F   UNL A   1      47.515  28.375  34.919  1.00  0.00    -0.200 F 
ATOM     93  C   UNL A   1      45.969  26.801  35.759  1.00  0.00     0.200 A 
ATOM     94  F   UNL A   1      44.386  25.245  36.567  1.00  0.00    -0.200 F 
ATOM     95  F   UNL A   1      46.965  26.091  36.305  1.00  0.00    -0.200 F 
ENDBRANCH  62  85
ENDBRANCH  36  37
ENDBRANCH  28  31
ENDBRANCH  26  27
ENDBRANCH  25  26
ENDBRANCH   1  25
TORSDOF 14
ENDMDL
