MODEL 1
REMARK VINA RESULT:     -13.2      0.000      0.000
REMARK SMILES Cc1ccccc1OCC(=O)N1C[C@@H](O)C[C@H]1C(=O)NCCCCNC(=O)c1ccc(-c2c3nc(c(-c4c(F)c(F)c(F)c(F)c4F)c4ccc([nH]4)c(-c4c(F)c(F)c(F)c(F)c4F)c4nc(c(-c5c(F)c(F)c(F)c(F)c5F)c5ccc2[nH]5)C=C4)C=C3)cc1
REMARK SMILES IDX 21 1 20 2 18 3 19 4 17 6 12 7 13 8 14 9 16 10 10 11 11 12
REMARK SMILES IDX 9 13 8 14 7 15 1 16 2 17 3 18 4 19 6 20 5 21 15 22 22 24
REMARK SMILES IDX 23 25 24 26 25 27 26 28 27 30 28 31 29 32 90 33 30 34 89 35
REMARK SMILES IDX 31 36 32 37 33 38 83 39 34 40 88 41 82 42 84 43 35 44 87 45
REMARK SMILES IDX 81 46 80 47 36 49 68 50 48 51 67 52 49 53 52 54 66 55 85 56
REMARK SMILES IDX 50 57 51 58 65 60 86 61 53 62 37 63 38 64 46 65 39 66 40 67
REMARK SMILES IDX 44 68 47 69 41 70 42 71 45 72 43 73 69 74 70 75 78 76 71 77
REMARK SMILES IDX 72 78 76 79 79 80 73 81 74 82 77 83 75 84 54 85 55 86 63 87
REMARK SMILES IDX 56 88 57 89 61 90 64 91 58 92 59 93 62 94 60 95
REMARK H PARENT 20 5 15 23 25 29 84 48 52 59
REMARK Flexibility Score: inf
ROOT
ATOM      1  C   UNL A   1      31.833  29.891  25.170  1.00  0.00     0.116 C 
ENDROOT
BRANCH   1   2
ATOM      2  N   UNL A   1      32.997  29.648  24.341  1.00  0.00    -0.354 N 
ATOM      3  C   UNL A   1      33.509  28.501  23.809  1.00  0.00     0.242 C 
ATOM      4  O   UNL A   1      34.362  28.644  22.925  1.00  0.00    -0.273 OA
ATOM      5  H   UNL A   1      33.511  30.459  24.121  1.00  0.00     0.163 HD
BRANCH   3   6
ATOM      6  C   UNL A   1      32.945  27.100  24.126  1.00  0.00     0.177 C 
ATOM      7  N   UNL A   1      32.623  26.258  22.974  1.00  0.00    -0.325 N 
ATOM      8  C   UNL A   1      33.307  24.980  23.021  1.00  0.00     0.152 C 
ATOM      9  C   UNL A   1      33.837  24.860  24.449  1.00  0.00     0.136 C 
ATOM     10  C   UNL A   1      33.922  26.289  24.980  1.00  0.00     0.069 C 
BRANCH   7  11
ATOM     11  C   UNL A   1      31.539  26.578  22.178  1.00  0.00     0.261 C 
ATOM     12  O   UNL A   1      31.503  26.256  20.988  1.00  0.00    -0.271 OA
BRANCH  11  13
ATOM     13  C   UNL A   1      30.413  27.436  22.776  1.00  0.00     0.329 C 
BRANCH  13  14
ATOM     14  O   UNL A   1      29.723  28.324  21.933  1.00  0.00    -0.484 OA
BRANCH  14  15
ATOM     15  C   UNL A   1      28.967  29.364  22.380  1.00  0.00     0.122 A 
ATOM     16  C   UNL A   1      26.936  28.202  23.505  1.00  0.00     0.048 C 
ATOM     17  C   UNL A   1      27.743  29.392  23.066  1.00  0.00    -0.009 A 
ATOM     18  C   UNL A   1      27.230  30.651  23.464  1.00  0.00     0.007 A 
ATOM     19  C   UNL A   1      27.898  31.844  23.191  1.00  0.00     0.001 A 
ATOM     20  C   UNL A   1      29.608  30.583  22.085  1.00  0.00     0.047 A 
ATOM     21  C   UNL A   1      29.089  31.811  22.489  1.00  0.00     0.004 A 
ENDBRANCH  14  15
ENDBRANCH  13  14
ENDBRANCH  11  13
ENDBRANCH   7  11
BRANCH   9  22
ATOM     22  O   UNL A   1      35.102  24.220  24.505  1.00  0.00    -0.391 OA
ATOM     23  H   UNL A   1      34.984  23.291  24.756  1.00  0.00     0.211 HD
ENDBRANCH   9  22
ENDBRANCH   3   6
ENDBRANCH   1   2
BRANCH   1  24
ATOM     24  C   UNL A   1      32.109  29.755  26.664  1.00  0.00     0.023 C 
BRANCH  24  25
ATOM     25  C   UNL A   1      32.827  30.941  27.307  1.00  0.00     0.023 C 
BRANCH  25  26
ATOM     26  C   UNL A   1      34.317  30.733  27.533  1.00  0.00     0.116 C 
BRANCH  26  27
ATOM     27  N   UNL A   1      34.883  31.492  28.640  1.00  0.00    -0.352 N 
ATOM     28  C   UNL A   1      35.912  31.153  29.510  1.00  0.00     0.251 C 
ATOM     29  H   UNL A   1      34.477  32.375  28.795  1.00  0.00     0.163 HD
ATOM     30  O   UNL A   1      36.191  31.887  30.440  1.00  0.00    -0.269 OA
BRANCH  28  31
ATOM     31  C   UNL A   1      36.767  29.971  29.215  1.00  0.00     0.039 A 
ATOM     32  C   UNL A   1      37.017  29.069  30.257  1.00  0.00     0.014 A 
ATOM     33  C   UNL A   1      37.475  29.864  28.023  1.00  0.00     0.014 A 
ATOM     34  C   UNL A   1      38.150  28.260  30.206  1.00  0.00     0.010 A 
ATOM     35  C   UNL A   1      38.657  29.148  28.012  1.00  0.00     0.010 A 
ATOM     36  C   UNL A   1      39.033  28.412  29.139  1.00  0.00    -0.014 A 
BRANCH  36  37
ATOM     37  C   UNL A   1      40.428  27.990  29.184  1.00  0.00     0.031 A 
ATOM     38  C   UNL A   1      40.839  26.663  28.677  1.00  0.00     0.074 A 
ATOM     39  C   UNL A   1      41.360  28.885  29.584  1.00  0.00     0.049 A 
ATOM     40  N   UNL A   1      41.981  26.122  28.934  1.00  0.00    -0.248 NA
ATOM     41  C   UNL A   1      39.959  25.793  27.904  1.00  0.00     0.031 C 
ATOM     42  C   UNL A   1      42.806  28.814  29.384  1.00  0.00     0.029 A 
ATOM     43  N   UNL A   1      41.183  29.989  30.440  1.00  0.00    -0.354 N 
ATOM     44  C   UNL A   1      42.103  24.997  28.152  1.00  0.00     0.074 A 
ATOM     45  C   UNL A   1      40.776  24.766  27.643  1.00  0.00     0.031 C 
ATOM     46  C   UNL A   1      43.410  29.603  30.286  1.00  0.00     0.029 A 
ATOM     47  C   UNL A   1      42.379  30.083  31.190  1.00  0.00     0.049 A 
ATOM     48  H   UNL A   1      40.393  30.572  30.505  1.00  0.00     0.167 HD
ATOM     49  C   UNL A   1      43.349  24.484  27.941  1.00  0.00     0.037 A 
ATOM     50  C   UNL A   1      42.393  29.905  32.542  1.00  0.00     0.037 A 
ATOM     51  C   UNL A   1      44.313  25.079  28.871  1.00  0.00     0.049 A 
ATOM     52  C   UNL A   1      43.277  28.773  33.008  1.00  0.00     0.074 A 
ATOM     53  C   UNL A   1      45.319  26.018  28.729  1.00  0.00     0.029 A 
ATOM     54  N   UNL A   1      44.137  24.890  30.239  1.00  0.00    -0.354 N 
ATOM     55  N   UNL A   1      43.698  27.815  32.232  1.00  0.00    -0.248 NA
ATOM     56  C   UNL A   1      43.724  28.611  34.389  1.00  0.00     0.031 C 
ATOM     57  C   UNL A   1      45.690  26.456  30.029  1.00  0.00     0.029 A 
ATOM     58  C   UNL A   1      44.941  25.752  30.957  1.00  0.00     0.049 A 
ATOM     59  H   UNL A   1      43.524  24.231  30.639  1.00  0.00     0.167 HD
ATOM     60  C   UNL A   1      44.412  26.908  32.971  1.00  0.00     0.074 A 
ATOM     61  C   UNL A   1      44.423  27.465  34.310  1.00  0.00     0.031 C 
ATOM     62  C   UNL A   1      44.910  25.764  32.414  1.00  0.00     0.037 A 
BRANCH  49  63
ATOM     63  C   UNL A   1      43.775  23.595  26.782  1.00  0.00     0.064 A 
ATOM     64  C   UNL A   1      43.338  22.249  26.725  1.00  0.00     0.173 A 
ATOM     65  C   UNL A   1      44.702  23.940  25.774  1.00  0.00     0.173 A 
ATOM     66  F   UNL A   1      42.447  21.768  27.603  1.00  0.00    -0.203 F 
ATOM     67  C   UNL A   1      43.815  21.334  25.776  1.00  0.00     0.198 A 
ATOM     68  C   UNL A   1      45.145  23.036  24.801  1.00  0.00     0.198 A 
ATOM     69  F   UNL A   1      45.264  25.146  25.696  1.00  0.00    -0.203 F 
ATOM     70  F   UNL A   1      43.405  20.059  25.817  1.00  0.00    -0.200 F 
ATOM     71  C   UNL A   1      44.716  21.729  24.811  1.00  0.00     0.200 A 
ATOM     72  F   UNL A   1      46.017  23.447  23.869  1.00  0.00    -0.200 F 
ATOM     73  F   UNL A   1      45.179  20.856  23.906  1.00  0.00    -0.200 F 
ENDBRANCH  49  63
BRANCH  50  74
ATOM     74  C   UNL A   1      41.134  30.330  33.205  1.00  0.00     0.064 A 
ATOM     75  C   UNL A   1      40.913  31.707  33.391  1.00  0.00     0.173 A 
ATOM     76  C   UNL A   1      40.027  29.478  33.293  1.00  0.00     0.173 A 
ATOM     77  F   UNL A   1      41.941  32.567  33.307  1.00  0.00    -0.203 F 
ATOM     78  C   UNL A   1      39.628  32.221  33.544  1.00  0.00     0.198 A 
ATOM     79  C   UNL A   1      38.740  29.997  33.456  1.00  0.00     0.198 A 
ATOM     80  F   UNL A   1      40.169  28.159  33.098  1.00  0.00    -0.203 F 
ATOM     81  F   UNL A   1      39.441  33.548  33.606  1.00  0.00    -0.200 F 
ATOM     82  C   UNL A   1      38.539  31.366  33.548  1.00  0.00     0.200 A 
ATOM     83  F   UNL A   1      37.682  29.173  33.424  1.00  0.00    -0.200 F 
ATOM     84  F   UNL A   1      37.295  31.864  33.594  1.00  0.00    -0.200 F 
ENDBRANCH  50  74
BRANCH  62  85
ATOM     85  C   UNL A   1      45.477  24.587  33.173  1.00  0.00     0.064 A 
ATOM     86  C   UNL A   1      46.758  24.565  33.749  1.00  0.00     0.173 A 
ATOM     87  C   UNL A   1      44.658  23.471  33.474  1.00  0.00     0.173 A 
ATOM     88  F   UNL A   1      47.589  25.610  33.646  1.00  0.00    -0.203 F 
ATOM     89  C   UNL A   1      47.210  23.483  34.512  1.00  0.00     0.198 A 
ATOM     90  C   UNL A   1      45.090  22.421  34.284  1.00  0.00     0.198 A 
ATOM     91  F   UNL A   1      43.401  23.381  33.014  1.00  0.00    -0.203 F 
ATOM     92  F   UNL A   1      48.457  23.493  35.004  1.00  0.00    -0.200 F 
ATOM     93  C   UNL A   1      46.373  22.418  34.789  1.00  0.00     0.200 A 
ATOM     94  F   UNL A   1      44.247  21.424  34.588  1.00  0.00    -0.200 F 
ATOM     95  F   UNL A   1      46.794  21.406  35.559  1.00  0.00    -0.200 F 
ENDBRANCH  62  85
ENDBRANCH  36  37
ENDBRANCH  28  31
ENDBRANCH  26  27
ENDBRANCH  25  26
ENDBRANCH  24  25
ENDBRANCH   1  24
TORSDOF 16
ENDMDL
MODEL 2
REMARK VINA RESULT:     -13.1      1.652      3.185
REMARK SMILES Cc1ccccc1OCC(=O)N1C[C@@H](O)C[C@H]1C(=O)NCCCCNC(=O)c1ccc(-c2c3nc(c(-c4c(F)c(F)c(F)c(F)c4F)c4ccc([nH]4)c(-c4c(F)c(F)c(F)c(F)c4F)c4nc(c(-c5c(F)c(F)c(F)c(F)c5F)c5ccc2[nH]5)C=C4)C=C3)cc1
REMARK SMILES IDX 21 1 20 2 18 3 19 4 17 6 12 7 13 8 14 9 16 10 10 11 11 12
REMARK SMILES IDX 9 13 8 14 7 15 1 16 2 17 3 18 4 19 6 20 5 21 15 22 22 24
REMARK SMILES IDX 23 25 24 26 25 27 26 28 27 30 28 31 29 32 90 33 30 34 89 35
REMARK SMILES IDX 31 36 32 37 33 38 83 39 34 40 88 41 82 42 84 43 35 44 87 45
REMARK SMILES IDX 81 46 80 47 36 49 68 50 48 51 67 52 49 53 52 54 66 55 85 56
REMARK SMILES IDX 50 57 51 58 65 60 86 61 53 62 37 63 38 64 46 65 39 66 40 67
REMARK SMILES IDX 44 68 47 69 41 70 42 71 45 72 43 73 69 74 70 75 78 76 71 77
REMARK SMILES IDX 72 78 76 79 79 80 73 81 74 82 77 83 75 84 54 85 55 86 63 87
REMARK SMILES IDX 56 88 57 89 61 90 64 91 58 92 59 93 62 94 60 95
REMARK H PARENT 20 5 15 23 25 29 84 48 52 59
REMARK Flexibility Score: inf
ROOT
ATOM      1  C   UNL A   1      32.295  29.614  24.867  1.00  0.00     0.116 C 
ENDROOT
BRANCH   1   2
ATOM      2  N   UNL A   1      31.595  29.340  23.626  1.00  0.00    -0.354 N 
ATOM      3  C   UNL A   1      31.488  28.206  22.876  1.00  0.00     0.242 C 
ATOM      4  O   UNL A   1      30.606  28.208  22.010  1.00  0.00    -0.273 OA
ATOM      5  H   UNL A   1      31.107  30.114  23.260  1.00  0.00     0.163 HD
BRANCH   3   6
ATOM      6  C   UNL A   1      32.271  26.913  23.187  1.00  0.00     0.177 C 
ATOM      7  N   UNL A   1      31.472  25.761  23.609  1.00  0.00    -0.325 N 
ATOM      8  C   UNL A   1      31.700  24.600  22.770  1.00  0.00     0.152 C 
ATOM      9  C   UNL A   1      32.963  24.923  21.973  1.00  0.00     0.136 C 
ATOM     10  C   UNL A   1      33.076  26.445  21.973  1.00  0.00     0.069 C 
BRANCH   7  11
ATOM     11  C   UNL A   1      30.871  25.767  24.854  1.00  0.00     0.261 C 
ATOM     12  O   UNL A   1      29.682  26.064  24.988  1.00  0.00    -0.271 OA
BRANCH  11  13
ATOM     13  C   UNL A   1      31.740  25.493  26.092  1.00  0.00     0.329 C 
BRANCH  13  14
ATOM     14  O   UNL A   1      32.134  24.171  26.360  1.00  0.00    -0.484 OA
BRANCH  14  15
ATOM     15  C   UNL A   1      33.184  23.553  25.753  1.00  0.00     0.122 A 
ATOM     16  C   UNL A   1      32.261  21.192  25.193  1.00  0.00     0.048 C 
ATOM     17  C   UNL A   1      33.318  22.259  25.225  1.00  0.00    -0.009 A 
ATOM     18  C   UNL A   1      34.535  21.924  24.583  1.00  0.00     0.007 A 
ATOM     19  C   UNL A   1      35.589  22.830  24.470  1.00  0.00     0.001 A 
ATOM     20  C   UNL A   1      34.273  24.442  25.657  1.00  0.00     0.047 A 
ATOM     21  C   UNL A   1      35.461  24.094  25.018  1.00  0.00     0.004 A 
ENDBRANCH  14  15
ENDBRANCH  13  14
ENDBRANCH  11  13
ENDBRANCH   7  11
BRANCH   9  22
ATOM     22  O   UNL A   1      32.911  24.417  20.647  1.00  0.00    -0.391 OA
ATOM     23  H   UNL A   1      33.391  25.015  20.054  1.00  0.00     0.211 HD
ENDBRANCH   9  22
ENDBRANCH   3   6
ENDBRANCH   1   2
BRANCH   1  24
ATOM     24  C   UNL A   1      31.404  30.215  25.950  1.00  0.00     0.023 C 
BRANCH  24  25
ATOM     25  C   UNL A   1      32.088  31.221  26.875  1.00  0.00     0.023 C 
BRANCH  25  26
ATOM     26  C   UNL A   1      33.517  30.863  27.255  1.00  0.00     0.116 C 
BRANCH  26  27
ATOM     27  N   UNL A   1      34.169  31.804  28.155  1.00  0.00    -0.352 N 
ATOM     28  C   UNL A   1      35.279  31.624  28.970  1.00  0.00     0.251 C 
ATOM     29  H   UNL A   1      33.764  32.701  28.190  1.00  0.00     0.163 HD
ATOM     30  O   UNL A   1      35.629  32.510  29.729  1.00  0.00    -0.269 OA
BRANCH  28  31
ATOM     31  C   UNL A   1      36.123  30.409  28.808  1.00  0.00     0.039 A 
ATOM     32  C   UNL A   1      36.413  29.657  29.955  1.00  0.00     0.014 A 
ATOM     33  C   UNL A   1      36.786  30.137  27.616  1.00  0.00     0.014 A 
ATOM     34  C   UNL A   1      37.545  28.844  29.972  1.00  0.00     0.010 A 
ATOM     35  C   UNL A   1      37.966  29.421  27.659  1.00  0.00     0.010 A 
ATOM     36  C   UNL A   1      38.386  28.845  28.861  1.00  0.00    -0.014 A 
BRANCH  36  37
ATOM     37  C   UNL A   1      39.782  28.427  28.911  1.00  0.00     0.031 A 
ATOM     38  C   UNL A   1      40.179  27.051  28.544  1.00  0.00     0.074 A 
ATOM     39  C   UNL A   1      40.725  29.360  29.179  1.00  0.00     0.049 A 
ATOM     40  N   UNL A   1      41.329  26.539  28.825  1.00  0.00    -0.248 NA
ATOM     41  C   UNL A   1      39.277  26.102  27.901  1.00  0.00     0.031 C 
ATOM     42  C   UNL A   1      42.165  29.263  28.945  1.00  0.00     0.029 A 
ATOM     43  N   UNL A   1      40.574  30.553  29.910  1.00  0.00    -0.354 N 
ATOM     44  C   UNL A   1      41.428  25.333  28.172  1.00  0.00     0.074 A 
ATOM     45  C   UNL A   1      40.087  25.050  27.732  1.00  0.00     0.031 C 
ATOM     46  C   UNL A   1      42.795  30.147  29.733  1.00  0.00     0.029 A 
ATOM     47  C   UNL A   1      41.792  30.727  30.608  1.00  0.00     0.049 A 
ATOM     48  H   UNL A   1      39.785  31.142  29.933  1.00  0.00     0.167 HD
ATOM     49  C   UNL A   1      42.668  24.797  27.982  1.00  0.00     0.037 A 
ATOM     50  C   UNL A   1      41.847  30.702  31.971  1.00  0.00     0.037 A 
ATOM     51  C   UNL A   1      43.659  25.490  28.808  1.00  0.00     0.049 A 
ATOM     52  C   UNL A   1      42.747  29.629  32.534  1.00  0.00     0.074 A 
ATOM     53  C   UNL A   1      44.659  26.405  28.531  1.00  0.00     0.029 A 
ATOM     54  N   UNL A   1      43.526  25.457  30.194  1.00  0.00    -0.354 N 
ATOM     55  N   UNL A   1      43.144  28.588  31.858  1.00  0.00    -0.248 NA
ATOM     56  C   UNL A   1      43.236  29.621  33.910  1.00  0.00     0.031 C 
ATOM     57  C   UNL A   1      45.070  26.985  29.762  1.00  0.00     0.029 A 
ATOM     58  C   UNL A   1      44.350  26.392  30.786  1.00  0.00     0.049 A 
ATOM     59  H   UNL A   1      42.926  24.848  30.684  1.00  0.00     0.167 HD
ATOM     60  C   UNL A   1      43.881  27.768  32.672  1.00  0.00     0.074 A 
ATOM     61  C   UNL A   1      43.933  28.472  33.939  1.00  0.00     0.031 C 
ATOM     62  C   UNL A   1      44.364  26.567  32.232  1.00  0.00     0.037 A 
BRANCH  49  63
ATOM     63  C   UNL A   1      43.059  23.782  26.917  1.00  0.00     0.064 A 
ATOM     64  C   UNL A   1      42.702  22.421  27.072  1.00  0.00     0.173 A 
ATOM     65  C   UNL A   1      43.885  24.034  25.800  1.00  0.00     0.173 A 
ATOM     66  F   UNL A   1      41.909  22.018  28.076  1.00  0.00    -0.203 F 
ATOM     67  C   UNL A   1      43.161  21.411  26.215  1.00  0.00     0.198 A 
ATOM     68  C   UNL A   1      44.308  23.030  24.920  1.00  0.00     0.198 A 
ATOM     69  F   UNL A   1      44.365  25.246  25.520  1.00  0.00    -0.203 F 
ATOM     70  F   UNL A   1      42.833  20.134  26.456  1.00  0.00    -0.200 F 
ATOM     71  C   UNL A   1      43.961  21.717  25.136  1.00  0.00     0.200 A 
ATOM     72  F   UNL A   1      45.082  23.355  23.874  1.00  0.00    -0.200 F 
ATOM     73  F   UNL A   1      44.407  20.755  24.318  1.00  0.00    -0.200 F 
ENDBRANCH  49  63
BRANCH  50  74
ATOM     74  C   UNL A   1      40.608  31.203  32.620  1.00  0.00     0.064 A 
ATOM     75  C   UNL A   1      40.377  32.591  32.629  1.00  0.00     0.173 A 
ATOM     76  C   UNL A   1      39.518  30.361  32.864  1.00  0.00     0.173 A 
ATOM     77  F   UNL A   1      41.389  33.440  32.390  1.00  0.00    -0.203 F 
ATOM     78  C   UNL A   1      39.091  33.110  32.762  1.00  0.00     0.198 A 
ATOM     79  C   UNL A   1      38.230  30.887  33.007  1.00  0.00     0.198 A 
ATOM     80  F   UNL A   1      39.670  29.029  32.842  1.00  0.00    -0.203 F 
ATOM     81  F   UNL A   1      38.890  34.431  32.653  1.00  0.00    -0.200 F 
ATOM     82  C   UNL A   1      38.015  32.255  32.923  1.00  0.00     0.200 A 
ATOM     83  F   UNL A   1      37.183  30.058  33.127  1.00  0.00    -0.200 F 
ATOM     84  F   UNL A   1      36.767  32.743  32.951  1.00  0.00    -0.200 F 
ENDBRANCH  50  74
BRANCH  62  85
ATOM     85  C   UNL A   1      44.955  25.482  33.101  1.00  0.00     0.064 A 
ATOM     86  C   UNL A   1      46.324  25.170  33.149  1.00  0.00     0.173 A 
ATOM     87  C   UNL A   1      44.145  24.807  34.048  1.00  0.00     0.173 A 
ATOM     88  F   UNL A   1      47.217  25.824  32.395  1.00  0.00    -0.203 F 
ATOM     89  C   UNL A   1      46.835  24.210  34.029  1.00  0.00     0.198 A 
ATOM     90  C   UNL A   1      44.668  23.894  34.964  1.00  0.00     0.198 A 
ATOM     91  F   UNL A   1      42.827  25.035  34.131  1.00  0.00    -0.203 F 
ATOM     92  F   UNL A   1      48.144  23.920  34.006  1.00  0.00    -0.200 F 
ATOM     93  C   UNL A   1      46.011  23.582  34.943  1.00  0.00     0.200 A 
ATOM     94  F   UNL A   1      43.864  23.335  35.880  1.00  0.00    -0.200 F 
ATOM     95  F   UNL A   1      46.513  22.699  35.816  1.00  0.00    -0.200 F 
ENDBRANCH  62  85
ENDBRANCH  36  37
ENDBRANCH  28  31
ENDBRANCH  26  27
ENDBRANCH  25  26
ENDBRANCH  24  25
ENDBRANCH   1  24
TORSDOF 16
ENDMDL
MODEL 3
REMARK VINA RESULT:     -12.9      1.557      3.454
REMARK SMILES Cc1ccccc1OCC(=O)N1C[C@@H](O)C[C@H]1C(=O)NCCCCNC(=O)c1ccc(-c2c3nc(c(-c4c(F)c(F)c(F)c(F)c4F)c4ccc([nH]4)c(-c4c(F)c(F)c(F)c(F)c4F)c4nc(c(-c5c(F)c(F)c(F)c(F)c5F)c5ccc2[nH]5)C=C4)C=C3)cc1
REMARK SMILES IDX 21 1 20 2 18 3 19 4 17 6 12 7 13 8 14 9 16 10 10 11 11 12
REMARK SMILES IDX 9 13 8 14 7 15 1 16 2 17 3 18 4 19 6 20 5 21 15 22 22 24
REMARK SMILES IDX 23 25 24 26 25 27 26 28 27 30 28 31 29 32 90 33 30 34 89 35
REMARK SMILES IDX 31 36 32 37 33 38 83 39 34 40 88 41 82 42 84 43 35 44 87 45
REMARK SMILES IDX 81 46 80 47 36 49 68 50 48 51 67 52 49 53 52 54 66 55 85 56
REMARK SMILES IDX 50 57 51 58 65 60 86 61 53 62 37 63 38 64 46 65 39 66 40 67
REMARK SMILES IDX 44 68 47 69 41 70 42 71 45 72 43 73 69 74 70 75 78 76 71 77
REMARK SMILES IDX 72 78 76 79 79 80 73 81 74 82 77 83 75 84 54 85 55 86 63 87
REMARK SMILES IDX 56 88 57 89 61 90 64 91 58 92 59 93 62 94 60 95
REMARK H PARENT 20 5 15 23 25 29 84 48 52 59
REMARK Flexibility Score: inf
ROOT
ATOM      1  C   UNL A   1      32.334  29.357  24.544  1.00  0.00     0.116 C 
ENDROOT
BRANCH   1   2
ATOM      2  N   UNL A   1      31.503  29.314  23.356  1.00  0.00    -0.354 N 
ATOM      3  C   UNL A   1      30.843  28.287  22.748  1.00  0.00     0.242 C 
ATOM      4  O   UNL A   1      30.000  28.607  21.902  1.00  0.00    -0.273 OA
ATOM      5  H   UNL A   1      31.395  30.185  22.909  1.00  0.00     0.163 HD
BRANCH   3   6
ATOM      6  C   UNL A   1      30.974  26.817  23.198  1.00  0.00     0.177 C 
ATOM      7  N   UNL A   1      32.337  26.307  23.350  1.00  0.00    -0.325 N 
ATOM      8  C   UNL A   1      32.575  25.769  24.676  1.00  0.00     0.152 C 
ATOM      9  C   UNL A   1      31.190  25.617  25.303  1.00  0.00     0.136 C 
ATOM     10  C   UNL A   1      30.284  26.584  24.543  1.00  0.00     0.069 C 
BRANCH   7  11
ATOM     11  C   UNL A   1      33.116  26.094  22.228  1.00  0.00     0.261 C 
ATOM     12  O   UNL A   1      34.005  26.887  21.907  1.00  0.00    -0.271 OA
BRANCH  11  13
ATOM     13  C   UNL A   1      32.787  24.899  21.320  1.00  0.00     0.329 C 
BRANCH  13  14
ATOM     14  O   UNL A   1      33.561  23.732  21.436  1.00  0.00    -0.484 OA
BRANCH  14  15
ATOM     15  C   UNL A   1      33.637  22.980  22.568  1.00  0.00     0.122 A 
ATOM     16  C   UNL A   1      36.115  23.232  23.302  1.00  0.00     0.048 C 
ATOM     17  C   UNL A   1      34.712  22.710  23.431  1.00  0.00    -0.009 A 
ATOM     18  C   UNL A   1      34.459  21.932  24.587  1.00  0.00     0.007 A 
ATOM     19  C   UNL A   1      33.192  21.432  24.883  1.00  0.00     0.001 A 
ATOM     20  C   UNL A   1      32.373  22.437  22.869  1.00  0.00     0.047 A 
ATOM     21  C   UNL A   1      32.144  21.678  24.014  1.00  0.00     0.004 A 
ENDBRANCH  14  15
ENDBRANCH  13  14
ENDBRANCH  11  13
ENDBRANCH   7  11
BRANCH   9  22
ATOM     22  O   UNL A   1      31.190  25.906  26.692  1.00  0.00    -0.391 OA
ATOM     23  H   UNL A   1      30.345  26.313  26.938  1.00  0.00     0.211 HD
ENDBRANCH   9  22
ENDBRANCH   3   6
ENDBRANCH   1   2
BRANCH   1  24
ATOM     24  C   UNL A   1      31.583  29.791  25.799  1.00  0.00     0.023 C 
BRANCH  24  25
ATOM     25  C   UNL A   1      32.223  30.938  26.580  1.00  0.00     0.023 C 
BRANCH  25  26
ATOM     26  C   UNL A   1      33.289  30.509  27.576  1.00  0.00     0.116 C 
BRANCH  26  27
ATOM     27  N   UNL A   1      34.047  31.600  28.174  1.00  0.00    -0.352 N 
ATOM     28  C   UNL A   1      35.295  31.579  28.784  1.00  0.00     0.251 C 
ATOM     29  H   UNL A   1      33.612  32.482  28.140  1.00  0.00     0.163 HD
ATOM     30  O   UNL A   1      35.734  32.586  29.310  1.00  0.00    -0.269 OA
BRANCH  28  31
ATOM     31  C   UNL A   1      36.154  30.369  28.664  1.00  0.00     0.039 A 
ATOM     32  C   UNL A   1      36.471  29.674  29.838  1.00  0.00     0.014 A 
ATOM     33  C   UNL A   1      36.804  30.053  27.476  1.00  0.00     0.014 A 
ATOM     34  C   UNL A   1      37.614  28.878  29.875  1.00  0.00     0.010 A 
ATOM     35  C   UNL A   1      37.995  29.357  27.533  1.00  0.00     0.010 A 
ATOM     36  C   UNL A   1      38.440  28.840  28.753  1.00  0.00    -0.014 A 
BRANCH  36  37
ATOM     37  C   UNL A   1      39.842  28.444  28.801  1.00  0.00     0.031 A 
ATOM     38  C   UNL A   1      40.255  27.063  28.475  1.00  0.00     0.074 A 
ATOM     39  C   UNL A   1      40.775  29.398  29.029  1.00  0.00     0.049 A 
ATOM     40  N   UNL A   1      41.416  26.576  28.759  1.00  0.00    -0.248 NA
ATOM     41  C   UNL A   1      39.361  26.081  27.872  1.00  0.00     0.031 C 
ATOM     42  C   UNL A   1      42.213  29.314  28.782  1.00  0.00     0.029 A 
ATOM     43  N   UNL A   1      40.613  30.612  29.724  1.00  0.00    -0.354 N 
ATOM     44  C   UNL A   1      41.526  25.352  28.144  1.00  0.00     0.074 A 
ATOM     45  C   UNL A   1      40.184  25.035  27.728  1.00  0.00     0.031 C 
ATOM     46  C   UNL A   1      42.838  30.232  29.535  1.00  0.00     0.029 A 
ATOM     47  C   UNL A   1      41.836  30.826  30.402  1.00  0.00     0.049 A 
ATOM     48  H   UNL A   1      39.816  31.190  29.736  1.00  0.00     0.167 HD
ATOM     49  C   UNL A   1      42.771  24.827  27.958  1.00  0.00     0.037 A 
ATOM     50  C   UNL A   1      41.906  30.846  31.765  1.00  0.00     0.037 A 
ATOM     51  C   UNL A   1      43.760  25.561  28.751  1.00  0.00     0.049 A 
ATOM     52  C   UNL A   1      42.826  29.804  32.352  1.00  0.00     0.074 A 
ATOM     53  C   UNL A   1      44.744  26.481  28.434  1.00  0.00     0.029 A 
ATOM     54  N   UNL A   1      43.642  25.571  30.139  1.00  0.00    -0.354 N 
ATOM     55  N   UNL A   1      43.232  28.747  31.705  1.00  0.00    -0.248 NA
ATOM     56  C   UNL A   1      43.330  29.847  33.722  1.00  0.00     0.031 C 
ATOM     57  C   UNL A   1      45.159  27.106  29.641  1.00  0.00     0.029 A 
ATOM     58  C   UNL A   1      44.458  26.536  30.691  1.00  0.00     0.049 A 
ATOM     59  H   UNL A   1      43.056  24.970  30.654  1.00  0.00     0.167 HD
ATOM     60  C   UNL A   1      43.989  27.965  32.537  1.00  0.00     0.074 A 
ATOM     61  C   UNL A   1      44.044  28.710  33.780  1.00  0.00     0.031 C 
ATOM     62  C   UNL A   1      44.485  26.758  32.131  1.00  0.00     0.037 A 
BRANCH  49  63
ATOM     63  C   UNL A   1      43.166  23.784  26.922  1.00  0.00     0.064 A 
ATOM     64  C   UNL A   1      42.789  22.432  27.102  1.00  0.00     0.173 A 
ATOM     65  C   UNL A   1      44.012  24.001  25.813  1.00  0.00     0.173 A 
ATOM     66  F   UNL A   1      41.976  22.061  28.101  1.00  0.00    -0.203 F 
ATOM     67  C   UNL A   1      43.248  21.397  26.274  1.00  0.00     0.198 A 
ATOM     68  C   UNL A   1      44.436  22.973  24.962  1.00  0.00     0.198 A 
ATOM     69  F   UNL A   1      44.512  25.200  25.514  1.00  0.00    -0.203 F 
ATOM     70  F   UNL A   1      42.901  20.130  26.537  1.00  0.00    -0.200 F 
ATOM     71  C   UNL A   1      44.069  21.669  25.202  1.00  0.00     0.200 A 
ATOM     72  F   UNL A   1      45.230  23.265  23.921  1.00  0.00    -0.200 F 
ATOM     73  F   UNL A   1      44.516  20.684  24.412  1.00  0.00    -0.200 F 
ENDBRANCH  49  63
BRANCH  50  74
ATOM     74  C   UNL A   1      40.666  31.349  32.410  1.00  0.00     0.064 A 
ATOM     75  C   UNL A   1      39.736  30.408  32.888  1.00  0.00     0.173 A 
ATOM     76  C   UNL A   1      40.572  32.659  32.894  1.00  0.00     0.173 A 
ATOM     77  F   UNL A   1      39.791  29.136  32.461  1.00  0.00    -0.203 F 
ATOM     78  C   UNL A   1      38.826  30.733  33.891  1.00  0.00     0.198 A 
ATOM     79  C   UNL A   1      39.650  32.984  33.894  1.00  0.00     0.198 A 
ATOM     80  F   UNL A   1      41.446  33.594  32.497  1.00  0.00    -0.203 F 
ATOM     81  F   UNL A   1      38.030  29.784  34.404  1.00  0.00    -0.200 F 
ATOM     82  C   UNL A   1      38.804  32.015  34.413  1.00  0.00     0.200 A 
ATOM     83  F   UNL A   1      39.652  34.215  34.425  1.00  0.00    -0.200 F 
ATOM     84  F   UNL A   1      38.000  32.306  35.445  1.00  0.00    -0.200 F 
ENDBRANCH  50  74
BRANCH  62  85
ATOM     85  C   UNL A   1      45.100  25.709  33.027  1.00  0.00     0.064 A 
ATOM     86  C   UNL A   1      46.472  25.404  33.056  1.00  0.00     0.173 A 
ATOM     87  C   UNL A   1      44.316  25.069  34.019  1.00  0.00     0.173 A 
ATOM     88  F   UNL A   1      47.344  26.031  32.255  1.00  0.00    -0.203 F 
ATOM     89  C   UNL A   1      47.008  24.482  33.960  1.00  0.00     0.198 A 
ATOM     90  C   UNL A   1      44.864  24.195  34.958  1.00  0.00     0.198 A 
ATOM     91  F   UNL A   1      42.999  25.296  34.124  1.00  0.00    -0.203 F 
ATOM     92  F   UNL A   1      48.317  24.195  33.918  1.00  0.00    -0.200 F 
ATOM     93  C   UNL A   1      46.207  23.887  34.918  1.00  0.00     0.200 A 
ATOM     94  F   UNL A   1      44.084  23.670  35.914  1.00  0.00    -0.200 F 
ATOM     95  F   UNL A   1      46.734  23.040  35.812  1.00  0.00    -0.200 F 
ENDBRANCH  62  85
ENDBRANCH  36  37
ENDBRANCH  28  31
ENDBRANCH  26  27
ENDBRANCH  25  26
ENDBRANCH  24  25
ENDBRANCH   1  24
TORSDOF 16
ENDMDL
