MODEL 1
REMARK VINA RESULT:     -11.8      0.000      0.000
REMARK SMILES CCC[NH2+][C@@]1(C(=O)NCCCCNC(=O)c2ccc(-c3c4nc(c(-c5c(F)c(F)c(F)c(F)c5F)c5ccc([nH]5)c(-c5c(F)c(F)c(F)c(F)c5F)c5nc(c(-c6c(F)c(F)c(F)c(F)c6F)c6ccc3[nH]6)C=C5)C=C4)cc2)CC[C@@H](SC2CCCC2)C1
REMARK SMILES IDX 10 1 9 2 8 3 6 4 7 5 5 7 79 8 88 9 80 10 81 11 4 12 3 15
REMARK SMILES IDX 2 16 1 17 82 18 83 19 84 20 87 21 85 22 86 23 11 24 12 25
REMARK SMILES IDX 13 26 14 27 15 29 16 30 17 31 78 32 18 33 77 34 19 35 20 36
REMARK SMILES IDX 21 37 71 38 22 39 76 40 70 41 72 42 23 43 75 44 69 45 68 46
REMARK SMILES IDX 24 48 56 49 36 50 55 51 37 52 40 53 54 54 73 55 38 56 39 57
REMARK SMILES IDX 53 59 74 60 41 61 25 62 26 63 34 64 27 65 28 66 32 67 35 68
REMARK SMILES IDX 29 69 30 70 33 71 31 72 57 73 58 74 66 75 59 76 60 77 64 78
REMARK SMILES IDX 67 79 61 80 62 81 65 82 63 83 42 84 43 85 51 86 44 87 45 88
REMARK SMILES IDX 49 89 52 90 46 91 47 92 50 93 48 94
REMARK H PARENT 8 6 4 13 4 14 13 28 72 47 40 58
REMARK Flexibility Score: inf
ROOT
ATOM      1  C   UNL A   1      32.231  30.371  26.582  1.00  0.00     0.023 C 
ENDROOT
BRANCH   1   2
ATOM      2  C   UNL A   1      31.824  29.866  25.205  1.00  0.00     0.116 C 
BRANCH   2   3
ATOM      3  N   UNL A   1      32.925  29.740  24.292  1.00  0.00    -0.351 N 
ATOM      4  C   UNL A   1      33.271  28.760  23.420  1.00  0.00     0.281 C 
ATOM      5  O   UNL A   1      34.266  29.024  22.723  1.00  0.00    -0.268 OA
ATOM      6  H   UNL A   1      33.543  30.506  24.301  1.00  0.00     0.163 HD
BRANCH   4   7
ATOM      7  C   UNL A   1      32.517  27.367  23.219  1.00  0.00     0.176 C 
ATOM      8  C   UNL A   1      31.879  26.825  24.517  1.00  0.00     0.080 C 
ATOM      9  C   UNL A   1      33.445  26.231  22.727  1.00  0.00     0.093 C 
ATOM     10  C   UNL A   1      32.734  25.672  25.039  1.00  0.00     0.022 C 
ATOM     11  C   UNL A   1      33.616  25.230  23.877  1.00  0.00     0.054 C 
BRANCH   7  12
ATOM     12  N   UNL A   1      31.341  27.716  22.347  1.00  0.00    -0.334 N 
ATOM     13  H   UNL A   1      31.473  28.675  22.026  1.00  0.00     0.347 HD
ATOM     14  H   UNL A   1      31.342  27.002  21.617  1.00  0.00     0.347 HD
BRANCH  12  15
ATOM     15  C   UNL A   1      30.010  27.635  22.935  1.00  0.00     0.261 C 
BRANCH  15  16
ATOM     16  C   UNL A   1      29.172  28.888  22.652  1.00  0.00     0.058 C 
ATOM     17  C   UNL A   1      29.952  29.974  21.929  1.00  0.00     0.010 C 
ENDBRANCH  15  16
ENDBRANCH  12  15
ENDBRANCH   7  12
BRANCH  11  18
ATOM     18  S   UNL A   1      33.708  23.448  23.456  1.00  0.00    -0.155 SA
BRANCH  18  19
ATOM     19  C   UNL A   1      35.173  22.731  24.271  1.00  0.00     0.047 C 
ATOM     20  C   UNL A   1      36.484  22.624  23.508  1.00  0.00     0.014 C 
ATOM     21  C   UNL A   1      35.554  23.289  25.640  1.00  0.00     0.014 C 
ATOM     22  C   UNL A   1      37.450  22.168  24.590  1.00  0.00     0.001 C 
ATOM     23  C   UNL A   1      37.059  23.033  25.783  1.00  0.00     0.001 C 
ENDBRANCH  18  19
ENDBRANCH  11  18
ENDBRANCH   4   7
ENDBRANCH   2   3
ENDBRANCH   1   2
BRANCH   1  24
ATOM     24  C   UNL A   1      31.795  31.801  26.877  1.00  0.00     0.023 C 
BRANCH  24  25
ATOM     25  C   UNL A   1      32.892  32.723  27.400  1.00  0.00     0.116 C 
BRANCH  25  26
ATOM     26  N   UNL A   1      32.456  34.085  27.679  1.00  0.00    -0.352 N 
ATOM     27  C   UNL A   1      32.996  34.975  28.585  1.00  0.00     0.251 C 
ATOM     28  H   UNL A   1      31.685  34.408  27.159  1.00  0.00     0.163 HD
ATOM     29  O   UNL A   1      32.505  36.078  28.765  1.00  0.00    -0.269 OA
BRANCH  27  30
ATOM     30  C   UNL A   1      34.159  34.532  29.377  1.00  0.00     0.039 A 
ATOM     31  C   UNL A   1      33.939  33.919  30.611  1.00  0.00     0.014 A 
ATOM     32  C   UNL A   1      35.440  34.596  28.824  1.00  0.00     0.014 A 
ATOM     33  C   UNL A   1      35.001  33.281  31.253  1.00  0.00     0.010 A 
ATOM     34  C   UNL A   1      36.474  33.887  29.422  1.00  0.00     0.010 A 
ATOM     35  C   UNL A   1      36.262  33.213  30.636  1.00  0.00    -0.014 A 
BRANCH  35  36
ATOM     36  C   UNL A   1      37.375  32.437  31.236  1.00  0.00     0.031 A 
ATOM     37  C   UNL A   1      37.873  32.787  32.610  1.00  0.00     0.074 A 
ATOM     38  C   UNL A   1      37.994  31.482  30.514  1.00  0.00     0.049 A 
ATOM     39  N   UNL A   1      38.889  32.298  33.272  1.00  0.00    -0.248 NA
ATOM     40  C   UNL A   1      37.153  33.858  33.318  1.00  0.00     0.031 C 
ATOM     41  C   UNL A   1      37.648  31.097  29.144  1.00  0.00     0.029 A 
ATOM     42  N   UNL A   1      39.054  30.669  30.828  1.00  0.00    -0.354 N 
ATOM     43  C   UNL A   1      38.945  33.017  34.458  1.00  0.00     0.074 A 
ATOM     44  C   UNL A   1      37.898  34.013  34.401  1.00  0.00     0.031 C 
ATOM     45  C   UNL A   1      38.463  30.106  28.746  1.00  0.00     0.029 A 
ATOM     46  C   UNL A   1      39.409  29.810  29.817  1.00  0.00     0.049 A 
ATOM     47  H   UNL A   1      39.517  30.700  31.696  1.00  0.00     0.167 HD
ATOM     48  C   UNL A   1      39.775  32.843  35.512  1.00  0.00     0.037 A 
ATOM     49  C   UNL A   1      40.390  28.888  29.762  1.00  0.00     0.037 A 
ATOM     50  C   UNL A   1      40.786  31.823  35.584  1.00  0.00     0.049 A 
ATOM     51  C   UNL A   1      41.280  28.693  30.961  1.00  0.00     0.074 A 
ATOM     52  C   UNL A   1      41.627  31.513  36.637  1.00  0.00     0.029 A 
ATOM     53  N   UNL A   1      41.087  30.940  34.557  1.00  0.00    -0.354 N 
ATOM     54  N   UNL A   1      41.274  29.327  32.108  1.00  0.00    -0.248 NA
ATOM     55  C   UNL A   1      42.308  27.648  30.858  1.00  0.00     0.031 C 
ATOM     56  C   UNL A   1      42.463  30.466  36.236  1.00  0.00     0.029 A 
ATOM     57  C   UNL A   1      42.113  30.095  34.946  1.00  0.00     0.049 A 
ATOM     58  H   UNL A   1      40.638  30.918  33.681  1.00  0.00     0.167 HD
ATOM     59  C   UNL A   1      42.274  28.743  32.872  1.00  0.00     0.074 A 
ATOM     60  C   UNL A   1      42.859  27.694  32.063  1.00  0.00     0.031 C 
ATOM     61  C   UNL A   1      42.674  29.049  34.131  1.00  0.00     0.037 A 
BRANCH  48  62
ATOM     62  C   UNL A   1      39.614  33.772  36.679  1.00  0.00     0.064 A 
ATOM     63  C   UNL A   1      38.812  33.435  37.780  1.00  0.00     0.173 A 
ATOM     64  C   UNL A   1      40.284  35.004  36.707  1.00  0.00     0.173 A 
ATOM     65  F   UNL A   1      38.139  32.275  37.795  1.00  0.00    -0.203 F 
ATOM     66  C   UNL A   1      38.661  34.311  38.852  1.00  0.00     0.198 A 
ATOM     67  C   UNL A   1      40.154  35.864  37.794  1.00  0.00     0.198 A 
ATOM     68  F   UNL A   1      41.064  35.373  35.681  1.00  0.00    -0.203 F 
ATOM     69  F   UNL A   1      37.848  33.990  39.867  1.00  0.00    -0.200 F 
ATOM     70  C   UNL A   1      39.337  35.521  38.860  1.00  0.00     0.200 A 
ATOM     71  F   UNL A   1      40.816  37.030  37.807  1.00  0.00    -0.200 F 
ATOM     72  F   UNL A   1      39.193  36.363  39.894  1.00  0.00    -0.200 F 
ENDBRANCH  48  62
BRANCH  49  73
ATOM     73  C   UNL A   1      40.559  28.052  28.546  1.00  0.00     0.064 A 
ATOM     74  C   UNL A   1      41.345  28.496  27.474  1.00  0.00     0.173 A 
ATOM     75  C   UNL A   1      39.938  26.800  28.425  1.00  0.00     0.173 A 
ATOM     76  F   UNL A   1      41.942  29.695  27.535  1.00  0.00    -0.203 F 
ATOM     77  C   UNL A   1      41.489  27.729  26.319  1.00  0.00     0.198 A 
ATOM     78  C   UNL A   1      40.104  26.023  27.280  1.00  0.00     0.198 A 
ATOM     79  F   UNL A   1      39.180  26.327  29.425  1.00  0.00    -0.203 F 
ATOM     80  F   UNL A   1      42.212  28.198  25.292  1.00  0.00    -0.200 F 
ATOM     81  C   UNL A   1      40.873  26.492  26.225  1.00  0.00     0.200 A 
ATOM     82  F   UNL A   1      39.516  24.821  27.199  1.00  0.00    -0.200 F 
ATOM     83  F   UNL A   1      41.013  25.754  25.116  1.00  0.00    -0.200 F 
ENDBRANCH  49  73
BRANCH  61  84
ATOM     84  C   UNL A   1      43.772  28.218  34.724  1.00  0.00     0.064 A 
ATOM     85  C   UNL A   1      45.114  28.619  34.655  1.00  0.00     0.173 A 
ATOM     86  C   UNL A   1      43.472  27.032  35.410  1.00  0.00     0.173 A 
ATOM     87  F   UNL A   1      45.452  29.737  33.997  1.00  0.00    -0.203 F 
ATOM     88  C   UNL A   1      46.119  27.849  35.235  1.00  0.00     0.198 A 
ATOM     89  C   UNL A   1      44.476  26.280  36.011  1.00  0.00     0.198 A 
ATOM     90  F   UNL A   1      42.202  26.611  35.509  1.00  0.00    -0.203 F 
ATOM     91  F   UNL A   1      47.400  28.229  35.122  1.00  0.00    -0.200 F 
ATOM     92  C   UNL A   1      45.799  26.686  35.919  1.00  0.00     0.200 A 
ATOM     93  F   UNL A   1      44.164  25.162  36.682  1.00  0.00    -0.200 F 
ATOM     94  F   UNL A   1      46.767  25.951  36.483  1.00  0.00    -0.200 F 
ENDBRANCH  61  84
ENDBRANCH  35  36
ENDBRANCH  27  30
ENDBRANCH  25  26
ENDBRANCH  24  25
ENDBRANCH   1  24
TORSDOF 16
ENDMDL
MODEL 2
REMARK VINA RESULT:     -11.7      0.610      2.069
REMARK SMILES CCC[NH2+][C@@]1(C(=O)NCCCCNC(=O)c2ccc(-c3c4nc(c(-c5c(F)c(F)c(F)c(F)c5F)c5ccc([nH]5)c(-c5c(F)c(F)c(F)c(F)c5F)c5nc(c(-c6c(F)c(F)c(F)c(F)c6F)c6ccc3[nH]6)C=C5)C=C4)cc2)CC[C@@H](SC2CCCC2)C1
REMARK SMILES IDX 10 1 9 2 8 3 6 4 7 5 5 7 79 8 88 9 80 10 81 11 4 12 3 15
REMARK SMILES IDX 2 16 1 17 82 18 83 19 84 20 87 21 85 22 86 23 11 24 12 25
REMARK SMILES IDX 13 26 14 27 15 29 16 30 17 31 78 32 18 33 77 34 19 35 20 36
REMARK SMILES IDX 21 37 71 38 22 39 76 40 70 41 72 42 23 43 75 44 69 45 68 46
REMARK SMILES IDX 24 48 56 49 36 50 55 51 37 52 40 53 54 54 73 55 38 56 39 57
REMARK SMILES IDX 53 59 74 60 41 61 25 62 26 63 34 64 27 65 28 66 32 67 35 68
REMARK SMILES IDX 29 69 30 70 33 71 31 72 57 73 58 74 66 75 59 76 60 77 64 78
REMARK SMILES IDX 67 79 61 80 62 81 65 82 63 83 42 84 43 85 51 86 44 87 45 88
REMARK SMILES IDX 49 89 52 90 46 91 47 92 50 93 48 94
REMARK H PARENT 8 6 4 13 4 14 13 28 72 47 40 58
REMARK Flexibility Score: inf
ROOT
ATOM      1  C   UNL A   1      32.143  30.142  27.192  1.00  0.00     0.023 C 
ENDROOT
BRANCH   1   2
ATOM      2  C   UNL A   1      33.487  29.623  26.702  1.00  0.00     0.116 C 
BRANCH   2   3
ATOM      3  N   UNL A   1      33.649  29.703  25.278  1.00  0.00    -0.351 N 
ATOM      4  C   UNL A   1      33.250  28.883  24.274  1.00  0.00     0.281 C 
ATOM      5  O   UNL A   1      33.503  29.309  23.134  1.00  0.00    -0.268 OA
ATOM      6  H   UNL A   1      34.140  30.500  24.974  1.00  0.00     0.163 HD
BRANCH   4   7
ATOM      7  C   UNL A   1      32.497  27.485  24.440  1.00  0.00     0.176 C 
ATOM      8  C   UNL A   1      32.891  26.729  25.728  1.00  0.00     0.080 C 
ATOM      9  C   UNL A   1      32.785  26.491  23.291  1.00  0.00     0.093 C 
ATOM     10  C   UNL A   1      33.816  25.572  25.354  1.00  0.00     0.022 C 
ATOM     11  C   UNL A   1      33.647  25.353  23.856  1.00  0.00     0.054 C 
BRANCH   7  12
ATOM     12  N   UNL A   1      31.060  27.874  24.664  1.00  0.00    -0.334 N 
ATOM     13  H   UNL A   1      30.809  27.580  25.608  1.00  0.00     0.347 HD
ATOM     14  H   UNL A   1      31.037  28.879  24.493  1.00  0.00     0.347 HD
BRANCH  12  15
ATOM     15  C   UNL A   1      30.057  27.326  23.759  1.00  0.00     0.261 C 
BRANCH  15  16
ATOM     16  C   UNL A   1      29.188  28.418  23.126  1.00  0.00     0.058 C 
ATOM     17  C   UNL A   1      29.762  29.814  23.305  1.00  0.00     0.010 C 
ENDBRANCH  15  16
ENDBRANCH  12  15
ENDBRANCH   7  12
BRANCH  11  18
ATOM     18  S   UNL A   1      33.343  23.656  23.232  1.00  0.00    -0.155 SA
BRANCH  18  19
ATOM     19  C   UNL A   1      34.815  22.636  23.575  1.00  0.00     0.047 C 
ATOM     20  C   UNL A   1      36.156  23.307  23.831  1.00  0.00     0.014 C 
ATOM     21  C   UNL A   1      34.690  21.573  24.663  1.00  0.00     0.014 C 
ATOM     22  C   UNL A   1      37.028  22.135  24.251  1.00  0.00     0.001 C 
ATOM     23  C   UNL A   1      36.115  21.347  25.183  1.00  0.00     0.001 C 
ENDBRANCH  18  19
ENDBRANCH  11  18
ENDBRANCH   4   7
ENDBRANCH   2   3
ENDBRANCH   1   2
BRANCH   1  24
ATOM     24  C   UNL A   1      31.887  31.610  26.873  1.00  0.00     0.023 C 
BRANCH  24  25
ATOM     25  C   UNL A   1      32.991  32.573  27.297  1.00  0.00     0.116 C 
BRANCH  25  26
ATOM     26  N   UNL A   1      32.533  33.922  27.603  1.00  0.00    -0.352 N 
ATOM     27  C   UNL A   1      33.035  34.787  28.553  1.00  0.00     0.251 C 
ATOM     28  H   UNL A   1      31.777  34.255  27.069  1.00  0.00     0.163 HD
ATOM     29  O   UNL A   1      32.528  35.880  28.751  1.00  0.00    -0.269 OA
BRANCH  27  30
ATOM     30  C   UNL A   1      34.176  34.330  29.369  1.00  0.00     0.039 A 
ATOM     31  C   UNL A   1      33.924  33.570  30.512  1.00  0.00     0.014 A 
ATOM     32  C   UNL A   1      35.481  34.534  28.914  1.00  0.00     0.014 A 
ATOM     33  C   UNL A   1      34.987  32.929  31.151  1.00  0.00     0.010 A 
ATOM     34  C   UNL A   1      36.522  33.826  29.500  1.00  0.00     0.010 A 
ATOM     35  C   UNL A   1      36.284  33.008  30.617  1.00  0.00    -0.014 A 
BRANCH  35  36
ATOM     36  C   UNL A   1      37.409  32.238  31.203  1.00  0.00     0.031 A 
ATOM     37  C   UNL A   1      37.905  32.574  32.580  1.00  0.00     0.074 A 
ATOM     38  C   UNL A   1      38.039  31.304  30.465  1.00  0.00     0.049 A 
ATOM     39  N   UNL A   1      38.929  32.089  33.234  1.00  0.00    -0.248 NA
ATOM     40  C   UNL A   1      37.171  33.624  33.306  1.00  0.00     0.031 C 
ATOM     41  C   UNL A   1      37.696  30.935  29.089  1.00  0.00     0.029 A 
ATOM     42  N   UNL A   1      39.111  30.501  30.764  1.00  0.00    -0.354 N 
ATOM     43  C   UNL A   1      38.977  32.790  34.430  1.00  0.00     0.074 A 
ATOM     44  C   UNL A   1      37.916  33.773  34.390  1.00  0.00     0.031 C 
ATOM     45  C   UNL A   1      38.524  29.962  28.675  1.00  0.00     0.029 A 
ATOM     46  C   UNL A   1      39.477  29.662  29.740  1.00  0.00     0.049 A 
ATOM     47  H   UNL A   1      39.576  30.524  31.632  1.00  0.00     0.167 HD
ATOM     48  C   UNL A   1      39.812  32.612  35.480  1.00  0.00     0.037 A 
ATOM     49  C   UNL A   1      40.470  28.755  29.669  1.00  0.00     0.037 A 
ATOM     50  C   UNL A   1      40.837  31.605  35.534  1.00  0.00     0.049 A 
ATOM     51  C   UNL A   1      41.365  28.554  30.862  1.00  0.00     0.074 A 
ATOM     52  C   UNL A   1      41.685  31.291  36.580  1.00  0.00     0.029 A 
ATOM     53  N   UNL A   1      41.149  30.743  34.493  1.00  0.00    -0.354 N 
ATOM     54  N   UNL A   1      41.352  29.170  32.019  1.00  0.00    -0.248 NA
ATOM     55  C   UNL A   1      42.407  27.525  30.742  1.00  0.00     0.031 C 
ATOM     56  C   UNL A   1      42.534  30.262  36.162  1.00  0.00     0.029 A 
ATOM     57  C   UNL A   1      42.187  29.906  34.867  1.00  0.00     0.049 A 
ATOM     58  H   UNL A   1      40.698  30.728  33.617  1.00  0.00     0.167 HD
ATOM     59  C   UNL A   1      42.362  28.589  32.772  1.00  0.00     0.074 A 
ATOM     60  C   UNL A   1      42.960  27.560  31.946  1.00  0.00     0.031 C 
ATOM     61  C   UNL A   1      42.761  28.881  34.034  1.00  0.00     0.037 A 
BRANCH  48  62
ATOM     62  C   UNL A   1      39.641  33.521  36.661  1.00  0.00     0.064 A 
ATOM     63  C   UNL A   1      40.304  34.756  36.739  1.00  0.00     0.173 A 
ATOM     64  C   UNL A   1      38.791  33.164  37.718  1.00  0.00     0.173 A 
ATOM     65  F   UNL A   1      41.139  35.136  35.762  1.00  0.00    -0.203 F 
ATOM     66  C   UNL A   1      40.145  35.585  37.847  1.00  0.00     0.198 A 
ATOM     67  C   UNL A   1      38.612  34.010  38.809  1.00  0.00     0.198 A 
ATOM     68  F   UNL A   1      38.132  31.996  37.691  1.00  0.00    -0.203 F 
ATOM     69  F   UNL A   1      40.830  36.734  37.923  1.00  0.00    -0.200 F 
ATOM     70  C   UNL A   1      39.296  35.214  38.877  1.00  0.00     0.200 A 
ATOM     71  F   UNL A   1      37.782  33.655  39.801  1.00  0.00    -0.200 F 
ATOM     72  F   UNL A   1      39.141  36.015  39.941  1.00  0.00    -0.200 F 
ENDBRANCH  48  62
BRANCH  49  73
ATOM     73  C   UNL A   1      40.647  27.941  28.439  1.00  0.00     0.064 A 
ATOM     74  C   UNL A   1      40.029  26.689  28.312  1.00  0.00     0.173 A 
ATOM     75  C   UNL A   1      41.438  28.389  27.372  1.00  0.00     0.173 A 
ATOM     76  F   UNL A   1      39.279  26.209  29.315  1.00  0.00    -0.203 F 
ATOM     77  C   UNL A   1      40.210  25.908  27.172  1.00  0.00     0.198 A 
ATOM     78  C   UNL A   1      41.598  27.618  26.221  1.00  0.00     0.198 A 
ATOM     79  F   UNL A   1      42.047  29.582  27.441  1.00  0.00    -0.203 F 
ATOM     80  F   UNL A   1      39.642  24.696  27.096  1.00  0.00    -0.200 F 
ATOM     81  C   UNL A   1      40.990  26.374  26.126  1.00  0.00     0.200 A 
ATOM     82  F   UNL A   1      42.343  28.079  25.207  1.00  0.00    -0.200 F 
ATOM     83  F   UNL A   1      41.163  25.624  25.029  1.00  0.00    -0.200 F 
ENDBRANCH  49  73
BRANCH  61  84
ATOM     84  C   UNL A   1      43.871  28.056  34.613  1.00  0.00     0.064 A 
ATOM     85  C   UNL A   1      43.619  26.842  35.267  1.00  0.00     0.173 A 
ATOM     86  C   UNL A   1      45.206  28.463  34.469  1.00  0.00     0.173 A 
ATOM     87  F   UNL A   1      42.358  26.419  35.442  1.00  0.00    -0.203 F 
ATOM     88  C   UNL A   1      44.664  26.074  35.775  1.00  0.00     0.198 A 
ATOM     89  C   UNL A   1      46.248  27.680  34.954  1.00  0.00     0.198 A 
ATOM     90  F   UNL A   1      45.498  29.614  33.845  1.00  0.00    -0.203 F 
ATOM     91  F   UNL A   1      44.397  24.937  36.433  1.00  0.00    -0.200 F 
ATOM     92  C   UNL A   1      45.977  26.489  35.611  1.00  0.00     0.200 A 
ATOM     93  F   UNL A   1      47.518  28.076  34.785  1.00  0.00    -0.200 F 
ATOM     94  F   UNL A   1      46.981  25.745  36.094  1.00  0.00    -0.200 F 
ENDBRANCH  61  84
ENDBRANCH  35  36
ENDBRANCH  27  30
ENDBRANCH  25  26
ENDBRANCH  24  25
ENDBRANCH   1  24
TORSDOF 16
ENDMDL
MODEL 3
REMARK VINA RESULT:     -11.7      0.885      7.508
REMARK SMILES CCC[NH2+][C@@]1(C(=O)NCCCCNC(=O)c2ccc(-c3c4nc(c(-c5c(F)c(F)c(F)c(F)c5F)c5ccc([nH]5)c(-c5c(F)c(F)c(F)c(F)c5F)c5nc(c(-c6c(F)c(F)c(F)c(F)c6F)c6ccc3[nH]6)C=C5)C=C4)cc2)CC[C@@H](SC2CCCC2)C1
REMARK SMILES IDX 10 1 9 2 8 3 6 4 7 5 5 7 79 8 88 9 80 10 81 11 4 12 3 15
REMARK SMILES IDX 2 16 1 17 82 18 83 19 84 20 87 21 85 22 86 23 11 24 12 25
REMARK SMILES IDX 13 26 14 27 15 29 16 30 17 31 78 32 18 33 77 34 19 35 20 36
REMARK SMILES IDX 21 37 71 38 22 39 76 40 70 41 72 42 23 43 75 44 69 45 68 46
REMARK SMILES IDX 24 48 56 49 36 50 55 51 37 52 40 53 54 54 73 55 38 56 39 57
REMARK SMILES IDX 53 59 74 60 41 61 25 62 26 63 34 64 27 65 28 66 32 67 35 68
REMARK SMILES IDX 29 69 30 70 33 71 31 72 57 73 58 74 66 75 59 76 60 77 64 78
REMARK SMILES IDX 67 79 61 80 62 81 65 82 63 83 42 84 43 85 51 86 44 87 45 88
REMARK SMILES IDX 49 89 52 90 46 91 47 92 50 93 48 94
REMARK H PARENT 8 6 4 13 4 14 13 28 72 47 40 58
REMARK Flexibility Score: inf
ROOT
ATOM      1  C   UNL A   1      32.321  30.004  27.195  1.00  0.00     0.023 C 
ENDROOT
BRANCH   1   2
ATOM      2  C   UNL A   1      33.635  29.424  26.692  1.00  0.00     0.116 C 
BRANCH   2   3
ATOM      3  N   UNL A   1      33.811  29.547  25.272  1.00  0.00    -0.351 N 
ATOM      4  C   UNL A   1      33.439  28.748  24.241  1.00  0.00     0.281 C 
ATOM      5  O   UNL A   1      33.696  29.211  23.117  1.00  0.00    -0.268 OA
ATOM      6  H   UNL A   1      34.290  30.361  24.996  1.00  0.00     0.163 HD
BRANCH   4   7
ATOM      7  C   UNL A   1      32.711  27.331  24.360  1.00  0.00     0.176 C 
ATOM      8  C   UNL A   1      33.166  26.513  25.589  1.00  0.00     0.080 C 
ATOM      9  C   UNL A   1      32.967  26.405  23.148  1.00  0.00     0.093 C 
ATOM     10  C   UNL A   1      34.091  25.393  25.117  1.00  0.00     0.022 C 
ATOM     11  C   UNL A   1      33.865  25.252  23.616  1.00  0.00     0.054 C 
BRANCH   7  12
ATOM     12  N   UNL A   1      31.280  27.686  24.661  1.00  0.00    -0.334 N 
ATOM     13  H   UNL A   1      30.877  26.909  25.185  1.00  0.00     0.347 HD
ATOM     14  H   UNL A   1      31.335  28.574  25.160  1.00  0.00     0.347 HD
BRANCH  12  15
ATOM     15  C   UNL A   1      30.394  27.954  23.535  1.00  0.00     0.261 C 
BRANCH  15  16
ATOM     16  C   UNL A   1      29.940  29.418  23.488  1.00  0.00     0.058 C 
ATOM     17  C   UNL A   1      29.356  29.816  22.142  1.00  0.00     0.010 C 
ENDBRANCH  15  16
ENDBRANCH  12  15
ENDBRANCH   7  12
BRANCH  11  18
ATOM     18  S   UNL A   1      33.559  23.587  22.913  1.00  0.00    -0.155 SA
BRANCH  18  19
ATOM     19  C   UNL A   1      33.952  22.337  24.182  1.00  0.00     0.047 C 
ATOM     20  C   UNL A   1      33.221  21.004  24.180  1.00  0.00     0.014 C 
ATOM     21  C   UNL A   1      35.423  21.983  24.381  1.00  0.00     0.014 C 
ATOM     22  C   UNL A   1      33.972  20.223  25.246  1.00  0.00     0.001 C 
ATOM     23  C   UNL A   1      35.430  20.560  24.953  1.00  0.00     0.001 C 
ENDBRANCH  18  19
ENDBRANCH  11  18
ENDBRANCH   4   7
ENDBRANCH   2   3
ENDBRANCH   1   2
BRANCH   1  24
ATOM     24  C   UNL A   1      32.104  31.467  26.831  1.00  0.00     0.023 C 
BRANCH  24  25
ATOM     25  C   UNL A   1      33.065  32.452  27.489  1.00  0.00     0.116 C 
BRANCH  25  26
ATOM     26  N   UNL A   1      32.529  33.796  27.664  1.00  0.00    -0.352 N 
ATOM     27  C   UNL A   1      32.981  34.780  28.520  1.00  0.00     0.251 C 
ATOM     28  H   UNL A   1      31.753  34.029  27.106  1.00  0.00     0.163 HD
ATOM     29  O   UNL A   1      32.411  35.855  28.614  1.00  0.00    -0.269 OA
BRANCH  27  30
ATOM     30  C   UNL A   1      34.150  34.473  29.367  1.00  0.00     0.039 A 
ATOM     31  C   UNL A   1      33.937  33.941  30.640  1.00  0.00     0.014 A 
ATOM     32  C   UNL A   1      35.438  34.578  28.838  1.00  0.00     0.014 A 
ATOM     33  C   UNL A   1      35.021  33.423  31.351  1.00  0.00     0.010 A 
ATOM     34  C   UNL A   1      36.498  33.984  29.510  1.00  0.00     0.010 A 
ATOM     35  C   UNL A   1      36.298  33.391  30.766  1.00  0.00    -0.014 A 
BRANCH  35  36
ATOM     36  C   UNL A   1      37.442  32.735  31.447  1.00  0.00     0.031 A 
ATOM     37  C   UNL A   1      38.138  31.578  30.789  1.00  0.00     0.074 A 
ATOM     38  C   UNL A   1      37.794  33.119  32.690  1.00  0.00     0.049 A 
ATOM     39  N   UNL A   1      39.091  30.811  31.253  1.00  0.00    -0.248 NA
ATOM     40  C   UNL A   1      37.675  31.211  29.441  1.00  0.00     0.031 C 
ATOM     41  C   UNL A   1      37.150  34.184  33.463  1.00  0.00     0.029 A 
ATOM     42  N   UNL A   1      38.773  32.648  33.529  1.00  0.00    -0.354 N 
ATOM     43  C   UNL A   1      39.320  29.860  30.269  1.00  0.00     0.074 A 
ATOM     44  C   UNL A   1      38.370  30.110  29.207  1.00  0.00     0.031 C 
ATOM     45  C   UNL A   1      37.768  34.301  34.650  1.00  0.00     0.029 A 
ATOM     46  C   UNL A   1      38.827  33.300  34.736  1.00  0.00     0.049 A 
ATOM     47  H   UNL A   1      39.380  31.912  33.287  1.00  0.00     0.167 HD
ATOM     48  C   UNL A   1      40.257  28.884  30.239  1.00  0.00     0.037 A 
ATOM     49  C   UNL A   1      39.639  33.109  35.794  1.00  0.00     0.037 A 
ATOM     50  C   UNL A   1      41.229  28.667  31.277  1.00  0.00     0.049 A 
ATOM     51  C   UNL A   1      40.694  32.038  35.723  1.00  0.00     0.074 A 
ATOM     52  C   UNL A   1      42.269  27.757  31.309  1.00  0.00     0.029 A 
ATOM     53  N   UNL A   1      41.281  29.378  32.467  1.00  0.00    -0.354 N 
ATOM     54  N   UNL A   1      40.952  31.193  34.754  1.00  0.00    -0.248 NA
ATOM     55  C   UNL A   1      41.575  31.899  36.890  1.00  0.00     0.031 C 
ATOM     56  C   UNL A   1      42.931  27.891  32.534  1.00  0.00     0.029 A 
ATOM     57  C   UNL A   1      42.327  28.915  33.248  1.00  0.00     0.049 A 
ATOM     58  H   UNL A   1      40.665  30.103  32.720  1.00  0.00     0.167 HD
ATOM     59  C   UNL A   1      42.038  30.443  35.181  1.00  0.00     0.074 A 
ATOM     60  C   UNL A   1      42.400  30.941  36.493  1.00  0.00     0.031 C 
ATOM     61  C   UNL A   1      42.678  29.431  34.546  1.00  0.00     0.037 A 
BRANCH  48  62
ATOM     62  C   UNL A   1      40.282  27.986  29.039  1.00  0.00     0.064 A 
ATOM     63  C   UNL A   1      41.023  28.314  27.892  1.00  0.00     0.173 A 
ATOM     64  C   UNL A   1      39.573  26.776  29.039  1.00  0.00     0.173 A 
ATOM     65  F   UNL A   1      41.705  29.467  27.836  1.00  0.00    -0.203 F 
ATOM     66  C   UNL A   1      41.028  27.477  26.779  1.00  0.00     0.198 A 
ATOM     67  C   UNL A   1      39.606  25.928  27.935  1.00  0.00     0.198 A 
ATOM     68  F   UNL A   1      38.851  26.415  30.109  1.00  0.00    -0.203 F 
ATOM     69  F   UNL A   1      41.700  27.837  25.677  1.00  0.00    -0.200 F 
ATOM     70  C   UNL A   1      40.325  26.283  26.804  1.00  0.00     0.200 A 
ATOM     71  F   UNL A   1      38.934  24.768  27.963  1.00  0.00    -0.200 F 
ATOM     72  F   UNL A   1      40.334  25.477  25.733  1.00  0.00    -0.200 F 
ENDBRANCH  48  62
BRANCH  49  73
ATOM     73  C   UNL A   1      39.513  33.974  36.995  1.00  0.00     0.064 A 
ATOM     74  C   UNL A   1      38.765  33.557  38.105  1.00  0.00     0.173 A 
ATOM     75  C   UNL A   1      40.130  35.232  37.059  1.00  0.00     0.173 A 
ATOM     76  F   UNL A   1      38.140  32.371  38.082  1.00  0.00    -0.203 F 
ATOM     77  C   UNL A   1      38.622  34.373  39.225  1.00  0.00     0.198 A 
ATOM     78  C   UNL A   1      40.008  36.036  38.191  1.00  0.00     0.198 A 
ATOM     79  F   UNL A   1      40.862  35.675  36.026  1.00  0.00    -0.203 F 
ATOM     80  F   UNL A   1      37.865  33.967  40.254  1.00  0.00    -0.200 F 
ATOM     81  C   UNL A   1      39.247  35.609  39.270  1.00  0.00     0.200 A 
ATOM     82  F   UNL A   1      40.624  37.225  38.235  1.00  0.00    -0.200 F 
ATOM     83  F   UNL A   1      39.111  36.392  40.348  1.00  0.00    -0.200 F 
ENDBRANCH  49  73
BRANCH  61  84
ATOM     84  C   UNL A   1      43.856  28.818  35.242  1.00  0.00     0.064 A 
ATOM     85  C   UNL A   1      45.157  29.304  35.048  1.00  0.00     0.173 A 
ATOM     86  C   UNL A   1      43.674  27.763  36.149  1.00  0.00     0.173 A 
ATOM     87  F   UNL A   1      45.383  30.301  34.179  1.00  0.00    -0.203 F 
ATOM     88  C   UNL A   1      46.237  28.741  35.723  1.00  0.00     0.198 A 
ATOM     89  C   UNL A   1      44.752  27.222  36.842  1.00  0.00     0.198 A 
ATOM     90  F   UNL A   1      42.447  27.268  36.373  1.00  0.00    -0.203 F 
ATOM     91  F   UNL A   1      47.478  29.194  35.492  1.00  0.00    -0.200 F 
ATOM     92  C   UNL A   1      46.033  27.707  36.625  1.00  0.00     0.200 A 
ATOM     93  F   UNL A   1      44.552  26.231  37.721  1.00  0.00    -0.200 F 
ATOM     94  F   UNL A   1      47.073  27.173  37.279  1.00  0.00    -0.200 F 
ENDBRANCH  61  84
ENDBRANCH  35  36
ENDBRANCH  27  30
ENDBRANCH  25  26
ENDBRANCH  24  25
ENDBRANCH   1  24
TORSDOF 16
ENDMDL
