MODEL 1
REMARK VINA RESULT:     -11.2      0.000      0.000
REMARK SMILES CCOC(=O)CN(C)C(=O)N1CC[C@H](C(=O)NCCCCNC(=O)c2ccc(-c3c4nc(c(-c5c(F)c(F)c(F)c(F)c5F)c5ccc([nH]5)c(-c5c(F)c(F)c(F)c(F)c5F)c5nc(c(-c6c(F)c(F)c(F)c(F)c6F)c6ccc3[nH]6)C=C5)C=C4)cc2)[C@H]1C
REMARK SMILES IDX 15 1 16 2 17 3 14 5 11 6 12 7 88 8 13 9 89 10 9 11 10 12
REMARK SMILES IDX 7 13 8 14 6 15 4 16 5 17 3 18 2 19 1 20 18 21 19 22 20 23
REMARK SMILES IDX 21 24 22 25 23 26 24 28 25 29 26 30 87 31 27 32 86 33 28 34
REMARK SMILES IDX 29 35 30 36 80 37 31 38 85 39 79 40 81 41 32 42 84 43 78 44
REMARK SMILES IDX 77 45 33 47 65 48 45 49 64 50 46 51 49 52 63 53 82 54 47 55
REMARK SMILES IDX 48 56 62 58 83 59 50 60 34 61 35 62 43 63 36 64 37 65 41 66
REMARK SMILES IDX 44 67 38 68 39 69 42 70 40 71 66 72 67 73 75 74 68 75 69 76
REMARK SMILES IDX 73 77 76 78 70 79 71 80 74 81 72 82 51 83 52 84 60 85 53 86
REMARK SMILES IDX 54 87 58 88 61 89 55 90 56 91 59 92 57 93
REMARK H PARENT 17 4 22 27 81 46 49 57
REMARK Flexibility Score: inf
ROOT
ATOM      1  C   UNL A   1      31.815  23.839  26.895  1.00  0.00     0.225 C 
ATOM      2  O   UNL A   1      31.125  22.975  27.433  1.00  0.00    -0.275 OA
ATOM      3  N   UNL A   1      31.205  25.000  26.524  1.00  0.00    -0.356 N 
ATOM      4  H   UNL A   1      30.231  25.025  26.664  1.00  0.00     0.163 HD
ENDROOT
BRANCH   1   5
ATOM      5  C   UNL A   1      33.315  23.695  26.688  1.00  0.00     0.102 C 
ATOM      6  N   UNL A   1      33.761  21.636  25.559  1.00  0.00    -0.321 N 
ATOM      7  C   UNL A   1      33.734  21.375  26.995  1.00  0.00     0.122 C 
ATOM      8  C   UNL A   1      33.678  23.092  25.307  1.00  0.00     0.096 C 
ATOM      9  C   UNL A   1      33.952  22.712  27.669  1.00  0.00     0.037 C 
ATOM     10  C   UNL A   1      35.007  23.730  24.876  1.00  0.00     0.032 C 
BRANCH   6  11
ATOM     11  C   UNL A   1      33.310  20.601  24.765  1.00  0.00     0.320 C 
ATOM     12  O   UNL A   1      32.221  20.688  24.188  1.00  0.00    -0.248 OA
BRANCH  11  13
ATOM     13  N   UNL A   1      34.043  19.442  24.639  1.00  0.00    -0.317 N 
ATOM     14  C   UNL A   1      35.482  19.339  24.708  1.00  0.00     0.149 C 
BRANCH  13  15
ATOM     15  C   UNL A   1      33.286  18.190  24.776  1.00  0.00     0.243 C 
BRANCH  15  16
ATOM     16  C   UNL A   1      33.240  17.288  23.534  1.00  0.00     0.325 C 
ATOM     17  O   UNL A   1      32.785  17.666  22.459  1.00  0.00    -0.250 OA
BRANCH  16  18
ATOM     18  O   UNL A   1      33.809  16.068  23.744  1.00  0.00    -0.465 OA
BRANCH  18  19
ATOM     19  C   UNL A   1      34.033  15.702  25.114  1.00  0.00     0.229 C 
ATOM     20  C   UNL A   1      35.517  15.772  25.427  1.00  0.00     0.049 C 
ENDBRANCH  18  19
ENDBRANCH  16  18
ENDBRANCH  15  16
ENDBRANCH  13  15
ENDBRANCH  11  13
ENDBRANCH   6  11
ENDBRANCH   1   5
BRANCH   3  21
ATOM     21  C   UNL A   1      31.777  26.205  25.954  1.00  0.00     0.116 C 
BRANCH  21  22
ATOM     22  C   UNL A   1      31.168  27.462  26.568  1.00  0.00     0.023 C 
BRANCH  22  23
ATOM     23  C   UNL A   1      31.976  28.073  27.716  1.00  0.00     0.023 C 
BRANCH  23  24
ATOM     24  C   UNL A   1      33.345  28.623  27.329  1.00  0.00     0.116 C 
BRANCH  24  25
ATOM     25  N   UNL A   1      33.423  30.071  27.438  1.00  0.00    -0.352 N 
ATOM     26  C   UNL A   1      34.435  30.857  27.931  1.00  0.00     0.251 C 
ATOM     27  H   UNL A   1      32.633  30.560  27.111  1.00  0.00     0.163 HD
ATOM     28  O   UNL A   1      34.256  32.063  28.086  1.00  0.00    -0.269 OA
BRANCH  26  29
ATOM     29  C   UNL A   1      35.731  30.252  28.308  1.00  0.00     0.039 A 
ATOM     30  C   UNL A   1      36.783  30.284  27.387  1.00  0.00     0.014 A 
ATOM     31  C   UNL A   1      35.917  29.661  29.561  1.00  0.00     0.014 A 
ATOM     32  C   UNL A   1      38.038  29.793  27.751  1.00  0.00     0.010 A 
ATOM     33  C   UNL A   1      37.189  29.243  29.949  1.00  0.00     0.010 A 
ATOM     34  C   UNL A   1      38.264  29.310  29.051  1.00  0.00    -0.014 A 
BRANCH  34  35
ATOM     35  C   UNL A   1      39.622  28.893  29.491  1.00  0.00     0.031 A 
ATOM     36  C   UNL A   1      40.424  29.766  30.418  1.00  0.00     0.074 A 
ATOM     37  C   UNL A   1      40.160  27.758  29.003  1.00  0.00     0.049 A 
ATOM     38  N   UNL A   1      41.647  29.603  30.856  1.00  0.00    -0.248 NA
ATOM     39  C   UNL A   1      39.777  30.997  30.895  1.00  0.00     0.031 C 
ATOM     40  C   UNL A   1      39.505  26.849  28.061  1.00  0.00     0.029 A 
ATOM     41  N   UNL A   1      41.386  27.180  29.221  1.00  0.00    -0.354 N 
ATOM     42  C   UNL A   1      41.917  30.710  31.649  1.00  0.00     0.074 A 
ATOM     43  C   UNL A   1      40.752  31.565  31.590  1.00  0.00     0.031 C 
ATOM     44  C   UNL A   1      40.324  25.819  27.799  1.00  0.00     0.029 A 
ATOM     45  C   UNL A   1      41.580  26.015  28.516  1.00  0.00     0.049 A 
ATOM     46  H   UNL A   1      42.063  27.562  29.824  1.00  0.00     0.167 HD
ATOM     47  C   UNL A   1      43.028  30.979  32.378  1.00  0.00     0.037 A 
ATOM     48  C   UNL A   1      42.653  25.204  28.444  1.00  0.00     0.037 A 
ATOM     49  C   UNL A   1      44.179  30.116  32.449  1.00  0.00     0.049 A 
ATOM     50  C   UNL A   1      43.880  25.538  29.250  1.00  0.00     0.074 A 
ATOM     51  C   UNL A   1      45.326  30.272  33.207  1.00  0.00     0.029 A 
ATOM     52  N   UNL A   1      44.332  28.940  31.732  1.00  0.00    -0.354 N 
ATOM     53  N   UNL A   1      44.093  26.549  30.055  1.00  0.00    -0.248 NA
ATOM     54  C   UNL A   1      45.017  24.612  29.140  1.00  0.00     0.031 C 
ATOM     55  C   UNL A   1      46.199  29.224  32.903  1.00  0.00     0.029 A 
ATOM     56  C   UNL A   1      45.569  28.376  32.006  1.00  0.00     0.049 A 
ATOM     57  H   UNL A   1      43.663  28.562  31.116  1.00  0.00     0.167 HD
ATOM     58  C   UNL A   1      45.369  26.365  30.572  1.00  0.00     0.074 A 
ATOM     59  C   UNL A   1      45.876  25.134  30.002  1.00  0.00     0.031 C 
ATOM     60  C   UNL A   1      46.058  27.144  31.441  1.00  0.00     0.037 A 
BRANCH  47  61
ATOM     61  C   UNL A   1      43.057  32.260  33.163  1.00  0.00     0.064 A 
ATOM     62  C   UNL A   1      43.446  33.474  32.579  1.00  0.00     0.173 A 
ATOM     63  C   UNL A   1      42.631  32.283  34.500  1.00  0.00     0.173 A 
ATOM     64  F   UNL A   1      43.871  33.506  31.307  1.00  0.00    -0.203 F 
ATOM     65  C   UNL A   1      43.433  34.659  33.311  1.00  0.00     0.198 A 
ATOM     66  C   UNL A   1      42.588  33.475  35.219  1.00  0.00     0.198 A 
ATOM     67  F   UNL A   1      42.241  31.152  35.106  1.00  0.00    -0.203 F 
ATOM     68  F   UNL A   1      43.854  35.799  32.745  1.00  0.00    -0.200 F 
ATOM     69  C   UNL A   1      42.996  34.660  34.627  1.00  0.00     0.200 A 
ATOM     70  F   UNL A   1      42.148  33.477  36.485  1.00  0.00    -0.200 F 
ATOM     71  F   UNL A   1      42.970  35.803  35.325  1.00  0.00    -0.200 F 
ENDBRANCH  47  61
BRANCH  48  72
ATOM     72  C   UNL A   1      42.617  23.989  27.585  1.00  0.00     0.064 A 
ATOM     73  C   UNL A   1      42.237  22.746  28.108  1.00  0.00     0.173 A 
ATOM     74  C   UNL A   1      42.985  24.041  26.232  1.00  0.00     0.173 A 
ATOM     75  F   UNL A   1      41.896  22.639  29.400  1.00  0.00    -0.203 F 
ATOM     76  C   UNL A   1      42.255  21.596  27.320  1.00  0.00     0.198 A 
ATOM     77  C   UNL A   1      42.969  22.898  25.436  1.00  0.00     0.198 A 
ATOM     78  F   UNL A   1      43.353  25.207  25.680  1.00  0.00    -0.203 F 
ATOM     79  F   UNL A   1      41.944  20.411  27.862  1.00  0.00    -0.200 F 
ATOM     80  C   UNL A   1      42.617  21.674  25.985  1.00  0.00     0.200 A 
ATOM     81  F   UNL A   1      43.303  22.981  24.141  1.00  0.00    -0.200 F 
ATOM     82  F   UNL A   1      42.634  20.568  25.227  1.00  0.00    -0.200 F 
ENDBRANCH  48  72
BRANCH  60  83
ATOM     83  C   UNL A   1      47.418  26.670  31.868  1.00  0.00     0.064 A 
ATOM     84  C   UNL A   1      47.593  25.801  32.955  1.00  0.00     0.173 A 
ATOM     85  C   UNL A   1      48.561  27.062  31.153  1.00  0.00     0.173 A 
ATOM     86  F   UNL A   1      46.535  25.407  33.681  1.00  0.00    -0.203 F 
ATOM     87  C   UNL A   1      48.862  25.367  33.329  1.00  0.00     0.198 A 
ATOM     88  C   UNL A   1      49.825  26.597  31.508  1.00  0.00     0.198 A 
ATOM     89  F   UNL A   1      48.451  27.885  30.099  1.00  0.00    -0.203 F 
ATOM     90  F   UNL A   1      49.009  24.582  34.405  1.00  0.00    -0.200 F 
ATOM     91  C   UNL A   1      49.976  25.759  32.601  1.00  0.00     0.200 A 
ATOM     92  F   UNL A   1      50.897  26.963  30.792  1.00  0.00    -0.200 F 
ATOM     93  F   UNL A   1      51.194  25.333  32.957  1.00  0.00    -0.200 F 
ENDBRANCH  60  83
ENDBRANCH  34  35
ENDBRANCH  26  29
ENDBRANCH  24  25
ENDBRANCH  23  24
ENDBRANCH  22  23
ENDBRANCH  21  22
ENDBRANCH   3  21
TORSDOF 17
ENDMDL
MODEL 2
REMARK VINA RESULT:     -11.1      4.000      8.296
REMARK SMILES CCOC(=O)CN(C)C(=O)N1CC[C@H](C(=O)NCCCCNC(=O)c2ccc(-c3c4nc(c(-c5c(F)c(F)c(F)c(F)c5F)c5ccc([nH]5)c(-c5c(F)c(F)c(F)c(F)c5F)c5nc(c(-c6c(F)c(F)c(F)c(F)c6F)c6ccc3[nH]6)C=C5)C=C4)cc2)[C@H]1C
REMARK SMILES IDX 15 1 16 2 17 3 14 5 11 6 12 7 88 8 13 9 89 10 9 11 10 12
REMARK SMILES IDX 7 13 8 14 6 15 4 16 5 17 3 18 2 19 1 20 18 21 19 22 20 23
REMARK SMILES IDX 21 24 22 25 23 26 24 28 25 29 26 30 87 31 27 32 86 33 28 34
REMARK SMILES IDX 29 35 30 36 80 37 31 38 85 39 79 40 81 41 32 42 84 43 78 44
REMARK SMILES IDX 77 45 33 47 65 48 45 49 64 50 46 51 49 52 63 53 82 54 47 55
REMARK SMILES IDX 48 56 62 58 83 59 50 60 34 61 35 62 43 63 36 64 37 65 41 66
REMARK SMILES IDX 44 67 38 68 39 69 42 70 40 71 66 72 67 73 75 74 68 75 69 76
REMARK SMILES IDX 73 77 76 78 70 79 71 80 74 81 72 82 51 83 52 84 60 85 53 86
REMARK SMILES IDX 54 87 58 88 61 89 55 90 56 91 59 92 57 93
REMARK H PARENT 17 4 22 27 81 46 49 57
REMARK Flexibility Score: inf
ROOT
ATOM      1  C   UNL A   1      34.631  21.718  26.397  1.00  0.00     0.225 C 
ATOM      2  O   UNL A   1      34.014  21.362  27.399  1.00  0.00    -0.275 OA
ATOM      3  N   UNL A   1      35.988  21.821  26.489  1.00  0.00    -0.356 N 
ATOM      4  H   UNL A   1      36.360  21.659  27.385  1.00  0.00     0.163 HD
ENDROOT
BRANCH   1   5
ATOM      5  C   UNL A   1      33.960  21.981  25.058  1.00  0.00     0.102 C 
ATOM      6  N   UNL A   1      32.172  23.537  25.364  1.00  0.00    -0.321 N 
ATOM      7  C   UNL A   1      31.652  22.190  25.584  1.00  0.00     0.122 C 
ATOM      8  C   UNL A   1      33.563  23.467  24.864  1.00  0.00     0.096 C 
ATOM      9  C   UNL A   1      32.628  21.248  24.914  1.00  0.00     0.037 C 
ATOM     10  C   UNL A   1      33.707  23.776  23.366  1.00  0.00     0.032 C 
BRANCH   6  11
ATOM     11  C   UNL A   1      31.583  24.527  26.124  1.00  0.00     0.320 C 
ATOM     12  O   UNL A   1      31.142  24.268  27.249  1.00  0.00    -0.248 OA
BRANCH  11  13
ATOM     13  N   UNL A   1      31.437  25.802  25.626  1.00  0.00    -0.317 N 
ATOM     14  C   UNL A   1      30.241  26.343  25.022  1.00  0.00     0.149 C 
BRANCH  13  15
ATOM     15  C   UNL A   1      32.461  26.771  26.041  1.00  0.00     0.243 C 
BRANCH  15  16
ATOM     16  C   UNL A   1      33.079  27.622  24.923  1.00  0.00     0.325 C 
ATOM     17  O   UNL A   1      33.438  27.145  23.850  1.00  0.00    -0.250 OA
BRANCH  16  18
ATOM     18  O   UNL A   1      33.121  28.949  25.229  1.00  0.00    -0.465 OA
BRANCH  18  19
ATOM     19  C   UNL A   1      31.923  29.509  25.785  1.00  0.00     0.229 C 
ATOM     20  C   UNL A   1      32.281  30.509  26.870  1.00  0.00     0.049 C 
ENDBRANCH  18  19
ENDBRANCH  16  18
ENDBRANCH  15  16
ENDBRANCH  13  15
ENDBRANCH  11  13
ENDBRANCH   6  11
ENDBRANCH   1   5
BRANCH   3  21
ATOM     21  C   UNL A   1      36.963  22.134  25.462  1.00  0.00     0.116 C 
BRANCH  21  22
ATOM     22  C   UNL A   1      37.137  20.978  24.481  1.00  0.00     0.023 C 
BRANCH  22  23
ATOM     23  C   UNL A   1      38.006  19.826  24.993  1.00  0.00     0.023 C 
BRANCH  23  24
ATOM     24  C   UNL A   1      39.233  20.242  25.798  1.00  0.00     0.116 C 
BRANCH  24  25
ATOM     25  N   UNL A   1      40.214  19.177  25.921  1.00  0.00    -0.352 N 
ATOM     26  C   UNL A   1      41.568  19.256  26.137  1.00  0.00     0.251 C 
ATOM     27  H   UNL A   1      39.856  18.263  25.838  1.00  0.00     0.163 HD
ATOM     28  O   UNL A   1      42.263  18.246  26.058  1.00  0.00    -0.269 OA
BRANCH  26  29
ATOM     29  C   UNL A   1      42.200  20.561  26.432  1.00  0.00     0.039 A 
ATOM     30  C   UNL A   1      42.717  21.314  25.373  1.00  0.00     0.014 A 
ATOM     31  C   UNL A   1      42.278  21.048  27.740  1.00  0.00     0.014 A 
ATOM     32  C   UNL A   1      43.244  22.584  25.617  1.00  0.00     0.010 A 
ATOM     33  C   UNL A   1      42.733  22.345  27.971  1.00  0.00     0.010 A 
ATOM     34  C   UNL A   1      43.215  23.129  26.912  1.00  0.00    -0.014 A 
BRANCH  34  35
ATOM     35  C   UNL A   1      43.662  24.524  27.169  1.00  0.00     0.031 A 
ATOM     36  C   UNL A   1      42.688  25.559  27.661  1.00  0.00     0.074 A 
ATOM     37  C   UNL A   1      44.935  24.874  26.897  1.00  0.00     0.049 A 
ATOM     38  N   UNL A   1      42.877  26.837  27.877  1.00  0.00    -0.248 NA
ATOM     39  C   UNL A   1      41.313  25.105  27.920  1.00  0.00     0.031 C 
ATOM     40  C   UNL A   1      45.965  23.976  26.372  1.00  0.00     0.029 A 
ATOM     41  N   UNL A   1      45.578  26.082  27.012  1.00  0.00    -0.354 N 
ATOM     42  C   UNL A   1      41.648  27.338  28.286  1.00  0.00     0.074 A 
ATOM     43  C   UNL A   1      40.707  26.240  28.237  1.00  0.00     0.031 C 
ATOM     44  C   UNL A   1      47.113  24.656  26.230  1.00  0.00     0.029 A 
ATOM     45  C   UNL A   1      46.892  26.048  26.610  1.00  0.00     0.049 A 
ATOM     46  H   UNL A   1      45.140  26.896  27.350  1.00  0.00     0.167 HD
ATOM     47  C   UNL A   1      41.338  28.595  28.686  1.00  0.00     0.037 A 
ATOM     48  C   UNL A   1      47.812  27.030  26.541  1.00  0.00     0.037 A 
ATOM     49  C   UNL A   1      42.281  29.681  28.752  1.00  0.00     0.049 A 
ATOM     50  C   UNL A   1      47.433  28.421  26.974  1.00  0.00     0.074 A 
ATOM     51  C   UNL A   1      42.077  30.974  29.201  1.00  0.00     0.029 A 
ATOM     52  N   UNL A   1      43.606  29.604  28.348  1.00  0.00    -0.354 N 
ATOM     53  N   UNL A   1      46.288  28.864  27.431  1.00  0.00    -0.248 NA
ATOM     54  C   UNL A   1      48.480  29.450  26.887  1.00  0.00     0.031 C 
ATOM     55  C   UNL A   1      43.259  31.695  29.014  1.00  0.00     0.029 A 
ATOM     56  C   UNL A   1      44.222  30.836  28.511  1.00  0.00     0.049 A 
ATOM     57  H   UNL A   1      44.044  28.795  27.996  1.00  0.00     0.167 HD
ATOM     58  C   UNL A   1      46.485  30.209  27.717  1.00  0.00     0.074 A 
ATOM     59  C   UNL A   1      47.865  30.506  27.398  1.00  0.00     0.031 C 
ATOM     60  C   UNL A   1      45.601  31.116  28.200  1.00  0.00     0.037 A 
BRANCH  47  61
ATOM     61  C   UNL A   1      39.917  28.870  29.090  1.00  0.00     0.064 A 
ATOM     62  C   UNL A   1      38.949  29.270  28.157  1.00  0.00     0.173 A 
ATOM     63  C   UNL A   1      39.505  28.673  30.417  1.00  0.00     0.173 A 
ATOM     64  F   UNL A   1      39.292  29.483  26.877  1.00  0.00    -0.203 F 
ATOM     65  C   UNL A   1      37.628  29.487  28.542  1.00  0.00     0.198 A 
ATOM     66  C   UNL A   1      38.176  28.859  30.791  1.00  0.00     0.198 A 
ATOM     67  F   UNL A   1      40.387  28.283  31.349  1.00  0.00    -0.203 F 
ATOM     68  F   UNL A   1      36.731  29.913  27.641  1.00  0.00    -0.200 F 
ATOM     69  C   UNL A   1      37.241  29.272  29.855  1.00  0.00     0.200 A 
ATOM     70  F   UNL A   1      37.800  28.633  32.058  1.00  0.00    -0.200 F 
ATOM     71  F   UNL A   1      35.966  29.467  30.220  1.00  0.00    -0.200 F 
ENDBRANCH  47  61
BRANCH  48  72
ATOM     72  C   UNL A   1      49.186  26.735  26.052  1.00  0.00     0.064 A 
ATOM     73  C   UNL A   1      50.171  26.244  26.918  1.00  0.00     0.173 A 
ATOM     74  C   UNL A   1      49.548  26.961  24.715  1.00  0.00     0.173 A 
ATOM     75  F   UNL A   1      49.881  26.030  28.209  1.00  0.00    -0.203 F 
ATOM     76  C   UNL A   1      51.475  26.020  26.476  1.00  0.00     0.198 A 
ATOM     77  C   UNL A   1      50.842  26.704  24.265  1.00  0.00     0.198 A 
ATOM     78  F   UNL A   1      48.642  27.426  23.842  1.00  0.00    -0.203 F 
ATOM     79  F   UNL A   1      52.411  25.607  27.340  1.00  0.00    -0.200 F 
ATOM     80  C   UNL A   1      51.806  26.245  25.149  1.00  0.00     0.200 A 
ATOM     81  F   UNL A   1      51.154  26.907  22.978  1.00  0.00    -0.200 F 
ATOM     82  F   UNL A   1      53.059  26.029  24.724  1.00  0.00    -0.200 F 
ENDBRANCH  48  72
BRANCH  60  83
ATOM     83  C   UNL A   1      46.108  32.507  28.459  1.00  0.00     0.064 A 
ATOM     84  C   UNL A   1      46.026  33.518  27.490  1.00  0.00     0.173 A 
ATOM     85  C   UNL A   1      46.649  32.841  29.710  1.00  0.00     0.173 A 
ATOM     86  F   UNL A   1      45.531  33.248  26.272  1.00  0.00    -0.203 F 
ATOM     87  C   UNL A   1      46.496  34.802  27.753  1.00  0.00     0.198 A 
ATOM     88  C   UNL A   1      47.084  34.136  29.982  1.00  0.00     0.198 A 
ATOM     89  F   UNL A   1      46.743  31.915  30.676  1.00  0.00    -0.203 F 
ATOM     90  F   UNL A   1      46.458  35.737  26.793  1.00  0.00    -0.200 F 
ATOM     91  C   UNL A   1      47.016  35.112  29.001  1.00  0.00     0.200 A 
ATOM     92  F   UNL A   1      47.570  34.437  31.194  1.00  0.00    -0.200 F 
ATOM     93  F   UNL A   1      47.458  36.351  29.255  1.00  0.00    -0.200 F 
ENDBRANCH  60  83
ENDBRANCH  34  35
ENDBRANCH  26  29
ENDBRANCH  24  25
ENDBRANCH  23  24
ENDBRANCH  22  23
ENDBRANCH  21  22
ENDBRANCH   3  21
TORSDOF 17
ENDMDL
MODEL 3
REMARK VINA RESULT:     -11.1      4.667      6.992
REMARK SMILES CCOC(=O)CN(C)C(=O)N1CC[C@H](C(=O)NCCCCNC(=O)c2ccc(-c3c4nc(c(-c5c(F)c(F)c(F)c(F)c5F)c5ccc([nH]5)c(-c5c(F)c(F)c(F)c(F)c5F)c5nc(c(-c6c(F)c(F)c(F)c(F)c6F)c6ccc3[nH]6)C=C5)C=C4)cc2)[C@H]1C
REMARK SMILES IDX 15 1 16 2 17 3 14 5 11 6 12 7 88 8 13 9 89 10 9 11 10 12
REMARK SMILES IDX 7 13 8 14 6 15 4 16 5 17 3 18 2 19 1 20 18 21 19 22 20 23
REMARK SMILES IDX 21 24 22 25 23 26 24 28 25 29 26 30 87 31 27 32 86 33 28 34
REMARK SMILES IDX 29 35 30 36 80 37 31 38 85 39 79 40 81 41 32 42 84 43 78 44
REMARK SMILES IDX 77 45 33 47 65 48 45 49 64 50 46 51 49 52 63 53 82 54 47 55
REMARK SMILES IDX 48 56 62 58 83 59 50 60 34 61 35 62 43 63 36 64 37 65 41 66
REMARK SMILES IDX 44 67 38 68 39 69 42 70 40 71 66 72 67 73 75 74 68 75 69 76
REMARK SMILES IDX 73 77 76 78 70 79 71 80 74 81 72 82 51 83 52 84 60 85 53 86
REMARK SMILES IDX 54 87 58 88 61 89 55 90 56 91 59 92 57 93
REMARK H PARENT 17 4 22 27 81 46 49 57
REMARK Flexibility Score: inf
ROOT
ATOM      1  C   UNL A   1      32.578  30.634  26.876  1.00  0.00     0.225 C 
ATOM      2  O   UNL A   1      31.364  30.443  26.908  1.00  0.00    -0.275 OA
ATOM      3  N   UNL A   1      33.085  31.636  27.650  1.00  0.00    -0.356 N 
ATOM      4  H   UNL A   1      32.416  32.173  28.131  1.00  0.00     0.163 HD
ENDROOT
BRANCH   1   5
ATOM      5  C   UNL A   1      33.535  29.768  26.070  1.00  0.00     0.102 C 
ATOM      6  N   UNL A   1      32.462  27.702  25.530  1.00  0.00    -0.321 N 
ATOM      7  C   UNL A   1      33.111  27.556  26.829  1.00  0.00     0.122 C 
ATOM      8  C   UNL A   1      32.831  29.000  24.922  1.00  0.00     0.096 C 
ATOM      9  C   UNL A   1      34.156  28.648  26.902  1.00  0.00     0.037 C 
ATOM     10  C   UNL A   1      33.843  28.889  23.772  1.00  0.00     0.032 C 
BRANCH   6  11
ATOM     11  C   UNL A   1      31.296  26.981  25.370  1.00  0.00     0.320 C 
ATOM     12  O   UNL A   1      30.665  26.591  26.359  1.00  0.00    -0.248 OA
BRANCH  11  13
ATOM     13  N   UNL A   1      30.843  26.647  24.114  1.00  0.00    -0.317 N 
ATOM     14  C   UNL A   1      31.286  25.521  23.325  1.00  0.00     0.149 C 
BRANCH  13  15
ATOM     15  C   UNL A   1      29.589  27.290  23.695  1.00  0.00     0.243 C 
BRANCH  15  16
ATOM     16  C   UNL A   1      29.733  28.590  22.891  1.00  0.00     0.325 C 
ATOM     17  O   UNL A   1      30.278  28.632  21.792  1.00  0.00    -0.250 OA
BRANCH  16  18
ATOM     18  O   UNL A   1      29.141  29.657  23.499  1.00  0.00    -0.465 OA
BRANCH  18  19
ATOM     19  C   UNL A   1      28.143  30.348  22.732  1.00  0.00     0.229 C 
ATOM     20  C   UNL A   1      27.655  31.561  23.504  1.00  0.00     0.049 C 
ENDBRANCH  18  19
ENDBRANCH  16  18
ENDBRANCH  15  16
ENDBRANCH  13  15
ENDBRANCH  11  13
ENDBRANCH   6  11
ENDBRANCH   1   5
BRANCH   3  21
ATOM     21  C   UNL A   1      34.464  32.027  27.870  1.00  0.00     0.116 C 
BRANCH  21  22
ATOM     22  C   UNL A   1      34.561  33.289  28.723  1.00  0.00     0.023 C 
BRANCH  22  23
ATOM     23  C   UNL A   1      33.321  34.186  28.686  1.00  0.00     0.023 C 
BRANCH  23  24
ATOM     24  C   UNL A   1      33.547  35.630  29.121  1.00  0.00     0.116 C 
BRANCH  24  25
ATOM     25  N   UNL A   1      32.652  36.044  30.189  1.00  0.00    -0.352 N 
ATOM     26  C   UNL A   1      32.710  35.772  31.533  1.00  0.00     0.251 C 
ATOM     27  H   UNL A   1      31.890  36.603  29.907  1.00  0.00     0.163 HD
ATOM     28  O   UNL A   1      31.772  36.083  32.264  1.00  0.00    -0.269 OA
BRANCH  26  29
ATOM     29  C   UNL A   1      33.885  35.075  32.102  1.00  0.00     0.039 A 
ATOM     30  C   UNL A   1      33.722  33.781  32.604  1.00  0.00     0.014 A 
ATOM     31  C   UNL A   1      35.141  35.685  32.136  1.00  0.00     0.014 A 
ATOM     32  C   UNL A   1      34.832  33.073  33.070  1.00  0.00     0.010 A 
ATOM     33  C   UNL A   1      36.259  34.951  32.529  1.00  0.00     0.010 A 
ATOM     34  C   UNL A   1      36.118  33.635  32.994  1.00  0.00    -0.014 A 
BRANCH  34  35
ATOM     35  C   UNL A   1      37.323  32.852  33.376  1.00  0.00     0.031 A 
ATOM     36  C   UNL A   1      38.048  33.147  34.660  1.00  0.00     0.074 A 
ATOM     37  C   UNL A   1      37.802  31.917  32.532  1.00  0.00     0.049 A 
ATOM     38  N   UNL A   1      39.151  32.617  35.128  1.00  0.00    -0.248 NA
ATOM     39  C   UNL A   1      37.474  34.191  35.522  1.00  0.00     0.031 C 
ATOM     40  C   UNL A   1      37.218  31.570  31.235  1.00  0.00     0.029 A 
ATOM     41  N   UNL A   1      38.897  31.095  32.631  1.00  0.00    -0.354 N 
ATOM     42  C   UNL A   1      39.405  33.268  36.328  1.00  0.00     0.074 A 
ATOM     43  C   UNL A   1      38.374  34.269  36.491  1.00  0.00     0.031 C 
ATOM     44  C   UNL A   1      37.946  30.595  30.670  1.00  0.00     0.029 A 
ATOM     45  C   UNL A   1      39.074  30.277  31.540  1.00  0.00     0.049 A 
ATOM     46  H   UNL A   1      39.500  31.091  33.409  1.00  0.00     0.167 HD
ATOM     47  C   UNL A   1      40.398  33.037  37.221  1.00  0.00     0.037 A 
ATOM     48  C   UNL A   1      40.043  29.383  31.264  1.00  0.00     0.037 A 
ATOM     49  C   UNL A   1      41.412  32.027  37.064  1.00  0.00     0.049 A 
ATOM     50  C   UNL A   1      41.144  29.162  32.268  1.00  0.00     0.074 A 
ATOM     51  C   UNL A   1      42.423  31.677  37.942  1.00  0.00     0.029 A 
ATOM     52  N   UNL A   1      41.550  31.211  35.952  1.00  0.00    -0.354 N 
ATOM     53  N   UNL A   1      41.330  29.731  33.433  1.00  0.00    -0.248 NA
ATOM     54  C   UNL A   1      42.168  28.167  31.919  1.00  0.00     0.031 C 
ATOM     55  C   UNL A   1      43.208  30.692  37.338  1.00  0.00     0.029 A 
ATOM     56  C   UNL A   1      42.648  30.378  36.110  1.00  0.00     0.049 A 
ATOM     57  H   UNL A   1      40.958  31.222  35.165  1.00  0.00     0.167 HD
ATOM     58  C   UNL A   1      42.467  29.142  33.969  1.00  0.00     0.074 A 
ATOM     59  C   UNL A   1      42.920  28.158  33.009  1.00  0.00     0.031 C 
ATOM     60  C   UNL A   1      43.082  29.394  35.151  1.00  0.00     0.037 A 
BRANCH  47  61
ATOM     61  C   UNL A   1      40.438  33.891  38.457  1.00  0.00     0.064 A 
ATOM     62  C   UNL A   1      41.184  35.078  38.509  1.00  0.00     0.173 A 
ATOM     63  C   UNL A   1      39.673  33.548  39.583  1.00  0.00     0.173 A 
ATOM     64  F   UNL A   1      41.941  35.447  37.465  1.00  0.00    -0.203 F 
ATOM     65  C   UNL A   1      41.183  35.877  39.651  1.00  0.00     0.198 A 
ATOM     66  C   UNL A   1      39.649  34.367  40.710  1.00  0.00     0.198 A 
ATOM     67  F   UNL A   1      38.936  32.428  39.584  1.00  0.00    -0.203 F 
ATOM     68  F   UNL A   1      41.940  36.982  39.694  1.00  0.00    -0.200 F 
ATOM     69  C   UNL A   1      40.408  35.525  40.746  1.00  0.00     0.200 A 
ATOM     70  F   UNL A   1      38.886  34.034  41.761  1.00  0.00    -0.200 F 
ATOM     71  F   UNL A   1      40.397  36.302  41.838  1.00  0.00    -0.200 F 
ENDBRANCH  47  61
BRANCH  48  72
ATOM     72  C   UNL A   1      40.015  28.619  29.988  1.00  0.00     0.064 A 
ATOM     73  C   UNL A   1      39.361  27.383  29.900  1.00  0.00     0.173 A 
ATOM     74  C   UNL A   1      40.662  29.096  28.838  1.00  0.00     0.173 A 
ATOM     75  F   UNL A   1      38.745  26.873  30.976  1.00  0.00    -0.203 F 
ATOM     76  C   UNL A   1      39.381  26.638  28.721  1.00  0.00     0.198 A 
ATOM     77  C   UNL A   1      40.651  28.368  27.650  1.00  0.00     0.198 A 
ATOM     78  F   UNL A   1      41.299  30.276  28.866  1.00  0.00    -0.203 F 
ATOM     79  F   UNL A   1      38.798  25.433  28.684  1.00  0.00    -0.200 F 
ATOM     80  C   UNL A   1      40.022  27.134  27.597  1.00  0.00     0.200 A 
ATOM     81  F   UNL A   1      41.258  28.859  26.561  1.00  0.00    -0.200 F 
ATOM     82  F   UNL A   1      40.040  26.419  26.463  1.00  0.00    -0.200 F 
ENDBRANCH  48  72
BRANCH  60  83
ATOM     83  C   UNL A   1      44.285  28.563  35.497  1.00  0.00     0.064 A 
ATOM     84  C   UNL A   1      45.586  28.967  35.162  1.00  0.00     0.173 A 
ATOM     85  C   UNL A   1      44.135  27.362  36.208  1.00  0.00     0.173 A 
ATOM     86  F   UNL A   1      45.785  30.099  34.469  1.00  0.00    -0.203 F 
ATOM     87  C   UNL A   1      46.688  28.185  35.498  1.00  0.00     0.198 A 
ATOM     88  C   UNL A   1      45.241  26.601  36.575  1.00  0.00     0.198 A 
ATOM     89  F   UNL A   1      42.914  26.933  36.562  1.00  0.00    -0.203 F 
ATOM     90  F   UNL A   1      47.917  28.563  35.119  1.00  0.00    -0.200 F 
ATOM     91  C   UNL A   1      46.516  27.008  36.212  1.00  0.00     0.200 A 
ATOM     92  F   UNL A   1      45.073  25.473  37.279  1.00  0.00    -0.200 F 
ATOM     93  F   UNL A   1      47.578  26.262  36.543  1.00  0.00    -0.200 F 
ENDBRANCH  60  83
ENDBRANCH  34  35
ENDBRANCH  26  29
ENDBRANCH  24  25
ENDBRANCH  23  24
ENDBRANCH  22  23
ENDBRANCH  21  22
ENDBRANCH   3  21
TORSDOF 17
ENDMDL
