MODEL 1
REMARK VINA RESULT:     -14.2      0.000      0.000
REMARK SMILES CC1=Nc2ncnn2[C@H](c2ccc(F)cc2)[C@@H]1C(=O)NCCCCNC(=O)c1ccc(-c2c3nc(c(-c4c(F)c(F)c(F)c(F)c4F)c4ccc([nH]4)c(-c4c(F)c(F)c(F)c(F)c4F)c4nc(c(-c5c(F)c(F)c(F)c(F)c5F)c5ccc2[nH]5)C=C4)C=C3)cc1
REMARK SMILES IDX 23 1 22 2 21 3 20 4 18 5 19 6 17 8 1 9 2 10 3 11 4 12 9 13
REMARK SMILES IDX 5 14 8 15 6 16 7 17 10 18 11 19 16 20 12 21 15 22 13 23
REMARK SMILES IDX 14 24 24 25 25 26 26 27 27 29 28 30 29 31 90 32 30 33 89 34
REMARK SMILES IDX 31 35 32 36 33 37 83 38 34 39 88 40 82 41 84 42 35 43 87 44
REMARK SMILES IDX 81 45 80 46 36 48 68 49 48 50 67 51 49 52 52 53 66 54 85 55
REMARK SMILES IDX 50 56 51 57 65 59 86 60 53 61 37 62 38 63 46 64 39 65 40 66
REMARK SMILES IDX 44 67 47 68 41 69 42 70 45 71 43 72 69 73 70 74 78 75 71 76
REMARK SMILES IDX 72 77 76 78 79 79 73 80 74 81 77 82 75 83 54 84 55 85 63 86
REMARK SMILES IDX 56 87 57 88 61 89 64 90 58 91 59 92 62 93 60 94
REMARK H PARENT 20 7 25 28 84 47 52 58
REMARK Flexibility Score: inf
ROOT
ATOM      1  C   UNL A   1      32.602  30.001  27.208  1.00  0.00     0.023 C 
ENDROOT
BRANCH   1   2
ATOM      2  C   UNL A   1      32.715  28.465  27.259  1.00  0.00     0.023 C 
BRANCH   2   3
ATOM      3  C   UNL A   1      32.031  27.706  26.113  1.00  0.00     0.116 C 
BRANCH   3   4
ATOM      4  N   UNL A   1      31.039  26.788  26.637  1.00  0.00    -0.355 N 
ATOM      5  C   UNL A   1      30.394  25.741  26.067  1.00  0.00     0.231 C 
ATOM      6  O   UNL A   1      29.362  25.357  26.622  1.00  0.00    -0.274 OA
ATOM      7  H   UNL A   1      30.788  26.956  27.575  1.00  0.00     0.163 HD
BRANCH   5   8
ATOM      8  C   UNL A   1      30.934  25.044  24.832  1.00  0.00     0.152 C 
ATOM      9  C   UNL A   1      32.935  24.190  26.270  1.00  0.00     0.063 C 
ATOM     10  C   UNL A   1      32.436  24.788  24.970  1.00  0.00     0.034 C 
ATOM     11  N   UNL A   1      33.330  24.996  24.056  1.00  0.00    -0.220 NA
ATOM     12  C   UNL A   1      32.941  25.456  22.851  1.00  0.00     0.248 A 
ATOM     13  C   UNL A   1      30.537  25.727  23.489  1.00  0.00     0.159 C 
ATOM     14  N   UNL A   1      33.652  25.566  21.749  1.00  0.00    -0.198 NA
ATOM     15  N   UNL A   1      31.658  25.838  22.567  1.00  0.00    -0.221 N 
ATOM     16  C   UNL A   1      32.745  25.953  20.809  1.00  0.00     0.248 A 
ATOM     17  N   UNL A   1      31.492  26.086  21.249  1.00  0.00    -0.157 NA
BRANCH  13  18
ATOM     18  C   UNL A   1      29.690  27.009  23.466  1.00  0.00    -0.022 A 
ATOM     19  C   UNL A   1      30.342  28.247  23.272  1.00  0.00     0.009 A 
ATOM     20  C   UNL A   1      28.297  27.034  23.633  1.00  0.00     0.009 A 
ATOM     21  C   UNL A   1      29.620  29.431  23.113  1.00  0.00     0.039 A 
ATOM     22  C   UNL A   1      27.569  28.203  23.406  1.00  0.00     0.039 A 
ATOM     23  C   UNL A   1      28.236  29.383  23.126  1.00  0.00     0.123 A 
ATOM     24  F   UNL A   1      27.525  30.482  22.859  1.00  0.00    -0.207 F 
ENDBRANCH  13  18
ENDBRANCH   5   8
ENDBRANCH   3   4
ENDBRANCH   2   3
ENDBRANCH   1   2
BRANCH   1  25
ATOM     25  C   UNL A   1      33.933  30.736  27.276  1.00  0.00     0.116 C 
BRANCH  25  26
ATOM     26  N   UNL A   1      33.980  31.691  28.377  1.00  0.00    -0.352 N 
ATOM     27  C   UNL A   1      34.893  31.756  29.411  1.00  0.00     0.251 C 
ATOM     28  H   UNL A   1      33.273  32.375  28.384  1.00  0.00     0.163 HD
ATOM     29  O   UNL A   1      34.615  32.325  30.453  1.00  0.00    -0.269 OA
BRANCH  27  30
ATOM     30  C   UNL A   1      36.213  31.121  29.241  1.00  0.00     0.039 A 
ATOM     31  C   UNL A   1      37.373  31.899  29.197  1.00  0.00     0.014 A 
ATOM     32  C   UNL A   1      36.284  29.733  29.133  1.00  0.00     0.014 A 
ATOM     33  C   UNL A   1      38.609  31.264  29.126  1.00  0.00     0.010 A 
ATOM     34  C   UNL A   1      37.507  29.101  29.185  1.00  0.00     0.010 A 
ATOM     35  C   UNL A   1      38.674  29.860  29.147  1.00  0.00    -0.014 A 
BRANCH  35  36
ATOM     36  C   UNL A   1      39.968  29.192  29.296  1.00  0.00     0.031 A 
ATOM     37  C   UNL A   1      40.378  28.975  30.712  1.00  0.00     0.074 A 
ATOM     38  C   UNL A   1      40.642  28.622  28.272  1.00  0.00     0.049 A 
ATOM     39  N   UNL A   1      41.408  29.460  31.321  1.00  0.00    -0.248 NA
ATOM     40  C   UNL A   1      39.466  28.225  31.594  1.00  0.00     0.031 C 
ATOM     41  C   UNL A   1      40.202  28.487  26.879  1.00  0.00     0.029 A 
ATOM     42  N   UNL A   1      41.823  27.936  28.281  1.00  0.00    -0.354 N 
ATOM     43  C   UNL A   1      41.381  28.924  32.607  1.00  0.00     0.074 A 
ATOM     44  C   UNL A   1      40.090  28.312  32.771  1.00  0.00     0.031 C 
ATOM     45  C   UNL A   1      40.972  27.574  26.247  1.00  0.00     0.029 A 
ATOM     46  C   UNL A   1      42.059  27.191  27.128  1.00  0.00     0.049 A 
ATOM     47  H   UNL A   1      42.453  27.967  29.037  1.00  0.00     0.167 HD
ATOM     48  C   UNL A   1      42.526  28.795  33.333  1.00  0.00     0.037 A 
ATOM     49  C   UNL A   1      43.066  26.307  26.919  1.00  0.00     0.037 A 
ATOM     50  C   UNL A   1      43.584  29.592  32.773  1.00  0.00     0.049 A 
ATOM     51  C   UNL A   1      44.135  26.637  27.885  1.00  0.00     0.074 A 
ATOM     52  C   UNL A   1      43.847  30.937  32.638  1.00  0.00     0.029 A 
ATOM     53  N   UNL A   1      44.383  28.933  31.878  1.00  0.00    -0.354 N 
ATOM     54  N   UNL A   1      44.850  27.725  27.837  1.00  0.00    -0.248 NA
ATOM     55  C   UNL A   1      44.215  25.891  29.134  1.00  0.00     0.031 C 
ATOM     56  C   UNL A   1      44.590  31.065  31.427  1.00  0.00     0.029 A 
ATOM     57  C   UNL A   1      44.800  29.792  30.897  1.00  0.00     0.049 A 
ATOM     58  H   UNL A   1      44.624  27.980  31.933  1.00  0.00     0.167 HD
ATOM     59  C   UNL A   1      45.094  28.030  29.162  1.00  0.00     0.074 A 
ATOM     60  C   UNL A   1      44.858  26.788  29.885  1.00  0.00     0.031 C 
ATOM     61  C   UNL A   1      45.152  29.330  29.570  1.00  0.00     0.037 A 
BRANCH  48  62
ATOM     62  C   UNL A   1      42.823  27.623  34.244  1.00  0.00     0.064 A 
ATOM     63  C   UNL A   1      42.464  27.589  35.609  1.00  0.00     0.173 A 
ATOM     64  C   UNL A   1      43.187  26.380  33.684  1.00  0.00     0.173 A 
ATOM     65  F   UNL A   1      41.959  28.658  36.236  1.00  0.00    -0.203 F 
ATOM     66  C   UNL A   1      42.491  26.416  36.363  1.00  0.00     0.198 A 
ATOM     67  C   UNL A   1      43.159  25.197  34.429  1.00  0.00     0.198 A 
ATOM     68  F   UNL A   1      43.492  26.283  32.381  1.00  0.00    -0.203 F 
ATOM     69  F   UNL A   1      42.118  26.453  37.650  1.00  0.00    -0.200 F 
ATOM     70  C   UNL A   1      42.815  25.216  35.769  1.00  0.00     0.200 A 
ATOM     71  F   UNL A   1      43.403  24.024  33.828  1.00  0.00    -0.200 F 
ATOM     72  F   UNL A   1      42.742  24.079  36.472  1.00  0.00    -0.200 F 
ENDBRANCH  48  62
BRANCH  49  73
ATOM     73  C   UNL A   1      43.101  25.055  26.120  1.00  0.00     0.064 A 
ATOM     74  C   UNL A   1      42.324  23.940  26.474  1.00  0.00     0.173 A 
ATOM     75  C   UNL A   1      44.132  24.821  25.195  1.00  0.00     0.173 A 
ATOM     76  F   UNL A   1      41.322  24.058  27.349  1.00  0.00    -0.203 F 
ATOM     77  C   UNL A   1      42.611  22.656  26.006  1.00  0.00     0.198 A 
ATOM     78  C   UNL A   1      44.419  23.536  24.721  1.00  0.00     0.198 A 
ATOM     79  F   UNL A   1      44.930  25.826  24.802  1.00  0.00    -0.203 F 
ATOM     80  F   UNL A   1      41.895  21.612  26.446  1.00  0.00    -0.200 F 
ATOM     81  C   UNL A   1      43.673  22.451  25.148  1.00  0.00     0.200 A 
ATOM     82  F   UNL A   1      45.464  23.343  23.903  1.00  0.00    -0.200 F 
ATOM     83  F   UNL A   1      44.000  21.209  24.763  1.00  0.00    -0.200 F 
ENDBRANCH  49  73
BRANCH  61  84
ATOM     84  C   UNL A   1      45.429  30.370  28.521  1.00  0.00     0.064 A 
ATOM     85  C   UNL A   1      46.763  30.759  28.329  1.00  0.00     0.173 A 
ATOM     86  C   UNL A   1      44.448  31.037  27.769  1.00  0.00     0.173 A 
ATOM     87  F   UNL A   1      47.741  30.186  29.048  1.00  0.00    -0.203 F 
ATOM     88  C   UNL A   1      47.101  31.766  27.430  1.00  0.00     0.198 A 
ATOM     89  C   UNL A   1      44.794  32.015  26.837  1.00  0.00     0.198 A 
ATOM     90  F   UNL A   1      43.145  30.788  27.950  1.00  0.00    -0.203 F 
ATOM     91  F   UNL A   1      48.380  32.149  27.312  1.00  0.00    -0.200 F 
ATOM     92  C   UNL A   1      46.119  32.384  26.675  1.00  0.00     0.200 A 
ATOM     93  F   UNL A   1      43.841  32.621  26.112  1.00  0.00    -0.200 F 
ATOM     94  F   UNL A   1      46.449  33.350  25.807  1.00  0.00    -0.200 F 
ENDBRANCH  61  84
ENDBRANCH  35  36
ENDBRANCH  27  30
ENDBRANCH  25  26
ENDBRANCH   1  25
TORSDOF 12
ENDMDL
MODEL 2
REMARK VINA RESULT:     -14.0      1.844      3.165
REMARK SMILES CC1=Nc2ncnn2[C@H](c2ccc(F)cc2)[C@@H]1C(=O)NCCCCNC(=O)c1ccc(-c2c3nc(c(-c4c(F)c(F)c(F)c(F)c4F)c4ccc([nH]4)c(-c4c(F)c(F)c(F)c(F)c4F)c4nc(c(-c5c(F)c(F)c(F)c(F)c5F)c5ccc2[nH]5)C=C4)C=C3)cc1
REMARK SMILES IDX 23 1 22 2 21 3 20 4 18 5 19 6 17 8 1 9 2 10 3 11 4 12 9 13
REMARK SMILES IDX 5 14 8 15 6 16 7 17 10 18 11 19 16 20 12 21 15 22 13 23
REMARK SMILES IDX 14 24 24 25 25 26 26 27 27 29 28 30 29 31 90 32 30 33 89 34
REMARK SMILES IDX 31 35 32 36 33 37 83 38 34 39 88 40 82 41 84 42 35 43 87 44
REMARK SMILES IDX 81 45 80 46 36 48 68 49 48 50 67 51 49 52 52 53 66 54 85 55
REMARK SMILES IDX 50 56 51 57 65 59 86 60 53 61 37 62 38 63 46 64 39 65 40 66
REMARK SMILES IDX 44 67 47 68 41 69 42 70 45 71 43 72 69 73 70 74 78 75 71 76
REMARK SMILES IDX 72 77 76 78 79 79 73 80 74 81 77 82 75 83 54 84 55 85 63 86
REMARK SMILES IDX 56 87 57 88 61 89 64 90 58 91 59 92 62 93 60 94
REMARK H PARENT 20 7 25 28 84 47 52 58
REMARK Flexibility Score: inf
ROOT
ATOM      1  C   UNL A   1      33.179  29.451  26.359  1.00  0.00     0.023 C 
ENDROOT
BRANCH   1   2
ATOM      2  C   UNL A   1      33.260  29.040  24.876  1.00  0.00     0.023 C 
BRANCH   2   3
ATOM      3  C   UNL A   1      33.666  27.584  24.607  1.00  0.00     0.116 C 
BRANCH   3   4
ATOM      4  N   UNL A   1      33.653  27.312  23.183  1.00  0.00    -0.355 N 
ATOM      5  C   UNL A   1      33.111  26.296  22.468  1.00  0.00     0.231 C 
ATOM      6  O   UNL A   1      33.541  26.132  21.324  1.00  0.00    -0.274 OA
ATOM      7  H   UNL A   1      34.123  27.985  22.638  1.00  0.00     0.163 HD
BRANCH   5   8
ATOM      8  C   UNL A   1      31.998  25.428  23.026  1.00  0.00     0.152 C 
ATOM      9  C   UNL A   1      30.456  27.532  23.042  1.00  0.00     0.063 C 
ATOM     10  C   UNL A   1      30.954  26.285  23.746  1.00  0.00     0.034 C 
ATOM     11  N   UNL A   1      30.418  26.024  24.894  1.00  0.00    -0.220 NA
ATOM     12  C   UNL A   1      30.762  24.891  25.537  1.00  0.00     0.248 A 
ATOM     13  C   UNL A   1      32.496  24.214  23.865  1.00  0.00     0.159 C 
ATOM     14  N   UNL A   1      30.215  24.360  26.609  1.00  0.00    -0.198 NA
ATOM     15  N   UNL A   1      31.748  24.048  25.104  1.00  0.00    -0.221 N 
ATOM     16  C   UNL A   1      30.856  23.165  26.749  1.00  0.00     0.248 A 
ATOM     17  N   UNL A   1      31.775  22.901  25.819  1.00  0.00    -0.157 NA
BRANCH  13  18
ATOM     18  C   UNL A   1      33.994  23.969  24.102  1.00  0.00    -0.022 A 
ATOM     19  C   UNL A   1      34.574  24.435  25.303  1.00  0.00     0.009 A 
ATOM     20  C   UNL A   1      34.836  23.311  23.192  1.00  0.00     0.009 A 
ATOM     21  C   UNL A   1      35.897  24.132  25.636  1.00  0.00     0.039 A 
ATOM     22  C   UNL A   1      36.136  22.949  23.552  1.00  0.00     0.039 A 
ATOM     23  C   UNL A   1      36.644  23.343  24.777  1.00  0.00     0.123 A 
ATOM     24  F   UNL A   1      37.869  22.944  25.130  1.00  0.00    -0.207 F 
ENDBRANCH  13  18
ENDBRANCH   5   8
ENDBRANCH   3   4
ENDBRANCH   2   3
ENDBRANCH   1   2
BRANCH   1  25
ATOM     25  C   UNL A   1      34.486  29.967  26.944  1.00  0.00     0.116 C 
BRANCH  25  26
ATOM     26  N   UNL A   1      34.310  31.221  27.667  1.00  0.00    -0.352 N 
ATOM     27  C   UNL A   1      34.955  31.644  28.813  1.00  0.00     0.251 C 
ATOM     28  H   UNL A   1      33.649  31.845  27.291  1.00  0.00     0.163 HD
ATOM     29  O   UNL A   1      34.460  32.501  29.525  1.00  0.00    -0.269 OA
BRANCH  27  30
ATOM     30  C   UNL A   1      36.251  31.038  29.169  1.00  0.00     0.039 A 
ATOM     31  C   UNL A   1      36.322  29.699  29.562  1.00  0.00     0.014 A 
ATOM     32  C   UNL A   1      37.403  31.821  29.099  1.00  0.00     0.014 A 
ATOM     33  C   UNL A   1      37.571  29.133  29.804  1.00  0.00     0.010 A 
ATOM     34  C   UNL A   1      38.642  31.232  29.221  1.00  0.00     0.010 A 
ATOM     35  C   UNL A   1      38.733  29.897  29.606  1.00  0.00    -0.014 A 
BRANCH  35  36
ATOM     36  C   UNL A   1      40.045  29.251  29.644  1.00  0.00     0.031 A 
ATOM     37  C   UNL A   1      40.575  29.032  31.020  1.00  0.00     0.074 A 
ATOM     38  C   UNL A   1      40.643  28.698  28.564  1.00  0.00     0.049 A 
ATOM     39  N   UNL A   1      41.644  29.530  31.546  1.00  0.00    -0.248 NA
ATOM     40  C   UNL A   1      39.751  28.262  31.969  1.00  0.00     0.031 C 
ATOM     41  C   UNL A   1      40.092  28.563  27.210  1.00  0.00     0.029 A 
ATOM     42  N   UNL A   1      41.831  28.032  28.471  1.00  0.00    -0.354 N 
ATOM     43  C   UNL A   1      41.731  28.987  32.825  1.00  0.00     0.074 A 
ATOM     44  C   UNL A   1      40.467  28.352  33.090  1.00  0.00     0.031 C 
ATOM     45  C   UNL A   1      40.821  27.667  26.511  1.00  0.00     0.029 A 
ATOM     46  C   UNL A   1      41.983  27.298  27.297  1.00  0.00     0.049 A 
ATOM     47  H   UNL A   1      42.521  28.069  29.172  1.00  0.00     0.167 HD
ATOM     48  C   UNL A   1      42.933  28.873  33.454  1.00  0.00     0.037 A 
ATOM     49  C   UNL A   1      42.984  26.431  26.999  1.00  0.00     0.037 A 
ATOM     50  C   UNL A   1      43.929  29.691  32.815  1.00  0.00     0.049 A 
ATOM     51  C   UNL A   1      44.124  26.774  27.877  1.00  0.00     0.074 A 
ATOM     52  C   UNL A   1      44.157  31.041  32.667  1.00  0.00     0.029 A 
ATOM     53  N   UNL A   1      44.662  29.051  31.852  1.00  0.00    -0.354 N 
ATOM     54  N   UNL A   1      44.814  27.875  27.778  1.00  0.00    -0.248 NA
ATOM     55  C   UNL A   1      44.318  26.022  29.109  1.00  0.00     0.031 C 
ATOM     56  C   UNL A   1      44.797  31.188  31.400  1.00  0.00     0.029 A 
ATOM     57  C   UNL A   1      44.982  29.922  30.846  1.00  0.00     0.049 A 
ATOM     58  H   UNL A   1      44.922  28.102  31.880  1.00  0.00     0.167 HD
ATOM     59  C   UNL A   1      45.162  28.176  29.080  1.00  0.00     0.074 A 
ATOM     60  C   UNL A   1      45.006  26.925  29.812  1.00  0.00     0.031 C 
ATOM     61  C   UNL A   1      45.232  29.474  29.492  1.00  0.00     0.037 A 
BRANCH  48  62
ATOM     62  C   UNL A   1      43.324  27.701  34.329  1.00  0.00     0.064 A 
ATOM     63  C   UNL A   1      43.264  27.730  35.739  1.00  0.00     0.173 A 
ATOM     64  C   UNL A   1      43.459  26.419  33.756  1.00  0.00     0.173 A 
ATOM     65  F   UNL A   1      42.991  28.853  36.414  1.00  0.00    -0.203 F 
ATOM     66  C   UNL A   1      43.357  26.577  36.518  1.00  0.00     0.198 A 
ATOM     67  C   UNL A   1      43.496  25.260  34.538  1.00  0.00     0.198 A 
ATOM     68  F   UNL A   1      43.470  26.265  32.423  1.00  0.00    -0.203 F 
ATOM     69  F   UNL A   1      43.272  26.676  37.852  1.00  0.00    -0.200 F 
ATOM     70  C   UNL A   1      43.449  25.340  35.919  1.00  0.00     0.200 A 
ATOM     71  F   UNL A   1      43.512  24.057  33.948  1.00  0.00    -0.200 F 
ATOM     72  F   UNL A   1      43.438  24.230  36.668  1.00  0.00    -0.200 F 
ENDBRANCH  48  62
BRANCH  49  73
ATOM     73  C   UNL A   1      42.974  25.186  26.191  1.00  0.00     0.064 A 
ATOM     74  C   UNL A   1      42.212  24.070  26.578  1.00  0.00     0.173 A 
ATOM     75  C   UNL A   1      43.955  24.955  25.213  1.00  0.00     0.173 A 
ATOM     76  F   UNL A   1      41.257  24.186  27.503  1.00  0.00    -0.203 F 
ATOM     77  C   UNL A   1      42.470  22.788  26.086  1.00  0.00     0.198 A 
ATOM     78  C   UNL A   1      44.212  23.672  24.716  1.00  0.00     0.198 A 
ATOM     79  F   UNL A   1      44.735  25.959  24.787  1.00  0.00    -0.203 F 
ATOM     80  F   UNL A   1      41.773  21.744  26.556  1.00  0.00    -0.200 F 
ATOM     81  C   UNL A   1      43.486  22.586  25.173  1.00  0.00     0.200 A 
ATOM     82  F   UNL A   1      45.213  23.481  23.844  1.00  0.00    -0.200 F 
ATOM     83  F   UNL A   1      43.788  21.346  24.764  1.00  0.00    -0.200 F 
ENDBRANCH  49  73
BRANCH  61  84
ATOM     84  C   UNL A   1      45.405  30.524  28.430  1.00  0.00     0.064 A 
ATOM     85  C   UNL A   1      46.711  30.939  28.134  1.00  0.00     0.173 A 
ATOM     86  C   UNL A   1      44.354  31.179  27.766  1.00  0.00     0.173 A 
ATOM     87  F   UNL A   1      47.754  30.379  28.766  1.00  0.00    -0.203 F 
ATOM     88  C   UNL A   1      46.958  31.956  27.217  1.00  0.00     0.198 A 
ATOM     89  C   UNL A   1      44.606  32.168  26.815  1.00  0.00     0.198 A 
ATOM     90  F   UNL A   1      43.075  30.905  28.051  1.00  0.00    -0.203 F 
ATOM     91  F   UNL A   1      48.216  32.363  26.998  1.00  0.00    -0.200 F 
ATOM     92  C   UNL A   1      45.907  32.561  26.549  1.00  0.00     0.200 A 
ATOM     93  F   UNL A   1      43.587  32.760  26.175  1.00  0.00    -0.200 F 
ATOM     94  F   UNL A   1      46.148  33.538  25.664  1.00  0.00    -0.200 F 
ENDBRANCH  61  84
ENDBRANCH  35  36
ENDBRANCH  27  30
ENDBRANCH  25  26
ENDBRANCH   1  25
TORSDOF 12
ENDMDL
MODEL 3
REMARK VINA RESULT:     -13.9      1.803      2.814
REMARK SMILES CC1=Nc2ncnn2[C@H](c2ccc(F)cc2)[C@@H]1C(=O)NCCCCNC(=O)c1ccc(-c2c3nc(c(-c4c(F)c(F)c(F)c(F)c4F)c4ccc([nH]4)c(-c4c(F)c(F)c(F)c(F)c4F)c4nc(c(-c5c(F)c(F)c(F)c(F)c5F)c5ccc2[nH]5)C=C4)C=C3)cc1
REMARK SMILES IDX 23 1 22 2 21 3 20 4 18 5 19 6 17 8 1 9 2 10 3 11 4 12 9 13
REMARK SMILES IDX 5 14 8 15 6 16 7 17 10 18 11 19 16 20 12 21 15 22 13 23
REMARK SMILES IDX 14 24 24 25 25 26 26 27 27 29 28 30 29 31 90 32 30 33 89 34
REMARK SMILES IDX 31 35 32 36 33 37 83 38 34 39 88 40 82 41 84 42 35 43 87 44
REMARK SMILES IDX 81 45 80 46 36 48 68 49 48 50 67 51 49 52 52 53 66 54 85 55
REMARK SMILES IDX 50 56 51 57 65 59 86 60 53 61 37 62 38 63 46 64 39 65 40 66
REMARK SMILES IDX 44 67 47 68 41 69 42 70 45 71 43 72 69 73 70 74 78 75 71 76
REMARK SMILES IDX 72 77 76 78 79 79 73 80 74 81 77 82 75 83 54 84 55 85 63 86
REMARK SMILES IDX 56 87 57 88 61 89 64 90 58 91 59 92 62 93 60 94
REMARK H PARENT 20 7 25 28 84 47 52 58
REMARK Flexibility Score: inf
ROOT
ATOM      1  C   UNL A   1      34.171  31.620  28.467  1.00  0.00     0.023 C 
ENDROOT
BRANCH   1   2
ATOM      2  C   UNL A   1      35.072  30.977  27.395  1.00  0.00     0.023 C 
BRANCH   2   3
ATOM      3  C   UNL A   1      35.257  29.457  27.501  1.00  0.00     0.116 C 
BRANCH   3   4
ATOM      4  N   UNL A   1      33.997  28.817  27.827  1.00  0.00    -0.355 N 
ATOM      5  C   UNL A   1      32.844  28.694  27.124  1.00  0.00     0.231 C 
ATOM      6  O   UNL A   1      31.832  28.408  27.768  1.00  0.00    -0.274 OA
ATOM      7  H   UNL A   1      33.975  28.397  28.718  1.00  0.00     0.163 HD
BRANCH   5   8
ATOM      8  C   UNL A   1      32.803  28.855  25.616  1.00  0.00     0.152 C 
ATOM      9  C   UNL A   1      31.403  31.030  25.953  1.00  0.00     0.063 C 
ATOM     10  C   UNL A   1      31.621  29.733  25.199  1.00  0.00     0.034 C 
ATOM     11  N   UNL A   1      30.803  29.493  24.225  1.00  0.00    -0.220 NA
ATOM     12  C   UNL A   1      30.988  28.395  23.467  1.00  0.00     0.248 A 
ATOM     13  C   UNL A   1      32.894  27.513  24.829  1.00  0.00     0.159 C 
ATOM     14  N   UNL A   1      30.390  28.066  22.343  1.00  0.00    -0.198 NA
ATOM     15  N   UNL A   1      31.927  27.438  23.743  1.00  0.00    -0.221 N 
ATOM     16  C   UNL A   1      31.043  26.939  21.939  1.00  0.00     0.248 A 
ATOM     17  N   UNL A   1      32.032  26.539  22.739  1.00  0.00    -0.157 NA
BRANCH  13  18
ATOM     18  C   UNL A   1      32.990  26.165  25.560  1.00  0.00    -0.022 A 
ATOM     19  C   UNL A   1      31.805  25.575  26.051  1.00  0.00     0.009 A 
ATOM     20  C   UNL A   1      34.192  25.475  25.780  1.00  0.00     0.009 A 
ATOM     21  C   UNL A   1      31.807  24.294  26.608  1.00  0.00     0.039 A 
ATOM     22  C   UNL A   1      34.189  24.169  26.273  1.00  0.00     0.039 A 
ATOM     23  C   UNL A   1      32.995  23.585  26.659  1.00  0.00     0.123 A 
ATOM     24  F   UNL A   1      33.000  22.316  27.079  1.00  0.00    -0.207 F 
ENDBRANCH  13  18
ENDBRANCH   5   8
ENDBRANCH   3   4
ENDBRANCH   2   3
ENDBRANCH   1   2
BRANCH   1  25
ATOM     25  C   UNL A   1      34.642  32.982  28.955  1.00  0.00     0.116 C 
BRANCH  25  26
ATOM     26  N   UNL A   1      34.591  33.096  30.408  1.00  0.00    -0.352 N 
ATOM     27  C   UNL A   1      35.276  32.350  31.347  1.00  0.00     0.251 C 
ATOM     28  H   UNL A   1      33.993  33.791  30.764  1.00  0.00     0.163 HD
ATOM     29  O   UNL A   1      34.870  32.266  32.493  1.00  0.00    -0.269 OA
BRANCH  27  30
ATOM     30  C   UNL A   1      36.508  31.647  30.942  1.00  0.00     0.039 A 
ATOM     31  C   UNL A   1      37.680  32.364  30.688  1.00  0.00     0.014 A 
ATOM     32  C   UNL A   1      36.484  30.259  30.824  1.00  0.00     0.014 A 
ATOM     33  C   UNL A   1      38.848  31.665  30.395  1.00  0.00     0.010 A 
ATOM     34  C   UNL A   1      37.661  29.563  30.654  1.00  0.00     0.010 A 
ATOM     35  C   UNL A   1      38.840  30.260  30.406  1.00  0.00    -0.014 A 
BRANCH  35  36
ATOM     36  C   UNL A   1      40.102  29.524  30.319  1.00  0.00     0.031 A 
ATOM     37  C   UNL A   1      40.761  29.293  31.636  1.00  0.00     0.074 A 
ATOM     38  C   UNL A   1      40.540  28.911  29.195  1.00  0.00     0.049 A 
ATOM     39  N   UNL A   1      41.912  29.725  32.031  1.00  0.00    -0.248 NA
ATOM     40  C   UNL A   1      39.995  28.600  32.686  1.00  0.00     0.031 C 
ATOM     41  C   UNL A   1      39.838  28.791  27.912  1.00  0.00     0.029 A 
ATOM     42  N   UNL A   1      41.664  28.162  28.993  1.00  0.00    -0.354 N 
ATOM     43  C   UNL A   1      42.101  29.200  33.308  1.00  0.00     0.074 A 
ATOM     44  C   UNL A   1      40.833  28.659  33.722  1.00  0.00     0.031 C 
ATOM     45  C   UNL A   1      40.425  27.834  27.162  1.00  0.00     0.029 A 
ATOM     46  C   UNL A   1      41.638  27.398  27.829  1.00  0.00     0.049 A 
ATOM     47  H   UNL A   1      42.426  28.163  29.616  1.00  0.00     0.167 HD
ATOM     48  C   UNL A   1      43.354  29.013  33.807  1.00  0.00     0.037 A 
ATOM     49  C   UNL A   1      42.540  26.459  27.448  1.00  0.00     0.037 A 
ATOM     50  C   UNL A   1      44.327  29.748  33.045  1.00  0.00     0.049 A 
ATOM     51  C   UNL A   1      43.789  26.737  28.190  1.00  0.00     0.074 A 
ATOM     52  C   UNL A   1      44.629  31.076  32.840  1.00  0.00     0.029 A 
ATOM     53  N   UNL A   1      44.907  29.041  32.026  1.00  0.00    -0.354 N 
ATOM     54  N   UNL A   1      44.537  27.784  27.990  1.00  0.00    -0.248 NA
ATOM     55  C   UNL A   1      44.064  25.995  29.413  1.00  0.00     0.031 C 
ATOM     56  C   UNL A   1      45.136  31.155  31.508  1.00  0.00     0.029 A 
ATOM     57  C   UNL A   1      45.174  29.869  30.969  1.00  0.00     0.049 A 
ATOM     58  H   UNL A   1      45.103  28.077  32.050  1.00  0.00     0.167 HD
ATOM     59  C   UNL A   1      45.043  28.084  29.239  1.00  0.00     0.074 A 
ATOM     60  C   UNL A   1      44.883  26.860  30.015  1.00  0.00     0.031 C 
ATOM     61  C   UNL A   1      45.245  29.381  29.608  1.00  0.00     0.037 A 
BRANCH  48  62
ATOM     62  C   UNL A   1      43.757  27.833  34.665  1.00  0.00     0.064 A 
ATOM     63  C   UNL A   1      43.918  27.909  36.065  1.00  0.00     0.173 A 
ATOM     64  C   UNL A   1      43.675  26.527  34.136  1.00  0.00     0.173 A 
ATOM     65  F   UNL A   1      43.864  29.073  36.723  1.00  0.00    -0.203 F 
ATOM     66  C   UNL A   1      44.015  26.775  36.872  1.00  0.00     0.198 A 
ATOM     67  C   UNL A   1      43.717  25.394  34.954  1.00  0.00     0.198 A 
ATOM     68  F   UNL A   1      43.464  26.335  32.824  1.00  0.00    -0.203 F 
ATOM     69  F   UNL A   1      44.147  26.921  38.198  1.00  0.00    -0.200 F 
ATOM     70  C   UNL A   1      43.891  25.518  36.321  1.00  0.00     0.200 A 
ATOM     71  F   UNL A   1      43.522  24.179  34.423  1.00  0.00    -0.200 F 
ATOM     72  F   UNL A   1      43.885  24.438  37.112  1.00  0.00    -0.200 F 
ENDBRANCH  48  62
BRANCH  49  73
ATOM     73  C   UNL A   1      42.358  25.202  26.678  1.00  0.00     0.064 A 
ATOM     74  C   UNL A   1      41.641  24.117  27.208  1.00  0.00     0.173 A 
ATOM     75  C   UNL A   1      43.153  24.927  25.552  1.00  0.00     0.173 A 
ATOM     76  F   UNL A   1      40.859  24.276  28.279  1.00  0.00    -0.203 F 
ATOM     77  C   UNL A   1      41.775  22.821  26.705  1.00  0.00     0.198 A 
ATOM     78  C   UNL A   1      43.286  23.630  25.044  1.00  0.00     0.198 A 
ATOM     79  F   UNL A   1      43.878  25.900  24.982  1.00  0.00    -0.203 F 
ATOM     80  F   UNL A   1      41.139  21.805  27.306  1.00  0.00    -0.200 F 
ATOM     81  C   UNL A   1      42.616  22.574  25.638  1.00  0.00     0.200 A 
ATOM     82  F   UNL A   1      44.119  23.395  24.020  1.00  0.00    -0.200 F 
ATOM     83  F   UNL A   1      42.810  21.319  25.208  1.00  0.00    -0.200 F 
ENDBRANCH  49  73
BRANCH  61  84
ATOM     84  C   UNL A   1      45.372  30.397  28.508  1.00  0.00     0.064 A 
ATOM     85  C   UNL A   1      46.666  30.759  28.105  1.00  0.00     0.173 A 
ATOM     86  C   UNL A   1      44.297  31.070  27.904  1.00  0.00     0.173 A 
ATOM     87  F   UNL A   1      47.734  30.179  28.675  1.00  0.00    -0.203 F 
ATOM     88  C   UNL A   1      46.877  31.744  27.145  1.00  0.00     0.198 A 
ATOM     89  C   UNL A   1      44.509  32.026  26.911  1.00  0.00     0.198 A 
ATOM     90  F   UNL A   1      43.034  30.848  28.290  1.00  0.00    -0.203 F 
ATOM     91  F   UNL A   1      48.127  32.101  26.823  1.00  0.00    -0.200 F 
ATOM     92  C   UNL A   1      45.799  32.367  26.539  1.00  0.00     0.200 A 
ATOM     93  F   UNL A   1      43.466  32.636  26.330  1.00  0.00    -0.200 F 
ATOM     94  F   UNL A   1      46.006  33.312  25.612  1.00  0.00    -0.200 F 
ENDBRANCH  61  84
ENDBRANCH  35  36
ENDBRANCH  27  30
ENDBRANCH  25  26
ENDBRANCH   1  25
TORSDOF 12
ENDMDL
