MODEL 1
REMARK VINA RESULT:     -12.4      0.000      0.000
REMARK SMILES CC[C@@H](C)N(CC)c1cc(C(=O)NCCCCNC(=O)c2ccc(-c3c4nc(c(-c5c(F)c(F)c(F)c(F)c5F)c5ccc([nH]5)c(-c5c(F)c(F)c(F)c(F)c5F)c5nc(c(-c6c(F)c(F)c(F)c(F)c6F)c6ccc3[nH]6)C=C5)C=C4)cc2)c2ccccc2n1
REMARK SMILES IDX 15 1 14 2 13 3 11 4 12 5 10 7 8 8 9 9 90 10 89 11 84 12
REMARK SMILES IDX 88 13 85 14 87 15 86 16 5 17 3 18 4 19 2 20 1 21 6 22 7 23
REMARK SMILES IDX 16 24 17 25 18 26 19 27 20 29 21 30 22 31 83 32 23 33 82 34
REMARK SMILES IDX 24 35 25 36 26 37 76 38 27 39 81 40 75 41 77 42 28 43 80 44
REMARK SMILES IDX 74 45 73 46 29 48 61 49 41 50 60 51 42 52 45 53 59 54 78 55
REMARK SMILES IDX 43 56 44 57 58 59 79 60 46 61 30 62 31 63 39 64 32 65 33 66
REMARK SMILES IDX 37 67 40 68 34 69 35 70 38 71 36 72 62 73 63 74 71 75 64 76
REMARK SMILES IDX 65 77 69 78 72 79 66 80 67 81 70 82 68 83 47 84 48 85 56 86
REMARK SMILES IDX 49 87 50 88 54 89 57 90 51 91 52 92 55 93 53 94
REMARK H PARENT 13 6 18 28 77 47 45 58
REMARK Flexibility Score: inf
ROOT
ATOM      1  C   UNL A   1      37.424  21.962  24.619  1.00  0.00     0.023 C 
ENDROOT
BRANCH   1   2
ATOM      2  C   UNL A   1      36.826  22.959  25.619  1.00  0.00     0.116 C 
BRANCH   2   3
ATOM      3  N   UNL A   1      35.999  22.225  26.551  1.00  0.00    -0.352 N 
ATOM      4  C   UNL A   1      34.692  21.818  26.523  1.00  0.00     0.252 C 
ATOM      5  O   UNL A   1      34.220  21.479  27.614  1.00  0.00    -0.269 OA
ATOM      6  H   UNL A   1      36.472  21.966  27.373  1.00  0.00     0.163 HD
BRANCH   4   7
ATOM      7  C   UNL A   1      33.859  21.609  25.299  1.00  0.00     0.052 A 
ATOM      8  C   UNL A   1      32.553  22.859  23.679  1.00  0.00     0.130 A 
ATOM      9  C   UNL A   1      33.346  22.821  24.807  1.00  0.00     0.061 A 
ATOM     10  N   UNL A   1      32.131  21.709  23.143  1.00  0.00    -0.231 NA
ATOM     11  C   UNL A   1      32.629  20.538  23.550  1.00  0.00     0.073 A 
ATOM     12  C   UNL A   1      33.577  20.423  24.581  1.00  0.00     0.013 A 
ATOM     13  C   UNL A   1      32.204  19.408  22.861  1.00  0.00     0.029 A 
ATOM     14  C   UNL A   1      34.179  19.153  24.737  1.00  0.00     0.011 A 
ATOM     15  C   UNL A   1      32.722  18.144  23.124  1.00  0.00     0.002 A 
ATOM     16  C   UNL A   1      33.736  18.018  24.054  1.00  0.00     0.001 A 
BRANCH   8  17
ATOM     17  N   UNL A   1      32.200  24.060  23.079  1.00  0.00    -0.354 N 
BRANCH  17  18
ATOM     18  C   UNL A   1      33.240  25.046  22.706  1.00  0.00     0.080 C 
ATOM     19  C   UNL A   1      33.815  25.695  23.966  1.00  0.00     0.031 C 
BRANCH  18  20
ATOM     20  C   UNL A   1      32.773  26.058  21.638  1.00  0.00     0.021 C 
ATOM     21  C   UNL A   1      32.623  25.456  20.248  1.00  0.00     0.006 C 
ENDBRANCH  18  20
ENDBRANCH  17  18
BRANCH  17  22
ATOM     22  C   UNL A   1      30.838  24.566  23.311  1.00  0.00     0.115 C 
ATOM     23  C   UNL A   1      30.556  24.825  24.784  1.00  0.00     0.027 C 
ENDBRANCH  17  22
ENDBRANCH   8  17
ENDBRANCH   4   7
ENDBRANCH   2   3
ENDBRANCH   1   2
BRANCH   1  24
ATOM     24  C   UNL A   1      37.956  20.670  25.222  1.00  0.00     0.023 C 
BRANCH  24  25
ATOM     25  C   UNL A   1      39.337  20.794  25.839  1.00  0.00     0.116 C 
BRANCH  25  26
ATOM     26  N   UNL A   1      40.094  19.546  25.852  1.00  0.00    -0.352 N 
ATOM     27  C   UNL A   1      41.433  19.361  26.099  1.00  0.00     0.251 C 
ATOM     28  H   UNL A   1      39.577  18.731  25.658  1.00  0.00     0.163 HD
ATOM     29  O   UNL A   1      41.947  18.253  26.008  1.00  0.00    -0.269 OA
BRANCH  27  30
ATOM     30  C   UNL A   1      42.250  20.544  26.420  1.00  0.00     0.039 A 
ATOM     31  C   UNL A   1      42.830  21.262  25.374  1.00  0.00     0.014 A 
ATOM     32  C   UNL A   1      42.319  21.006  27.736  1.00  0.00     0.014 A 
ATOM     33  C   UNL A   1      43.396  22.508  25.638  1.00  0.00     0.010 A 
ATOM     34  C   UNL A   1      42.802  22.282  27.982  1.00  0.00     0.010 A 
ATOM     35  C   UNL A   1      43.331  23.050  26.932  1.00  0.00    -0.014 A 
BRANCH  35  36
ATOM     36  C   UNL A   1      43.778  24.434  27.210  1.00  0.00     0.031 A 
ATOM     37  C   UNL A   1      42.794  25.451  27.707  1.00  0.00     0.074 A 
ATOM     38  C   UNL A   1      45.045  24.792  26.921  1.00  0.00     0.049 A 
ATOM     39  N   UNL A   1      42.963  26.731  27.918  1.00  0.00    -0.248 NA
ATOM     40  C   UNL A   1      41.424  24.976  27.966  1.00  0.00     0.031 C 
ATOM     41  C   UNL A   1      46.070  23.907  26.362  1.00  0.00     0.029 A 
ATOM     42  N   UNL A   1      45.684  26.000  27.042  1.00  0.00    -0.354 N 
ATOM     43  C   UNL A   1      41.724  27.214  28.311  1.00  0.00     0.074 A 
ATOM     44  C   UNL A   1      40.797  26.104  28.262  1.00  0.00     0.031 C 
ATOM     45  C   UNL A   1      47.212  24.596  26.207  1.00  0.00     0.029 A 
ATOM     46  C   UNL A   1      46.992  25.976  26.626  1.00  0.00     0.049 A 
ATOM     47  H   UNL A   1      45.245  26.807  27.394  1.00  0.00     0.167 HD
ATOM     48  C   UNL A   1      41.396  28.467  28.704  1.00  0.00     0.037 A 
ATOM     49  C   UNL A   1      47.908  26.962  26.582  1.00  0.00     0.037 A 
ATOM     50  C   UNL A   1      42.333  29.554  28.797  1.00  0.00     0.049 A 
ATOM     51  C   UNL A   1      47.523  28.337  27.057  1.00  0.00     0.074 A 
ATOM     52  C   UNL A   1      42.121  30.835  29.272  1.00  0.00     0.029 A 
ATOM     53  N   UNL A   1      43.661  29.483  28.407  1.00  0.00    -0.354 N 
ATOM     54  N   UNL A   1      46.369  28.761  27.511  1.00  0.00    -0.248 NA
ATOM     55  C   UNL A   1      48.569  29.368  27.019  1.00  0.00     0.031 C 
ATOM     56  C   UNL A   1      43.314  31.551  29.138  1.00  0.00     0.029 A 
ATOM     57  C   UNL A   1      44.278  30.704  28.615  1.00  0.00     0.049 A 
ATOM     58  H   UNL A   1      44.101  28.681  28.040  1.00  0.00     0.167 HD
ATOM     59  C   UNL A   1      46.554  30.098  27.832  1.00  0.00     0.074 A 
ATOM     60  C   UNL A   1      47.937  30.411  27.538  1.00  0.00     0.031 C 
ATOM     61  C   UNL A   1      45.658  30.990  28.320  1.00  0.00     0.037 A 
BRANCH  48  62
ATOM     62  C   UNL A   1      39.969  28.726  29.081  1.00  0.00     0.064 A 
ATOM     63  C   UNL A   1      39.038  29.198  28.143  1.00  0.00     0.173 A 
ATOM     64  C   UNL A   1      39.516  28.456  30.380  1.00  0.00     0.173 A 
ATOM     65  F   UNL A   1      39.427  29.485  26.892  1.00  0.00    -0.203 F 
ATOM     66  C   UNL A   1      37.709  29.408  28.498  1.00  0.00     0.198 A 
ATOM     67  C   UNL A   1      38.180  28.643  30.725  1.00  0.00     0.198 A 
ATOM     68  F   UNL A   1      40.366  28.003  31.313  1.00  0.00    -0.203 F 
ATOM     69  F   UNL A   1      36.846  29.896  27.597  1.00  0.00    -0.200 F 
ATOM     70  C   UNL A   1      37.280  29.123  29.786  1.00  0.00     0.200 A 
ATOM     71  F   UNL A   1      37.764  28.359  31.967  1.00  0.00    -0.200 F 
ATOM     72  F   UNL A   1      35.997  29.317  30.123  1.00  0.00    -0.200 F 
ENDBRANCH  48  62
BRANCH  49  73
ATOM     73  C   UNL A   1      49.282  26.686  26.091  1.00  0.00     0.064 A 
ATOM     74  C   UNL A   1      50.256  26.151  26.947  1.00  0.00     0.173 A 
ATOM     75  C   UNL A   1      49.657  26.963  24.769  1.00  0.00     0.173 A 
ATOM     76  F   UNL A   1      49.950  25.887  28.226  1.00  0.00    -0.203 F 
ATOM     77  C   UNL A   1      51.558  25.929  26.506  1.00  0.00     0.198 A 
ATOM     78  C   UNL A   1      50.953  26.717  24.322  1.00  0.00     0.198 A 
ATOM     79  F   UNL A   1      48.761  27.471  23.909  1.00  0.00    -0.203 F 
ATOM     80  F   UNL A   1      52.482  25.463  27.358  1.00  0.00    -0.200 F 
ATOM     81  C   UNL A   1      51.906  26.208  25.192  1.00  0.00     0.200 A 
ATOM     82  F   UNL A   1      51.282  26.977  23.049  1.00  0.00    -0.200 F 
ATOM     83  F   UNL A   1      53.159  25.997  24.769  1.00  0.00    -0.200 F 
ENDBRANCH  49  73
BRANCH  61  84
ATOM     84  C   UNL A   1      46.153  32.379  28.585  1.00  0.00     0.064 A 
ATOM     85  C   UNL A   1      46.075  33.381  27.608  1.00  0.00     0.173 A 
ATOM     86  C   UNL A   1      46.670  32.722  29.844  1.00  0.00     0.173 A 
ATOM     87  F   UNL A   1      45.603  33.096  26.385  1.00  0.00    -0.203 F 
ATOM     88  C   UNL A   1      46.517  34.673  27.874  1.00  0.00     0.198 A 
ATOM     89  C   UNL A   1      47.086  34.022  30.115  1.00  0.00     0.198 A 
ATOM     90  F   UNL A   1      46.758  31.799  30.812  1.00  0.00    -0.203 F 
ATOM     91  F   UNL A   1      46.473  35.607  26.913  1.00  0.00    -0.200 F 
ATOM     92  C   UNL A   1      47.015  34.994  29.128  1.00  0.00     0.200 A 
ATOM     93  F   UNL A   1      47.556  34.333  31.330  1.00  0.00    -0.200 F 
ATOM     94  F   UNL A   1      47.433  36.242  29.386  1.00  0.00    -0.200 F 
ENDBRANCH  61  84
ENDBRANCH  35  36
ENDBRANCH  27  30
ENDBRANCH  25  26
ENDBRANCH  24  25
ENDBRANCH   1  24
TORSDOF 15
ENDMDL
MODEL 2
REMARK VINA RESULT:     -12.4      0.557      1.896
REMARK SMILES CC[C@@H](C)N(CC)c1cc(C(=O)NCCCCNC(=O)c2ccc(-c3c4nc(c(-c5c(F)c(F)c(F)c(F)c5F)c5ccc([nH]5)c(-c5c(F)c(F)c(F)c(F)c5F)c5nc(c(-c6c(F)c(F)c(F)c(F)c6F)c6ccc3[nH]6)C=C5)C=C4)cc2)c2ccccc2n1
REMARK SMILES IDX 15 1 14 2 13 3 11 4 12 5 10 7 8 8 9 9 90 10 89 11 84 12
REMARK SMILES IDX 88 13 85 14 87 15 86 16 5 17 3 18 4 19 2 20 1 21 6 22 7 23
REMARK SMILES IDX 16 24 17 25 18 26 19 27 20 29 21 30 22 31 83 32 23 33 82 34
REMARK SMILES IDX 24 35 25 36 26 37 76 38 27 39 81 40 75 41 77 42 28 43 80 44
REMARK SMILES IDX 74 45 73 46 29 48 61 49 41 50 60 51 42 52 45 53 59 54 78 55
REMARK SMILES IDX 43 56 44 57 58 59 79 60 46 61 30 62 31 63 39 64 32 65 33 66
REMARK SMILES IDX 37 67 40 68 34 69 35 70 38 71 36 72 62 73 63 74 71 75 64 76
REMARK SMILES IDX 65 77 69 78 72 79 66 80 67 81 70 82 68 83 47 84 48 85 56 86
REMARK SMILES IDX 49 87 50 88 54 89 57 90 51 91 52 92 55 93 53 94
REMARK H PARENT 13 6 18 28 77 47 45 58
REMARK Flexibility Score: inf
ROOT
ATOM      1  C   UNL A   1      37.354  21.969  24.568  1.00  0.00     0.023 C 
ENDROOT
BRANCH   1   2
ATOM      2  C   UNL A   1      37.045  23.086  25.573  1.00  0.00     0.116 C 
BRANCH   2   3
ATOM      3  N   UNL A   1      36.170  22.550  26.591  1.00  0.00    -0.352 N 
ATOM      4  C   UNL A   1      34.813  22.389  26.670  1.00  0.00     0.252 C 
ATOM      5  O   UNL A   1      34.370  22.181  27.805  1.00  0.00    -0.269 OA
ATOM      6  H   UNL A   1      36.649  22.238  27.392  1.00  0.00     0.163 HD
BRANCH   4   7
ATOM      7  C   UNL A   1      33.867  22.293  25.516  1.00  0.00     0.052 A 
ATOM      8  C   UNL A   1      32.436  23.689  24.139  1.00  0.00     0.130 A 
ATOM      9  C   UNL A   1      33.329  23.546  25.180  1.00  0.00     0.061 A 
ATOM     10  N   UNL A   1      31.949  22.592  23.547  1.00  0.00    -0.231 NA
ATOM     11  C   UNL A   1      32.465  21.387  23.803  1.00  0.00     0.073 A 
ATOM     12  C   UNL A   1      33.503  21.176  24.727  1.00  0.00     0.013 A 
ATOM     13  C   UNL A   1      31.962  20.325  23.062  1.00  0.00     0.029 A 
ATOM     14  C   UNL A   1      34.098  19.894  24.716  1.00  0.00     0.011 A 
ATOM     15  C   UNL A   1      32.484  19.039  23.165  1.00  0.00     0.002 A 
ATOM     16  C   UNL A   1      33.578  18.826  23.982  1.00  0.00     0.001 A 
BRANCH   8  17
ATOM     17  N   UNL A   1      32.046  24.940  23.681  1.00  0.00    -0.354 N 
BRANCH  17  18
ATOM     18  C   UNL A   1      31.222  25.827  24.532  1.00  0.00     0.080 C 
ATOM     19  C   UNL A   1      29.800  25.909  23.972  1.00  0.00     0.031 C 
BRANCH  18  20
ATOM     20  C   UNL A   1      31.870  27.202  24.797  1.00  0.00     0.021 C 
ATOM     21  C   UNL A   1      33.275  27.115  25.377  1.00  0.00     0.006 C 
ENDBRANCH  18  20
ENDBRANCH  17  18
BRANCH  17  22
ATOM     22  C   UNL A   1      31.982  25.146  22.225  1.00  0.00     0.115 C 
ATOM     23  C   UNL A   1      33.145  25.979  21.703  1.00  0.00     0.027 C 
ENDBRANCH  17  22
ENDBRANCH   8  17
ENDBRANCH   4   7
ENDBRANCH   2   3
ENDBRANCH   1   2
BRANCH   1  24
ATOM     24  C   UNL A   1      37.878  20.674  25.171  1.00  0.00     0.023 C 
BRANCH  24  25
ATOM     25  C   UNL A   1      39.248  20.798  25.815  1.00  0.00     0.116 C 
BRANCH  25  26
ATOM     26  N   UNL A   1      40.009  19.552  25.831  1.00  0.00    -0.352 N 
ATOM     27  C   UNL A   1      41.347  19.372  26.087  1.00  0.00     0.251 C 
ATOM     28  H   UNL A   1      39.497  18.736  25.633  1.00  0.00     0.163 HD
ATOM     29  O   UNL A   1      41.866  18.265  25.997  1.00  0.00    -0.269 OA
BRANCH  27  30
ATOM     30  C   UNL A   1      42.158  20.557  26.415  1.00  0.00     0.039 A 
ATOM     31  C   UNL A   1      42.715  21.298  25.373  1.00  0.00     0.014 A 
ATOM     32  C   UNL A   1      42.242  20.998  27.737  1.00  0.00     0.014 A 
ATOM     33  C   UNL A   1      43.273  22.545  25.648  1.00  0.00     0.010 A 
ATOM     34  C   UNL A   1      42.717  22.275  27.996  1.00  0.00     0.010 A 
ATOM     35  C   UNL A   1      43.222  23.065  26.952  1.00  0.00    -0.014 A 
BRANCH  35  36
ATOM     36  C   UNL A   1      43.661  24.449  27.245  1.00  0.00     0.031 A 
ATOM     37  C   UNL A   1      42.668  25.456  27.744  1.00  0.00     0.074 A 
ATOM     38  C   UNL A   1      44.928  24.815  26.970  1.00  0.00     0.049 A 
ATOM     39  N   UNL A   1      42.829  26.735  27.968  1.00  0.00    -0.248 NA
ATOM     40  C   UNL A   1      41.298  24.972  27.988  1.00  0.00     0.031 C 
ATOM     41  C   UNL A   1      45.962  23.941  26.410  1.00  0.00     0.029 A 
ATOM     42  N   UNL A   1      45.560  26.025  27.107  1.00  0.00    -0.354 N 
ATOM     43  C   UNL A   1      41.585  27.209  28.356  1.00  0.00     0.074 A 
ATOM     44  C   UNL A   1      40.664  26.095  28.290  1.00  0.00     0.031 C 
ATOM     45  C   UNL A   1      47.102  24.636  26.271  1.00  0.00     0.029 A 
ATOM     46  C   UNL A   1      46.872  26.012  26.700  1.00  0.00     0.049 A 
ATOM     47  H   UNL A   1      45.115  26.827  27.463  1.00  0.00     0.167 HD
ATOM     48  C   UNL A   1      41.248  28.456  28.757  1.00  0.00     0.037 A 
ATOM     49  C   UNL A   1      47.783  27.002  26.673  1.00  0.00     0.037 A 
ATOM     50  C   UNL A   1      42.178  29.546  28.867  1.00  0.00     0.049 A 
ATOM     51  C   UNL A   1      47.387  28.371  27.158  1.00  0.00     0.074 A 
ATOM     52  C   UNL A   1      41.956  30.823  29.353  1.00  0.00     0.029 A 
ATOM     53  N   UNL A   1      43.510  29.485  28.488  1.00  0.00    -0.354 N 
ATOM     54  N   UNL A   1      46.228  28.785  27.606  1.00  0.00    -0.248 NA
ATOM     55  C   UNL A   1      48.429  29.407  27.137  1.00  0.00     0.031 C 
ATOM     56  C   UNL A   1      43.147  31.546  29.235  1.00  0.00     0.029 A 
ATOM     57  C   UNL A   1      44.119  30.708  28.711  1.00  0.00     0.049 A 
ATOM     58  H   UNL A   1      43.956  28.690  28.116  1.00  0.00     0.167 HD
ATOM     59  C   UNL A   1      46.404  30.120  27.940  1.00  0.00     0.074 A 
ATOM     60  C   UNL A   1      47.787  30.442  27.660  1.00  0.00     0.031 C 
ATOM     61  C   UNL A   1      45.500  31.004  28.430  1.00  0.00     0.037 A 
BRANCH  48  62
ATOM     62  C   UNL A   1      39.817  28.705  29.126  1.00  0.00     0.064 A 
ATOM     63  C   UNL A   1      39.338  28.447  30.420  1.00  0.00     0.173 A 
ATOM     64  C   UNL A   1      38.925  29.249  28.191  1.00  0.00     0.173 A 
ATOM     65  F   UNL A   1      40.148  27.911  31.344  1.00  0.00    -0.203 F 
ATOM     66  C   UNL A   1      38.013  28.708  30.757  1.00  0.00     0.198 A 
ATOM     67  C   UNL A   1      37.608  29.533  28.539  1.00  0.00     0.198 A 
ATOM     68  F   UNL A   1      39.333  29.513  26.940  1.00  0.00    -0.203 F 
ATOM     69  F   UNL A   1      37.568  28.418  31.987  1.00  0.00    -0.200 F 
ATOM     70  C   UNL A   1      37.152  29.258  29.820  1.00  0.00     0.200 A 
ATOM     71  F   UNL A   1      36.778  30.073  27.636  1.00  0.00    -0.200 F 
ATOM     72  F   UNL A   1      35.879  29.519  30.151  1.00  0.00    -0.200 F 
ENDBRANCH  48  62
BRANCH  49  73
ATOM     73  C   UNL A   1      49.162  26.737  26.190  1.00  0.00     0.064 A 
ATOM     74  C   UNL A   1      49.521  27.001  24.860  1.00  0.00     0.173 A 
ATOM     75  C   UNL A   1      50.143  26.200  27.035  1.00  0.00     0.173 A 
ATOM     76  F   UNL A   1      48.611  27.498  24.008  1.00  0.00    -0.203 F 
ATOM     77  C   UNL A   1      50.800  26.715  24.388  1.00  0.00     0.198 A 
ATOM     78  C   UNL A   1      51.429  25.937  26.569  1.00  0.00     0.198 A 
ATOM     79  F   UNL A   1      49.852  25.933  28.317  1.00  0.00    -0.203 F 
ATOM     80  F   UNL A   1      51.100  26.932  23.101  1.00  0.00    -0.200 F 
ATOM     81  C   UNL A   1      51.755  26.186  25.244  1.00  0.00     0.200 A 
ATOM     82  F   UNL A   1      52.353  25.437  27.402  1.00  0.00    -0.200 F 
ATOM     83  F   UNL A   1      52.984  25.907  24.790  1.00  0.00    -0.200 F 
ENDBRANCH  49  73
BRANCH  61  84
ATOM     84  C   UNL A   1      45.986  32.392  28.711  1.00  0.00     0.064 A 
ATOM     85  C   UNL A   1      45.896  33.407  27.748  1.00  0.00     0.173 A 
ATOM     86  C   UNL A   1      46.506  32.722  29.972  1.00  0.00     0.173 A 
ATOM     87  F   UNL A   1      45.420  33.135  26.523  1.00  0.00    -0.203 F 
ATOM     88  C   UNL A   1      46.330  34.698  28.029  1.00  0.00     0.198 A 
ATOM     89  C   UNL A   1      46.914  34.021  30.259  1.00  0.00     0.198 A 
ATOM     90  F   UNL A   1      46.606  31.786  30.927  1.00  0.00    -0.203 F 
ATOM     91  F   UNL A   1      46.274  35.644  27.081  1.00  0.00    -0.200 F 
ATOM     92  C   UNL A   1      46.831  35.006  29.286  1.00  0.00     0.200 A 
ATOM     93  F   UNL A   1      47.388  34.319  31.476  1.00  0.00    -0.200 F 
ATOM     94  F   UNL A   1      47.242  36.253  29.558  1.00  0.00    -0.200 F 
ENDBRANCH  61  84
ENDBRANCH  35  36
ENDBRANCH  27  30
ENDBRANCH  25  26
ENDBRANCH  24  25
ENDBRANCH   1  24
TORSDOF 15
ENDMDL
MODEL 3
REMARK VINA RESULT:     -12.3      0.859      7.270
REMARK SMILES CC[C@@H](C)N(CC)c1cc(C(=O)NCCCCNC(=O)c2ccc(-c3c4nc(c(-c5c(F)c(F)c(F)c(F)c5F)c5ccc([nH]5)c(-c5c(F)c(F)c(F)c(F)c5F)c5nc(c(-c6c(F)c(F)c(F)c(F)c6F)c6ccc3[nH]6)C=C5)C=C4)cc2)c2ccccc2n1
REMARK SMILES IDX 15 1 14 2 13 3 11 4 12 5 10 7 8 8 9 9 90 10 89 11 84 12
REMARK SMILES IDX 88 13 85 14 87 15 86 16 5 17 3 18 4 19 2 20 1 21 6 22 7 23
REMARK SMILES IDX 16 24 17 25 18 26 19 27 20 29 21 30 22 31 83 32 23 33 82 34
REMARK SMILES IDX 24 35 25 36 26 37 76 38 27 39 81 40 75 41 77 42 28 43 80 44
REMARK SMILES IDX 74 45 73 46 29 48 61 49 41 50 60 51 42 52 45 53 59 54 78 55
REMARK SMILES IDX 43 56 44 57 58 59 79 60 46 61 30 62 31 63 39 64 32 65 33 66
REMARK SMILES IDX 37 67 40 68 34 69 35 70 38 71 36 72 62 73 63 74 71 75 64 76
REMARK SMILES IDX 65 77 69 78 72 79 66 80 67 81 70 82 68 83 47 84 48 85 56 86
REMARK SMILES IDX 49 87 50 88 54 89 57 90 51 91 52 92 55 93 53 94
REMARK H PARENT 13 6 18 28 77 47 45 58
REMARK Flexibility Score: inf
ROOT
ATOM      1  C   UNL A   1      37.308  21.667  24.532  1.00  0.00     0.023 C 
ENDROOT
BRANCH   1   2
ATOM      2  C   UNL A   1      37.404  22.855  25.497  1.00  0.00     0.116 C 
BRANCH   2   3
ATOM      3  N   UNL A   1      36.416  22.676  26.536  1.00  0.00    -0.352 N 
ATOM      4  C   UNL A   1      35.052  22.799  26.564  1.00  0.00     0.252 C 
ATOM      5  O   UNL A   1      34.550  22.872  27.691  1.00  0.00    -0.269 OA
ATOM      6  H   UNL A   1      36.803  22.413  27.402  1.00  0.00     0.163 HD
BRANCH   4   7
ATOM      7  C   UNL A   1      34.134  22.700  25.388  1.00  0.00     0.052 A 
ATOM      8  C   UNL A   1      32.922  24.109  23.827  1.00  0.00     0.130 A 
ATOM      9  C   UNL A   1      33.762  23.967  24.912  1.00  0.00     0.061 A 
ATOM     10  N   UNL A   1      32.322  23.023  23.326  1.00  0.00    -0.231 NA
ATOM     11  C   UNL A   1      32.680  21.798  23.717  1.00  0.00     0.073 A 
ATOM     12  C   UNL A   1      33.658  21.560  24.697  1.00  0.00     0.013 A 
ATOM     13  C   UNL A   1      32.071  20.733  23.063  1.00  0.00     0.029 A 
ATOM     14  C   UNL A   1      34.093  20.221  24.834  1.00  0.00     0.011 A 
ATOM     15  C   UNL A   1      32.430  19.411  23.311  1.00  0.00     0.002 A 
ATOM     16  C   UNL A   1      33.466  19.153  24.187  1.00  0.00     0.001 A 
BRANCH   8  17
ATOM     17  N   UNL A   1      32.700  25.344  23.235  1.00  0.00    -0.354 N 
BRANCH  17  18
ATOM     18  C   UNL A   1      32.841  26.589  24.023  1.00  0.00     0.080 C 
ATOM     19  C   UNL A   1      31.465  27.220  24.246  1.00  0.00     0.031 C 
BRANCH  18  20
ATOM     20  C   UNL A   1      33.891  27.565  23.450  1.00  0.00     0.021 C 
ATOM     21  C   UNL A   1      33.406  29.006  23.368  1.00  0.00     0.006 C 
ENDBRANCH  18  20
ENDBRANCH  17  18
BRANCH  17  22
ATOM     22  C   UNL A   1      31.833  25.388  22.047  1.00  0.00     0.115 C 
ATOM     23  C   UNL A   1      32.614  25.643  20.765  1.00  0.00     0.027 C 
ENDBRANCH  17  22
ENDBRANCH   8  17
ENDBRANCH   4   7
ENDBRANCH   2   3
ENDBRANCH   1   2
BRANCH   1  24
ATOM     24  C   UNL A   1      37.960  20.380  25.013  1.00  0.00     0.023 C 
BRANCH  24  25
ATOM     25  C   UNL A   1      39.242  20.588  25.800  1.00  0.00     0.116 C 
BRANCH  25  26
ATOM     26  N   UNL A   1      40.090  19.402  25.874  1.00  0.00    -0.352 N 
ATOM     27  C   UNL A   1      41.437  19.331  26.140  1.00  0.00     0.251 C 
ATOM     28  H   UNL A   1      39.639  18.543  25.712  1.00  0.00     0.163 HD
ATOM     29  O   UNL A   1      42.035  18.261  26.101  1.00  0.00    -0.269 OA
BRANCH  27  30
ATOM     30  C   UNL A   1      42.158  20.584  26.415  1.00  0.00     0.039 A 
ATOM     31  C   UNL A   1      42.598  21.356  25.339  1.00  0.00     0.014 A 
ATOM     32  C   UNL A   1      42.271  21.049  27.727  1.00  0.00     0.014 A 
ATOM     33  C   UNL A   1      43.060  22.649  25.574  1.00  0.00     0.010 A 
ATOM     34  C   UNL A   1      42.647  22.365  27.950  1.00  0.00     0.010 A 
ATOM     35  C   UNL A   1      43.030  23.180  26.874  1.00  0.00    -0.014 A 
BRANCH  35  36
ATOM     36  C   UNL A   1      43.363  24.601  27.132  1.00  0.00     0.031 A 
ATOM     37  C   UNL A   1      44.763  25.092  26.906  1.00  0.00     0.074 A 
ATOM     38  C   UNL A   1      42.428  25.416  27.660  1.00  0.00     0.049 A 
ATOM     39  N   UNL A   1      45.277  26.268  27.161  1.00  0.00    -0.248 NA
ATOM     40  C   UNL A   1      45.724  24.122  26.355  1.00  0.00     0.031 C 
ATOM     41  C   UNL A   1      41.055  25.028  27.993  1.00  0.00     0.029 A 
ATOM     42  N   UNL A   1      42.495  26.736  28.025  1.00  0.00    -0.354 N 
ATOM     43  C   UNL A   1      46.619  26.171  26.823  1.00  0.00     0.074 A 
ATOM     44  C   UNL A   1      46.855  24.810  26.393  1.00  0.00     0.031 C 
ATOM     45  C   UNL A   1      40.405  26.091  28.493  1.00  0.00     0.029 A 
ATOM     46  C   UNL A   1      41.323  27.224  28.546  1.00  0.00     0.049 A 
ATOM     47  H   UNL A   1      43.307  27.282  27.922  1.00  0.00     0.167 HD
ATOM     48  C   UNL A   1      47.563  27.140  26.846  1.00  0.00     0.037 A 
ATOM     49  C   UNL A   1      41.026  28.449  29.020  1.00  0.00     0.037 A 
ATOM     50  C   UNL A   1      47.310  28.503  27.229  1.00  0.00     0.049 A 
ATOM     51  C   UNL A   1      42.087  29.516  29.001  1.00  0.00     0.074 A 
ATOM     52  C   UNL A   1      48.175  29.582  27.196  1.00  0.00     0.029 A 
ATOM     53  N   UNL A   1      46.098  28.973  27.711  1.00  0.00    -0.354 N 
ATOM     54  N   UNL A   1      43.331  29.436  28.596  1.00  0.00    -0.248 NA
ATOM     55  C   UNL A   1      41.701  30.843  29.499  1.00  0.00     0.031 C 
ATOM     56  C   UNL A   1      47.496  30.699  27.692  1.00  0.00     0.029 A 
ATOM     57  C   UNL A   1      46.198  30.324  27.998  1.00  0.00     0.049 A 
ATOM     58  H   UNL A   1      45.287  28.427  27.831  1.00  0.00     0.167 HD
ATOM     59  C   UNL A   1      43.870  30.703  28.770  1.00  0.00     0.074 A 
ATOM     60  C   UNL A   1      42.812  31.538  29.299  1.00  0.00     0.031 C 
ATOM     61  C   UNL A   1      45.130  31.136  28.519  1.00  0.00     0.037 A 
BRANCH  48  62
ATOM     62  C   UNL A   1      48.952  26.767  26.428  1.00  0.00     0.064 A 
ATOM     63  C   UNL A   1      49.389  26.934  25.104  1.00  0.00     0.173 A 
ATOM     64  C   UNL A   1      49.872  26.281  27.367  1.00  0.00     0.173 A 
ATOM     65  F   UNL A   1      48.541  27.381  24.166  1.00  0.00    -0.203 F 
ATOM     66  C   UNL A   1      50.690  26.609  24.734  1.00  0.00     0.198 A 
ATOM     67  C   UNL A   1      51.181  25.981  26.999  1.00  0.00     0.198 A 
ATOM     68  F   UNL A   1      49.504  26.103  28.645  1.00  0.00    -0.203 F 
ATOM     69  F   UNL A   1      51.074  26.740  23.457  1.00  0.00    -0.200 F 
ATOM     70  C   UNL A   1      51.587  26.141  25.683  1.00  0.00     0.200 A 
ATOM     71  F   UNL A   1      52.049  25.537  27.918  1.00  0.00    -0.200 F 
ATOM     72  F   UNL A   1      52.844  25.840  25.326  1.00  0.00    -0.200 F 
ENDBRANCH  48  62
BRANCH  49  73
ATOM     73  C   UNL A   1      39.663  28.743  29.533  1.00  0.00     0.064 A 
ATOM     74  C   UNL A   1      39.330  28.488  30.872  1.00  0.00     0.173 A 
ATOM     75  C   UNL A   1      38.664  29.264  28.701  1.00  0.00     0.173 A 
ATOM     76  F   UNL A   1      40.247  27.971  31.702  1.00  0.00    -0.203 F 
ATOM     77  C   UNL A   1      38.042  28.720  31.349  1.00  0.00     0.198 A 
ATOM     78  C   UNL A   1      37.383  29.520  29.185  1.00  0.00     0.198 A 
ATOM     79  F   UNL A   1      38.934  29.530  27.413  1.00  0.00    -0.203 F 
ATOM     80  F   UNL A   1      37.738  28.421  32.620  1.00  0.00    -0.200 F 
ATOM     81  C   UNL A   1      37.070  29.239  30.507  1.00  0.00     0.200 A 
ATOM     82  F   UNL A   1      36.450  30.033  28.372  1.00  0.00    -0.200 F 
ATOM     83  F   UNL A   1      35.831  29.460  30.966  1.00  0.00    -0.200 F 
ENDBRANCH  49  73
BRANCH  61  84
ATOM     84  C   UNL A   1      45.423  32.578  28.796  1.00  0.00     0.064 A 
ATOM     85  C   UNL A   1      45.171  33.571  27.840  1.00  0.00     0.173 A 
ATOM     86  C   UNL A   1      45.922  32.975  30.045  1.00  0.00     0.173 A 
ATOM     87  F   UNL A   1      44.709  33.238  26.625  1.00  0.00    -0.203 F 
ATOM     88  C   UNL A   1      45.426  34.911  28.117  1.00  0.00     0.198 A 
ATOM     89  C   UNL A   1      46.151  34.318  30.329  1.00  0.00     0.198 A 
ATOM     90  F   UNL A   1      46.173  32.062  30.994  1.00  0.00    -0.203 F 
ATOM     91  F   UNL A   1      45.217  35.841  27.175  1.00  0.00    -0.200 F 
ATOM     92  C   UNL A   1      45.909  35.284  29.363  1.00  0.00     0.200 A 
ATOM     93  F   UNL A   1      46.607  34.678  31.536  1.00  0.00    -0.200 F 
ATOM     94  F   UNL A   1      46.148  36.575  29.631  1.00  0.00    -0.200 F 
ENDBRANCH  61  84
ENDBRANCH  35  36
ENDBRANCH  27  30
ENDBRANCH  25  26
ENDBRANCH  24  25
ENDBRANCH   1  24
TORSDOF 15
ENDMDL
