MODEL 1
REMARK VINA RESULT:     -11.4      0.000      0.000
REMARK SMILES CSc1ccc(C[NH+]2CCC(CC(=O)NCCCCNC(=O)c3ccc(-c4c5nc(c(-c6c(F)c(F)c(F)c(F)c6F)c6ccc([nH]6)c(-c6c(F)c(F)c(F)c(F)c6F)c6nc(c(-c7c(F)c(F)c(F)c(F)c7F)c7ccc4[nH]7)C=C6)C=C5)cc3)CC2)cc1
REMARK SMILES IDX 16 1 15 2 13 3 14 4 12 6 11 7 8 8 9 9 87 10 10 12 86 13 7 14
REMARK SMILES IDX 6 15 3 16 4 17 89 18 5 19 88 20 2 21 1 22 17 23 18 24 19 25
REMARK SMILES IDX 20 26 21 27 22 29 23 30 24 31 85 32 25 33 84 34 26 35 27 36
REMARK SMILES IDX 28 37 78 38 29 39 83 40 77 41 79 42 30 43 82 44 76 45 75 46
REMARK SMILES IDX 31 48 63 49 43 50 62 51 44 52 47 53 61 54 80 55 45 56 46 57
REMARK SMILES IDX 60 59 81 60 48 61 32 62 33 63 41 64 34 65 35 66 39 67 42 68
REMARK SMILES IDX 36 69 37 70 40 71 38 72 64 73 65 74 73 75 66 76 67 77 71 78
REMARK SMILES IDX 74 79 68 80 69 81 72 82 70 83 49 84 50 85 58 86 51 87 52 88
REMARK SMILES IDX 56 89 59 90 53 91 54 92 57 93 55 94
REMARK H PARENT 15 5 8 11 20 28 79 47 47 58
REMARK Flexibility Score: inf
ROOT
ATOM      1  C   UNL A   1      35.707  20.391  24.993  1.00  0.00     0.116 C 
ENDROOT
BRANCH   1   2
ATOM      2  N   UNL A   1      34.543  19.580  25.314  1.00  0.00    -0.356 N 
ATOM      3  C   UNL A   1      33.258  19.638  24.852  1.00  0.00     0.220 C 
ATOM      4  O   UNL A   1      32.442  18.840  25.319  1.00  0.00    -0.275 OA
ATOM      5  H   UNL A   1      34.708  18.870  25.976  1.00  0.00     0.163 HD
BRANCH   3   6
ATOM      6  C   UNL A   1      32.828  20.667  23.810  1.00  0.00     0.104 C 
BRANCH   6   7
ATOM      7  C   UNL A   1      31.779  21.667  24.339  1.00  0.00     0.009 C 
ATOM      8  N   UNL A   1      31.381  24.386  25.415  1.00  0.00    -0.331 N 
ATOM      9  C   UNL A   1      31.357  23.246  26.325  1.00  0.00     0.262 C 
ATOM     10  C   UNL A   1      30.812  24.018  24.115  1.00  0.00     0.262 C 
ATOM     11  H   UNL A   1      32.351  24.646  25.236  1.00  0.00     0.348 HD
ATOM     12  C   UNL A   1      32.135  22.086  25.755  1.00  0.00     0.066 C 
ATOM     13  C   UNL A   1      31.656  22.913  23.451  1.00  0.00     0.066 C 
BRANCH   8  14
ATOM     14  C   UNL A   1      30.784  25.591  26.022  1.00  0.00     0.299 C 
BRANCH  14  15
ATOM     15  C   UNL A   1      31.733  26.753  26.251  1.00  0.00     0.006 A 
ATOM     16  C   UNL A   1      33.580  28.763  26.933  1.00  0.00     0.007 A 
ATOM     17  C   UNL A   1      32.236  28.886  27.294  1.00  0.00     0.015 A 
ATOM     18  C   UNL A   1      33.995  27.655  26.193  1.00  0.00     0.015 A 
ATOM     19  C   UNL A   1      31.317  27.890  26.952  1.00  0.00     0.011 A 
ATOM     20  C   UNL A   1      33.078  26.656  25.854  1.00  0.00     0.011 A 
BRANCH  16  21
ATOM     21  S   UNL A   1      34.759  30.006  27.418  1.00  0.00    -0.130 SA
ATOM     22  C   UNL A   1      33.609  31.377  27.708  1.00  0.00     0.091 C 
ENDBRANCH  16  21
ENDBRANCH  14  15
ENDBRANCH   8  14
ENDBRANCH   6   7
ENDBRANCH   3   6
ENDBRANCH   1   2
BRANCH   1  23
ATOM     23  C   UNL A   1      35.760  21.682  25.821  1.00  0.00     0.023 C 
BRANCH  23  24
ATOM     24  C   UNL A   1      36.012  22.961  25.047  1.00  0.00     0.023 C 
BRANCH  24  25
ATOM     25  C   UNL A   1      37.221  23.738  25.519  1.00  0.00     0.116 C 
BRANCH  25  26
ATOM     26  N   UNL A   1      38.425  22.927  25.656  1.00  0.00    -0.352 N 
ATOM     27  C   UNL A   1      39.608  23.250  26.283  1.00  0.00     0.251 C 
ATOM     28  H   UNL A   1      38.388  22.032  25.247  1.00  0.00     0.163 HD
ATOM     29  O   UNL A   1      40.570  22.498  26.247  1.00  0.00    -0.269 OA
BRANCH  27  30
ATOM     30  C   UNL A   1      39.704  24.560  26.957  1.00  0.00     0.039 A 
ATOM     31  C   UNL A   1      39.251  24.682  28.272  1.00  0.00     0.014 A 
ATOM     32  C   UNL A   1      40.350  25.622  26.324  1.00  0.00     0.014 A 
ATOM     33  C   UNL A   1      39.528  25.849  28.983  1.00  0.00     0.010 A 
ATOM     34  C   UNL A   1      40.729  26.728  27.068  1.00  0.00     0.010 A 
ATOM     35  C   UNL A   1      40.313  26.859  28.401  1.00  0.00    -0.014 A 
BRANCH  35  36
ATOM     36  C   UNL A   1      40.689  28.082  29.147  1.00  0.00     0.031 A 
ATOM     37  C   UNL A   1      42.083  28.209  29.697  1.00  0.00     0.074 A 
ATOM     38  C   UNL A   1      39.765  29.027  29.405  1.00  0.00     0.049 A 
ATOM     39  N   UNL A   1      42.589  29.134  30.471  1.00  0.00    -0.248 NA
ATOM     40  C   UNL A   1      43.021  27.121  29.371  1.00  0.00     0.031 C 
ATOM     41  C   UNL A   1      38.362  28.983  28.984  1.00  0.00     0.029 A 
ATOM     42  N   UNL A   1      39.866  30.209  30.094  1.00  0.00    -0.354 N 
ATOM     43  C   UNL A   1      43.886  28.723  30.745  1.00  0.00     0.074 A 
ATOM     44  C   UNL A   1      44.069  27.435  30.115  1.00  0.00     0.031 C 
ATOM     45  C   UNL A   1      37.744  30.102  29.396  1.00  0.00     0.029 A 
ATOM     46  C   UNL A   1      38.694  30.924  30.137  1.00  0.00     0.049 A 
ATOM     47  H   UNL A   1      40.700  30.516  30.518  1.00  0.00     0.167 HD
ATOM     48  C   UNL A   1      44.851  29.377  31.432  1.00  0.00     0.037 A 
ATOM     49  C   UNL A   1      38.425  32.113  30.710  1.00  0.00     0.037 A 
ATOM     50  C   UNL A   1      44.680  30.682  32.006  1.00  0.00     0.049 A 
ATOM     51  C   UNL A   1      39.526  32.842  31.430  1.00  0.00     0.074 A 
ATOM     52  C   UNL A   1      45.613  31.469  32.657  1.00  0.00     0.029 A 
ATOM     53  N   UNL A   1      43.492  31.399  31.984  1.00  0.00    -0.354 N 
ATOM     54  N   UNL A   1      40.770  32.475  31.626  1.00  0.00    -0.248 NA
ATOM     55  C   UNL A   1      39.189  34.152  32.003  1.00  0.00     0.031 C 
ATOM     56  C   UNL A   1      44.981  32.651  33.056  1.00  0.00     0.029 A 
ATOM     57  C   UNL A   1      43.666  32.617  32.619  1.00  0.00     0.049 A 
ATOM     58  H   UNL A   1      42.652  31.088  31.578  1.00  0.00     0.167 HD
ATOM     59  C   UNL A   1      41.371  33.518  32.318  1.00  0.00     0.074 A 
ATOM     60  C   UNL A   1      40.358  34.537  32.497  1.00  0.00     0.031 C 
ATOM     61  C   UNL A   1      42.645  33.621  32.769  1.00  0.00     0.037 A 
BRANCH  48  62
ATOM     62  C   UNL A   1      46.178  28.693  31.578  1.00  0.00     0.064 A 
ATOM     63  C   UNL A   1      46.446  27.833  32.656  1.00  0.00     0.173 A 
ATOM     64  C   UNL A   1      47.190  28.889  30.628  1.00  0.00     0.173 A 
ATOM     65  F   UNL A   1      45.518  27.626  33.602  1.00  0.00    -0.203 F 
ATOM     66  C   UNL A   1      47.690  27.222  32.793  1.00  0.00     0.198 A 
ATOM     67  C   UNL A   1      48.423  28.252  30.752  1.00  0.00     0.198 A 
ATOM     68  F   UNL A   1      46.986  29.700  29.579  1.00  0.00    -0.203 F 
ATOM     69  F   UNL A   1      47.941  26.453  33.861  1.00  0.00    -0.200 F 
ATOM     70  C   UNL A   1      48.674  27.428  31.839  1.00  0.00     0.200 A 
ATOM     71  F   UNL A   1      49.370  28.443  29.824  1.00  0.00    -0.200 F 
ATOM     72  F   UNL A   1      49.870  26.836  31.971  1.00  0.00    -0.200 F 
ENDBRANCH  48  62
BRANCH  49  73
ATOM     73  C   UNL A   1      37.070  32.710  30.584  1.00  0.00     0.064 A 
ATOM     74  C   UNL A   1      36.729  33.480  29.463  1.00  0.00     0.173 A 
ATOM     75  C   UNL A   1      36.093  32.530  31.573  1.00  0.00     0.173 A 
ATOM     76  F   UNL A   1      37.635  33.696  28.499  1.00  0.00    -0.203 F 
ATOM     77  C   UNL A   1      35.468  34.063  29.346  1.00  0.00     0.198 A 
ATOM     78  C   UNL A   1      34.825  33.093  31.444  1.00  0.00     0.198 A 
ATOM     79  F   UNL A   1      36.368  31.796  32.663  1.00  0.00    -0.203 F 
ATOM     80  F   UNL A   1      35.184  34.830  28.284  1.00  0.00    -0.200 F 
ATOM     81  C   UNL A   1      34.516  33.866  30.334  1.00  0.00     0.200 A 
ATOM     82  F   UNL A   1      33.903  32.889  32.394  1.00  0.00    -0.200 F 
ATOM     83  F   UNL A   1      33.304  34.425  30.221  1.00  0.00    -0.200 F 
ENDBRANCH  49  73
BRANCH  61  84
ATOM     84  C   UNL A   1      43.024  34.894  33.464  1.00  0.00     0.064 A 
ATOM     85  C   UNL A   1      43.407  36.035  32.746  1.00  0.00     0.173 A 
ATOM     86  C   UNL A   1      42.958  34.984  34.862  1.00  0.00     0.173 A 
ATOM     87  F   UNL A   1      43.499  35.992  31.408  1.00  0.00    -0.203 F 
ATOM     88  C   UNL A   1      43.730  37.217  33.405  1.00  0.00     0.198 A 
ATOM     89  C   UNL A   1      43.255  36.175  35.516  1.00  0.00     0.198 A 
ATOM     90  F   UNL A   1      42.590  33.920  35.591  1.00  0.00    -0.203 F 
ATOM     91  F   UNL A   1      44.133  38.286  32.703  1.00  0.00    -0.200 F 
ATOM     92  C   UNL A   1      43.647  37.288  34.789  1.00  0.00     0.200 A 
ATOM     93  F   UNL A   1      43.162  36.247  36.851  1.00  0.00    -0.200 F 
ATOM     94  F   UNL A   1      43.950  38.430  35.421  1.00  0.00    -0.200 F 
ENDBRANCH  61  84
ENDBRANCH  35  36
ENDBRANCH  27  30
ENDBRANCH  25  26
ENDBRANCH  24  25
ENDBRANCH  23  24
ENDBRANCH   1  23
TORSDOF 15
ENDMDL
MODEL 2
REMARK VINA RESULT:     -11.4      3.707      5.312
REMARK SMILES CSc1ccc(C[NH+]2CCC(CC(=O)NCCCCNC(=O)c3ccc(-c4c5nc(c(-c6c(F)c(F)c(F)c(F)c6F)c6ccc([nH]6)c(-c6c(F)c(F)c(F)c(F)c6F)c6nc(c(-c7c(F)c(F)c(F)c(F)c7F)c7ccc4[nH]7)C=C6)C=C5)cc3)CC2)cc1
REMARK SMILES IDX 16 1 15 2 13 3 14 4 12 6 11 7 8 8 9 9 87 10 10 12 86 13 7 14
REMARK SMILES IDX 6 15 3 16 4 17 89 18 5 19 88 20 2 21 1 22 17 23 18 24 19 25
REMARK SMILES IDX 20 26 21 27 22 29 23 30 24 31 85 32 25 33 84 34 26 35 27 36
REMARK SMILES IDX 28 37 78 38 29 39 83 40 77 41 79 42 30 43 82 44 76 45 75 46
REMARK SMILES IDX 31 48 63 49 43 50 62 51 44 52 47 53 61 54 80 55 45 56 46 57
REMARK SMILES IDX 60 59 81 60 48 61 32 62 33 63 41 64 34 65 35 66 39 67 42 68
REMARK SMILES IDX 36 69 37 70 40 71 38 72 64 73 65 74 73 75 66 76 67 77 71 78
REMARK SMILES IDX 74 79 68 80 69 81 72 82 70 83 49 84 50 85 58 86 51 87 52 88
REMARK SMILES IDX 56 89 59 90 53 91 54 92 57 93 55 94
REMARK H PARENT 15 5 8 11 20 28 79 47 47 58
REMARK Flexibility Score: inf
ROOT
ATOM      1  C   UNL A   1      36.198  21.738  25.636  1.00  0.00     0.116 C 
ENDROOT
BRANCH   1   2
ATOM      2  N   UNL A   1      35.229  20.653  25.688  1.00  0.00    -0.356 N 
ATOM      3  C   UNL A   1      34.080  20.445  24.977  1.00  0.00     0.220 C 
ATOM      4  O   UNL A   1      33.412  19.444  25.244  1.00  0.00    -0.275 OA
ATOM      5  H   UNL A   1      35.435  19.951  26.347  1.00  0.00     0.163 HD
BRANCH   3   6
ATOM      6  C   UNL A   1      33.616  21.425  23.903  1.00  0.00     0.104 C 
BRANCH   6   7
ATOM      7  C   UNL A   1      32.260  22.087  24.228  1.00  0.00     0.009 C 
ATOM      8  N   UNL A   1      30.942  24.617  24.982  1.00  0.00    -0.331 N 
ATOM      9  C   UNL A   1      31.150  23.589  25.996  1.00  0.00     0.262 C 
ATOM     10  C   UNL A   1      30.670  24.005  23.678  1.00  0.00     0.262 C 
ATOM     11  H   UNL A   1      31.804  25.150  24.870  1.00  0.00     0.348 HD
ATOM     12  C   UNL A   1      32.303  22.690  25.621  1.00  0.00     0.066 C 
ATOM     13  C   UNL A   1      31.879  23.171  23.211  1.00  0.00     0.066 C 
BRANCH   8  14
ATOM     14  C   UNL A   1      29.944  25.618  25.405  1.00  0.00     0.299 C 
BRANCH  14  15
ATOM     15  C   UNL A   1      29.684  26.746  24.424  1.00  0.00     0.006 A 
ATOM     16  C   UNL A   1      29.127  29.010  22.850  1.00  0.00     0.007 A 
ATOM     17  C   UNL A   1      28.148  28.035  23.058  1.00  0.00     0.015 A 
ATOM     18  C   UNL A   1      30.400  28.834  23.395  1.00  0.00     0.015 A 
ATOM     19  C   UNL A   1      28.425  26.908  23.836  1.00  0.00     0.011 A 
ATOM     20  C   UNL A   1      30.677  27.710  24.177  1.00  0.00     0.011 A 
BRANCH  16  21
ATOM     21  S   UNL A   1      28.754  30.472  21.904  1.00  0.00    -0.130 SA
ATOM     22  C   UNL A   1      27.904  31.424  23.192  1.00  0.00     0.091 C 
ENDBRANCH  16  21
ENDBRANCH  14  15
ENDBRANCH   8  14
ENDBRANCH   6   7
ENDBRANCH   3   6
ENDBRANCH   1   2
BRANCH   1  23
ATOM     23  C   UNL A   1      37.366  21.426  24.691  1.00  0.00     0.023 C 
BRANCH  23  24
ATOM     24  C   UNL A   1      38.140  20.156  24.984  1.00  0.00     0.023 C 
BRANCH  24  25
ATOM     25  C   UNL A   1      39.290  20.344  25.948  1.00  0.00     0.116 C 
BRANCH  25  26
ATOM     26  N   UNL A   1      40.254  19.250  25.933  1.00  0.00    -0.352 N 
ATOM     27  C   UNL A   1      41.620  19.311  26.098  1.00  0.00     0.251 C 
ATOM     28  H   UNL A   1      39.880  18.350  25.788  1.00  0.00     0.163 HD
ATOM     29  O   UNL A   1      42.318  18.315  25.978  1.00  0.00    -0.269 OA
BRANCH  27  30
ATOM     30  C   UNL A   1      42.231  20.627  26.370  1.00  0.00     0.039 A 
ATOM     31  C   UNL A   1      42.558  21.459  25.298  1.00  0.00     0.014 A 
ATOM     32  C   UNL A   1      42.365  21.073  27.686  1.00  0.00     0.014 A 
ATOM     33  C   UNL A   1      42.936  22.777  25.550  1.00  0.00     0.010 A 
ATOM     34  C   UNL A   1      42.623  22.412  27.926  1.00  0.00     0.010 A 
ATOM     35  C   UNL A   1      42.922  23.276  26.863  1.00  0.00    -0.014 A 
BRANCH  35  36
ATOM     36  C   UNL A   1      43.249  24.689  27.164  1.00  0.00     0.031 A 
ATOM     37  C   UNL A   1      44.643  25.192  26.910  1.00  0.00     0.074 A 
ATOM     38  C   UNL A   1      42.331  25.488  27.741  1.00  0.00     0.049 A 
ATOM     39  N   UNL A   1      45.175  26.350  27.204  1.00  0.00    -0.248 NA
ATOM     40  C   UNL A   1      45.581  24.244  26.284  1.00  0.00     0.031 C 
ATOM     41  C   UNL A   1      40.966  25.093  28.100  1.00  0.00     0.029 A 
ATOM     42  N   UNL A   1      42.411  26.798  28.138  1.00  0.00    -0.354 N 
ATOM     43  C   UNL A   1      46.508  26.256  26.828  1.00  0.00     0.074 A 
ATOM     44  C   UNL A   1      46.723  24.909  26.349  1.00  0.00     0.031 C 
ATOM     45  C   UNL A   1      40.329  26.148  28.632  1.00  0.00     0.029 A 
ATOM     46  C   UNL A   1      41.247  27.281  28.685  1.00  0.00     0.049 A 
ATOM     47  H   UNL A   1      43.226  27.342  28.040  1.00  0.00     0.167 HD
ATOM     48  C   UNL A   1      47.460  27.218  26.846  1.00  0.00     0.037 A 
ATOM     49  C   UNL A   1      40.959  28.504  29.170  1.00  0.00     0.037 A 
ATOM     50  C   UNL A   1      47.223  28.570  27.268  1.00  0.00     0.049 A 
ATOM     51  C   UNL A   1      42.022  29.569  29.139  1.00  0.00     0.074 A 
ATOM     52  C   UNL A   1      48.094  29.644  27.257  1.00  0.00     0.029 A 
ATOM     53  N   UNL A   1      46.015  29.036  27.768  1.00  0.00    -0.354 N 
ATOM     54  N   UNL A   1      43.261  29.489  28.718  1.00  0.00    -0.248 NA
ATOM     55  C   UNL A   1      41.643  30.896  29.644  1.00  0.00     0.031 C 
ATOM     56  C   UNL A   1      47.423  30.754  27.779  1.00  0.00     0.029 A 
ATOM     57  C   UNL A   1      46.122  30.382  28.077  1.00  0.00     0.049 A 
ATOM     58  H   UNL A   1      45.204  28.491  27.885  1.00  0.00     0.167 HD
ATOM     59  C   UNL A   1      43.802  30.757  28.880  1.00  0.00     0.074 A 
ATOM     60  C   UNL A   1      42.752  31.591  29.426  1.00  0.00     0.031 C 
ATOM     61  C   UNL A   1      45.055  31.192  28.605  1.00  0.00     0.037 A 
BRANCH  48  62
ATOM     62  C   UNL A   1      48.833  26.838  26.378  1.00  0.00     0.064 A 
ATOM     63  C   UNL A   1      49.228  27.015  25.042  1.00  0.00     0.173 A 
ATOM     64  C   UNL A   1      49.769  26.301  27.273  1.00  0.00     0.173 A 
ATOM     65  F   UNL A   1      48.363  27.507  24.141  1.00  0.00    -0.203 F 
ATOM     66  C   UNL A   1      50.498  26.637  24.613  1.00  0.00     0.198 A 
ATOM     67  C   UNL A   1      51.049  25.954  26.848  1.00  0.00     0.198 A 
ATOM     68  F   UNL A   1      49.444  26.113  28.560  1.00  0.00    -0.203 F 
ATOM     69  F   UNL A   1      50.831  26.761  23.322  1.00  0.00    -0.200 F 
ATOM     70  C   UNL A   1      51.408  26.113  25.518  1.00  0.00     0.200 A 
ATOM     71  F   UNL A   1      51.932  25.456  27.724  1.00  0.00    -0.200 F 
ATOM     72  F   UNL A   1      52.632  25.752  25.104  1.00  0.00    -0.200 F 
ENDBRANCH  48  62
BRANCH  49  73
ATOM     73  C   UNL A   1      39.595  28.801  29.680  1.00  0.00     0.064 A 
ATOM     74  C   UNL A   1      39.259  28.541  31.016  1.00  0.00     0.173 A 
ATOM     75  C   UNL A   1      38.604  29.345  28.852  1.00  0.00     0.173 A 
ATOM     76  F   UNL A   1      40.168  28.003  31.842  1.00  0.00    -0.203 F 
ATOM     77  C   UNL A   1      37.977  28.794  31.498  1.00  0.00     0.198 A 
ATOM     78  C   UNL A   1      37.329  29.621  29.341  1.00  0.00     0.198 A 
ATOM     79  F   UNL A   1      38.878  29.618  27.567  1.00  0.00    -0.203 F 
ATOM     80  F   UNL A   1      37.670  28.495  32.769  1.00  0.00    -0.200 F 
ATOM     81  C   UNL A   1      37.014  29.338  30.662  1.00  0.00     0.200 A 
ATOM     82  F   UNL A   1      36.405  30.158  28.534  1.00  0.00    -0.200 F 
ATOM     83  F   UNL A   1      35.781  29.583  31.127  1.00  0.00    -0.200 F 
ENDBRANCH  49  73
BRANCH  61  84
ATOM     84  C   UNL A   1      45.348  32.641  28.855  1.00  0.00     0.064 A 
ATOM     85  C   UNL A   1      45.044  33.625  27.904  1.00  0.00     0.173 A 
ATOM     86  C   UNL A   1      45.896  33.051  30.079  1.00  0.00     0.173 A 
ATOM     87  F   UNL A   1      44.533  33.277  26.713  1.00  0.00    -0.203 F 
ATOM     88  C   UNL A   1      45.297  34.968  28.163  1.00  0.00     0.198 A 
ATOM     89  C   UNL A   1      46.121  34.398  30.345  1.00  0.00     0.198 A 
ATOM     90  F   UNL A   1      46.196  32.147  31.023  1.00  0.00    -0.203 F 
ATOM     91  F   UNL A   1      45.037  35.890  27.225  1.00  0.00    -0.200 F 
ATOM     92  C   UNL A   1      45.828  35.354  29.385  1.00  0.00     0.200 A 
ATOM     93  F   UNL A   1      46.623  34.771  31.531  1.00  0.00    -0.200 F 
ATOM     94  F   UNL A   1      46.063  36.650  29.635  1.00  0.00    -0.200 F 
ENDBRANCH  61  84
ENDBRANCH  35  36
ENDBRANCH  27  30
ENDBRANCH  25  26
ENDBRANCH  24  25
ENDBRANCH  23  24
ENDBRANCH   1  23
TORSDOF 15
ENDMDL
MODEL 3
REMARK VINA RESULT:     -11.3      4.140      9.111
REMARK SMILES CSc1ccc(C[NH+]2CCC(CC(=O)NCCCCNC(=O)c3ccc(-c4c5nc(c(-c6c(F)c(F)c(F)c(F)c6F)c6ccc([nH]6)c(-c6c(F)c(F)c(F)c(F)c6F)c6nc(c(-c7c(F)c(F)c(F)c(F)c7F)c7ccc4[nH]7)C=C6)C=C5)cc3)CC2)cc1
REMARK SMILES IDX 16 1 15 2 13 3 14 4 12 6 11 7 8 8 9 9 87 10 10 12 86 13 7 14
REMARK SMILES IDX 6 15 3 16 4 17 89 18 5 19 88 20 2 21 1 22 17 23 18 24 19 25
REMARK SMILES IDX 20 26 21 27 22 29 23 30 24 31 85 32 25 33 84 34 26 35 27 36
REMARK SMILES IDX 28 37 78 38 29 39 83 40 77 41 79 42 30 43 82 44 76 45 75 46
REMARK SMILES IDX 31 48 63 49 43 50 62 51 44 52 47 53 61 54 80 55 45 56 46 57
REMARK SMILES IDX 60 59 81 60 48 61 32 62 33 63 41 64 34 65 35 66 39 67 42 68
REMARK SMILES IDX 36 69 37 70 40 71 38 72 64 73 65 74 73 75 66 76 67 77 71 78
REMARK SMILES IDX 74 79 68 80 69 81 72 82 70 83 49 84 50 85 58 86 51 87 52 88
REMARK SMILES IDX 56 89 59 90 53 91 54 92 57 93 55 94
REMARK H PARENT 15 5 8 11 20 28 79 47 47 58
REMARK Flexibility Score: inf
ROOT
ATOM      1  C   UNL A   1      31.199  30.009  25.034  1.00  0.00     0.116 C 
ENDROOT
BRANCH   1   2
ATOM      2  N   UNL A   1      30.585  30.063  23.716  1.00  0.00    -0.356 N 
ATOM      3  C   UNL A   1      30.123  29.066  22.903  1.00  0.00     0.220 C 
ATOM      4  O   UNL A   1      29.669  29.386  21.802  1.00  0.00    -0.275 OA
ATOM      5  H   UNL A   1      30.486  30.970  23.347  1.00  0.00     0.163 HD
BRANCH   3   6
ATOM      6  C   UNL A   1      30.182  27.600  23.322  1.00  0.00     0.104 C 
BRANCH   6   7
ATOM      7  C   UNL A   1      31.597  26.992  23.212  1.00  0.00     0.009 C 
ATOM      8  N   UNL A   1      33.145  24.481  23.286  1.00  0.00    -0.331 N 
ATOM      9  C   UNL A   1      33.169  25.371  24.442  1.00  0.00     0.262 C 
ATOM     10  C   UNL A   1      33.055  25.255  22.045  1.00  0.00     0.262 C 
ATOM     11  H   UNL A   1      32.300  23.911  23.325  1.00  0.00     0.348 HD
ATOM     12  C   UNL A   1      31.931  26.232  24.484  1.00  0.00     0.066 C 
ATOM     13  C   UNL A   1      31.741  26.058  22.004  1.00  0.00     0.066 C 
BRANCH   8  14
ATOM     14  C   UNL A   1      34.250  23.504  23.317  1.00  0.00     0.299 C 
BRANCH  14  15
ATOM     15  C   UNL A   1      33.895  22.124  23.840  1.00  0.00     0.006 A 
ATOM     16  C   UNL A   1      33.378  19.454  24.560  1.00  0.00     0.007 A 
ATOM     17  C   UNL A   1      32.420  20.198  23.866  1.00  0.00     0.015 A 
ATOM     18  C   UNL A   1      34.579  20.058  24.933  1.00  0.00     0.015 A 
ATOM     19  C   UNL A   1      32.675  21.525  23.511  1.00  0.00     0.011 A 
ATOM     20  C   UNL A   1      34.837  21.384  24.576  1.00  0.00     0.011 A 
BRANCH  16  21
ATOM     21  S   UNL A   1      33.073  17.746  24.961  1.00  0.00    -0.130 SA
ATOM     22  C   UNL A   1      33.593  16.999  23.394  1.00  0.00     0.091 C 
ENDBRANCH  16  21
ENDBRANCH  14  15
ENDBRANCH   8  14
ENDBRANCH   6   7
ENDBRANCH   3   6
ENDBRANCH   1   2
BRANCH   1  23
ATOM     23  C   UNL A   1      31.120  31.356  25.765  1.00  0.00     0.023 C 
BRANCH  23  24
ATOM     24  C   UNL A   1      31.787  31.415  27.126  1.00  0.00     0.023 C 
BRANCH  24  25
ATOM     25  C   UNL A   1      32.955  32.374  27.197  1.00  0.00     0.116 C 
BRANCH  25  26
ATOM     26  N   UNL A   1      32.573  33.742  27.529  1.00  0.00    -0.352 N 
ATOM     27  C   UNL A   1      33.109  34.571  28.488  1.00  0.00     0.251 C 
ATOM     28  H   UNL A   1      31.836  34.123  26.998  1.00  0.00     0.163 HD
ATOM     29  O   UNL A   1      32.631  35.673  28.714  1.00  0.00    -0.269 OA
BRANCH  27  30
ATOM     30  C   UNL A   1      34.251  34.072  29.282  1.00  0.00     0.039 A 
ATOM     31  C   UNL A   1      34.008  33.211  30.354  1.00  0.00     0.014 A 
ATOM     32  C   UNL A   1      35.556  34.366  28.884  1.00  0.00     0.014 A 
ATOM     33  C   UNL A   1      35.083  32.573  30.971  1.00  0.00     0.010 A 
ATOM     34  C   UNL A   1      36.608  33.641  29.418  1.00  0.00     0.010 A 
ATOM     35  C   UNL A   1      36.385  32.746  30.474  1.00  0.00    -0.014 A 
BRANCH  35  36
ATOM     36  C   UNL A   1      37.544  32.031  31.058  1.00  0.00     0.031 A 
ATOM     37  C   UNL A   1      38.014  32.396  32.439  1.00  0.00     0.074 A 
ATOM     38  C   UNL A   1      38.221  31.127  30.323  1.00  0.00     0.049 A 
ATOM     39  N   UNL A   1      39.068  31.982  33.094  1.00  0.00    -0.248 NA
ATOM     40  C   UNL A   1      37.215  33.400  33.162  1.00  0.00     0.031 C 
ATOM     41  C   UNL A   1      37.903  30.740  28.946  1.00  0.00     0.029 A 
ATOM     42  N   UNL A   1      39.327  30.376  30.630  1.00  0.00    -0.354 N 
ATOM     43  C   UNL A   1      39.072  32.695  34.284  1.00  0.00     0.074 A 
ATOM     44  C   UNL A   1      37.959  33.617  34.235  1.00  0.00     0.031 C 
ATOM     45  C   UNL A   1      38.773  29.801  28.541  1.00  0.00     0.029 A 
ATOM     46  C   UNL A   1      39.728  29.545  29.613  1.00  0.00     0.049 A 
ATOM     47  H   UNL A   1      39.789  30.428  31.498  1.00  0.00     0.167 HD
ATOM     48  C   UNL A   1      39.909  32.570  35.340  1.00  0.00     0.037 A 
ATOM     49  C   UNL A   1      40.754  28.673  29.560  1.00  0.00     0.037 A 
ATOM     50  C   UNL A   1      40.977  31.611  35.406  1.00  0.00     0.049 A 
ATOM     51  C   UNL A   1      41.643  28.519  30.764  1.00  0.00     0.074 A 
ATOM     52  C   UNL A   1      41.837  31.346  36.456  1.00  0.00     0.029 A 
ATOM     53  N   UNL A   1      41.321  30.749  34.375  1.00  0.00    -0.354 N 
ATOM     54  N   UNL A   1      41.597  29.152  31.912  1.00  0.00    -0.248 NA
ATOM     55  C   UNL A   1      42.721  27.526  30.667  1.00  0.00     0.031 C 
ATOM     56  C   UNL A   1      42.722  30.343  36.049  1.00  0.00     0.029 A 
ATOM     57  C   UNL A   1      42.388  29.956  34.762  1.00  0.00     0.049 A 
ATOM     58  H   UNL A   1      40.873  30.707  33.500  1.00  0.00     0.167 HD
ATOM     59  C   UNL A   1      42.620  28.615  32.684  1.00  0.00     0.074 A 
ATOM     60  C   UNL A   1      43.260  27.597  31.877  1.00  0.00     0.031 C 
ATOM     61  C   UNL A   1      42.997  28.938  33.944  1.00  0.00     0.037 A 
BRANCH  48  62
ATOM     62  C   UNL A   1      39.683  33.479  36.512  1.00  0.00     0.064 A 
ATOM     63  C   UNL A   1      40.341  34.715  36.619  1.00  0.00     0.173 A 
ATOM     64  C   UNL A   1      38.793  33.119  37.533  1.00  0.00     0.173 A 
ATOM     65  F   UNL A   1      41.217  35.098  35.678  1.00  0.00    -0.203 F 
ATOM     66  C   UNL A   1      40.141  35.540  37.722  1.00  0.00     0.198 A 
ATOM     67  C   UNL A   1      38.571  33.961  38.620  1.00  0.00     0.198 A 
ATOM     68  F   UNL A   1      38.138  31.950  37.479  1.00  0.00    -0.203 F 
ATOM     69  F   UNL A   1      40.825  36.687  37.831  1.00  0.00    -0.200 F 
ATOM     70  C   UNL A   1      39.252  35.165  38.718  1.00  0.00     0.200 A 
ATOM     71  F   UNL A   1      37.705  33.603  39.578  1.00  0.00    -0.200 F 
ATOM     72  F   UNL A   1      39.059  35.962  39.779  1.00  0.00    -0.200 F 
ENDBRANCH  48  62
BRANCH  49  73
ATOM     73  C   UNL A   1      40.964  27.844  28.345  1.00  0.00     0.064 A 
ATOM     74  C   UNL A   1      40.323  26.606  28.204  1.00  0.00     0.173 A 
ATOM     75  C   UNL A   1      41.805  28.265  27.305  1.00  0.00     0.173 A 
ATOM     76  F   UNL A   1      39.523  26.151  29.179  1.00  0.00    -0.203 F 
ATOM     77  C   UNL A   1      40.531  25.810  27.079  1.00  0.00     0.198 A 
ATOM     78  C   UNL A   1      41.994  27.481  26.169  1.00  0.00     0.198 A 
ATOM     79  F   UNL A   1      42.437  29.446  27.390  1.00  0.00    -0.203 F 
ATOM     80  F   UNL A   1      39.939  24.611  26.990  1.00  0.00    -0.200 F 
ATOM     81  C   UNL A   1      41.363  26.250  26.061  1.00  0.00     0.200 A 
ATOM     82  F   UNL A   1      42.788  27.914  25.181  1.00  0.00    -0.200 F 
ATOM     83  F   UNL A   1      41.562  25.486  24.978  1.00  0.00    -0.200 F 
ENDBRANCH  49  73
BRANCH  61  84
ATOM     84  C   UNL A   1      44.129  28.159  34.542  1.00  0.00     0.064 A 
ATOM     85  C   UNL A   1      45.454  28.604  34.450  1.00  0.00     0.173 A 
ATOM     86  C   UNL A   1      43.876  26.977  35.255  1.00  0.00     0.173 A 
ATOM     87  F   UNL A   1      45.746  29.720  33.765  1.00  0.00    -0.203 F 
ATOM     88  C   UNL A   1      46.491  27.882  35.034  1.00  0.00     0.198 A 
ATOM     89  C   UNL A   1      44.911  26.274  35.861  1.00  0.00     0.198 A 
ATOM     90  F   UNL A   1      42.623  26.516  35.376  1.00  0.00    -0.203 F 
ATOM     91  F   UNL A   1      47.757  28.303  34.901  1.00  0.00    -0.200 F 
ATOM     92  C   UNL A   1      46.218  26.722  35.745  1.00  0.00     0.200 A 
ATOM     93  F   UNL A   1      44.645  25.160  36.559  1.00  0.00    -0.200 F 
ATOM     94  F   UNL A   1      47.217  26.034  36.314  1.00  0.00    -0.200 F 
ENDBRANCH  61  84
ENDBRANCH  35  36
ENDBRANCH  27  30
ENDBRANCH  25  26
ENDBRANCH  24  25
ENDBRANCH  23  24
ENDBRANCH   1  23
TORSDOF 15
ENDMDL
