MODEL 1
REMARK VINA RESULT:     -13.3      0.000      0.000
REMARK SMILES CS(=O)(=O)c1ccc(/C=C(/C(=O)NCCCCNC(=O)c2ccc(-c3c4nc(c(-c5c(F)c(F)c(F)c(F)c5F)c5ccc([nH]5)c(-c5c(F)c(F)c(F)c(F)c5F)c5nc(c(-c6c(F)c(F)c(F)c(F)c6F)c6ccc3[nH]6)C=C5)C=C4)cc2)c2ccc(O)cc2)cc1
REMARK SMILES IDX 15 1 14 2 13 3 11 4 12 5 10 7 9 8 8 9 5 10 6 11 92 12 7 13
REMARK SMILES IDX 91 14 2 15 1 16 3 17 4 18 84 19 85 20 90 21 86 22 89 23
REMARK SMILES IDX 87 24 88 25 16 27 17 28 18 29 19 30 20 32 21 33 22 34 83 35
REMARK SMILES IDX 23 36 82 37 24 38 25 39 26 40 76 41 27 42 81 43 75 44 77 45
REMARK SMILES IDX 28 46 80 47 74 48 73 49 29 51 61 52 41 53 60 54 42 55 45 56
REMARK SMILES IDX 59 57 78 58 43 59 44 60 58 62 79 63 46 64 30 65 31 66 39 67
REMARK SMILES IDX 32 68 33 69 37 70 40 71 34 72 35 73 38 74 36 75 62 76 63 77
REMARK SMILES IDX 71 78 64 79 65 80 69 81 72 82 66 83 67 84 70 85 68 86 47 87
REMARK SMILES IDX 48 88 56 89 49 90 50 91 54 92 57 93 51 94 52 95 55 96 53 97
REMARK H PARENT 13 6 88 26 18 31 77 50 45 61
REMARK Flexibility Score: inf
ROOT
ATOM      1  C   UNL A   1      37.242  21.574  24.425  1.00  0.00     0.023 C 
ENDROOT
BRANCH   1   2
ATOM      2  C   UNL A   1      36.871  22.610  25.489  1.00  0.00     0.116 C 
BRANCH   2   3
ATOM      3  N   UNL A   1      36.017  22.014  26.496  1.00  0.00    -0.352 N 
ATOM      4  C   UNL A   1      34.699  22.143  26.806  1.00  0.00     0.251 C 
ATOM      5  O   UNL A   1      34.306  21.494  27.779  1.00  0.00    -0.269 OA
ATOM      6  H   UNL A   1      36.492  21.381  27.083  1.00  0.00     0.163 HD
BRANCH   4   7
ATOM      7  C   UNL A   1      33.726  22.951  25.975  1.00  0.00     0.047 C 
ATOM      8  C   UNL A   1      33.135  24.064  26.466  1.00  0.00     0.022 C 
BRANCH   8   9
ATOM      9  C   UNL A   1      32.276  25.045  25.771  1.00  0.00    -0.025 A 
ATOM     10  C   UNL A   1      30.828  26.894  24.233  1.00  0.00     0.067 A 
ATOM     11  C   UNL A   1      30.175  25.804  24.817  1.00  0.00     0.021 A 
ATOM     12  C   UNL A   1      32.188  27.103  24.459  1.00  0.00     0.021 A 
ATOM     13  C   UNL A   1      30.896  24.895  25.597  1.00  0.00     0.009 A 
ATOM     14  C   UNL A   1      32.903  26.181  25.229  1.00  0.00     0.009 A 
BRANCH  10  15
ATOM     15  S   UNL A   1      29.899  27.976  23.171  1.00  0.00     0.175 S 
ATOM     16  C   UNL A   1      30.184  29.622  23.760  1.00  0.00     0.163 C 
ATOM     17  O   UNL A   1      28.493  27.685  23.396  1.00  0.00    -0.224 OA
ATOM     18  O   UNL A   1      30.489  27.860  21.854  1.00  0.00    -0.224 OA
ENDBRANCH  10  15
ENDBRANCH   8   9
BRANCH   7  19
ATOM     19  C   UNL A   1      33.307  22.377  24.671  1.00  0.00    -0.013 A 
ATOM     20  C   UNL A   1      32.719  21.099  24.656  1.00  0.00     0.013 A 
ATOM     21  C   UNL A   1      33.387  23.096  23.469  1.00  0.00     0.013 A 
ATOM     22  C   UNL A   1      32.187  20.569  23.482  1.00  0.00     0.047 A 
ATOM     23  C   UNL A   1      32.837  22.571  22.294  1.00  0.00     0.047 A 
ATOM     24  C   UNL A   1      32.231  21.318  22.316  1.00  0.00     0.115 A 
BRANCH  24  25
ATOM     25  O   UNL A   1      31.644  20.788  21.205  1.00  0.00    -0.508 OA
ATOM     26  H   UNL A   1      30.876  20.256  21.290  1.00  0.00     0.293 HD
ENDBRANCH  24  25
ENDBRANCH   7  19
ENDBRANCH   4   7
ENDBRANCH   2   3
ENDBRANCH   1   2
BRANCH   1  27
ATOM     27  C   UNL A   1      37.879  20.296  24.982  1.00  0.00     0.023 C 
BRANCH  27  28
ATOM     28  C   UNL A   1      39.136  20.506  25.821  1.00  0.00     0.116 C 
BRANCH  28  29
ATOM     29  N   UNL A   1      40.007  19.340  25.846  1.00  0.00    -0.352 N 
ATOM     30  C   UNL A   1      41.361  19.285  26.075  1.00  0.00     0.251 C 
ATOM     31  H   UNL A   1      39.567  18.476  25.676  1.00  0.00     0.163 HD
ATOM     32  O   UNL A   1      41.971  18.228  25.956  1.00  0.00    -0.269 OA
BRANCH  30  33
ATOM     33  C   UNL A   1      42.082  20.524  26.425  1.00  0.00     0.039 A 
ATOM     34  C   UNL A   1      42.595  21.318  25.397  1.00  0.00     0.014 A 
ATOM     35  C   UNL A   1      42.198  20.925  27.758  1.00  0.00     0.014 A 
ATOM     36  C   UNL A   1      43.149  22.562  25.699  1.00  0.00     0.010 A 
ATOM     37  C   UNL A   1      42.700  22.188  28.053  1.00  0.00     0.010 A 
ATOM     38  C   UNL A   1      43.160  23.026  27.025  1.00  0.00    -0.014 A 
BRANCH  38  39
ATOM     39  C   UNL A   1      43.599  24.402  27.360  1.00  0.00     0.031 A 
ATOM     40  C   UNL A   1      42.607  25.408  27.863  1.00  0.00     0.074 A 
ATOM     41  C   UNL A   1      44.873  24.767  27.117  1.00  0.00     0.049 A 
ATOM     42  N   UNL A   1      42.764  26.690  28.078  1.00  0.00    -0.248 NA
ATOM     43  C   UNL A   1      41.249  24.913  28.140  1.00  0.00     0.031 C 
ATOM     44  C   UNL A   1      45.920  23.885  26.598  1.00  0.00     0.029 A 
ATOM     45  N   UNL A   1      45.499  25.981  27.253  1.00  0.00    -0.354 N 
ATOM     46  C   UNL A   1      41.529  27.155  28.505  1.00  0.00     0.074 A 
ATOM     47  C   UNL A   1      40.619  26.030  28.478  1.00  0.00     0.031 C 
ATOM     48  C   UNL A   1      47.059  24.585  26.467  1.00  0.00     0.029 A 
ATOM     49  C   UNL A   1      46.812  25.972  26.850  1.00  0.00     0.049 A 
ATOM     50  H   UNL A   1      45.048  26.782  27.607  1.00  0.00     0.167 HD
ATOM     51  C   UNL A   1      41.192  28.405  28.902  1.00  0.00     0.037 A 
ATOM     52  C   UNL A   1      47.708  26.974  26.774  1.00  0.00     0.037 A 
ATOM     53  C   UNL A   1      42.104  29.516  28.946  1.00  0.00     0.049 A 
ATOM     54  C   UNL A   1      47.291  28.362  27.176  1.00  0.00     0.074 A 
ATOM     55  C   UNL A   1      41.873  30.806  29.392  1.00  0.00     0.029 A 
ATOM     56  N   UNL A   1      43.425  29.468  28.525  1.00  0.00    -0.354 N 
ATOM     57  N   UNL A   1      46.136  28.780  27.633  1.00  0.00    -0.248 NA
ATOM     58  C   UNL A   1      48.301  29.421  27.045  1.00  0.00     0.031 C 
ATOM     59  C   UNL A   1      43.043  31.550  29.201  1.00  0.00     0.029 A 
ATOM     60  C   UNL A   1      44.013  30.714  28.675  1.00  0.00     0.049 A 
ATOM     61  H   UNL A   1      43.878  28.669  28.172  1.00  0.00     0.167 HD
ATOM     62  C   UNL A   1      46.285  30.140  27.863  1.00  0.00     0.074 A 
ATOM     63  C   UNL A   1      47.648  30.477  27.509  1.00  0.00     0.031 C 
ATOM     64  C   UNL A   1      45.372  31.031  28.321  1.00  0.00     0.037 A 
BRANCH  51  65
ATOM     65  C   UNL A   1      39.774  28.639  29.330  1.00  0.00     0.064 A 
ATOM     66  C   UNL A   1      39.370  28.442  30.659  1.00  0.00     0.173 A 
ATOM     67  C   UNL A   1      38.822  29.114  28.417  1.00  0.00     0.173 A 
ATOM     68  F   UNL A   1      40.241  27.977  31.567  1.00  0.00    -0.203 F 
ATOM     69  C   UNL A   1      38.059  28.692  31.053  1.00  0.00     0.198 A 
ATOM     70  C   UNL A   1      37.518  29.388  28.820  1.00  0.00     0.198 A 
ATOM     71  F   UNL A   1      39.159  29.325  27.135  1.00  0.00    -0.203 F 
ATOM     72  F   UNL A   1      37.686  28.461  32.319  1.00  0.00    -0.200 F 
ATOM     73  C   UNL A   1      37.136  29.173  30.136  1.00  0.00     0.200 A 
ATOM     74  F   UNL A   1      36.629  29.863  27.936  1.00  0.00    -0.200 F 
ATOM     75  F   UNL A   1      35.876  29.423  30.519  1.00  0.00    -0.200 F 
ENDBRANCH  51  65
BRANCH  52  76
ATOM     76  C   UNL A   1      49.089  26.707  26.294  1.00  0.00     0.064 A 
ATOM     77  C   UNL A   1      49.431  26.916  24.951  1.00  0.00     0.173 A 
ATOM     78  C   UNL A   1      50.084  26.225  27.155  1.00  0.00     0.173 A 
ATOM     79  F   UNL A   1      48.507  27.355  24.085  1.00  0.00    -0.203 F 
ATOM     80  C   UNL A   1      50.713  26.634  24.484  1.00  0.00     0.198 A 
ATOM     81  C   UNL A   1      51.372  25.968  26.693  1.00  0.00     0.198 A 
ATOM     82  F   UNL A   1      49.806  26.010  28.450  1.00  0.00    -0.203 F 
ATOM     83  F   UNL A   1      51.002  26.800  23.186  1.00  0.00    -0.200 F 
ATOM     84  C   UNL A   1      51.684  26.164  25.356  1.00  0.00     0.200 A 
ATOM     85  F   UNL A   1      52.312  25.526  27.541  1.00  0.00    -0.200 F 
ATOM     86  F   UNL A   1      52.917  25.894  24.906  1.00  0.00    -0.200 F 
ENDBRANCH  52  76
BRANCH  64  87
ATOM     87  C   UNL A   1      45.821  32.452  28.485  1.00  0.00     0.064 A 
ATOM     88  C   UNL A   1      45.666  33.388  27.453  1.00  0.00     0.173 A 
ATOM     89  C   UNL A   1      46.361  32.892  29.702  1.00  0.00     0.173 A 
ATOM     90  F   UNL A   1      45.172  33.010  26.265  1.00  0.00    -0.203 F 
ATOM     91  C   UNL A   1      46.048  34.716  27.632  1.00  0.00     0.198 A 
ATOM     92  C   UNL A   1      46.719  34.225  29.885  1.00  0.00     0.198 A 
ATOM     93  F   UNL A   1      46.526  32.033  30.719  1.00  0.00    -0.203 F 
ATOM     94  F   UNL A   1      45.923  35.588  26.622  1.00  0.00    -0.200 F 
ATOM     95  C   UNL A   1      46.565  35.134  28.849  1.00  0.00     0.200 A 
ATOM     96  F   UNL A   1      47.207  34.630  31.066  1.00  0.00    -0.200 F 
ATOM     97  F   UNL A   1      46.921  36.414  29.023  1.00  0.00    -0.200 F 
ENDBRANCH  64  87
ENDBRANCH  38  39
ENDBRANCH  30  33
ENDBRANCH  28  29
ENDBRANCH  27  28
ENDBRANCH   1  27
TORSDOF 15
ENDMDL
MODEL 2
REMARK VINA RESULT:     -13.3      4.850     10.274
REMARK SMILES CS(=O)(=O)c1ccc(/C=C(/C(=O)NCCCCNC(=O)c2ccc(-c3c4nc(c(-c5c(F)c(F)c(F)c(F)c5F)c5ccc([nH]5)c(-c5c(F)c(F)c(F)c(F)c5F)c5nc(c(-c6c(F)c(F)c(F)c(F)c6F)c6ccc3[nH]6)C=C5)C=C4)cc2)c2ccc(O)cc2)cc1
REMARK SMILES IDX 15 1 14 2 13 3 11 4 12 5 10 7 9 8 8 9 5 10 6 11 92 12 7 13
REMARK SMILES IDX 91 14 2 15 1 16 3 17 4 18 84 19 85 20 90 21 86 22 89 23
REMARK SMILES IDX 87 24 88 25 16 27 17 28 18 29 19 30 20 32 21 33 22 34 83 35
REMARK SMILES IDX 23 36 82 37 24 38 25 39 26 40 76 41 27 42 81 43 75 44 77 45
REMARK SMILES IDX 28 46 80 47 74 48 73 49 29 51 61 52 41 53 60 54 42 55 45 56
REMARK SMILES IDX 59 57 78 58 43 59 44 60 58 62 79 63 46 64 30 65 31 66 39 67
REMARK SMILES IDX 32 68 33 69 37 70 40 71 34 72 35 73 38 74 36 75 62 76 63 77
REMARK SMILES IDX 71 78 64 79 65 80 69 81 72 82 66 83 67 84 70 85 68 86 47 87
REMARK SMILES IDX 48 88 56 89 49 90 50 91 54 92 57 93 51 94 52 95 55 96 53 97
REMARK H PARENT 13 6 88 26 18 31 77 50 45 61
REMARK Flexibility Score: inf
ROOT
ATOM      1  C   UNL A   1      32.321  27.255  25.920  1.00  0.00     0.023 C 
ENDROOT
BRANCH   1   2
ATOM      2  C   UNL A   1      31.535  26.604  24.779  1.00  0.00     0.116 C 
BRANCH   2   3
ATOM      3  N   UNL A   1      32.275  26.703  23.537  1.00  0.00    -0.352 N 
ATOM      4  C   UNL A   1      33.094  25.853  22.862  1.00  0.00     0.251 C 
ATOM      5  O   UNL A   1      33.598  26.296  21.826  1.00  0.00    -0.269 OA
ATOM      6  H   UNL A   1      32.161  27.572  23.086  1.00  0.00     0.163 HD
BRANCH   4   7
ATOM      7  C   UNL A   1      33.325  24.417  23.277  1.00  0.00     0.047 C 
ATOM      8  C   UNL A   1      32.306  23.530  23.347  1.00  0.00     0.022 C 
BRANCH   8   9
ATOM      9  C   UNL A   1      32.354  22.075  23.597  1.00  0.00    -0.025 A 
ATOM     10  C   UNL A   1      32.620  19.292  23.849  1.00  0.00     0.067 A 
ATOM     11  C   UNL A   1      32.805  20.117  24.963  1.00  0.00     0.021 A 
ATOM     12  C   UNL A   1      32.246  19.838  22.623  1.00  0.00     0.021 A 
ATOM     13  C   UNL A   1      32.652  21.502  24.837  1.00  0.00     0.009 A 
ATOM     14  C   UNL A   1      32.110  21.224  22.504  1.00  0.00     0.009 A 
BRANCH  10  15
ATOM     15  S   UNL A   1      32.914  17.547  24.024  1.00  0.00     0.175 S 
ATOM     16  C   UNL A   1      34.597  17.371  24.545  1.00  0.00     0.163 C 
ATOM     17  O   UNL A   1      32.822  16.967  22.695  1.00  0.00    -0.224 OA
ATOM     18  O   UNL A   1      32.059  17.094  25.101  1.00  0.00    -0.224 OA
ENDBRANCH  10  15
ENDBRANCH   8   9
BRANCH   7  19
ATOM     19  C   UNL A   1      34.677  24.064  23.782  1.00  0.00    -0.013 A 
ATOM     20  C   UNL A   1      35.022  24.432  25.095  1.00  0.00     0.013 A 
ATOM     21  C   UNL A   1      35.585  23.300  23.035  1.00  0.00     0.013 A 
ATOM     22  C   UNL A   1      36.223  24.012  25.663  1.00  0.00     0.047 A 
ATOM     23  C   UNL A   1      36.784  22.863  23.613  1.00  0.00     0.047 A 
ATOM     24  C   UNL A   1      37.084  23.213  24.926  1.00  0.00     0.115 A 
BRANCH  24  25
ATOM     25  O   UNL A   1      38.218  22.774  25.542  1.00  0.00    -0.508 OA
ATOM     26  H   UNL A   1      38.461  23.120  26.379  1.00  0.00     0.293 HD
ENDBRANCH  24  25
ENDBRANCH   7  19
ENDBRANCH   4   7
ENDBRANCH   2   3
ENDBRANCH   1   2
BRANCH   1  27
ATOM     27  C   UNL A   1      31.893  28.691  26.243  1.00  0.00     0.023 C 
BRANCH  27  28
ATOM     28  C   UNL A   1      32.908  29.770  25.878  1.00  0.00     0.116 C 
BRANCH  28  29
ATOM     29  N   UNL A   1      32.535  31.091  26.362  1.00  0.00    -0.352 N 
ATOM     30  C   UNL A   1      33.210  31.907  27.238  1.00  0.00     0.251 C 
ATOM     31  H   UNL A   1      31.686  31.449  26.015  1.00  0.00     0.163 HD
ATOM     32  O   UNL A   1      32.707  32.954  27.631  1.00  0.00    -0.269 OA
BRANCH  30  33
ATOM     33  C   UNL A   1      34.533  31.486  27.738  1.00  0.00     0.039 A 
ATOM     34  C   UNL A   1      35.529  32.452  27.905  1.00  0.00     0.014 A 
ATOM     35  C   UNL A   1      34.768  30.155  28.091  1.00  0.00     0.014 A 
ATOM     36  C   UNL A   1      36.734  32.100  28.513  1.00  0.00     0.010 A 
ATOM     37  C   UNL A   1      35.948  29.818  28.746  1.00  0.00     0.010 A 
ATOM     38  C   UNL A   1      36.931  30.791  28.981  1.00  0.00    -0.014 A 
BRANCH  38  39
ATOM     39  C   UNL A   1      38.135  30.423  29.766  1.00  0.00     0.031 A 
ATOM     40  C   UNL A   1      39.124  29.441  29.214  1.00  0.00     0.074 A 
ATOM     41  C   UNL A   1      38.281  30.904  31.017  1.00  0.00     0.049 A 
ATOM     42  N   UNL A   1      40.159  28.890  29.797  1.00  0.00    -0.248 NA
ATOM     43  C   UNL A   1      38.910  29.001  27.826  1.00  0.00     0.031 C 
ATOM     44  C   UNL A   1      37.367  31.840  31.674  1.00  0.00     0.029 A 
ATOM     45  N   UNL A   1      39.240  30.654  31.966  1.00  0.00    -0.354 N 
ATOM     46  C   UNL A   1      40.712  28.034  28.856  1.00  0.00     0.074 A 
ATOM     47  C   UNL A   1      39.875  28.104  27.676  1.00  0.00     0.031 C 
ATOM     48  C   UNL A   1      37.814  32.091  32.916  1.00  0.00     0.029 A 
ATOM     49  C   UNL A   1      39.017  31.302  33.157  1.00  0.00     0.049 A 
ATOM     50  H   UNL A   1      40.014  30.066  31.808  1.00  0.00     0.167 HD
ATOM     51  C   UNL A   1      41.828  27.275  28.961  1.00  0.00     0.037 A 
ATOM     52  C   UNL A   1      39.694  31.246  34.320  1.00  0.00     0.037 A 
ATOM     53  C   UNL A   1      42.667  27.224  30.129  1.00  0.00     0.049 A 
ATOM     54  C   UNL A   1      40.903  30.356  34.423  1.00  0.00     0.074 A 
ATOM     55  C   UNL A   1      43.852  26.534  30.310  1.00  0.00     0.029 A 
ATOM     56  N   UNL A   1      42.406  27.892  31.317  1.00  0.00    -0.354 N 
ATOM     57  N   UNL A   1      41.450  29.595  33.507  1.00  0.00    -0.248 NA
ATOM     58  C   UNL A   1      41.584  30.313  35.725  1.00  0.00     0.031 C 
ATOM     59  C   UNL A   1      44.287  26.749  31.622  1.00  0.00     0.029 A 
ATOM     60  C   UNL A   1      43.394  27.605  32.245  1.00  0.00     0.049 A 
ATOM     61  H   UNL A   1      41.634  28.480  31.477  1.00  0.00     0.167 HD
ATOM     62  C   UNL A   1      42.548  29.000  34.112  1.00  0.00     0.074 A 
ATOM     63  C   UNL A   1      42.599  29.499  35.471  1.00  0.00     0.031 C 
ATOM     64  C   UNL A   1      43.431  28.114  33.591  1.00  0.00     0.037 A 
BRANCH  51  65
ATOM     65  C   UNL A   1      42.214  26.439  27.778  1.00  0.00     0.064 A 
ATOM     66  C   UNL A   1      43.176  26.879  26.856  1.00  0.00     0.173 A 
ATOM     67  C   UNL A   1      41.657  25.166  27.590  1.00  0.00     0.173 A 
ATOM     68  F   UNL A   1      43.729  28.095  26.986  1.00  0.00    -0.203 F 
ATOM     69  C   UNL A   1      43.551  26.083  25.778  1.00  0.00     0.198 A 
ATOM     70  C   UNL A   1      42.053  24.362  26.526  1.00  0.00     0.198 A 
ATOM     71  F   UNL A   1      40.737  24.697  28.447  1.00  0.00    -0.203 F 
ATOM     72  F   UNL A   1      44.444  26.539  24.889  1.00  0.00    -0.200 F 
ATOM     73  C   UNL A   1      42.995  24.821  25.618  1.00  0.00     0.200 A 
ATOM     74  F   UNL A   1      41.524  23.139  26.377  1.00  0.00    -0.200 F 
ATOM     75  F   UNL A   1      43.365  24.052  24.585  1.00  0.00    -0.200 F 
ENDBRANCH  51  65
BRANCH  52  76
ATOM     76  C   UNL A   1      39.244  32.051  35.485  1.00  0.00     0.064 A 
ATOM     77  C   UNL A   1      39.660  33.381  35.638  1.00  0.00     0.173 A 
ATOM     78  C   UNL A   1      38.409  31.510  36.472  1.00  0.00     0.173 A 
ATOM     79  F   UNL A   1      40.478  33.935  34.731  1.00  0.00    -0.203 F 
ATOM     80  C   UNL A   1      39.273  34.133  36.745  1.00  0.00     0.198 A 
ATOM     81  C   UNL A   1      38.001  32.270  37.565  1.00  0.00     0.198 A 
ATOM     82  F   UNL A   1      37.982  30.242  36.370  1.00  0.00    -0.203 F 
ATOM     83  F   UNL A   1      39.722  35.387  36.891  1.00  0.00    -0.200 F 
ATOM     84  C   UNL A   1      38.440  33.578  37.706  1.00  0.00     0.200 A 
ATOM     85  F   UNL A   1      37.186  31.736  38.485  1.00  0.00    -0.200 F 
ATOM     86  F   UNL A   1      38.068  34.302  38.770  1.00  0.00    -0.200 F 
ENDBRANCH  52  76
BRANCH  64  87
ATOM     87  C   UNL A   1      44.539  27.642  34.483  1.00  0.00     0.064 A 
ATOM     88  C   UNL A   1      45.763  28.323  34.548  1.00  0.00     0.173 A 
ATOM     89  C   UNL A   1      44.356  26.532  35.320  1.00  0.00     0.173 A 
ATOM     90  F   UNL A   1      45.992  29.379  33.752  1.00  0.00    -0.203 F 
ATOM     91  C   UNL A   1      46.770  27.900  35.412  1.00  0.00     0.198 A 
ATOM     92  C   UNL A   1      45.355  26.127  36.201  1.00  0.00     0.198 A 
ATOM     93  F   UNL A   1      43.201  25.851  35.297  1.00  0.00    -0.203 F 
ATOM     94  F   UNL A   1      47.946  28.544  35.433  1.00  0.00    -0.200 F 
ATOM     95  C   UNL A   1      46.562  26.809  36.243  1.00  0.00     0.200 A 
ATOM     96  F   UNL A   1      45.148  25.080  37.012  1.00  0.00    -0.200 F 
ATOM     97  F   UNL A   1      47.528  26.411  37.082  1.00  0.00    -0.200 F 
ENDBRANCH  64  87
ENDBRANCH  38  39
ENDBRANCH  30  33
ENDBRANCH  28  29
ENDBRANCH  27  28
ENDBRANCH   1  27
TORSDOF 15
ENDMDL
MODEL 3
REMARK VINA RESULT:     -13.3      3.676      8.719
REMARK SMILES CS(=O)(=O)c1ccc(/C=C(/C(=O)NCCCCNC(=O)c2ccc(-c3c4nc(c(-c5c(F)c(F)c(F)c(F)c5F)c5ccc([nH]5)c(-c5c(F)c(F)c(F)c(F)c5F)c5nc(c(-c6c(F)c(F)c(F)c(F)c6F)c6ccc3[nH]6)C=C5)C=C4)cc2)c2ccc(O)cc2)cc1
REMARK SMILES IDX 15 1 14 2 13 3 11 4 12 5 10 7 9 8 8 9 5 10 6 11 92 12 7 13
REMARK SMILES IDX 91 14 2 15 1 16 3 17 4 18 84 19 85 20 90 21 86 22 89 23
REMARK SMILES IDX 87 24 88 25 16 27 17 28 18 29 19 30 20 32 21 33 22 34 83 35
REMARK SMILES IDX 23 36 82 37 24 38 25 39 26 40 76 41 27 42 81 43 75 44 77 45
REMARK SMILES IDX 28 46 80 47 74 48 73 49 29 51 61 52 41 53 60 54 42 55 45 56
REMARK SMILES IDX 59 57 78 58 43 59 44 60 58 62 79 63 46 64 30 65 31 66 39 67
REMARK SMILES IDX 32 68 33 69 37 70 40 71 34 72 35 73 38 74 36 75 62 76 63 77
REMARK SMILES IDX 71 78 64 79 65 80 69 81 72 82 66 83 67 84 70 85 68 86 47 87
REMARK SMILES IDX 48 88 56 89 49 90 50 91 54 92 57 93 51 94 52 95 55 96 53 97
REMARK H PARENT 13 6 88 26 18 31 77 50 45 61
REMARK Flexibility Score: inf
ROOT
ATOM      1  C   UNL A   1      35.111  23.952  23.869  1.00  0.00     0.023 C 
ENDROOT
BRANCH   1   2
ATOM      2  C   UNL A   1      33.881  23.042  23.854  1.00  0.00     0.116 C 
BRANCH   2   3
ATOM      3  N   UNL A   1      33.321  22.930  25.185  1.00  0.00    -0.352 N 
ATOM      4  C   UNL A   1      32.556  23.751  25.954  1.00  0.00     0.251 C 
ATOM      5  O   UNL A   1      32.288  23.339  27.085  1.00  0.00    -0.269 OA
ATOM      6  H   UNL A   1      33.542  22.079  25.629  1.00  0.00     0.163 HD
BRANCH   4   7
ATOM      7  C   UNL A   1      31.976  25.056  25.453  1.00  0.00     0.047 C 
ATOM      8  C   UNL A   1      31.272  25.118  24.299  1.00  0.00     0.022 C 
BRANCH   8   9
ATOM      9  C   UNL A   1      30.525  26.255  23.725  1.00  0.00    -0.025 A 
ATOM     10  C   UNL A   1      29.000  28.461  22.894  1.00  0.00     0.067 A 
ATOM     11  C   UNL A   1      30.358  28.388  22.573  1.00  0.00     0.021 A 
ATOM     12  C   UNL A   1      28.380  27.415  23.576  1.00  0.00     0.021 A 
ATOM     13  C   UNL A   1      31.111  27.279  22.972  1.00  0.00     0.009 A 
ATOM     14  C   UNL A   1      29.145  26.317  23.984  1.00  0.00     0.009 A 
BRANCH  10  15
ATOM     15  S   UNL A   1      28.097  29.927  22.453  1.00  0.00     0.175 S 
ATOM     16  C   UNL A   1      29.055  31.300  23.033  1.00  0.00     0.163 C 
ATOM     17  O   UNL A   1      26.866  29.916  23.225  1.00  0.00    -0.224 OA
ATOM     18  O   UNL A   1      28.074  29.973  21.006  1.00  0.00    -0.224 OA
ENDBRANCH  10  15
ENDBRANCH   8   9
BRANCH   7  19
ATOM     19  C   UNL A   1      32.363  26.294  26.177  1.00  0.00    -0.013 A 
ATOM     20  C   UNL A   1      33.649  26.822  25.966  1.00  0.00     0.013 A 
ATOM     21  C   UNL A   1      31.467  27.006  26.987  1.00  0.00     0.013 A 
ATOM     22  C   UNL A   1      34.018  28.049  26.514  1.00  0.00     0.047 A 
ATOM     23  C   UNL A   1      31.831  28.248  27.521  1.00  0.00     0.047 A 
ATOM     24  C   UNL A   1      33.099  28.762  27.268  1.00  0.00     0.115 A 
BRANCH  24  25
ATOM     25  O   UNL A   1      33.480  29.986  27.733  1.00  0.00    -0.508 OA
ATOM     26  H   UNL A   1      33.217  30.266  28.588  1.00  0.00     0.293 HD
ENDBRANCH  24  25
ENDBRANCH   7  19
ENDBRANCH   4   7
ENDBRANCH   2   3
ENDBRANCH   1   2
BRANCH   1  27
ATOM     27  C   UNL A   1      36.439  23.218  24.091  1.00  0.00     0.023 C 
BRANCH  27  28
ATOM     28  C   UNL A   1      37.188  23.599  25.364  1.00  0.00     0.116 C 
BRANCH  28  29
ATOM     29  N   UNL A   1      38.348  22.756  25.617  1.00  0.00    -0.352 N 
ATOM     30  C   UNL A   1      39.524  23.081  26.248  1.00  0.00     0.251 C 
ATOM     31  H   UNL A   1      38.281  21.829  25.292  1.00  0.00     0.163 HD
ATOM     32  O   UNL A   1      40.454  22.282  26.287  1.00  0.00    -0.269 OA
BRANCH  30  33
ATOM     33  C   UNL A   1      39.674  24.423  26.843  1.00  0.00     0.039 A 
ATOM     34  C   UNL A   1      39.227  24.635  28.149  1.00  0.00     0.014 A 
ATOM     35  C   UNL A   1      40.304  25.448  26.132  1.00  0.00     0.014 A 
ATOM     36  C   UNL A   1      39.492  25.852  28.778  1.00  0.00     0.010 A 
ATOM     37  C   UNL A   1      40.615  26.640  26.778  1.00  0.00     0.010 A 
ATOM     38  C   UNL A   1      40.231  26.844  28.113  1.00  0.00    -0.014 A 
BRANCH  38  39
ATOM     39  C   UNL A   1      40.661  28.083  28.804  1.00  0.00     0.031 A 
ATOM     40  C   UNL A   1      42.059  28.204  29.336  1.00  0.00     0.074 A 
ATOM     41  C   UNL A   1      39.760  29.058  29.035  1.00  0.00     0.049 A 
ATOM     42  N   UNL A   1      42.582  29.142  30.084  1.00  0.00    -0.248 NA
ATOM     43  C   UNL A   1      42.987  27.113  29.000  1.00  0.00     0.031 C 
ATOM     44  C   UNL A   1      38.363  29.039  28.596  1.00  0.00     0.029 A 
ATOM     45  N   UNL A   1      39.877  30.243  29.717  1.00  0.00    -0.354 N 
ATOM     46  C   UNL A   1      43.893  28.752  30.316  1.00  0.00     0.074 A 
ATOM     47  C   UNL A   1      44.076  27.471  29.667  1.00  0.00     0.031 C 
ATOM     48  C   UNL A   1      37.757  30.163  29.012  1.00  0.00     0.029 A 
ATOM     49  C   UNL A   1      38.706  30.958  29.784  1.00  0.00     0.049 A 
ATOM     50  H   UNL A   1      40.721  30.551  30.121  1.00  0.00     0.167 HD
ATOM     51  C   UNL A   1      44.860  29.414  30.994  1.00  0.00     0.037 A 
ATOM     52  C   UNL A   1      38.424  32.113  30.417  1.00  0.00     0.037 A 
ATOM     53  C   UNL A   1      44.679  30.696  31.621  1.00  0.00     0.049 A 
ATOM     54  C   UNL A   1      39.507  32.802  31.202  1.00  0.00     0.074 A 
ATOM     55  C   UNL A   1      45.615  31.476  32.277  1.00  0.00     0.029 A 
ATOM     56  N   UNL A   1      43.477  31.387  31.670  1.00  0.00    -0.354 N 
ATOM     57  N   UNL A   1      40.759  32.453  31.367  1.00  0.00    -0.248 NA
ATOM     58  C   UNL A   1      39.133  34.043  31.896  1.00  0.00     0.031 C 
ATOM     59  C   UNL A   1      44.970  32.619  32.761  1.00  0.00     0.029 A 
ATOM     60  C   UNL A   1      43.642  32.570  32.372  1.00  0.00     0.049 A 
ATOM     61  H   UNL A   1      42.632  31.082  31.268  1.00  0.00     0.167 HD
ATOM     62  C   UNL A   1      41.328  33.437  32.163  1.00  0.00     0.074 A 
ATOM     63  C   UNL A   1      40.288  34.407  32.437  1.00  0.00     0.031 C 
ATOM     64  C   UNL A   1      42.596  33.526  32.630  1.00  0.00     0.037 A 
BRANCH  51  65
ATOM     65  C   UNL A   1      46.209  28.767  31.088  1.00  0.00     0.064 A 
ATOM     66  C   UNL A   1      46.528  27.893  32.139  1.00  0.00     0.173 A 
ATOM     67  C   UNL A   1      47.174  28.979  30.094  1.00  0.00     0.173 A 
ATOM     68  F   UNL A   1      45.643  27.667  33.121  1.00  0.00    -0.203 F 
ATOM     69  C   UNL A   1      47.773  27.272  32.201  1.00  0.00     0.198 A 
ATOM     70  C   UNL A   1      48.408  28.336  30.144  1.00  0.00     0.198 A 
ATOM     71  F   UNL A   1      46.916  29.801  29.065  1.00  0.00    -0.203 F 
ATOM     72  F   UNL A   1      48.069  26.471  33.233  1.00  0.00    -0.200 F 
ATOM     73  C   UNL A   1      48.709  27.488  31.199  1.00  0.00     0.200 A 
ATOM     74  F   UNL A   1      49.308  28.536  29.171  1.00  0.00    -0.200 F 
ATOM     75  F   UNL A   1      49.902  26.881  31.255  1.00  0.00    -0.200 F 
ENDBRANCH  51  65
BRANCH  52  76
ATOM     76  C   UNL A   1      37.058  32.692  30.340  1.00  0.00     0.064 A 
ATOM     77  C   UNL A   1      36.695  33.528  29.276  1.00  0.00     0.173 A 
ATOM     78  C   UNL A   1      36.097  32.438  31.329  1.00  0.00     0.173 A 
ATOM     79  F   UNL A   1      37.587  33.818  28.318  1.00  0.00    -0.203 F 
ATOM     80  C   UNL A   1      35.428  34.105  29.214  1.00  0.00     0.198 A 
ATOM     81  C   UNL A   1      34.823  32.994  31.253  1.00  0.00     0.198 A 
ATOM     82  F   UNL A   1      36.396  31.643  32.368  1.00  0.00    -0.203 F 
ATOM     83  F   UNL A   1      35.120  34.936  28.209  1.00  0.00    -0.200 F 
ATOM     84  C   UNL A   1      34.491  33.833  30.200  1.00  0.00     0.200 A 
ATOM     85  F   UNL A   1      33.916  32.720  32.202  1.00  0.00    -0.200 F 
ATOM     86  F   UNL A   1      33.273  34.387  30.141  1.00  0.00    -0.200 F 
ENDBRANCH  52  76
BRANCH  64  87
ATOM     87  C   UNL A   1      42.938  34.721  33.469  1.00  0.00     0.064 A 
ATOM     88  C   UNL A   1      43.283  35.947  32.884  1.00  0.00     0.173 A 
ATOM     89  C   UNL A   1      42.867  34.652  34.868  1.00  0.00     0.173 A 
ATOM     90  F   UNL A   1      43.382  36.056  31.551  1.00  0.00    -0.203 F 
ATOM     91  C   UNL A   1      43.556  37.062  33.673  1.00  0.00     0.198 A 
ATOM     92  C   UNL A   1      43.117  35.775  35.653  1.00  0.00     0.198 A 
ATOM     93  F   UNL A   1      42.538  33.501  35.473  1.00  0.00    -0.203 F 
ATOM     94  F   UNL A   1      43.918  38.216  33.095  1.00  0.00    -0.200 F 
ATOM     95  C   UNL A   1      43.465  36.977  35.055  1.00  0.00     0.200 A 
ATOM     96  F   UNL A   1      43.017  35.694  36.987  1.00  0.00    -0.200 F 
ATOM     97  F   UNL A   1      43.718  38.054  35.811  1.00  0.00    -0.200 F 
ENDBRANCH  64  87
ENDBRANCH  38  39
ENDBRANCH  30  33
ENDBRANCH  28  29
ENDBRANCH  27  28
ENDBRANCH   1  27
TORSDOF 15
ENDMDL
