MODEL 1
REMARK VINA RESULT:     -13.1      0.000      0.000
REMARK SMILES O=C(NCCCCNC(=O)c1c(C(=O)N2CCc3ccccc32)cccc1[N+](=O)[O-])c1ccc(-c2c3nc(c(-c4c(F)c(F)c(F)c(F)c4F)c4ccc([nH]4)c(-c4c(F)c(F)c(F)c(F)c4F)c4nc(c(-c5c(F)c(F)c(F)c(F)c5F)c5ccc2[nH]5)C=C4)C=C3)cc1
REMARK SMILES IDX 5 1 4 2 3 3 1 4 2 5 31 7 32 8 93 9 33 10 92 11 34 12 35 13
REMARK SMILES IDX 36 14 86 15 37 16 91 17 85 18 87 19 38 20 90 21 84 22 83 23
REMARK SMILES IDX 39 25 71 26 51 27 70 28 52 29 55 30 69 31 88 32 53 33 54 34
REMARK SMILES IDX 68 36 89 37 56 38 40 39 41 40 49 41 42 42 43 43 47 44 50 45
REMARK SMILES IDX 44 46 45 47 48 48 46 49 72 50 73 51 81 52 74 53 75 54 79 55
REMARK SMILES IDX 82 56 76 57 77 58 80 59 78 60 57 61 58 62 66 63 59 64 60 65
REMARK SMILES IDX 64 66 67 67 61 68 62 69 65 70 63 71 6 72 7 73 8 74 9 75
REMARK SMILES IDX 10 77 11 78 12 79 27 80 24 81 26 82 25 83 13 84 14 85 15 86
REMARK SMILES IDX 16 87 23 88 17 89 18 90 22 91 19 92 21 93 20 94 28 95 29 96
REMARK SMILES IDX 30 97
REMARK H PARENT 3 6 87 24 55 35 8 76
REMARK Flexibility Score: inf
ROOT
ATOM      1  C   UNL A   1      31.274  32.041  27.108  1.00  0.00     0.023 C 
ENDROOT
BRANCH   1   2
ATOM      2  C   UNL A   1      32.563  32.859  27.136  1.00  0.00     0.116 C 
BRANCH   2   3
ATOM      3  N   UNL A   1      32.369  34.228  27.590  1.00  0.00    -0.352 N 
ATOM      4  O   UNL A   1      32.628  36.061  28.877  1.00  0.00    -0.269 OA
ATOM      5  C   UNL A   1      33.038  34.949  28.554  1.00  0.00     0.251 C 
ATOM      6  H   UNL A   1      31.645  34.716  27.136  1.00  0.00     0.163 HD
BRANCH   5   7
ATOM      7  C   UNL A   1      34.224  34.384  29.237  1.00  0.00     0.039 A 
ATOM      8  C   UNL A   1      35.513  34.598  28.747  1.00  0.00     0.014 A 
ATOM      9  C   UNL A   1      34.042  33.635  30.405  1.00  0.00     0.014 A 
ATOM     10  C   UNL A   1      36.593  33.924  29.314  1.00  0.00     0.010 A 
ATOM     11  C   UNL A   1      35.141  33.031  31.028  1.00  0.00     0.010 A 
ATOM     12  C   UNL A   1      36.420  33.131  30.461  1.00  0.00    -0.014 A 
BRANCH  12  13
ATOM     13  C   UNL A   1      37.593  32.442  31.059  1.00  0.00     0.031 A 
ATOM     14  C   UNL A   1      38.061  32.770  32.450  1.00  0.00     0.074 A 
ATOM     15  C   UNL A   1      38.220  31.484  30.350  1.00  0.00     0.049 A 
ATOM     16  N   UNL A   1      39.043  32.241  33.139  1.00  0.00    -0.248 NA
ATOM     17  C   UNL A   1      37.342  33.837  33.161  1.00  0.00     0.031 C 
ATOM     18  C   UNL A   1      37.868  31.081  28.988  1.00  0.00     0.029 A 
ATOM     19  N   UNL A   1      39.269  30.663  30.680  1.00  0.00    -0.354 N 
ATOM     20  C   UNL A   1      39.071  32.921  34.350  1.00  0.00     0.074 A 
ATOM     21  C   UNL A   1      38.027  33.921  34.293  1.00  0.00     0.031 C 
ATOM     22  C   UNL A   1      38.650  30.057  28.617  1.00  0.00     0.029 A 
ATOM     23  C   UNL A   1      39.594  29.768  29.691  1.00  0.00     0.049 A 
ATOM     24  H   UNL A   1      39.741  30.710  31.542  1.00  0.00     0.167 HD
ATOM     25  C   UNL A   1      39.886  32.722  35.415  1.00  0.00     0.037 A 
ATOM     26  C   UNL A   1      40.553  28.824  29.647  1.00  0.00     0.037 A 
ATOM     27  C   UNL A   1      40.913  31.712  35.478  1.00  0.00     0.049 A 
ATOM     28  C   UNL A   1      41.457  28.639  30.831  1.00  0.00     0.074 A 
ATOM     29  C   UNL A   1      41.759  31.404  36.528  1.00  0.00     0.029 A 
ATOM     30  N   UNL A   1      41.238  30.849  34.440  1.00  0.00    -0.354 N 
ATOM     31  N   UNL A   1      41.448  29.263  31.983  1.00  0.00    -0.248 NA
ATOM     32  C   UNL A   1      42.508  27.621  30.706  1.00  0.00     0.031 C 
ATOM     33  C   UNL A   1      42.627  30.387  36.111  1.00  0.00     0.029 A 
ATOM     34  C   UNL A   1      42.288  30.027  34.817  1.00  0.00     0.049 A 
ATOM     35  H   UNL A   1      40.788  30.825  33.564  1.00  0.00     0.167 HD
ATOM     36  C   UNL A   1      42.474  28.701  32.729  1.00  0.00     0.074 A 
ATOM     37  C   UNL A   1      43.077  27.675  31.902  1.00  0.00     0.031 C 
ATOM     38  C   UNL A   1      42.880  29.010  33.985  1.00  0.00     0.037 A 
BRANCH  25  39
ATOM     39  C   UNL A   1      39.719  33.633  36.597  1.00  0.00     0.064 A 
ATOM     40  C   UNL A   1      38.845  33.325  37.652  1.00  0.00     0.173 A 
ATOM     41  C   UNL A   1      40.465  34.818  36.692  1.00  0.00     0.173 A 
ATOM     42  F   UNL A   1      38.101  32.209  37.608  1.00  0.00    -0.203 F 
ATOM     43  C   UNL A   1      38.702  34.183  38.740  1.00  0.00     0.198 A 
ATOM     44  C   UNL A   1      40.340  35.661  37.794  1.00  0.00     0.198 A 
ATOM     45  F   UNL A   1      41.320  35.159  35.716  1.00  0.00    -0.203 F 
ATOM     46  F   UNL A   1      37.823  33.892  39.709  1.00  0.00    -0.200 F 
ATOM     47  C   UNL A   1      39.452  35.347  38.813  1.00  0.00     0.200 A 
ATOM     48  F   UNL A   1      41.074  36.779  37.868  1.00  0.00    -0.200 F 
ATOM     49  F   UNL A   1      39.314  36.171  39.859  1.00  0.00    -0.200 F 
ENDBRANCH  25  39
BRANCH  26  50
ATOM     50  C   UNL A   1      40.686  27.974  28.437  1.00  0.00     0.064 A 
ATOM     51  C   UNL A   1      41.461  28.390  27.347  1.00  0.00     0.173 A 
ATOM     52  C   UNL A   1      40.069  26.716  28.362  1.00  0.00     0.173 A 
ATOM     53  F   UNL A   1      42.053  29.593  27.367  1.00  0.00    -0.203 F 
ATOM     54  C   UNL A   1      41.612  27.581  26.224  1.00  0.00     0.198 A 
ATOM     55  C   UNL A   1      40.243  25.897  27.248  1.00  0.00     0.198 A 
ATOM     56  F   UNL A   1      39.320  26.273  29.381  1.00  0.00    -0.203 F 
ATOM     57  F   UNL A   1      42.335  28.014  25.182  1.00  0.00    -0.200 F 
ATOM     58  C   UNL A   1      41.010  26.333  26.178  1.00  0.00     0.200 A 
ATOM     59  F   UNL A   1      39.673  24.685  27.216  1.00  0.00    -0.200 F 
ATOM     60  F   UNL A   1      41.168  25.549  25.103  1.00  0.00    -0.200 F 
ENDBRANCH  26  50
BRANCH  38  61
ATOM     61  C   UNL A   1      44.014  28.207  34.552  1.00  0.00     0.064 A 
ATOM     62  C   UNL A   1      45.345  28.637  34.449  1.00  0.00     0.173 A 
ATOM     63  C   UNL A   1      43.762  27.004  35.229  1.00  0.00     0.173 A 
ATOM     64  F   UNL A   1      45.638  29.773  33.797  1.00  0.00    -0.203 F 
ATOM     65  C   UNL A   1      46.385  27.879  34.980  1.00  0.00     0.198 A 
ATOM     66  C   UNL A   1      44.802  26.263  35.782  1.00  0.00     0.198 A 
ATOM     67  F   UNL A   1      42.506  26.551  35.358  1.00  0.00    -0.203 F 
ATOM     68  F   UNL A   1      47.652  28.285  34.828  1.00  0.00    -0.200 F 
ATOM     69  C   UNL A   1      46.113  26.696  35.651  1.00  0.00     0.200 A 
ATOM     70  F   UNL A   1      44.536  25.126  36.440  1.00  0.00    -0.200 F 
ATOM     71  F   UNL A   1      47.115  25.970  36.163  1.00  0.00    -0.200 F 
ENDBRANCH  38  61
ENDBRANCH  12  13
ENDBRANCH   5   7
ENDBRANCH   2   3
ENDBRANCH   1   2
BRANCH   1  72
ATOM     72  C   UNL A   1      31.039  31.199  25.855  1.00  0.00     0.023 C 
BRANCH  72  73
ATOM     73  C   UNL A   1      31.805  29.880  25.779  1.00  0.00     0.116 C 
BRANCH  73  74
ATOM     74  N   UNL A   1      32.473  29.637  24.506  1.00  0.00    -0.352 N 
ATOM     75  C   UNL A   1      32.065  28.912  23.405  1.00  0.00     0.259 C 
ATOM     76  H   UNL A   1      33.359  30.058  24.418  1.00  0.00     0.163 HD
ATOM     77  O   UNL A   1      32.788  28.860  22.416  1.00  0.00    -0.269 OA
BRANCH  75  78
ATOM     78  C   UNL A   1      30.804  28.148  23.446  1.00  0.00     0.130 A 
ATOM     79  C   UNL A   1      30.777  26.832  23.932  1.00  0.00     0.060 A 
ATOM     80  C   UNL A   1      29.589  28.733  23.064  1.00  0.00     0.282 A 
ATOM     81  C   UNL A   1      29.540  26.202  24.161  1.00  0.00     0.015 A 
ATOM     82  C   UNL A   1      28.355  28.126  23.338  1.00  0.00     0.086 A 
ATOM     83  C   UNL A   1      28.336  26.867  23.924  1.00  0.00     0.008 A 
BRANCH  79  84
ATOM     84  C   UNL A   1      32.009  26.008  24.098  1.00  0.00     0.259 C 
ATOM     85  O   UNL A   1      32.930  26.458  24.770  1.00  0.00    -0.269 OA
BRANCH  84  86
ATOM     86  N   UNL A   1      32.069  24.841  23.371  1.00  0.00    -0.308 N 
ATOM     87  C   UNL A   1      32.709  24.716  22.059  1.00  0.00     0.131 C 
ATOM     88  C   UNL A   1      31.942  23.567  23.931  1.00  0.00     0.047 A 
ATOM     89  C   UNL A   1      33.285  23.290  21.988  1.00  0.00     0.059 C 
ATOM     90  C   UNL A   1      32.712  22.656  23.218  1.00  0.00    -0.022 A 
ATOM     91  C   UNL A   1      31.228  23.203  25.058  1.00  0.00     0.026 A 
ATOM     92  C   UNL A   1      32.916  21.382  23.717  1.00  0.00     0.006 A 
ATOM     93  C   UNL A   1      31.402  21.914  25.552  1.00  0.00     0.002 A 
ATOM     94  C   UNL A   1      32.271  21.021  24.905  1.00  0.00     0.000 A 
ENDBRANCH  84  86
ENDBRANCH  79  84
BRANCH  80  95
ATOM     95  N   UNL A   1      29.569  29.971  22.303  1.00  0.00     0.063 N 
ATOM     96  O   UNL A   1      29.206  30.991  22.904  1.00  0.00    -0.258 OA
ATOM     97  O   UNL A   1      29.900  29.921  21.113  1.00  0.00    -0.258 OA
ENDBRANCH  80  95
ENDBRANCH  75  78
ENDBRANCH  73  74
ENDBRANCH  72  73
ENDBRANCH   1  72
TORSDOF 14
ENDMDL
MODEL 2
REMARK VINA RESULT:     -13.1      0.447      7.160
REMARK SMILES O=C(NCCCCNC(=O)c1c(C(=O)N2CCc3ccccc32)cccc1[N+](=O)[O-])c1ccc(-c2c3nc(c(-c4c(F)c(F)c(F)c(F)c4F)c4ccc([nH]4)c(-c4c(F)c(F)c(F)c(F)c4F)c4nc(c(-c5c(F)c(F)c(F)c(F)c5F)c5ccc2[nH]5)C=C4)C=C3)cc1
REMARK SMILES IDX 5 1 4 2 3 3 1 4 2 5 31 7 32 8 93 9 33 10 92 11 34 12 35 13
REMARK SMILES IDX 36 14 86 15 37 16 91 17 85 18 87 19 38 20 90 21 84 22 83 23
REMARK SMILES IDX 39 25 71 26 51 27 70 28 52 29 55 30 69 31 88 32 53 33 54 34
REMARK SMILES IDX 68 36 89 37 56 38 40 39 41 40 49 41 42 42 43 43 47 44 50 45
REMARK SMILES IDX 44 46 45 47 48 48 46 49 72 50 73 51 81 52 74 53 75 54 79 55
REMARK SMILES IDX 82 56 76 57 77 58 80 59 78 60 57 61 58 62 66 63 59 64 60 65
REMARK SMILES IDX 64 66 67 67 61 68 62 69 65 70 63 71 6 72 7 73 8 74 9 75
REMARK SMILES IDX 10 77 11 78 12 79 27 80 24 81 26 82 25 83 13 84 14 85 15 86
REMARK SMILES IDX 16 87 23 88 17 89 18 90 22 91 19 92 21 93 20 94 28 95 29 96
REMARK SMILES IDX 30 97
REMARK H PARENT 3 6 87 24 55 35 8 76
REMARK Flexibility Score: inf
ROOT
ATOM      1  C   UNL A   1      31.396  32.061  27.141  1.00  0.00     0.023 C 
ENDROOT
BRANCH   1   2
ATOM      2  C   UNL A   1      32.635  32.954  27.107  1.00  0.00     0.116 C 
BRANCH   2   3
ATOM      3  N   UNL A   1      32.389  34.301  27.599  1.00  0.00    -0.352 N 
ATOM      4  O   UNL A   1      32.536  36.088  28.966  1.00  0.00    -0.269 OA
ATOM      5  C   UNL A   1      32.983  34.995  28.630  1.00  0.00     0.251 C 
ATOM      6  H   UNL A   1      31.688  34.796  27.118  1.00  0.00     0.163 HD
BRANCH   5   7
ATOM      7  C   UNL A   1      34.133  34.421  29.365  1.00  0.00     0.039 A 
ATOM      8  C   UNL A   1      35.442  34.587  28.910  1.00  0.00     0.014 A 
ATOM      9  C   UNL A   1      33.897  33.714  30.549  1.00  0.00     0.014 A 
ATOM     10  C   UNL A   1      36.486  33.904  29.530  1.00  0.00     0.010 A 
ATOM     11  C   UNL A   1      34.960  33.102  31.224  1.00  0.00     0.010 A 
ATOM     12  C   UNL A   1      36.257  33.151  30.694  1.00  0.00    -0.014 A 
BRANCH  12  13
ATOM     13  C   UNL A   1      37.394  32.452  31.348  1.00  0.00     0.031 A 
ATOM     14  C   UNL A   1      38.160  31.373  30.633  1.00  0.00     0.074 A 
ATOM     15  C   UNL A   1      37.761  32.821  32.591  1.00  0.00     0.049 A 
ATOM     16  N   UNL A   1      39.199  30.686  31.040  1.00  0.00    -0.248 NA
ATOM     17  C   UNL A   1      37.695  31.009  29.286  1.00  0.00     0.031 C 
ATOM     18  C   UNL A   1      37.093  33.847  33.393  1.00  0.00     0.029 A 
ATOM     19  N   UNL A   1      38.793  32.394  33.387  1.00  0.00    -0.354 N 
ATOM     20  C   UNL A   1      39.499  29.800  30.014  1.00  0.00     0.074 A 
ATOM     21  C   UNL A   1      38.515  30.014  28.975  1.00  0.00     0.031 C 
ATOM     22  C   UNL A   1      37.761  34.007  34.545  1.00  0.00     0.029 A 
ATOM     23  C   UNL A   1      38.868  33.058  34.587  1.00  0.00     0.049 A 
ATOM     24  H   UNL A   1      39.419  31.681  33.124  1.00  0.00     0.167 HD
ATOM     25  C   UNL A   1      40.507  28.897  29.942  1.00  0.00     0.037 A 
ATOM     26  C   UNL A   1      39.727  32.914  35.613  1.00  0.00     0.037 A 
ATOM     27  C   UNL A   1      41.498  28.698  30.970  1.00  0.00     0.049 A 
ATOM     28  C   UNL A   1      40.822  31.891  35.516  1.00  0.00     0.074 A 
ATOM     29  C   UNL A   1      42.584  27.840  30.970  1.00  0.00     0.029 A 
ATOM     30  N   UNL A   1      41.518  29.364  32.188  1.00  0.00    -0.354 N 
ATOM     31  N   UNL A   1      41.117  31.086  34.526  1.00  0.00    -0.248 NA
ATOM     32  C   UNL A   1      41.701  31.755  36.685  1.00  0.00     0.031 C 
ATOM     33  C   UNL A   1      43.234  27.952  32.205  1.00  0.00     0.029 A 
ATOM     34  C   UNL A   1      42.583  28.917  32.956  1.00  0.00     0.049 A 
ATOM     35  H   UNL A   1      40.872  30.052  32.466  1.00  0.00     0.167 HD
ATOM     36  C   UNL A   1      42.226  30.363  34.940  1.00  0.00     0.074 A 
ATOM     37  C   UNL A   1      42.560  30.835  36.268  1.00  0.00     0.031 C 
ATOM     38  C   UNL A   1      42.904  29.394  34.277  1.00  0.00     0.037 A 
BRANCH  25  39
ATOM     39  C   UNL A   1      40.580  28.033  28.715  1.00  0.00     0.064 A 
ATOM     40  C   UNL A   1      41.311  28.416  27.580  1.00  0.00     0.173 A 
ATOM     41  C   UNL A   1      39.931  26.788  28.685  1.00  0.00     0.173 A 
ATOM     42  F   UNL A   1      41.942  29.600  27.553  1.00  0.00    -0.203 F 
ATOM     43  C   UNL A   1      41.365  27.602  26.451  1.00  0.00     0.198 A 
ATOM     44  C   UNL A   1      40.010  25.964  27.565  1.00  0.00     0.198 A 
ATOM     45  F   UNL A   1      39.224  26.368  29.744  1.00  0.00    -0.203 F 
ATOM     46  F   UNL A   1      42.027  28.014  25.361  1.00  0.00    -0.200 F 
ATOM     47  C   UNL A   1      40.718  26.375  26.446  1.00  0.00     0.200 A 
ATOM     48  F   UNL A   1      39.395  24.773  27.566  1.00  0.00    -0.200 F 
ATOM     49  F   UNL A   1      40.771  25.593  25.360  1.00  0.00    -0.200 F 
ENDBRANCH  25  39
BRANCH  26  50
ATOM     50  C   UNL A   1      39.586  33.779  36.810  1.00  0.00     0.064 A 
ATOM     51  C   UNL A   1      40.182  35.046  36.856  1.00  0.00     0.173 A 
ATOM     52  C   UNL A   1      38.824  33.373  37.916  1.00  0.00     0.173 A 
ATOM     53  F   UNL A   1      40.936  35.468  35.830  1.00  0.00    -0.203 F 
ATOM     54  C   UNL A   1      40.027  35.873  37.966  1.00  0.00     0.198 A 
ATOM     55  C   UNL A   1      38.647  34.212  39.014  1.00  0.00     0.198 A 
ATOM     56  F   UNL A   1      38.230  32.171  37.918  1.00  0.00    -0.203 F 
ATOM     57  F   UNL A   1      40.633  37.068  37.998  1.00  0.00    -0.200 F 
ATOM     58  C   UNL A   1      39.253  35.459  39.040  1.00  0.00     0.200 A 
ATOM     59  F   UNL A   1      37.885  33.815  40.042  1.00  0.00    -0.200 F 
ATOM     60  F   UNL A   1      39.092  36.262  40.101  1.00  0.00    -0.200 F 
ENDBRANCH  26  50
BRANCH  38  61
ATOM     61  C   UNL A   1      44.096  28.800  34.970  1.00  0.00     0.064 A 
ATOM     62  C   UNL A   1      45.375  29.363  34.845  1.00  0.00     0.173 A 
ATOM     63  C   UNL A   1      43.952  27.669  35.786  1.00  0.00     0.173 A 
ATOM     64  F   UNL A   1      45.567  30.436  34.062  1.00  0.00    -0.203 F 
ATOM     65  C   UNL A   1      46.470  28.799  35.493  1.00  0.00     0.198 A 
ATOM     66  C   UNL A   1      45.045  27.124  36.454  1.00  0.00     0.198 A 
ATOM     67  F   UNL A   1      42.749  27.096  35.941  1.00  0.00    -0.203 F 
ATOM     68  F   UNL A   1      47.691  29.325  35.322  1.00  0.00    -0.200 F 
ATOM     69  C   UNL A   1      46.304  27.685  36.302  1.00  0.00     0.200 A 
ATOM     70  F   UNL A   1      44.880  26.054  37.243  1.00  0.00    -0.200 F 
ATOM     71  F   UNL A   1      47.359  27.145  36.926  1.00  0.00    -0.200 F 
ENDBRANCH  38  61
ENDBRANCH  12  13
ENDBRANCH   5   7
ENDBRANCH   2   3
ENDBRANCH   1   2
BRANCH   1  72
ATOM     72  C   UNL A   1      31.096  31.278  25.863  1.00  0.00     0.023 C 
BRANCH  72  73
ATOM     73  C   UNL A   1      31.728  29.891  25.762  1.00  0.00     0.116 C 
BRANCH  73  74
ATOM     74  N   UNL A   1      32.404  29.621  24.499  1.00  0.00    -0.352 N 
ATOM     75  C   UNL A   1      32.003  28.871  23.412  1.00  0.00     0.259 C 
ATOM     76  H   UNL A   1      33.290  30.040  24.407  1.00  0.00     0.163 HD
ATOM     77  O   UNL A   1      32.732  28.798  22.428  1.00  0.00    -0.269 OA
BRANCH  75  78
ATOM     78  C   UNL A   1      30.742  28.108  23.463  1.00  0.00     0.130 A 
ATOM     79  C   UNL A   1      30.718  26.794  23.954  1.00  0.00     0.060 A 
ATOM     80  C   UNL A   1      29.525  28.691  23.085  1.00  0.00     0.282 A 
ATOM     81  C   UNL A   1      29.481  26.165  24.192  1.00  0.00     0.015 A 
ATOM     82  C   UNL A   1      28.292  28.085  23.368  1.00  0.00     0.086 A 
ATOM     83  C   UNL A   1      28.276  26.829  23.959  1.00  0.00     0.008 A 
BRANCH  79  84
ATOM     84  C   UNL A   1      31.950  25.970  24.117  1.00  0.00     0.259 C 
ATOM     85  O   UNL A   1      32.863  26.410  24.806  1.00  0.00    -0.269 OA
BRANCH  84  86
ATOM     86  N   UNL A   1      32.022  24.817  23.368  1.00  0.00    -0.308 N 
ATOM     87  C   UNL A   1      32.653  24.725  22.050  1.00  0.00     0.131 C 
ATOM     88  C   UNL A   1      31.916  23.532  23.906  1.00  0.00     0.047 A 
ATOM     89  C   UNL A   1      33.248  23.309  21.949  1.00  0.00     0.059 C 
ATOM     90  C   UNL A   1      32.694  22.645  23.172  1.00  0.00    -0.022 A 
ATOM     91  C   UNL A   1      31.216  23.138  25.032  1.00  0.00     0.026 A 
ATOM     92  C   UNL A   1      32.920  21.365  23.645  1.00  0.00     0.006 A 
ATOM     93  C   UNL A   1      31.412  21.842  25.501  1.00  0.00     0.002 A 
ATOM     94  C   UNL A   1      32.289  20.974  24.832  1.00  0.00     0.000 A 
ENDBRANCH  84  86
ENDBRANCH  79  84
BRANCH  80  95
ATOM     95  N   UNL A   1      29.501  29.926  22.319  1.00  0.00     0.063 N 
ATOM     96  O   UNL A   1      29.219  30.962  22.937  1.00  0.00    -0.258 OA
ATOM     97  O   UNL A   1      29.747  29.859  21.110  1.00  0.00    -0.258 OA
ENDBRANCH  80  95
ENDBRANCH  75  78
ENDBRANCH  73  74
ENDBRANCH  72  73
ENDBRANCH   1  72
TORSDOF 14
ENDMDL
MODEL 3
REMARK VINA RESULT:     -13.1      1.728      2.531
REMARK SMILES O=C(NCCCCNC(=O)c1c(C(=O)N2CCc3ccccc32)cccc1[N+](=O)[O-])c1ccc(-c2c3nc(c(-c4c(F)c(F)c(F)c(F)c4F)c4ccc([nH]4)c(-c4c(F)c(F)c(F)c(F)c4F)c4nc(c(-c5c(F)c(F)c(F)c(F)c5F)c5ccc2[nH]5)C=C4)C=C3)cc1
REMARK SMILES IDX 5 1 4 2 3 3 1 4 2 5 31 7 32 8 93 9 33 10 92 11 34 12 35 13
REMARK SMILES IDX 36 14 86 15 37 16 91 17 85 18 87 19 38 20 90 21 84 22 83 23
REMARK SMILES IDX 39 25 71 26 51 27 70 28 52 29 55 30 69 31 88 32 53 33 54 34
REMARK SMILES IDX 68 36 89 37 56 38 40 39 41 40 49 41 42 42 43 43 47 44 50 45
REMARK SMILES IDX 44 46 45 47 48 48 46 49 72 50 73 51 81 52 74 53 75 54 79 55
REMARK SMILES IDX 82 56 76 57 77 58 80 59 78 60 57 61 58 62 66 63 59 64 60 65
REMARK SMILES IDX 64 66 67 67 61 68 62 69 65 70 63 71 6 72 7 73 8 74 9 75
REMARK SMILES IDX 10 77 11 78 12 79 27 80 24 81 26 82 25 83 13 84 14 85 15 86
REMARK SMILES IDX 16 87 23 88 17 89 18 90 22 91 19 92 21 93 20 94 28 95 29 96
REMARK SMILES IDX 30 97
REMARK H PARENT 3 6 87 24 55 35 8 76
REMARK Flexibility Score: inf
ROOT
ATOM      1  C   UNL A   1      32.458  30.079  25.552  1.00  0.00     0.023 C 
ENDROOT
BRANCH   1   2
ATOM      2  C   UNL A   1      32.114  30.663  26.920  1.00  0.00     0.116 C 
BRANCH   2   3
ATOM      3  N   UNL A   1      32.216  32.114  26.971  1.00  0.00    -0.352 N 
ATOM      4  O   UNL A   1      33.014  34.134  27.573  1.00  0.00    -0.269 OA
ATOM      5  C   UNL A   1      33.184  32.919  27.528  1.00  0.00     0.251 C 
ATOM      6  H   UNL A   1      31.476  32.596  26.538  1.00  0.00     0.163 HD
BRANCH   5   7
ATOM      7  C   UNL A   1      34.414  32.334  28.110  1.00  0.00     0.039 A 
ATOM      8  C   UNL A   1      34.442  31.017  28.571  1.00  0.00     0.014 A 
ATOM      9  C   UNL A   1      35.572  33.117  28.179  1.00  0.00     0.014 A 
ATOM     10  C   UNL A   1      35.559  30.544  29.257  1.00  0.00     0.010 A 
ATOM     11  C   UNL A   1      36.725  32.609  28.789  1.00  0.00     0.010 A 
ATOM     12  C   UNL A   1      36.714  31.335  29.376  1.00  0.00    -0.014 A 
BRANCH  12  13
ATOM     13  C   UNL A   1      37.899  30.797  30.093  1.00  0.00     0.031 A 
ATOM     14  C   UNL A   1      38.166  31.151  31.530  1.00  0.00     0.074 A 
ATOM     15  C   UNL A   1      38.724  29.950  29.448  1.00  0.00     0.049 A 
ATOM     16  N   UNL A   1      39.131  30.744  32.318  1.00  0.00    -0.248 NA
ATOM     17  C   UNL A   1      37.235  32.093  32.168  1.00  0.00     0.031 C 
ATOM     18  C   UNL A   1      38.579  29.536  28.052  1.00  0.00     0.029 A 
ATOM     19  N   UNL A   1      39.834  29.270  29.884  1.00  0.00    -0.354 N 
ATOM     20  C   UNL A   1      38.935  31.391  33.531  1.00  0.00     0.074 A 
ATOM     21  C   UNL A   1      37.776  32.242  33.369  1.00  0.00     0.031 C 
ATOM     22  C   UNL A   1      39.529  28.637  27.760  1.00  0.00     0.029 A 
ATOM     23  C   UNL A   1      40.383  28.452  28.928  1.00  0.00     0.049 A 
ATOM     24  H   UNL A   1      40.200  29.360  30.793  1.00  0.00     0.167 HD
ATOM     25  C   UNL A   1      39.651  31.279  34.677  1.00  0.00     0.037 A 
ATOM     26  C   UNL A   1      41.461  27.648  28.981  1.00  0.00     0.037 A 
ATOM     27  C   UNL A   1      40.794  30.416  34.843  1.00  0.00     0.049 A 
ATOM     28  C   UNL A   1      42.249  27.558  30.256  1.00  0.00     0.074 A 
ATOM     29  C   UNL A   1      41.556  30.199  35.977  1.00  0.00     0.029 A 
ATOM     30  N   UNL A   1      41.343  29.630  33.839  1.00  0.00    -0.354 N 
ATOM     31  N   UNL A   1      42.031  28.147  31.405  1.00  0.00    -0.248 NA
ATOM     32  C   UNL A   1      43.437  26.695  30.237  1.00  0.00     0.031 C 
ATOM     33  C   UNL A   1      42.595  29.320  35.648  1.00  0.00     0.029 A 
ATOM     34  C   UNL A   1      42.450  28.949  34.322  1.00  0.00     0.049 A 
ATOM     35  H   UNL A   1      40.998  29.567  32.919  1.00  0.00     0.167 HD
ATOM     36  C   UNL A   1      43.039  27.711  32.253  1.00  0.00     0.074 A 
ATOM     37  C   UNL A   1      43.862  26.797  31.488  1.00  0.00     0.031 C 
ATOM     38  C   UNL A   1      43.262  28.042  33.550  1.00  0.00     0.037 A 
BRANCH  25  39
ATOM     39  C   UNL A   1      39.234  32.130  35.842  1.00  0.00     0.064 A 
ATOM     40  C   UNL A   1      38.329  31.668  36.811  1.00  0.00     0.173 A 
ATOM     41  C   UNL A   1      39.770  33.416  36.010  1.00  0.00     0.173 A 
ATOM     42  F   UNL A   1      37.778  30.450  36.694  1.00  0.00    -0.203 F 
ATOM     43  C   UNL A   1      37.952  32.473  37.884  1.00  0.00     0.198 A 
ATOM     44  C   UNL A   1      39.414  34.208  37.099  1.00  0.00     0.198 A 
ATOM     45  F   UNL A   1      40.646  33.905  35.119  1.00  0.00    -0.203 F 
ATOM     46  F   UNL A   1      37.047  32.029  38.767  1.00  0.00    -0.200 F 
ATOM     47  C   UNL A   1      38.498  33.739  38.030  1.00  0.00     0.200 A 
ATOM     48  F   UNL A   1      39.951  35.426  37.245  1.00  0.00    -0.200 F 
ATOM     49  F   UNL A   1      38.136  34.512  39.062  1.00  0.00    -0.200 F 
ENDBRANCH  25  39
BRANCH  26  50
ATOM     50  C   UNL A   1      41.838  26.853  27.785  1.00  0.00     0.064 A 
ATOM     51  C   UNL A   1      42.790  27.330  26.875  1.00  0.00     0.173 A 
ATOM     52  C   UNL A   1      41.282  25.587  27.548  1.00  0.00     0.173 A 
ATOM     53  F   UNL A   1      43.334  28.544  27.050  1.00  0.00    -0.203 F 
ATOM     54  C   UNL A   1      43.168  26.574  25.769  1.00  0.00     0.198 A 
ATOM     55  C   UNL A   1      41.680  24.820  26.456  1.00  0.00     0.198 A 
ATOM     56  F   UNL A   1      40.370  25.086  28.393  1.00  0.00    -0.203 F 
ATOM     57  F   UNL A   1      44.059  27.066  24.896  1.00  0.00    -0.200 F 
ATOM     58  C   UNL A   1      42.620  25.316  25.565  1.00  0.00     0.200 A 
ATOM     59  F   UNL A   1      41.160  23.599  26.273  1.00  0.00    -0.200 F 
ATOM     60  F   UNL A   1      42.995  24.583  24.508  1.00  0.00    -0.200 F 
ENDBRANCH  26  50
BRANCH  38  61
ATOM     61  C   UNL A   1      44.427  27.385  34.231  1.00  0.00     0.064 A 
ATOM     62  C   UNL A   1      44.312  26.122  34.831  1.00  0.00     0.173 A 
ATOM     63  C   UNL A   1      45.678  28.017  34.262  1.00  0.00     0.173 A 
ATOM     64  F   UNL A   1      43.131  25.485  34.841  1.00  0.00    -0.203 F 
ATOM     65  C   UNL A   1      45.402  25.528  35.460  1.00  0.00     0.198 A 
ATOM     66  C   UNL A   1      46.773  27.407  34.868  1.00  0.00     0.198 A 
ATOM     67  F   UNL A   1      45.841  29.224  33.699  1.00  0.00    -0.203 F 
ATOM     68  F   UNL A   1      45.258  24.343  36.068  1.00  0.00    -0.200 F 
ATOM     69  C   UNL A   1      46.633  26.168  35.473  1.00  0.00     0.200 A 
ATOM     70  F   UNL A   1      47.964  28.022  34.871  1.00  0.00    -0.200 F 
ATOM     71  F   UNL A   1      47.681  25.593  36.077  1.00  0.00    -0.200 F 
ENDBRANCH  38  61
ENDBRANCH  12  13
ENDBRANCH   5   7
ENDBRANCH   2   3
ENDBRANCH   1   2
BRANCH   1  72
ATOM     72  C   UNL A   1      33.678  29.159  25.501  1.00  0.00     0.023 C 
BRANCH  72  73
ATOM     73  C   UNL A   1      33.595  27.887  26.342  1.00  0.00     0.116 C 
BRANCH  73  74
ATOM     74  N   UNL A   1      34.092  26.686  25.681  1.00  0.00    -0.352 N 
ATOM     75  C   UNL A   1      33.582  25.976  24.614  1.00  0.00     0.259 C 
ATOM     76  H   UNL A   1      34.927  26.324  26.056  1.00  0.00     0.163 HD
ATOM     77  O   UNL A   1      34.187  24.993  24.199  1.00  0.00    -0.269 OA
BRANCH  75  78
ATOM     78  C   UNL A   1      32.283  26.353  24.025  1.00  0.00     0.130 A 
ATOM     79  C   UNL A   1      31.080  26.003  24.657  1.00  0.00     0.060 A 
ATOM     80  C   UNL A   1      32.212  27.125  22.858  1.00  0.00     0.282 A 
ATOM     81  C   UNL A   1      29.869  26.552  24.196  1.00  0.00     0.015 A 
ATOM     82  C   UNL A   1      31.014  27.713  22.429  1.00  0.00     0.086 A 
ATOM     83  C   UNL A   1      29.843  27.450  23.128  1.00  0.00     0.008 A 
BRANCH  79  84
ATOM     84  C   UNL A   1      31.001  24.963  25.723  1.00  0.00     0.259 C 
ATOM     85  O   UNL A   1      30.788  25.320  26.876  1.00  0.00    -0.269 OA
BRANCH  84  86
ATOM     86  N   UNL A   1      31.301  23.673  25.347  1.00  0.00    -0.308 N 
ATOM     87  C   UNL A   1      31.007  23.108  24.028  1.00  0.00     0.131 C 
ATOM     88  C   UNL A   1      32.280  22.890  25.963  1.00  0.00     0.047 A 
ATOM     89  C   UNL A   1      32.131  22.100  23.725  1.00  0.00     0.059 C 
ATOM     90  C   UNL A   1      32.857  22.034  25.033  1.00  0.00    -0.022 A 
ATOM     91  C   UNL A   1      32.708  22.946  27.277  1.00  0.00     0.026 A 
ATOM     92  C   UNL A   1      33.996  21.322  25.361  1.00  0.00     0.006 A 
ATOM     93  C   UNL A   1      33.836  22.209  27.626  1.00  0.00     0.002 A 
ATOM     94  C   UNL A   1      34.498  21.432  26.663  1.00  0.00     0.000 A 
ENDBRANCH  84  86
ENDBRANCH  79  84
BRANCH  80  95
ATOM     95  N   UNL A   1      33.379  27.290  22.006  1.00  0.00     0.063 N 
ATOM     96  O   UNL A   1      33.653  26.352  21.246  1.00  0.00    -0.258 OA
ATOM     97  O   UNL A   1      34.021  28.342  22.107  1.00  0.00    -0.258 OA
ENDBRANCH  80  95
ENDBRANCH  75  78
ENDBRANCH  73  74
ENDBRANCH  72  73
ENDBRANCH   1  72
TORSDOF 14
ENDMDL
