MODEL 1
REMARK VINA RESULT:     -12.7      0.000      0.000
REMARK SMILES CC[NH+]1CCC(CC(=O)N[C@H](C(=O)NCCCCNC(=O)c2ccc(-c3c4nc(c(-c5c(F)c(F)c(F)c(F)c5F)c5ccc([nH]5)c(-c5c(F)c(F)c(F)c(F)c5F)c5nc(c(-c6c(F)c(F)c(F)c(F)c6F)c6ccc3[nH]6)C=C5)C=C4)cc2)c2ccc(F)cc2F)CC1
REMARK SMILES IDX 15 1 14 2 12 3 13 4 11 6 10 7 8 8 9 9 7 11 6 12 3 13 4 14
REMARK SMILES IDX 94 15 5 17 93 18 2 19 1 20 85 21 86 22 91 23 87 24 90 25
REMARK SMILES IDX 92 26 88 27 89 28 16 29 17 30 18 31 19 32 20 33 21 35 22 36
REMARK SMILES IDX 23 37 84 38 24 39 83 40 25 41 26 42 27 43 77 44 28 45 82 46
REMARK SMILES IDX 76 47 78 48 29 49 81 50 75 51 74 52 30 54 62 55 42 56 61 57
REMARK SMILES IDX 43 58 46 59 60 60 79 61 44 62 45 63 59 65 80 66 47 67 31 68
REMARK SMILES IDX 32 69 40 70 33 71 34 72 38 73 41 74 35 75 36 76 39 77 37 78
REMARK SMILES IDX 63 79 64 80 72 81 65 82 66 83 70 84 73 85 67 86 68 87 71 88
REMARK SMILES IDX 69 89 48 90 49 91 57 92 50 93 51 94 55 95 58 96 52 97 53 98
REMARK SMILES IDX 56 99 54 100
REMARK H PARENT 14 5 10 10 3 16 19 34 78 53 46 64
REMARK Flexibility Score: inf
ROOT
ATOM      1  C   UNL A   1      35.960  23.059  25.353  1.00  0.00     0.116 C 
ENDROOT
BRANCH   1   2
ATOM      2  N   UNL A   1      35.172  22.985  24.143  1.00  0.00    -0.354 N 
ATOM      3  C   UNL A   1      33.942  22.441  23.903  1.00  0.00     0.247 C 
ATOM      4  O   UNL A   1      33.510  22.601  22.755  1.00  0.00    -0.272 OA
ATOM      5  H   UNL A   1      35.595  23.399  23.356  1.00  0.00     0.163 HD
BRANCH   3   6
ATOM      6  C   UNL A   1      33.263  21.457  24.903  1.00  0.00     0.205 C 
BRANCH   6   7
ATOM      7  N   UNL A   1      31.869  21.711  25.279  1.00  0.00    -0.340 N 
ATOM      8  C   UNL A   1      31.318  22.652  26.094  1.00  0.00     0.221 C 
ATOM      9  O   UNL A   1      30.124  22.565  26.378  1.00  0.00    -0.275 OA
ATOM     10  H   UNL A   1      31.219  21.093  24.872  1.00  0.00     0.164 HD
BRANCH   8  11
ATOM     11  C   UNL A   1      32.152  23.819  26.585  1.00  0.00     0.104 C 
BRANCH  11  12
ATOM     12  C   UNL A   1      32.117  25.039  25.655  1.00  0.00     0.009 C 
ATOM     13  N   UNL A   1      32.293  27.948  25.570  1.00  0.00    -0.335 N 
ATOM     14  C   UNL A   1      31.022  27.301  25.247  1.00  0.00     0.262 C 
ATOM     15  C   UNL A   1      33.418  27.158  25.061  1.00  0.00     0.262 C 
ATOM     16  H   UNL A   1      32.388  27.973  26.586  1.00  0.00     0.348 HD
ATOM     17  C   UNL A   1      30.956  25.978  25.995  1.00  0.00     0.066 C 
ATOM     18  C   UNL A   1      33.456  25.793  25.753  1.00  0.00     0.066 C 
BRANCH  13  19
ATOM     19  C   UNL A   1      32.328  29.355  25.164  1.00  0.00     0.258 C 
ATOM     20  C   UNL A   1      32.153  30.382  26.275  1.00  0.00     0.071 C 
ENDBRANCH  13  19
ENDBRANCH  11  12
ENDBRANCH   8  11
ENDBRANCH   6   7
BRANCH   6  21
ATOM     21  C   UNL A   1      33.413  20.004  24.457  1.00  0.00     0.020 A 
ATOM     22  C   UNL A   1      32.370  19.356  23.771  1.00  0.00     0.012 A 
ATOM     23  C   UNL A   1      34.585  19.276  24.715  1.00  0.00     0.131 A 
ATOM     24  C   UNL A   1      32.529  18.046  23.313  1.00  0.00     0.040 A 
ATOM     25  C   UNL A   1      34.755  17.975  24.251  1.00  0.00     0.078 A 
ATOM     26  F   UNL A   1      35.589  19.843  25.400  1.00  0.00    -0.206 F 
ATOM     27  C   UNL A   1      33.725  17.374  23.547  1.00  0.00     0.126 A 
ATOM     28  F   UNL A   1      33.879  16.126  23.086  1.00  0.00    -0.207 F 
ENDBRANCH   6  21
ENDBRANCH   3   6
ENDBRANCH   1   2
BRANCH   1  29
ATOM     29  C   UNL A   1      37.457  22.883  25.111  1.00  0.00     0.023 C 
BRANCH  29  30
ATOM     30  C   UNL A   1      37.960  21.443  25.156  1.00  0.00     0.023 C 
BRANCH  30  31
ATOM     31  C   UNL A   1      39.105  21.181  26.126  1.00  0.00     0.116 C 
BRANCH  31  32
ATOM     32  N   UNL A   1      39.778  19.904  25.923  1.00  0.00    -0.352 N 
ATOM     33  C   UNL A   1      41.122  19.628  26.040  1.00  0.00     0.251 C 
ATOM     34  H   UNL A   1      39.201  19.147  25.674  1.00  0.00     0.163 HD
ATOM     35  O   UNL A   1      41.566  18.512  25.829  1.00  0.00    -0.269 OA
BRANCH  33  36
ATOM     36  C   UNL A   1      42.023  20.750  26.359  1.00  0.00     0.039 A 
ATOM     37  C   UNL A   1      42.475  21.553  25.311  1.00  0.00     0.014 A 
ATOM     38  C   UNL A   1      42.260  21.095  27.692  1.00  0.00     0.014 A 
ATOM     39  C   UNL A   1      43.076  22.775  25.604  1.00  0.00     0.010 A 
ATOM     40  C   UNL A   1      42.794  22.344  27.979  1.00  0.00     0.010 A 
ATOM     41  C   UNL A   1      43.179  23.205  26.936  1.00  0.00    -0.014 A 
BRANCH  41  42
ATOM     42  C   UNL A   1      43.635  24.575  27.270  1.00  0.00     0.031 A 
ATOM     43  C   UNL A   1      42.652  25.584  27.781  1.00  0.00     0.074 A 
ATOM     44  C   UNL A   1      44.909  24.930  27.014  1.00  0.00     0.049 A 
ATOM     45  N   UNL A   1      42.820  26.861  28.005  1.00  0.00    -0.248 NA
ATOM     46  C   UNL A   1      41.288  25.099  28.046  1.00  0.00     0.031 C 
ATOM     47  C   UNL A   1      45.944  24.048  26.469  1.00  0.00     0.029 A 
ATOM     48  N   UNL A   1      45.549  26.137  27.160  1.00  0.00    -0.354 N 
ATOM     49  C   UNL A   1      41.584  27.334  28.419  1.00  0.00     0.074 A 
ATOM     50  C   UNL A   1      40.662  26.220  28.371  1.00  0.00     0.031 C 
ATOM     51  C   UNL A   1      47.090  24.737  26.341  1.00  0.00     0.029 A 
ATOM     52  C   UNL A   1      46.861  26.118  26.754  1.00  0.00     0.049 A 
ATOM     53  H   UNL A   1      45.108  26.940  27.522  1.00  0.00     0.167 HD
ATOM     54  C   UNL A   1      41.255  28.583  28.824  1.00  0.00     0.037 A 
ATOM     55  C   UNL A   1      47.771  27.110  26.703  1.00  0.00     0.037 A 
ATOM     56  C   UNL A   1      42.183  29.678  28.904  1.00  0.00     0.049 A 
ATOM     57  C   UNL A   1      47.372  28.492  27.142  1.00  0.00     0.074 A 
ATOM     58  C   UNL A   1      41.969  30.957  29.384  1.00  0.00     0.029 A 
ATOM     59  N   UNL A   1      43.505  29.620  28.487  1.00  0.00    -0.354 N 
ATOM     60  N   UNL A   1      46.218  28.913  27.600  1.00  0.00    -0.248 NA
ATOM     61  C   UNL A   1      48.399  29.539  27.050  1.00  0.00     0.031 C 
ATOM     62  C   UNL A   1      43.152  31.687  29.222  1.00  0.00     0.029 A 
ATOM     63  C   UNL A   1      44.112  30.851  28.673  1.00  0.00     0.049 A 
ATOM     64  H   UNL A   1      43.946  28.823  28.116  1.00  0.00     0.167 HD
ATOM     65  C   UNL A   1      46.381  30.265  27.863  1.00  0.00     0.074 A 
ATOM     66  C   UNL A   1      47.753  30.592  27.532  1.00  0.00     0.031 C 
ATOM     67  C   UNL A   1      45.477  31.156  28.332  1.00  0.00     0.037 A 
BRANCH  54  68
ATOM     68  C   UNL A   1      39.832  28.826  29.227  1.00  0.00     0.064 A 
ATOM     69  C   UNL A   1      39.405  28.650  30.551  1.00  0.00     0.173 A 
ATOM     70  C   UNL A   1      38.892  29.275  28.286  1.00  0.00     0.173 A 
ATOM     71  F   UNL A   1      40.263  28.208  31.483  1.00  0.00    -0.203 F 
ATOM     72  C   UNL A   1      38.084  28.891  30.916  1.00  0.00     0.198 A 
ATOM     73  C   UNL A   1      37.578  29.539  28.659  1.00  0.00     0.198 A 
ATOM     74  F   UNL A   1      39.252  29.461  27.007  1.00  0.00    -0.203 F 
ATOM     75  F   UNL A   1      37.688  28.674  32.177  1.00  0.00    -0.200 F 
ATOM     76  C   UNL A   1      37.174  29.342  29.971  1.00  0.00     0.200 A 
ATOM     77  F   UNL A   1      36.701  29.984  27.749  1.00  0.00    -0.200 F 
ATOM     78  F   UNL A   1      35.903  29.580  30.325  1.00  0.00    -0.200 F 
ENDBRANCH  54  68
BRANCH  55  79
ATOM     79  C   UNL A   1      49.149  26.833  26.222  1.00  0.00     0.064 A 
ATOM     80  C   UNL A   1      49.481  26.991  24.869  1.00  0.00     0.173 A 
ATOM     81  C   UNL A   1      50.156  26.396  27.095  1.00  0.00     0.173 A 
ATOM     82  F   UNL A   1      48.545  27.385  23.992  1.00  0.00    -0.203 F 
ATOM     83  C   UNL A   1      50.764  26.709  24.404  1.00  0.00     0.198 A 
ATOM     84  C   UNL A   1      51.445  26.137  26.633  1.00  0.00     0.198 A 
ATOM     85  F   UNL A   1      49.889  26.231  28.398  1.00  0.00    -0.203 F 
ATOM     86  F   UNL A   1      51.043  26.830  23.099  1.00  0.00    -0.200 F 
ATOM     87  C   UNL A   1      51.746  26.287  25.288  1.00  0.00     0.200 A 
ATOM     88  F   UNL A   1      52.395  25.741  27.492  1.00  0.00    -0.200 F 
ATOM     89  F   UNL A   1      52.981  26.017  24.841  1.00  0.00    -0.200 F 
ENDBRANCH  55  79
BRANCH  67  90
ATOM     90  C   UNL A   1      45.940  32.569  28.520  1.00  0.00     0.064 A 
ATOM     91  C   UNL A   1      46.553  32.980  29.713  1.00  0.00     0.173 A 
ATOM     92  C   UNL A   1      45.822  33.504  27.482  1.00  0.00     0.173 A 
ATOM     93  F   UNL A   1      46.671  32.125  30.740  1.00  0.00    -0.203 F 
ATOM     94  C   UNL A   1      47.019  34.283  29.863  1.00  0.00     0.198 A 
ATOM     95  C   UNL A   1      46.312  34.798  27.626  1.00  0.00     0.198 A 
ATOM     96  F   UNL A   1      45.247  33.155  26.321  1.00  0.00    -0.203 F 
ATOM     97  F   UNL A   1      47.570  34.665  31.023  1.00  0.00    -0.200 F 
ATOM     98  C   UNL A   1      46.906  35.188  28.817  1.00  0.00     0.200 A 
ATOM     99  F   UNL A   1      46.211  35.669  26.613  1.00  0.00    -0.200 F 
ATOM    100  F   UNL A   1      47.366  36.438  28.961  1.00  0.00    -0.200 F 
ENDBRANCH  67  90
ENDBRANCH  41  42
ENDBRANCH  33  36
ENDBRANCH  31  32
ENDBRANCH  30  31
ENDBRANCH  29  30
ENDBRANCH   1  29
TORSDOF 16
ENDMDL
MODEL 2
REMARK VINA RESULT:     -12.6      4.883     10.600
REMARK SMILES CC[NH+]1CCC(CC(=O)N[C@H](C(=O)NCCCCNC(=O)c2ccc(-c3c4nc(c(-c5c(F)c(F)c(F)c(F)c5F)c5ccc([nH]5)c(-c5c(F)c(F)c(F)c(F)c5F)c5nc(c(-c6c(F)c(F)c(F)c(F)c6F)c6ccc3[nH]6)C=C5)C=C4)cc2)c2ccc(F)cc2F)CC1
REMARK SMILES IDX 15 1 14 2 12 3 13 4 11 6 10 7 8 8 9 9 7 11 6 12 3 13 4 14
REMARK SMILES IDX 94 15 5 17 93 18 2 19 1 20 85 21 86 22 91 23 87 24 90 25
REMARK SMILES IDX 92 26 88 27 89 28 16 29 17 30 18 31 19 32 20 33 21 35 22 36
REMARK SMILES IDX 23 37 84 38 24 39 83 40 25 41 26 42 27 43 77 44 28 45 82 46
REMARK SMILES IDX 76 47 78 48 29 49 81 50 75 51 74 52 30 54 62 55 42 56 61 57
REMARK SMILES IDX 43 58 46 59 60 60 79 61 44 62 45 63 59 65 80 66 47 67 31 68
REMARK SMILES IDX 32 69 40 70 33 71 34 72 38 73 41 74 35 75 36 76 39 77 37 78
REMARK SMILES IDX 63 79 64 80 72 81 65 82 66 83 70 84 73 85 67 86 68 87 71 88
REMARK SMILES IDX 69 89 48 90 49 91 57 92 50 93 51 94 55 95 58 96 52 97 53 98
REMARK SMILES IDX 56 99 54 100
REMARK H PARENT 14 5 10 10 3 16 19 34 78 53 46 64
REMARK Flexibility Score: inf
ROOT
ATOM      1  C   UNL A   1      32.500  27.164  26.401  1.00  0.00     0.116 C 
ENDROOT
BRANCH   1   2
ATOM      2  N   UNL A   1      31.546  26.193  25.916  1.00  0.00    -0.354 N 
ATOM      3  C   UNL A   1      31.159  25.869  24.645  1.00  0.00     0.247 C 
ATOM      4  O   UNL A   1      30.353  24.934  24.563  1.00  0.00    -0.272 OA
ATOM      5  H   UNL A   1      31.097  25.674  26.623  1.00  0.00     0.163 HD
BRANCH   3   6
ATOM      6  C   UNL A   1      31.482  26.781  23.424  1.00  0.00     0.205 C 
BRANCH   6   7
ATOM      7  N   UNL A   1      31.896  26.137  22.175  1.00  0.00    -0.340 N 
ATOM      8  C   UNL A   1      33.003  25.404  21.869  1.00  0.00     0.221 C 
ATOM      9  O   UNL A   1      33.203  25.096  20.694  1.00  0.00    -0.275 OA
ATOM     10  H   UNL A   1      31.266  26.254  21.427  1.00  0.00     0.164 HD
BRANCH   8  11
ATOM     11  C   UNL A   1      33.929  24.925  22.968  1.00  0.00     0.104 C 
BRANCH  11  12
ATOM     12  C   UNL A   1      34.035  23.397  23.065  1.00  0.00     0.009 C 
ATOM     13  N   UNL A   1      33.337  21.082  24.695  1.00  0.00    -0.335 N 
ATOM     14  C   UNL A   1      34.743  21.463  24.561  1.00  0.00     0.262 C 
ATOM     15  C   UNL A   1      32.622  21.298  23.434  1.00  0.00     0.262 C 
ATOM     16  H   UNL A   1      32.907  21.697  25.386  1.00  0.00     0.348 HD
ATOM     17  C   UNL A   1      34.812  22.961  24.311  1.00  0.00     0.066 C 
ATOM     18  C   UNL A   1      32.621  22.788  23.081  1.00  0.00     0.066 C 
BRANCH  13  19
ATOM     19  C   UNL A   1      33.169  19.736  25.247  1.00  0.00     0.258 C 
ATOM     20  C   UNL A   1      33.724  18.590  24.412  1.00  0.00     0.071 C 
ENDBRANCH  13  19
ENDBRANCH  11  12
ENDBRANCH   8  11
ENDBRANCH   6   7
BRANCH   6  21
ATOM     21  C   UNL A   1      30.350  27.766  23.138  1.00  0.00     0.020 A 
ATOM     22  C   UNL A   1      29.016  27.421  23.418  1.00  0.00     0.012 A 
ATOM     23  C   UNL A   1      30.603  29.034  22.592  1.00  0.00     0.131 A 
ATOM     24  C   UNL A   1      27.987  28.343  23.210  1.00  0.00     0.040 A 
ATOM     25  C   UNL A   1      29.585  29.961  22.394  1.00  0.00     0.078 A 
ATOM     26  F   UNL A   1      31.856  29.388  22.274  1.00  0.00    -0.206 F 
ATOM     27  C   UNL A   1      28.284  29.607  22.712  1.00  0.00     0.126 A 
ATOM     28  F   UNL A   1      27.296  30.494  22.535  1.00  0.00    -0.207 F 
ENDBRANCH   6  21
ENDBRANCH   3   6
ENDBRANCH   1   2
BRANCH   1  29
ATOM     29  C   UNL A   1      31.896  28.172  27.375  1.00  0.00     0.023 C 
BRANCH  29  30
ATOM     30  C   UNL A   1      31.524  29.521  26.769  1.00  0.00     0.023 C 
BRANCH  30  31
ATOM     31  C   UNL A   1      32.695  30.449  26.470  1.00  0.00     0.116 C 
BRANCH  31  32
ATOM     32  N   UNL A   1      32.505  31.817  26.934  1.00  0.00    -0.352 N 
ATOM     33  C   UNL A   1      33.410  32.621  27.592  1.00  0.00     0.251 C 
ATOM     34  H   UNL A   1      31.624  32.217  26.754  1.00  0.00     0.163 HD
ATOM     35  O   UNL A   1      33.122  33.753  27.943  1.00  0.00    -0.269 OA
BRANCH  33  36
ATOM     36  C   UNL A   1      34.721  32.038  27.927  1.00  0.00     0.039 A 
ATOM     37  C   UNL A   1      35.827  32.888  27.983  1.00  0.00     0.014 A 
ATOM     38  C   UNL A   1      34.805  30.709  28.350  1.00  0.00     0.014 A 
ATOM     39  C   UNL A   1      37.003  32.432  28.574  1.00  0.00     0.010 A 
ATOM     40  C   UNL A   1      35.954  30.282  29.002  1.00  0.00     0.010 A 
ATOM     41  C   UNL A   1      37.051  31.150  29.145  1.00  0.00    -0.014 A 
BRANCH  41  42
ATOM     42  C   UNL A   1      38.215  30.707  29.947  1.00  0.00     0.031 A 
ATOM     43  C   UNL A   1      39.179  29.713  29.375  1.00  0.00     0.074 A 
ATOM     44  C   UNL A   1      38.341  31.125  31.222  1.00  0.00     0.049 A 
ATOM     45  N   UNL A   1      40.180  29.103  29.955  1.00  0.00    -0.248 NA
ATOM     46  C   UNL A   1      38.972  29.328  27.970  1.00  0.00     0.031 C 
ATOM     47  C   UNL A   1      37.436  32.054  31.904  1.00  0.00     0.029 A 
ATOM     48  N   UNL A   1      39.271  30.808  32.181  1.00  0.00    -0.354 N 
ATOM     49  C   UNL A   1      40.708  28.253  28.995  1.00  0.00     0.074 A 
ATOM     50  C   UNL A   1      39.891  28.388  27.809  1.00  0.00     0.031 C 
ATOM     51  C   UNL A   1      37.863  32.242  33.163  1.00  0.00     0.029 A 
ATOM     52  C   UNL A   1      39.045  31.417  33.392  1.00  0.00     0.049 A 
ATOM     53  H   UNL A   1      40.029  30.201  32.016  1.00  0.00     0.167 HD
ATOM     54  C   UNL A   1      41.792  27.448  29.091  1.00  0.00     0.037 A 
ATOM     55  C   UNL A   1      39.707  31.306  34.559  1.00  0.00     0.037 A 
ATOM     56  C   UNL A   1      42.621  27.345  30.260  1.00  0.00     0.049 A 
ATOM     57  C   UNL A   1      40.897  30.390  34.641  1.00  0.00     0.074 A 
ATOM     58  C   UNL A   1      43.791  26.626  30.427  1.00  0.00     0.029 A 
ATOM     59  N   UNL A   1      42.363  27.979  31.467  1.00  0.00    -0.354 N 
ATOM     60  N   UNL A   1      41.431  29.644  33.705  1.00  0.00    -0.248 NA
ATOM     61  C   UNL A   1      41.572  30.294  35.943  1.00  0.00     0.031 C 
ATOM     62  C   UNL A   1      44.220  26.793  31.749  1.00  0.00     0.029 A 
ATOM     63  C   UNL A   1      43.337  27.645  32.393  1.00  0.00     0.049 A 
ATOM     64  H   UNL A   1      41.602  28.579  31.638  1.00  0.00     0.167 HD
ATOM     65  C   UNL A   1      42.509  29.002  34.297  1.00  0.00     0.074 A 
ATOM     66  C   UNL A   1      42.566  29.461  35.670  1.00  0.00     0.031 C 
ATOM     67  C   UNL A   1      43.372  28.110  33.756  1.00  0.00     0.037 A 
BRANCH  54  68
ATOM     68  C   UNL A   1      42.151  26.627  27.889  1.00  0.00     0.064 A 
ATOM     69  C   UNL A   1      43.088  27.078  26.948  1.00  0.00     0.173 A 
ATOM     70  C   UNL A   1      41.579  25.361  27.695  1.00  0.00     0.173 A 
ATOM     71  F   UNL A   1      43.651  28.288  27.082  1.00  0.00    -0.203 F 
ATOM     72  C   UNL A   1      43.422  26.301  25.842  1.00  0.00     0.198 A 
ATOM     73  C   UNL A   1      41.934  24.576  26.603  1.00  0.00     0.198 A 
ATOM     74  F   UNL A   1      40.679  24.884  28.569  1.00  0.00    -0.203 F 
ATOM     75  F   UNL A   1      44.287  26.769  24.933  1.00  0.00    -0.200 F 
ATOM     76  C   UNL A   1      42.850  25.048  25.675  1.00  0.00     0.200 A 
ATOM     77  F   UNL A   1      41.389  23.362  26.446  1.00  0.00    -0.200 F 
ATOM     78  F   UNL A   1      43.179  24.298  24.614  1.00  0.00    -0.200 F 
ENDBRANCH  54  68
BRANCH  55  79
ATOM     79  C   UNL A   1      39.263  32.084  35.745  1.00  0.00     0.064 A 
ATOM     80  C   UNL A   1      39.720  33.392  35.956  1.00  0.00     0.173 A 
ATOM     81  C   UNL A   1      38.386  31.537  36.693  1.00  0.00     0.173 A 
ATOM     82  F   UNL A   1      40.578  33.949  35.089  1.00  0.00    -0.203 F 
ATOM     83  C   UNL A   1      39.330  34.119  37.079  1.00  0.00     0.198 A 
ATOM     84  C   UNL A   1      37.977  32.274  37.803  1.00  0.00     0.198 A 
ATOM     85  F   UNL A   1      37.919  30.290  36.535  1.00  0.00    -0.203 F 
ATOM     86  F   UNL A   1      39.814  35.352  37.277  1.00  0.00    -0.200 F 
ATOM     87  C   UNL A   1      38.454  33.560  37.999  1.00  0.00     0.200 A 
ATOM     88  F   UNL A   1      37.122  31.735  38.683  1.00  0.00    -0.200 F 
ATOM     89  F   UNL A   1      38.078  34.260  39.078  1.00  0.00    -0.200 F 
ENDBRANCH  55  79
BRANCH  67  90
ATOM     90  C   UNL A   1      44.453  27.574  34.644  1.00  0.00     0.064 A 
ATOM     91  C   UNL A   1      44.305  26.348  35.310  1.00  0.00     0.173 A 
ATOM     92  C   UNL A   1      45.666  28.263  34.788  1.00  0.00     0.173 A 
ATOM     93  F   UNL A   1      43.156  25.663  35.216  1.00  0.00    -0.203 F 
ATOM     94  C   UNL A   1      45.333  25.838  36.099  1.00  0.00     0.198 A 
ATOM     95  C   UNL A   1      46.699  27.738  35.557  1.00  0.00     0.198 A 
ATOM     96  F   UNL A   1      45.853  29.437  34.167  1.00  0.00    -0.203 F 
ATOM     97  F   UNL A   1      45.159  24.681  36.753  1.00  0.00    -0.200 F 
ATOM     98  C   UNL A   1      46.531  26.528  36.214  1.00  0.00     0.200 A 
ATOM     99  F   UNL A   1      47.859  28.399  35.661  1.00  0.00    -0.200 F 
ATOM    100  F   UNL A   1      47.521  26.028  36.965  1.00  0.00    -0.200 F 
ENDBRANCH  67  90
ENDBRANCH  41  42
ENDBRANCH  33  36
ENDBRANCH  31  32
ENDBRANCH  30  31
ENDBRANCH  29  30
ENDBRANCH   1  29
TORSDOF 16
ENDMDL
MODEL 3
REMARK VINA RESULT:     -12.5      4.765      8.851
REMARK SMILES CC[NH+]1CCC(CC(=O)N[C@H](C(=O)NCCCCNC(=O)c2ccc(-c3c4nc(c(-c5c(F)c(F)c(F)c(F)c5F)c5ccc([nH]5)c(-c5c(F)c(F)c(F)c(F)c5F)c5nc(c(-c6c(F)c(F)c(F)c(F)c6F)c6ccc3[nH]6)C=C5)C=C4)cc2)c2ccc(F)cc2F)CC1
REMARK SMILES IDX 15 1 14 2 12 3 13 4 11 6 10 7 8 8 9 9 7 11 6 12 3 13 4 14
REMARK SMILES IDX 94 15 5 17 93 18 2 19 1 20 85 21 86 22 91 23 87 24 90 25
REMARK SMILES IDX 92 26 88 27 89 28 16 29 17 30 18 31 19 32 20 33 21 35 22 36
REMARK SMILES IDX 23 37 84 38 24 39 83 40 25 41 26 42 27 43 77 44 28 45 82 46
REMARK SMILES IDX 76 47 78 48 29 49 81 50 75 51 74 52 30 54 62 55 42 56 61 57
REMARK SMILES IDX 43 58 46 59 60 60 79 61 44 62 45 63 59 65 80 66 47 67 31 68
REMARK SMILES IDX 32 69 40 70 33 71 34 72 38 73 41 74 35 75 36 76 39 77 37 78
REMARK SMILES IDX 63 79 64 80 72 81 65 82 66 83 70 84 73 85 67 86 68 87 71 88
REMARK SMILES IDX 69 89 48 90 49 91 57 92 50 93 51 94 55 95 58 96 52 97 53 98
REMARK SMILES IDX 56 99 54 100
REMARK H PARENT 14 5 10 10 3 16 19 34 78 53 46 64
REMARK Flexibility Score: inf
ROOT
ATOM      1  C   UNL A   1      32.398  27.026  26.515  1.00  0.00     0.116 C 
ENDROOT
BRANCH   1   2
ATOM      2  N   UNL A   1      31.447  26.074  25.986  1.00  0.00    -0.354 N 
ATOM      3  C   UNL A   1      31.089  25.780  24.700  1.00  0.00     0.247 C 
ATOM      4  O   UNL A   1      30.278  24.854  24.578  1.00  0.00    -0.272 OA
ATOM      5  H   UNL A   1      30.977  25.545  26.670  1.00  0.00     0.163 HD
BRANCH   3   6
ATOM      6  C   UNL A   1      31.449  26.715  23.507  1.00  0.00     0.205 C 
BRANCH   6   7
ATOM      7  N   UNL A   1      31.911  26.094  22.261  1.00  0.00    -0.340 N 
ATOM      8  C   UNL A   1      33.021  25.353  21.987  1.00  0.00     0.221 C 
ATOM      9  O   UNL A   1      33.270  25.069  20.816  1.00  0.00    -0.275 OA
ATOM     10  H   UNL A   1      31.317  26.237  21.490  1.00  0.00     0.164 HD
BRANCH   8  11
ATOM     11  C   UNL A   1      33.892  24.836  23.115  1.00  0.00     0.104 C 
BRANCH  11  12
ATOM     12  C   UNL A   1      33.989  23.306  23.170  1.00  0.00     0.009 C 
ATOM     13  N   UNL A   1      33.243  20.947  24.713  1.00  0.00    -0.335 N 
ATOM     14  C   UNL A   1      34.653  21.324  24.623  1.00  0.00     0.262 C 
ATOM     15  C   UNL A   1      32.559  21.204  23.443  1.00  0.00     0.262 C 
ATOM     16  H   UNL A   1      32.799  21.543  25.412  1.00  0.00     0.348 HD
ATOM     17  C   UNL A   1      34.734  22.829  24.420  1.00  0.00     0.066 C 
ATOM     18  C   UNL A   1      32.572  22.704  23.134  1.00  0.00     0.066 C 
BRANCH  13  19
ATOM     19  C   UNL A   1      33.056  19.586  25.220  1.00  0.00     0.258 C 
ATOM     20  C   UNL A   1      33.446  18.455  24.278  1.00  0.00     0.071 C 
ENDBRANCH  13  19
ENDBRANCH  11  12
ENDBRANCH   8  11
ENDBRANCH   6   7
BRANCH   6  21
ATOM     21  C   UNL A   1      30.323  27.698  23.197  1.00  0.00     0.020 A 
ATOM     22  C   UNL A   1      28.983  27.348  23.441  1.00  0.00     0.012 A 
ATOM     23  C   UNL A   1      30.586  28.970  22.666  1.00  0.00     0.131 A 
ATOM     24  C   UNL A   1      27.957  28.269  23.212  1.00  0.00     0.040 A 
ATOM     25  C   UNL A   1      29.571  29.896  22.447  1.00  0.00     0.078 A 
ATOM     26  F   UNL A   1      31.847  29.330  22.382  1.00  0.00    -0.206 F 
ATOM     27  C   UNL A   1      28.264  29.537  22.729  1.00  0.00     0.126 A 
ATOM     28  F   UNL A   1      27.278  30.422  22.532  1.00  0.00    -0.207 F 
ENDBRANCH   6  21
ENDBRANCH   3   6
ENDBRANCH   1   2
BRANCH   1  29
ATOM     29  C   UNL A   1      31.740  28.247  27.151  1.00  0.00     0.023 C 
BRANCH  29  30
ATOM     30  C   UNL A   1      31.594  29.460  26.238  1.00  0.00     0.023 C 
BRANCH  30  31
ATOM     31  C   UNL A   1      32.814  30.368  26.157  1.00  0.00     0.116 C 
BRANCH  31  32
ATOM     32  N   UNL A   1      32.640  31.661  26.807  1.00  0.00    -0.352 N 
ATOM     33  C   UNL A   1      33.528  32.324  27.626  1.00  0.00     0.251 C 
ATOM     34  H   UNL A   1      31.784  32.117  26.639  1.00  0.00     0.163 HD
ATOM     35  O   UNL A   1      33.255  33.403  28.123  1.00  0.00    -0.269 OA
BRANCH  33  36
ATOM     36  C   UNL A   1      34.797  31.646  27.943  1.00  0.00     0.039 A 
ATOM     37  C   UNL A   1      35.945  32.427  28.087  1.00  0.00     0.014 A 
ATOM     38  C   UNL A   1      34.800  30.286  28.266  1.00  0.00     0.014 A 
ATOM     39  C   UNL A   1      37.080  31.864  28.667  1.00  0.00     0.010 A 
ATOM     40  C   UNL A   1      35.908  29.750  28.908  1.00  0.00     0.010 A 
ATOM     41  C   UNL A   1      37.045  30.543  29.140  1.00  0.00    -0.014 A 
BRANCH  41  42
ATOM     42  C   UNL A   1      38.164  29.978  29.930  1.00  0.00     0.031 A 
ATOM     43  C   UNL A   1      38.391  30.440  31.337  1.00  0.00     0.074 A 
ATOM     44  C   UNL A   1      39.028  29.128  29.341  1.00  0.00     0.049 A 
ATOM     45  N   UNL A   1      39.382  30.170  32.146  1.00  0.00    -0.248 NA
ATOM     46  C   UNL A   1      37.384  31.355  31.899  1.00  0.00     0.031 C 
ATOM     47  C   UNL A   1      38.938  28.645  27.961  1.00  0.00     0.029 A 
ATOM     48  N   UNL A   1      40.168  28.533  29.825  1.00  0.00    -0.354 N 
ATOM     49  C   UNL A   1      39.128  30.892  33.303  1.00  0.00     0.074 A 
ATOM     50  C   UNL A   1      37.916  31.650  33.076  1.00  0.00     0.031 C 
ATOM     51  C   UNL A   1      39.968  27.819  27.714  1.00  0.00     0.029 A 
ATOM     52  C   UNL A   1      40.813  27.746  28.902  1.00  0.00     0.049 A 
ATOM     53  H   UNL A   1      40.492  28.659  30.746  1.00  0.00     0.167 HD
ATOM     54  C   UNL A   1      39.834  30.903  34.457  1.00  0.00     0.037 A 
ATOM     55  C   UNL A   1      41.967  27.058  28.999  1.00  0.00     0.037 A 
ATOM     56  C   UNL A   1      41.017  30.121  34.689  1.00  0.00     0.049 A 
ATOM     57  C   UNL A   1      42.739  27.104  30.288  1.00  0.00     0.074 A 
ATOM     58  C   UNL A   1      41.754  29.996  35.853  1.00  0.00     0.029 A 
ATOM     59  N   UNL A   1      41.639  29.333  33.732  1.00  0.00    -0.354 N 
ATOM     60  N   UNL A   1      42.453  27.734  31.401  1.00  0.00    -0.248 NA
ATOM     61  C   UNL A   1      44.000  26.349  30.333  1.00  0.00     0.031 C 
ATOM     62  C   UNL A   1      42.846  29.161  35.589  1.00  0.00     0.029 A 
ATOM     63  C   UNL A   1      42.768  28.739  34.271  1.00  0.00     0.049 A 
ATOM     64  H   UNL A   1      41.324  29.212  32.807  1.00  0.00     0.167 HD
ATOM     65  C   UNL A   1      43.485  27.444  32.281  1.00  0.00     0.074 A 
ATOM     66  C   UNL A   1      44.397  26.564  31.580  1.00  0.00     0.031 C 
ATOM     67  C   UNL A   1      43.665  27.870  33.554  1.00  0.00     0.037 A 
BRANCH  54  68
ATOM     68  C   UNL A   1      39.332  31.780  35.565  1.00  0.00     0.064 A 
ATOM     69  C   UNL A   1      38.395  31.316  36.499  1.00  0.00     0.173 A 
ATOM     70  C   UNL A   1      39.820  33.087  35.714  1.00  0.00     0.173 A 
ATOM     71  F   UNL A   1      37.888  30.079  36.388  1.00  0.00    -0.203 F 
ATOM     72  C   UNL A   1      37.946  32.136  37.530  1.00  0.00     0.198 A 
ATOM     73  C   UNL A   1      39.389  33.895  36.762  1.00  0.00     0.198 A 
ATOM     74  F   UNL A   1      40.720  33.577  34.848  1.00  0.00    -0.203 F 
ATOM     75  F   UNL A   1      37.019  31.686  38.386  1.00  0.00    -0.200 F 
ATOM     76  C   UNL A   1      38.449  33.422  37.665  1.00  0.00     0.200 A 
ATOM     77  F   UNL A   1      39.882  35.134  36.897  1.00  0.00    -0.200 F 
ATOM     78  F   UNL A   1      38.021  34.207  38.663  1.00  0.00    -0.200 F 
ENDBRANCH  54  68
BRANCH  55  79
ATOM     79  C   UNL A   1      42.461  26.265  27.844  1.00  0.00     0.064 A 
ATOM     80  C   UNL A   1      42.023  24.950  27.637  1.00  0.00     0.173 A 
ATOM     81  C   UNL A   1      43.386  26.797  26.933  1.00  0.00     0.173 A 
ATOM     82  F   UNL A   1      41.156  24.391  28.494  1.00  0.00    -0.203 F 
ATOM     83  C   UNL A   1      42.501  24.191  26.571  1.00  0.00     0.198 A 
ATOM     84  C   UNL A   1      43.846  26.044  25.854  1.00  0.00     0.198 A 
ATOM     85  F   UNL A   1      43.835  28.051  27.086  1.00  0.00    -0.203 F 
ATOM     86  F   UNL A   1      42.096  22.923  26.420  1.00  0.00    -0.200 F 
ATOM     87  C   UNL A   1      43.409  24.740  25.678  1.00  0.00     0.200 A 
ATOM     88  F   UNL A   1      44.714  26.583  24.986  1.00  0.00    -0.200 F 
ATOM     89  F   UNL A   1      43.868  24.010  24.652  1.00  0.00    -0.200 F 
ENDBRANCH  55  79
BRANCH  67  90
ATOM     90  C   UNL A   1      44.888  27.389  34.272  1.00  0.00     0.064 A 
ATOM     91  C   UNL A   1      46.073  28.140  34.273  1.00  0.00     0.173 A 
ATOM     92  C   UNL A   1      44.860  26.197  35.011  1.00  0.00     0.173 A 
ATOM     93  F   UNL A   1      46.152  29.277  33.567  1.00  0.00    -0.203 F 
ATOM     94  C   UNL A   1      47.191  27.705  34.980  1.00  0.00     0.198 A 
ATOM     95  C   UNL A   1      45.972  25.779  35.736  1.00  0.00     0.198 A 
ATOM     96  F   UNL A   1      43.748  25.448  35.043  1.00  0.00    -0.203 F 
ATOM     97  F   UNL A   1      48.324  28.420  34.940  1.00  0.00    -0.200 F 
ATOM     98  C   UNL A   1      47.137  26.531  35.717  1.00  0.00     0.200 A 
ATOM     99  F   UNL A   1      45.916  24.651  36.455  1.00  0.00    -0.200 F 
ATOM    100  F   UNL A   1      48.211  26.122  36.405  1.00  0.00    -0.200 F 
ENDBRANCH  67  90
ENDBRANCH  41  42
ENDBRANCH  33  36
ENDBRANCH  31  32
ENDBRANCH  30  31
ENDBRANCH  29  30
ENDBRANCH   1  29
TORSDOF 16
ENDMDL
