MODEL 1
REMARK VINA RESULT:     -12.9      0.000      0.000
REMARK SMILES O=C(NCCCCNC(=O)c1cc2cnc(Cl)cc2[nH]1)c1ccc(-c2c3nc(c(-c4c(F)c(F)c(F)c(F)c4F)c4ccc([nH]4)c(-c4c(F)c(F)c(F)c(F)c4F)c4nc(c(-c5c(F)c(F)c(F)c(F)c5F)c5ccc2[nH]5)C=C4)C=C3)cc1
REMARK SMILES IDX 4 1 3 2 1 3 2 4 21 6 22 7 83 8 23 9 82 10 24 11 25 12 26 13
REMARK SMILES IDX 76 14 27 15 81 16 75 17 77 18 28 19 80 20 74 21 73 22 29 24
REMARK SMILES IDX 61 25 41 26 60 27 42 28 45 29 59 30 78 31 43 32 44 33 58 35
REMARK SMILES IDX 79 36 46 37 30 38 31 39 39 40 32 41 33 42 37 43 40 44 34 45
REMARK SMILES IDX 35 46 38 47 36 48 62 49 63 50 71 51 64 52 65 53 69 54 72 55
REMARK SMILES IDX 66 56 67 57 70 58 68 59 47 60 48 61 56 62 49 63 50 64 54 65
REMARK SMILES IDX 57 66 51 67 52 68 55 69 53 70 5 71 6 72 7 73 8 74 9 75 10 77
REMARK SMILES IDX 11 78 12 79 20 80 13 81 19 82 14 84 18 85 15 86 16 87 17 88
REMARK H PARENT 3 5 77 23 45 34 8 76 20 83
REMARK Flexibility Score: inf
ROOT
ATOM      1  C   UNL A   1      35.145  33.592  28.837  1.00  0.00     0.116 C 
ENDROOT
BRANCH   1   2
ATOM      2  N   UNL A   1      34.416  32.374  28.437  1.00  0.00    -0.352 N 
ATOM      3  O   UNL A   1      34.262  30.397  27.275  1.00  0.00    -0.269 OA
ATOM      4  C   UNL A   1      34.951  31.204  27.883  1.00  0.00     0.251 C 
ATOM      5  H   UNL A   1      33.442  32.384  28.576  1.00  0.00     0.163 HD
BRANCH   4   6
ATOM      6  C   UNL A   1      36.387  30.949  28.099  1.00  0.00     0.039 A 
ATOM      7  C   UNL A   1      37.266  31.739  28.843  1.00  0.00     0.014 A 
ATOM      8  C   UNL A   1      36.796  29.724  27.627  1.00  0.00     0.014 A 
ATOM      9  C   UNL A   1      38.526  31.205  29.135  1.00  0.00     0.010 A 
ATOM     10  C   UNL A   1      37.715  29.080  28.381  1.00  0.00     0.010 A 
ATOM     11  C   UNL A   1      38.738  29.842  28.881  1.00  0.00    -0.014 A 
BRANCH  11  12
ATOM     12  C   UNL A   1      39.970  29.106  29.108  1.00  0.00     0.031 A 
ATOM     13  C   UNL A   1      40.264  28.819  30.524  1.00  0.00     0.074 A 
ATOM     14  C   UNL A   1      40.689  28.556  28.094  1.00  0.00     0.049 A 
ATOM     15  N   UNL A   1      41.195  29.349  31.241  1.00  0.00    -0.248 NA
ATOM     16  C   UNL A   1      39.334  27.964  31.276  1.00  0.00     0.031 C 
ATOM     17  C   UNL A   1      40.399  28.485  26.650  1.00  0.00     0.029 A 
ATOM     18  N   UNL A   1      41.851  27.855  28.175  1.00  0.00    -0.354 N 
ATOM     19  C   UNL A   1      41.094  28.758  32.492  1.00  0.00     0.074 A 
ATOM     20  C   UNL A   1      39.839  28.051  32.509  1.00  0.00     0.031 C 
ATOM     21  C   UNL A   1      41.219  27.595  26.049  1.00  0.00     0.029 A 
ATOM     22  C   UNL A   1      42.215  27.182  27.012  1.00  0.00     0.049 A 
ATOM     23  H   UNL A   1      42.394  27.824  28.996  1.00  0.00     0.167 HD
ATOM     24  C   UNL A   1      42.168  28.722  33.328  1.00  0.00     0.037 A 
ATOM     25  C   UNL A   1      43.271  26.343  26.868  1.00  0.00     0.037 A 
ATOM     26  C   UNL A   1      43.194  29.640  32.898  1.00  0.00     0.049 A 
ATOM     27  C   UNL A   1      44.225  26.677  27.959  1.00  0.00     0.074 A 
ATOM     28  C   UNL A   1      43.241  31.009  32.722  1.00  0.00     0.029 A 
ATOM     29  N   UNL A   1      44.243  29.140  32.161  1.00  0.00    -0.354 N 
ATOM     30  N   UNL A   1      44.857  27.819  28.031  1.00  0.00    -0.248 NA
ATOM     31  C   UNL A   1      44.066  25.967  29.220  1.00  0.00     0.031 C 
ATOM     32  C   UNL A   1      43.965  31.201  31.508  1.00  0.00     0.029 A 
ATOM     33  C   UNL A   1      44.395  29.950  31.062  1.00  0.00     0.049 A 
ATOM     34  H   UNL A   1      44.785  28.348  32.381  1.00  0.00     0.167 HD
ATOM     35  C   UNL A   1      44.805  28.170  29.372  1.00  0.00     0.074 A 
ATOM     36  C   UNL A   1      44.350  26.964  30.065  1.00  0.00     0.031 C 
ATOM     37  C   UNL A   1      44.838  29.477  29.770  1.00  0.00     0.037 A 
BRANCH  24  38
ATOM     38  C   UNL A   1      42.433  27.623  34.316  1.00  0.00     0.064 A 
ATOM     39  C   UNL A   1      43.032  26.428  33.876  1.00  0.00     0.173 A 
ATOM     40  C   UNL A   1      41.867  27.587  35.608  1.00  0.00     0.173 A 
ATOM     41  F   UNL A   1      43.579  26.350  32.652  1.00  0.00    -0.203 F 
ATOM     42  C   UNL A   1      43.005  25.265  34.648  1.00  0.00     0.198 A 
ATOM     43  C   UNL A   1      41.889  26.440  36.397  1.00  0.00     0.198 A 
ATOM     44  F   UNL A   1      41.170  28.615  36.108  1.00  0.00    -0.203 F 
ATOM     45  F   UNL A   1      43.482  24.120  34.142  1.00  0.00    -0.200 F 
ATOM     46  C   UNL A   1      42.431  25.271  35.907  1.00  0.00     0.200 A 
ATOM     47  F   UNL A   1      41.307  26.461  37.604  1.00  0.00    -0.200 F 
ATOM     48  F   UNL A   1      42.352  24.144  36.625  1.00  0.00    -0.200 F 
ENDBRANCH  24  38
BRANCH  25  49
ATOM     49  C   UNL A   1      43.290  25.045  26.146  1.00  0.00     0.064 A 
ATOM     50  C   UNL A   1      44.281  24.764  25.189  1.00  0.00     0.173 A 
ATOM     51  C   UNL A   1      42.520  23.949  26.585  1.00  0.00     0.173 A 
ATOM     52  F   UNL A   1      45.082  25.743  24.744  1.00  0.00    -0.203 F 
ATOM     53  C   UNL A   1      44.513  23.461  24.732  1.00  0.00     0.198 A 
ATOM     54  C   UNL A   1      42.751  22.651  26.127  1.00  0.00     0.198 A 
ATOM     55  F   UNL A   1      41.591  24.101  27.539  1.00  0.00    -0.203 F 
ATOM     56  F   UNL A   1      45.510  23.222  23.869  1.00  0.00    -0.200 F 
ATOM     57  C   UNL A   1      43.757  22.403  25.213  1.00  0.00     0.200 A 
ATOM     58  F   UNL A   1      42.036  21.633  26.626  1.00  0.00    -0.200 F 
ATOM     59  F   UNL A   1      44.025  21.147  24.828  1.00  0.00    -0.200 F 
ENDBRANCH  25  49
BRANCH  37  60
ATOM     60  C   UNL A   1      45.140  30.530  28.735  1.00  0.00     0.064 A 
ATOM     61  C   UNL A   1      44.161  31.172  27.953  1.00  0.00     0.173 A 
ATOM     62  C   UNL A   1      46.445  31.031  28.659  1.00  0.00     0.173 A 
ATOM     63  F   UNL A   1      42.874  30.820  28.033  1.00  0.00    -0.203 F 
ATOM     64  C   UNL A   1      44.482  32.243  27.119  1.00  0.00     0.198 A 
ATOM     65  C   UNL A   1      46.758  32.122  27.851  1.00  0.00     0.198 A 
ATOM     66  F   UNL A   1      47.412  30.497  29.420  1.00  0.00    -0.203 F 
ATOM     67  F   UNL A   1      43.527  32.836  26.386  1.00  0.00    -0.200 F 
ATOM     68  C   UNL A   1      45.780  32.722  27.075  1.00  0.00     0.200 A 
ATOM     69  F   UNL A   1      48.005  32.611  27.850  1.00  0.00    -0.200 F 
ATOM     70  F   UNL A   1      46.082  33.781  26.310  1.00  0.00    -0.200 F 
ENDBRANCH  37  60
ENDBRANCH  11  12
ENDBRANCH   4   6
ENDBRANCH   1   2
BRANCH   1  71
ATOM     71  C   UNL A   1      34.876  34.833  28.001  1.00  0.00     0.023 C 
BRANCH  71  72
ATOM     72  C   UNL A   1      34.054  35.921  28.704  1.00  0.00     0.023 C 
BRANCH  72  73
ATOM     73  C   UNL A   1      32.900  35.454  29.599  1.00  0.00     0.116 C 
BRANCH  73  74
ATOM     74  N   UNL A   1      32.530  36.402  30.643  1.00  0.00    -0.351 N 
ATOM     75  C   UNL A   1      32.916  36.454  31.968  1.00  0.00     0.267 C 
ATOM     76  H   UNL A   1      31.911  37.113  30.361  1.00  0.00     0.163 HD
ATOM     77  O   UNL A   1      32.363  37.242  32.716  1.00  0.00    -0.268 OA
BRANCH  75  78
ATOM     78  C   UNL A   1      33.937  35.529  32.394  1.00  0.00     0.105 A 
ATOM     79  C   UNL A   1      33.805  34.210  32.792  1.00  0.00     0.043 A 
ATOM     80  N   UNL A   1      35.276  35.828  32.501  1.00  0.00    -0.350 N 
ATOM     81  C   UNL A   1      35.104  33.630  32.772  1.00  0.00     0.019 A 
ATOM     82  C   UNL A   1      36.006  34.666  32.528  1.00  0.00     0.051 A 
ATOM     83  H   UNL A   1      35.651  36.737  32.549  1.00  0.00     0.167 HD
ATOM     84  C   UNL A   1      35.601  32.325  32.873  1.00  0.00     0.123 A 
ATOM     85  C   UNL A   1      37.366  34.444  32.338  1.00  0.00     0.067 A 
ATOM     86  N   UNL A   1      36.918  32.074  32.664  1.00  0.00    -0.244 NA
ATOM     87  C   UNL A   1      37.738  33.111  32.396  1.00  0.00     0.131 A 
ATOM     88  Cl  UNL A   1      39.362  32.660  32.067  1.00  0.00    -0.062 Cl
ENDBRANCH  75  78
ENDBRANCH  73  74
ENDBRANCH  72  73
ENDBRANCH  71  72
ENDBRANCH   1  71
TORSDOF 11
ENDMDL
MODEL 2
REMARK VINA RESULT:     -12.7      3.863     11.390
REMARK SMILES O=C(NCCCCNC(=O)c1cc2cnc(Cl)cc2[nH]1)c1ccc(-c2c3nc(c(-c4c(F)c(F)c(F)c(F)c4F)c4ccc([nH]4)c(-c4c(F)c(F)c(F)c(F)c4F)c4nc(c(-c5c(F)c(F)c(F)c(F)c5F)c5ccc2[nH]5)C=C4)C=C3)cc1
REMARK SMILES IDX 4 1 3 2 1 3 2 4 21 6 22 7 83 8 23 9 82 10 24 11 25 12 26 13
REMARK SMILES IDX 76 14 27 15 81 16 75 17 77 18 28 19 80 20 74 21 73 22 29 24
REMARK SMILES IDX 61 25 41 26 60 27 42 28 45 29 59 30 78 31 43 32 44 33 58 35
REMARK SMILES IDX 79 36 46 37 30 38 31 39 39 40 32 41 33 42 37 43 40 44 34 45
REMARK SMILES IDX 35 46 38 47 36 48 62 49 63 50 71 51 64 52 65 53 69 54 72 55
REMARK SMILES IDX 66 56 67 57 70 58 68 59 47 60 48 61 56 62 49 63 50 64 54 65
REMARK SMILES IDX 57 66 51 67 52 68 55 69 53 70 5 71 6 72 7 73 8 74 9 75 10 77
REMARK SMILES IDX 11 78 12 79 20 80 13 81 19 82 14 84 18 85 15 86 16 87 17 88
REMARK H PARENT 3 5 77 23 45 34 8 76 20 83
REMARK Flexibility Score: inf
ROOT
ATOM      1  C   UNL A   1      41.661  21.918  26.217  1.00  0.00     0.116 C 
ENDROOT
BRANCH   1   2
ATOM      2  N   UNL A   1      40.247  22.099  25.838  1.00  0.00    -0.352 N 
ATOM      3  O   UNL A   1      38.085  22.709  26.321  1.00  0.00    -0.269 OA
ATOM      4  C   UNL A   1      39.283  22.880  26.489  1.00  0.00     0.251 C 
ATOM      5  H   UNL A   1      39.947  21.616  25.035  1.00  0.00     0.163 HD
BRANCH   4   6
ATOM      6  C   UNL A   1      39.770  23.962  27.365  1.00  0.00     0.039 A 
ATOM      7  C   UNL A   1      41.020  24.028  27.985  1.00  0.00     0.014 A 
ATOM      8  C   UNL A   1      38.925  25.046  27.404  1.00  0.00     0.014 A 
ATOM      9  C   UNL A   1      41.386  25.244  28.573  1.00  0.00     0.010 A 
ATOM     10  C   UNL A   1      39.525  26.257  27.455  1.00  0.00     0.010 A 
ATOM     11  C   UNL A   1      40.601  26.372  28.296  1.00  0.00    -0.014 A 
BRANCH  11  12
ATOM     12  C   UNL A   1      40.810  27.715  28.812  1.00  0.00     0.031 A 
ATOM     13  C   UNL A   1      41.980  28.414  28.249  1.00  0.00     0.074 A 
ATOM     14  C   UNL A   1      39.897  28.346  29.595  1.00  0.00     0.049 A 
ATOM     15  N   UNL A   1      43.079  28.692  28.860  1.00  0.00    -0.248 NA
ATOM     16  C   UNL A   1      41.998  28.706  26.808  1.00  0.00     0.031 C 
ATOM     17  C   UNL A   1      38.548  27.923  30.016  1.00  0.00     0.029 A 
ATOM     18  N   UNL A   1      39.978  29.589  30.140  1.00  0.00    -0.354 N 
ATOM     19  C   UNL A   1      43.867  29.366  27.939  1.00  0.00     0.074 A 
ATOM     20  C   UNL A   1      43.230  29.196  26.657  1.00  0.00     0.031 C 
ATOM     21  C   UNL A   1      37.869  28.970  30.536  1.00  0.00     0.029 A 
ATOM     22  C   UNL A   1      38.786  30.080  30.668  1.00  0.00     0.049 A 
ATOM     23  H   UNL A   1      40.816  30.105  30.159  1.00  0.00     0.167 HD
ATOM     24  C   UNL A   1      44.861  30.197  28.355  1.00  0.00     0.037 A 
ATOM     25  C   UNL A   1      38.585  31.321  31.176  1.00  0.00     0.037 A 
ATOM     26  C   UNL A   1      45.173  29.980  29.747  1.00  0.00     0.049 A 
ATOM     27  C   UNL A   1      39.927  31.846  31.544  1.00  0.00     0.074 A 
ATOM     28  C   UNL A   1      45.632  28.894  30.466  1.00  0.00     0.029 A 
ATOM     29  N   UNL A   1      44.609  30.824  30.676  1.00  0.00    -0.354 N 
ATOM     30  N   UNL A   1      40.659  31.332  32.498  1.00  0.00    -0.248 NA
ATOM     31  C   UNL A   1      40.656  32.582  30.521  1.00  0.00     0.031 C 
ATOM     32  C   UNL A   1      44.872  28.904  31.674  1.00  0.00     0.029 A 
ATOM     33  C   UNL A   1      44.061  30.040  31.662  1.00  0.00     0.049 A 
ATOM     34  H   UNL A   1      44.600  31.808  30.641  1.00  0.00     0.167 HD
ATOM     35  C   UNL A   1      41.948  31.314  31.985  1.00  0.00     0.074 A 
ATOM     36  C   UNL A   1      41.892  32.145  30.782  1.00  0.00     0.031 C 
ATOM     37  C   UNL A   1      42.868  30.392  32.398  1.00  0.00     0.037 A 
BRANCH  24  38
ATOM     38  C   UNL A   1      45.302  31.426  27.614  1.00  0.00     0.064 A 
ATOM     39  C   UNL A   1      46.614  31.496  27.111  1.00  0.00     0.173 A 
ATOM     40  C   UNL A   1      44.583  32.641  27.627  1.00  0.00     0.173 A 
ATOM     41  F   UNL A   1      47.391  30.402  27.079  1.00  0.00    -0.203 F 
ATOM     42  C   UNL A   1      47.185  32.707  26.715  1.00  0.00     0.198 A 
ATOM     43  C   UNL A   1      45.138  33.838  27.180  1.00  0.00     0.198 A 
ATOM     44  F   UNL A   1      43.367  32.741  28.177  1.00  0.00    -0.203 F 
ATOM     45  F   UNL A   1      48.476  32.748  26.356  1.00  0.00    -0.200 F 
ATOM     46  C   UNL A   1      46.448  33.877  26.752  1.00  0.00     0.200 A 
ATOM     47  F   UNL A   1      44.414  34.963  27.246  1.00  0.00    -0.200 F 
ATOM     48  F   UNL A   1      47.011  35.048  26.428  1.00  0.00    -0.200 F 
ENDBRANCH  24  38
BRANCH  25  49
ATOM     49  C   UNL A   1      37.405  32.196  30.958  1.00  0.00     0.064 A 
ATOM     50  C   UNL A   1      37.167  32.792  29.708  1.00  0.00     0.173 A 
ATOM     51  C   UNL A   1      36.338  32.231  31.879  1.00  0.00     0.173 A 
ATOM     52  F   UNL A   1      38.116  32.772  28.762  1.00  0.00    -0.203 F 
ATOM     53  C   UNL A   1      35.923  33.351  29.386  1.00  0.00     0.198 A 
ATOM     54  C   UNL A   1      35.100  32.790  31.556  1.00  0.00     0.198 A 
ATOM     55  F   UNL A   1      36.444  31.637  33.076  1.00  0.00    -0.203 F 
ATOM     56  F   UNL A   1      35.713  33.852  28.160  1.00  0.00    -0.200 F 
ATOM     57  C   UNL A   1      34.887  33.336  30.305  1.00  0.00     0.200 A 
ATOM     58  F   UNL A   1      34.095  32.737  32.442  1.00  0.00    -0.200 F 
ATOM     59  F   UNL A   1      33.676  33.807  29.972  1.00  0.00    -0.200 F 
ENDBRANCH  25  49
BRANCH  37  60
ATOM     60  C   UNL A   1      42.521  29.518  33.576  1.00  0.00     0.064 A 
ATOM     61  C   UNL A   1      41.869  28.276  33.473  1.00  0.00     0.173 A 
ATOM     62  C   UNL A   1      43.027  29.870  34.834  1.00  0.00     0.173 A 
ATOM     63  F   UNL A   1      41.439  27.819  32.293  1.00  0.00    -0.203 F 
ATOM     64  C   UNL A   1      41.708  27.443  34.581  1.00  0.00     0.198 A 
ATOM     65  C   UNL A   1      42.894  29.023  35.933  1.00  0.00     0.198 A 
ATOM     66  F   UNL A   1      43.706  31.017  34.986  1.00  0.00    -0.203 F 
ATOM     67  F   UNL A   1      41.083  26.262  34.451  1.00  0.00    -0.200 F 
ATOM     68  C   UNL A   1      42.229  27.814  35.809  1.00  0.00     0.200 A 
ATOM     69  F   UNL A   1      43.443  29.366  37.106  1.00  0.00    -0.200 F 
ATOM     70  F   UNL A   1      42.117  26.995  36.864  1.00  0.00    -0.200 F 
ENDBRANCH  37  60
ENDBRANCH  11  12
ENDBRANCH   4   6
ENDBRANCH   1   2
BRANCH   1  71
ATOM     71  C   UNL A   1      41.998  20.617  26.929  1.00  0.00     0.023 C 
BRANCH  71  72
ATOM     72  C   UNL A   1      42.343  19.444  26.003  1.00  0.00     0.023 C 
BRANCH  72  73
ATOM     73  C   UNL A   1      43.682  18.735  26.246  1.00  0.00     0.116 C 
BRANCH  73  74
ATOM     74  N   UNL A   1      44.426  18.428  25.030  1.00  0.00    -0.351 N 
ATOM     75  C   UNL A   1      45.103  19.272  24.171  1.00  0.00     0.267 C 
ATOM     76  H   UNL A   1      44.448  17.476  24.784  1.00  0.00     0.163 HD
ATOM     77  O   UNL A   1      45.527  18.828  23.118  1.00  0.00    -0.268 OA
BRANCH  75  78
ATOM     78  C   UNL A   1      45.229  20.652  24.566  1.00  0.00     0.105 A 
ATOM     79  C   UNL A   1      44.857  21.792  23.876  1.00  0.00     0.043 A 
ATOM     80  N   UNL A   1      45.789  21.086  25.746  1.00  0.00    -0.350 N 
ATOM     81  C   UNL A   1      44.856  22.869  24.807  1.00  0.00     0.019 A 
ATOM     82  C   UNL A   1      45.396  22.377  25.995  1.00  0.00     0.051 A 
ATOM     83  H   UNL A   1      46.381  20.550  26.322  1.00  0.00     0.167 HD
ATOM     84  C   UNL A   1      44.395  24.191  24.782  1.00  0.00     0.123 A 
ATOM     85  C   UNL A   1      45.451  23.134  27.161  1.00  0.00     0.067 A 
ATOM     86  N   UNL A   1      44.410  24.944  25.911  1.00  0.00    -0.244 NA
ATOM     87  C   UNL A   1      44.911  24.404  27.041  1.00  0.00     0.131 A 
ATOM     88  Cl  UNL A   1      44.798  25.420  28.420  1.00  0.00    -0.062 Cl
ENDBRANCH  75  78
ENDBRANCH  73  74
ENDBRANCH  72  73
ENDBRANCH  71  72
ENDBRANCH   1  71
TORSDOF 11
ENDMDL
MODEL 3
REMARK VINA RESULT:     -12.6      5.784     10.353
REMARK SMILES O=C(NCCCCNC(=O)c1cc2cnc(Cl)cc2[nH]1)c1ccc(-c2c3nc(c(-c4c(F)c(F)c(F)c(F)c4F)c4ccc([nH]4)c(-c4c(F)c(F)c(F)c(F)c4F)c4nc(c(-c5c(F)c(F)c(F)c(F)c5F)c5ccc2[nH]5)C=C4)C=C3)cc1
REMARK SMILES IDX 4 1 3 2 1 3 2 4 21 6 22 7 83 8 23 9 82 10 24 11 25 12 26 13
REMARK SMILES IDX 76 14 27 15 81 16 75 17 77 18 28 19 80 20 74 21 73 22 29 24
REMARK SMILES IDX 61 25 41 26 60 27 42 28 45 29 59 30 78 31 43 32 44 33 58 35
REMARK SMILES IDX 79 36 46 37 30 38 31 39 39 40 32 41 33 42 37 43 40 44 34 45
REMARK SMILES IDX 35 46 38 47 36 48 62 49 63 50 71 51 64 52 65 53 69 54 72 55
REMARK SMILES IDX 66 56 67 57 70 58 68 59 47 60 48 61 56 62 49 63 50 64 54 65
REMARK SMILES IDX 57 66 51 67 52 68 55 69 53 70 5 71 6 72 7 73 8 74 9 75 10 77
REMARK SMILES IDX 11 78 12 79 20 80 13 81 19 82 14 84 18 85 15 86 16 87 17 88
REMARK H PARENT 3 5 77 23 45 34 8 76 20 83
REMARK Flexibility Score: inf
ROOT
ATOM      1  C   UNL A   1      38.879  20.517  25.536  1.00  0.00     0.116 C 
ENDROOT
BRANCH   1   2
ATOM      2  N   UNL A   1      39.799  19.380  25.730  1.00  0.00    -0.352 N 
ATOM      3  O   UNL A   1      41.904  18.458  25.730  1.00  0.00    -0.269 OA
ATOM      4  C   UNL A   1      41.186  19.428  25.920  1.00  0.00     0.251 C 
ATOM      5  H   UNL A   1      39.391  18.485  25.723  1.00  0.00     0.163 HD
BRANCH   4   6
ATOM      6  C   UNL A   1      41.757  20.698  26.409  1.00  0.00     0.039 A 
ATOM      7  C   UNL A   1      42.285  21.726  25.624  1.00  0.00     0.014 A 
ATOM      8  C   UNL A   1      41.578  20.886  27.758  1.00  0.00     0.014 A 
ATOM      9  C   UNL A   1      42.550  22.947  26.253  1.00  0.00     0.010 A 
ATOM     10  C   UNL A   1      41.313  22.155  28.145  1.00  0.00     0.010 A 
ATOM     11  C   UNL A   1      42.051  23.143  27.548  1.00  0.00    -0.014 A 
BRANCH  11  12
ATOM     12  C   UNL A   1      42.224  24.331  28.368  1.00  0.00     0.031 A 
ATOM     13  C   UNL A   1      41.137  25.320  28.253  1.00  0.00     0.074 A 
ATOM     14  C   UNL A   1      43.201  24.435  29.306  1.00  0.00     0.049 A 
ATOM     15  N   UNL A   1      41.202  26.475  27.686  1.00  0.00    -0.248 NA
ATOM     16  C   UNL A   1      39.785  24.930  28.680  1.00  0.00     0.031 C 
ATOM     17  C   UNL A   1      44.191  23.441  29.764  1.00  0.00     0.029 A 
ATOM     18  N   UNL A   1      43.468  25.486  30.125  1.00  0.00    -0.354 N 
ATOM     19  C   UNL A   1      39.949  27.048  27.845  1.00  0.00     0.074 A 
ATOM     20  C   UNL A   1      39.076  25.998  28.305  1.00  0.00     0.031 C 
ATOM     21  C   UNL A   1      44.772  23.853  30.913  1.00  0.00     0.029 A 
ATOM     22  C   UNL A   1      44.349  25.212  31.168  1.00  0.00     0.049 A 
ATOM     23  H   UNL A   1      43.067  26.376  29.991  1.00  0.00     0.167 HD
ATOM     24  C   UNL A   1      39.795  28.400  27.797  1.00  0.00     0.037 A 
ATOM     25  C   UNL A   1      44.696  26.060  32.168  1.00  0.00     0.037 A 
ATOM     26  C   UNL A   1      40.958  29.036  27.228  1.00  0.00     0.049 A 
ATOM     27  C   UNL A   1      44.406  27.433  31.674  1.00  0.00     0.074 A 
ATOM     28  C   UNL A   1      41.589  28.955  26.002  1.00  0.00     0.029 A 
ATOM     29  N   UNL A   1      41.893  29.565  28.088  1.00  0.00    -0.354 N 
ATOM     30  N   UNL A   1      45.050  27.986  30.680  1.00  0.00    -0.248 NA
ATOM     31  C   UNL A   1      43.076  27.964  31.933  1.00  0.00     0.031 C 
ATOM     32  C   UNL A   1      42.983  28.944  26.306  1.00  0.00     0.029 A 
ATOM     33  C   UNL A   1      43.125  29.109  27.684  1.00  0.00     0.049 A 
ATOM     34  H   UNL A   1      41.712  30.160  28.852  1.00  0.00     0.167 HD
ATOM     35  C   UNL A   1      44.071  28.627  29.935  1.00  0.00     0.074 A 
ATOM     36  C   UNL A   1      42.880  28.621  30.785  1.00  0.00     0.031 C 
ATOM     37  C   UNL A   1      44.215  28.832  28.592  1.00  0.00     0.037 A 
BRANCH  24  38
ATOM     38  C   UNL A   1      38.758  29.161  28.571  1.00  0.00     0.064 A 
ATOM     39  C   UNL A   1      37.851  29.988  27.883  1.00  0.00     0.173 A 
ATOM     40  C   UNL A   1      38.805  29.331  29.972  1.00  0.00     0.173 A 
ATOM     41  F   UNL A   1      37.748  29.922  26.547  1.00  0.00    -0.203 F 
ATOM     42  C   UNL A   1      37.096  30.959  28.544  1.00  0.00     0.198 A 
ATOM     43  C   UNL A   1      38.011  30.264  30.634  1.00  0.00     0.198 A 
ATOM     44  F   UNL A   1      39.697  28.690  30.736  1.00  0.00    -0.203 F 
ATOM     45  F   UNL A   1      36.334  31.805  27.836  1.00  0.00    -0.200 F 
ATOM     46  C   UNL A   1      37.179  31.099  29.918  1.00  0.00     0.200 A 
ATOM     47  F   UNL A   1      38.123  30.398  31.962  1.00  0.00    -0.200 F 
ATOM     48  F   UNL A   1      36.500  32.067  30.546  1.00  0.00    -0.200 F 
ENDBRANCH  24  38
BRANCH  25  49
ATOM     49  C   UNL A   1      44.841  25.732  33.609  1.00  0.00     0.064 A 
ATOM     50  C   UNL A   1      43.713  25.540  34.424  1.00  0.00     0.173 A 
ATOM     51  C   UNL A   1      46.076  25.315  34.146  1.00  0.00     0.173 A 
ATOM     52  F   UNL A   1      42.495  25.876  33.976  1.00  0.00    -0.203 F 
ATOM     53  C   UNL A   1      43.810  24.931  35.682  1.00  0.00     0.198 A 
ATOM     54  C   UNL A   1      46.171  24.710  35.401  1.00  0.00     0.198 A 
ATOM     55  F   UNL A   1      47.203  25.399  33.424  1.00  0.00    -0.203 F 
ATOM     56  F   UNL A   1      42.702  24.705  36.403  1.00  0.00    -0.200 F 
ATOM     57  C   UNL A   1      45.037  24.503  36.162  1.00  0.00     0.200 A 
ATOM     58  F   UNL A   1      47.359  24.269  35.838  1.00  0.00    -0.200 F 
ATOM     59  F   UNL A   1      45.120  23.857  37.334  1.00  0.00    -0.200 F 
ENDBRANCH  25  49
BRANCH  37  60
ATOM     60  C   UNL A   1      45.552  28.532  27.965  1.00  0.00     0.064 A 
ATOM     61  C   UNL A   1      45.893  27.297  27.383  1.00  0.00     0.173 A 
ATOM     62  C   UNL A   1      46.454  29.589  27.789  1.00  0.00     0.173 A 
ATOM     63  F   UNL A   1      45.049  26.260  27.421  1.00  0.00    -0.203 F 
ATOM     64  C   UNL A   1      47.089  27.124  26.686  1.00  0.00     0.198 A 
ATOM     65  C   UNL A   1      47.633  29.424  27.065  1.00  0.00     0.198 A 
ATOM     66  F   UNL A   1      46.162  30.805  28.273  1.00  0.00    -0.203 F 
ATOM     67  F   UNL A   1      47.386  25.934  26.140  1.00  0.00    -0.200 F 
ATOM     68  C   UNL A   1      47.955  28.192  26.521  1.00  0.00     0.200 A 
ATOM     69  F   UNL A   1      48.443  30.473  26.867  1.00  0.00    -0.200 F 
ATOM     70  F   UNL A   1      49.082  28.042  25.811  1.00  0.00    -0.200 F 
ENDBRANCH  37  60
ENDBRANCH  11  12
ENDBRANCH   4   6
ENDBRANCH   1   2
BRANCH   1  71
ATOM     71  C   UNL A   1      37.523  20.182  24.937  1.00  0.00     0.023 C 
BRANCH  71  72
ATOM     72  C   UNL A   1      36.530  21.350  24.889  1.00  0.00     0.023 C 
BRANCH  72  73
ATOM     73  C   UNL A   1      35.579  21.507  26.083  1.00  0.00     0.116 C 
BRANCH  73  74
ATOM     74  N   UNL A   1      34.478  22.434  25.853  1.00  0.00    -0.351 N 
ATOM     75  C   UNL A   1      33.252  22.220  25.252  1.00  0.00     0.267 C 
ATOM     76  H   UNL A   1      34.631  23.351  26.174  1.00  0.00     0.163 HD
ATOM     77  O   UNL A   1      32.534  23.176  25.017  1.00  0.00    -0.268 OA
BRANCH  75  78
ATOM     78  C   UNL A   1      32.918  20.862  24.902  1.00  0.00     0.105 A 
ATOM     79  C   UNL A   1      32.886  20.269  23.652  1.00  0.00     0.043 A 
ATOM     80  N   UNL A   1      32.534  19.890  25.797  1.00  0.00    -0.350 N 
ATOM     81  C   UNL A   1      32.849  18.860  23.854  1.00  0.00     0.019 A 
ATOM     82  C   UNL A   1      32.684  18.652  25.224  1.00  0.00     0.051 A 
ATOM     83  H   UNL A   1      32.203  20.057  26.709  1.00  0.00     0.167 HD
ATOM     84  C   UNL A   1      33.000  17.743  23.024  1.00  0.00     0.123 A 
ATOM     85  C   UNL A   1      32.711  17.384  25.795  1.00  0.00     0.067 A 
ATOM     86  N   UNL A   1      33.058  16.496  23.555  1.00  0.00    -0.244 NA
ATOM     87  C   UNL A   1      32.930  16.357  24.891  1.00  0.00     0.131 A 
ATOM     88  Cl  UNL A   1      33.105  14.744  25.454  1.00  0.00    -0.062 Cl
ENDBRANCH  75  78
ENDBRANCH  73  74
ENDBRANCH  72  73
ENDBRANCH  71  72
ENDBRANCH   1  71
TORSDOF 11
ENDMDL
