MODEL 1
REMARK VINA RESULT:     -11.6      0.000      0.000
REMARK SMILES CO[C@H]1CC[C@@H]([NH2+]CC(=O)NCCCCNC(=O)c2ccc(-c3c4nc(c(-c5c(F)c(F)c(F)c(F)c5F)c5ccc([nH]5)c(-c5c(F)c(F)c(F)c(F)c5F)c5nc(c(-c6c(F)c(F)c(F)c(F)c6F)c6ccc3[nH]6)C=C5)C=C4)cc2)CC1
REMARK SMILES IDX 13 1 12 2 11 3 9 4 10 5 8 7 7 8 6 11 3 12 83 13 4 14 82 15
REMARK SMILES IDX 5 16 2 17 1 18 14 19 15 20 16 21 17 22 18 24 19 25 20 26
REMARK SMILES IDX 81 27 21 28 80 29 22 30 23 31 24 32 74 33 25 34 79 35 73 36
REMARK SMILES IDX 75 37 26 38 78 39 72 40 71 41 27 43 59 44 39 45 58 46 40 47
REMARK SMILES IDX 43 48 57 49 76 50 41 51 42 52 56 54 77 55 44 56 28 57 29 58
REMARK SMILES IDX 37 59 30 60 31 61 35 62 38 63 32 64 33 65 36 66 34 67 60 68
REMARK SMILES IDX 61 69 69 70 62 71 63 72 67 73 70 74 64 75 65 76 68 77 66 78
REMARK SMILES IDX 45 79 46 80 54 81 47 82 48 83 52 84 55 85 49 86 50 87 53 88
REMARK SMILES IDX 51 89
REMARK H PARENT 11 6 7 9 7 10 16 23 75 42 43 53
REMARK Flexibility Score: inf
ROOT
ATOM      1  C   UNL A   1      37.179  20.773  24.651  1.00  0.00     0.023 C 
ENDROOT
BRANCH   1   2
ATOM      2  C   UNL A   1      35.710  20.559  25.060  1.00  0.00     0.116 C 
BRANCH   2   3
ATOM      3  N   UNL A   1      34.848  21.731  24.979  1.00  0.00    -0.351 N 
ATOM      4  C   UNL A   1      33.482  21.857  25.034  1.00  0.00     0.275 C 
ATOM      5  O   UNL A   1      33.018  23.002  25.055  1.00  0.00    -0.269 OA
ATOM      6  H   UNL A   1      35.330  22.582  24.866  1.00  0.00     0.163 HD
BRANCH   4   7
ATOM      7  C   UNL A   1      32.551  20.627  24.987  1.00  0.00     0.362 C 
BRANCH   7   8
ATOM      8  N   UNL A   1      32.558  19.900  23.673  1.00  0.00    -0.336 N 
ATOM      9  H   UNL A   1      31.820  20.280  23.080  1.00  0.00     0.346 HD
ATOM     10  H   UNL A   1      33.472  20.030  23.239  1.00  0.00     0.346 HD
BRANCH   8  11
ATOM     11  C   UNL A   1      32.332  18.461  23.858  1.00  0.00     0.182 C 
ATOM     12  C   UNL A   1      33.771  15.976  24.626  1.00  0.00     0.118 C 
ATOM     13  C   UNL A   1      33.605  17.067  25.666  1.00  0.00     0.038 C 
ATOM     14  C   UNL A   1      34.083  16.628  23.280  1.00  0.00     0.038 C 
ATOM     15  C   UNL A   1      32.498  18.040  25.332  1.00  0.00     0.067 C 
ATOM     16  C   UNL A   1      32.951  17.527  22.805  1.00  0.00     0.067 C 
BRANCH  12  17
ATOM     17  O   UNL A   1      34.865  15.177  25.077  1.00  0.00    -0.381 OA
ATOM     18  C   UNL A   1      35.938  15.926  25.623  1.00  0.00     0.195 C 
ENDBRANCH  12  17
ENDBRANCH   8  11
ENDBRANCH   7   8
ENDBRANCH   4   7
ENDBRANCH   2   3
ENDBRANCH   1   2
BRANCH   1  19
ATOM     19  C   UNL A   1      38.147  19.652  25.005  1.00  0.00     0.023 C 
BRANCH  19  20
ATOM     20  C   UNL A   1      39.306  20.118  25.855  1.00  0.00     0.116 C 
BRANCH  20  21
ATOM     21  N   UNL A   1      40.319  19.079  26.004  1.00  0.00    -0.352 N 
ATOM     22  C   UNL A   1      41.676  19.209  26.115  1.00  0.00     0.251 C 
ATOM     23  H   UNL A   1      39.980  18.156  26.029  1.00  0.00     0.163 HD
ATOM     24  O   UNL A   1      42.410  18.230  26.000  1.00  0.00    -0.269 OA
BRANCH  22  25
ATOM     25  C   UNL A   1      42.241  20.543  26.367  1.00  0.00     0.039 A 
ATOM     26  C   UNL A   1      42.616  21.345  25.290  1.00  0.00     0.014 A 
ATOM     27  C   UNL A   1      42.365  21.003  27.682  1.00  0.00     0.014 A 
ATOM     28  C   UNL A   1      43.076  22.636  25.536  1.00  0.00     0.010 A 
ATOM     29  C   UNL A   1      42.702  22.323  27.915  1.00  0.00     0.010 A 
ATOM     30  C   UNL A   1      43.093  23.139  26.848  1.00  0.00    -0.014 A 
BRANCH  30  31
ATOM     31  C   UNL A   1      43.566  24.507  27.144  1.00  0.00     0.031 A 
ATOM     32  C   UNL A   1      42.600  25.514  27.700  1.00  0.00     0.074 A 
ATOM     33  C   UNL A   1      44.834  24.847  26.850  1.00  0.00     0.049 A 
ATOM     34  N   UNL A   1      42.783  26.783  27.956  1.00  0.00    -0.248 NA
ATOM     35  C   UNL A   1      41.228  25.044  27.964  1.00  0.00     0.031 C 
ATOM     36  C   UNL A   1      45.833  23.957  26.254  1.00  0.00     0.029 A 
ATOM     37  N   UNL A   1      45.496  26.035  27.005  1.00  0.00    -0.354 N 
ATOM     38  C   UNL A   1      41.554  27.258  28.393  1.00  0.00     0.074 A 
ATOM     39  C   UNL A   1      40.613  26.167  28.294  1.00  0.00     0.031 C 
ATOM     40  C   UNL A   1      46.993  24.621  26.130  1.00  0.00     0.029 A 
ATOM     41  C   UNL A   1      46.806  25.991  26.594  1.00  0.00     0.049 A 
ATOM     42  H   UNL A   1      45.074  26.844  27.377  1.00  0.00     0.167 HD
ATOM     43  C   UNL A   1      41.249  28.487  28.871  1.00  0.00     0.037 A 
ATOM     44  C   UNL A   1      47.743  26.957  26.593  1.00  0.00     0.037 A 
ATOM     45  C   UNL A   1      42.207  29.553  28.989  1.00  0.00     0.049 A 
ATOM     46  C   UNL A   1      47.375  28.317  27.120  1.00  0.00     0.074 A 
ATOM     47  C   UNL A   1      42.028  30.820  29.508  1.00  0.00     0.029 A 
ATOM     48  N   UNL A   1      43.531  29.468  28.578  1.00  0.00    -0.354 N 
ATOM     49  N   UNL A   1      46.229  28.738  27.601  1.00  0.00    -0.248 NA
ATOM     50  C   UNL A   1      48.433  29.335  27.113  1.00  0.00     0.031 C 
ATOM     51  C   UNL A   1      43.227  31.523  29.361  1.00  0.00     0.029 A 
ATOM     52  C   UNL A   1      44.174  30.672  28.811  1.00  0.00     0.049 A 
ATOM     53  H   UNL A   1      43.950  28.671  28.181  1.00  0.00     0.167 HD
ATOM     54  C   UNL A   1      46.436  30.057  27.981  1.00  0.00     0.074 A 
ATOM     55  C   UNL A   1      47.823  30.359  27.691  1.00  0.00     0.031 C 
ATOM     56  C   UNL A   1      45.560  30.941  28.521  1.00  0.00     0.037 A 
BRANCH  43  57
ATOM     57  C   UNL A   1      39.833  28.734  29.302  1.00  0.00     0.064 A 
ATOM     58  C   UNL A   1      39.407  28.486  30.617  1.00  0.00     0.173 A 
ATOM     59  C   UNL A   1      38.891  29.246  28.397  1.00  0.00     0.173 A 
ATOM     60  F   UNL A   1      40.261  27.980  31.520  1.00  0.00    -0.203 F 
ATOM     61  C   UNL A   1      38.087  28.709  30.999  1.00  0.00     0.198 A 
ATOM     62  C   UNL A   1      37.581  29.503  28.793  1.00  0.00     0.198 A 
ATOM     63  F   UNL A   1      39.242  29.503  27.128  1.00  0.00    -0.203 F 
ATOM     64  F   UNL A   1      37.692  28.407  32.244  1.00  0.00    -0.200 F 
ATOM     65  C   UNL A   1      37.177  29.227  30.090  1.00  0.00     0.200 A 
ATOM     66  F   UNL A   1      36.706  30.015  27.915  1.00  0.00    -0.200 F 
ATOM     67  F   UNL A   1      35.909  29.449  30.463  1.00  0.00    -0.200 F 
ENDBRANCH  43  57
BRANCH  44  68
ATOM     68  C   UNL A   1      49.117  26.661  26.110  1.00  0.00     0.064 A 
ATOM     69  C   UNL A   1      50.063  26.066  26.957  1.00  0.00     0.173 A 
ATOM     70  C   UNL A   1      49.515  26.966  24.800  1.00  0.00     0.173 A 
ATOM     71  F   UNL A   1      49.735  25.768  28.221  1.00  0.00    -0.203 F 
ATOM     72  C   UNL A   1      51.362  25.812  26.520  1.00  0.00     0.198 A 
ATOM     73  C   UNL A   1      50.805  26.681  24.355  1.00  0.00     0.198 A 
ATOM     74  F   UNL A   1      48.646  27.526  23.946  1.00  0.00    -0.203 F 
ATOM     75  F   UNL A   1      52.260  25.289  27.366  1.00  0.00    -0.200 F 
ATOM     76  C   UNL A   1      51.730  26.115  25.218  1.00  0.00     0.200 A 
ATOM     77  F   UNL A   1      51.151  26.959  23.091  1.00  0.00    -0.200 F 
ATOM     78  F   UNL A   1      52.978  25.867  24.798  1.00  0.00    -0.200 F 
ENDBRANCH  44  68
BRANCH  56  79
ATOM     79  C   UNL A   1      46.087  32.301  28.871  1.00  0.00     0.064 A 
ATOM     80  C   UNL A   1      46.073  33.358  27.949  1.00  0.00     0.173 A 
ATOM     81  C   UNL A   1      46.570  32.561  30.163  1.00  0.00     0.173 A 
ATOM     82  F   UNL A   1      45.634  33.157  26.697  1.00  0.00    -0.203 F 
ATOM     83  C   UNL A   1      46.553  34.617  28.299  1.00  0.00     0.198 A 
ATOM     84  C   UNL A   1      47.013  33.830  30.520  1.00  0.00     0.198 A 
ATOM     85  F   UNL A   1      46.594  31.586  31.085  1.00  0.00    -0.203 F 
ATOM     86  F   UNL A   1      46.581  35.598  27.385  1.00  0.00    -0.200 F 
ATOM     87  C   UNL A   1      47.012  34.855  29.586  1.00  0.00     0.200 A 
ATOM     88  F   UNL A   1      47.439  34.063  31.769  1.00  0.00    -0.200 F 
ATOM     89  F   UNL A   1      47.463  36.071  29.924  1.00  0.00    -0.200 F 
ENDBRANCH  56  79
ENDBRANCH  30  31
ENDBRANCH  22  25
ENDBRANCH  20  21
ENDBRANCH  19  20
ENDBRANCH   1  19
TORSDOF 14
ENDMDL
MODEL 2
REMARK VINA RESULT:     -11.5      6.064     10.761
REMARK SMILES CO[C@H]1CC[C@@H]([NH2+]CC(=O)NCCCCNC(=O)c2ccc(-c3c4nc(c(-c5c(F)c(F)c(F)c(F)c5F)c5ccc([nH]5)c(-c5c(F)c(F)c(F)c(F)c5F)c5nc(c(-c6c(F)c(F)c(F)c(F)c6F)c6ccc3[nH]6)C=C5)C=C4)cc2)CC1
REMARK SMILES IDX 13 1 12 2 11 3 9 4 10 5 8 7 7 8 6 11 3 12 83 13 4 14 82 15
REMARK SMILES IDX 5 16 2 17 1 18 14 19 15 20 16 21 17 22 18 24 19 25 20 26
REMARK SMILES IDX 81 27 21 28 80 29 22 30 23 31 24 32 74 33 25 34 79 35 73 36
REMARK SMILES IDX 75 37 26 38 78 39 72 40 71 41 27 43 59 44 39 45 58 46 40 47
REMARK SMILES IDX 43 48 57 49 76 50 41 51 42 52 56 54 77 55 44 56 28 57 29 58
REMARK SMILES IDX 37 59 30 60 31 61 35 62 38 63 32 64 33 65 36 66 34 67 60 68
REMARK SMILES IDX 61 69 69 70 62 71 63 72 67 73 70 74 64 75 65 76 68 77 66 78
REMARK SMILES IDX 45 79 46 80 54 81 47 82 48 83 52 84 55 85 49 86 50 87 53 88
REMARK SMILES IDX 51 89
REMARK H PARENT 11 6 7 9 7 10 16 23 75 42 43 53
REMARK Flexibility Score: inf
ROOT
ATOM      1  C   UNL A   1      34.222  35.333  28.719  1.00  0.00     0.023 C 
ENDROOT
BRANCH   1   2
ATOM      2  C   UNL A   1      33.150  36.422  28.906  1.00  0.00     0.116 C 
BRANCH   2   3
ATOM      3  N   UNL A   1      33.293  37.261  30.089  1.00  0.00    -0.351 N 
ATOM      4  C   UNL A   1      33.068  36.999  31.419  1.00  0.00     0.275 C 
ATOM      5  O   UNL A   1      33.387  37.874  32.231  1.00  0.00    -0.269 OA
ATOM      6  H   UNL A   1      33.605  38.175  29.903  1.00  0.00     0.163 HD
BRANCH   4   7
ATOM      7  C   UNL A   1      32.371  35.704  31.884  1.00  0.00     0.362 C 
BRANCH   7   8
ATOM      8  N   UNL A   1      33.164  34.901  32.875  1.00  0.00    -0.336 N 
ATOM      9  H   UNL A   1      33.298  35.456  33.721  1.00  0.00     0.346 HD
ATOM     10  H   UNL A   1      32.647  34.047  33.083  1.00  0.00     0.346 HD
BRANCH   8  11
ATOM     11  C   UNL A   1      34.477  34.528  32.333  1.00  0.00     0.182 C 
ATOM     12  C   UNL A   1      36.886  32.925  33.014  1.00  0.00     0.118 C 
ATOM     13  C   UNL A   1      35.572  32.201  32.800  1.00  0.00     0.038 C 
ATOM     14  C   UNL A   1      36.613  34.216  33.783  1.00  0.00     0.038 C 
ATOM     15  C   UNL A   1      34.563  33.019  32.028  1.00  0.00     0.067 C 
ATOM     16  C   UNL A   1      35.705  35.161  33.010  1.00  0.00     0.067 C 
BRANCH  12  17
ATOM     17  O   UNL A   1      37.699  32.033  33.777  1.00  0.00    -0.381 OA
ATOM     18  C   UNL A   1      38.259  32.618  34.941  1.00  0.00     0.195 C 
ENDBRANCH  12  17
ENDBRANCH   8  11
ENDBRANCH   7   8
ENDBRANCH   4   7
ENDBRANCH   2   3
ENDBRANCH   1   2
BRANCH   1  19
ATOM     19  C   UNL A   1      33.739  33.891  28.800  1.00  0.00     0.023 C 
BRANCH  19  20
ATOM     20  C   UNL A   1      34.615  32.929  28.033  1.00  0.00     0.116 C 
BRANCH  20  21
ATOM     21  N   UNL A   1      33.891  31.720  27.656  1.00  0.00    -0.352 N 
ATOM     22  C   UNL A   1      34.355  30.439  27.541  1.00  0.00     0.251 C 
ATOM     23  H   UNL A   1      32.935  31.843  27.458  1.00  0.00     0.163 HD
ATOM     24  O   UNL A   1      33.676  29.575  26.990  1.00  0.00    -0.269 OA
BRANCH  22  25
ATOM     25  C   UNL A   1      35.683  30.116  28.082  1.00  0.00     0.039 A 
ATOM     26  C   UNL A   1      35.803  29.704  29.408  1.00  0.00     0.014 A 
ATOM     27  C   UNL A   1      36.805  30.195  27.250  1.00  0.00     0.014 A 
ATOM     28  C   UNL A   1      37.054  29.326  29.888  1.00  0.00     0.010 A 
ATOM     29  C   UNL A   1      38.018  29.701  27.691  1.00  0.00     0.010 A 
ATOM     30  C   UNL A   1      38.161  29.295  29.023  1.00  0.00    -0.014 A 
BRANCH  30  31
ATOM     31  C   UNL A   1      39.500  28.890  29.496  1.00  0.00     0.031 A 
ATOM     32  C   UNL A   1      40.231  29.768  30.471  1.00  0.00     0.074 A 
ATOM     33  C   UNL A   1      40.072  27.780  28.995  1.00  0.00     0.049 A 
ATOM     34  N   UNL A   1      41.440  29.643  30.953  1.00  0.00    -0.248 NA
ATOM     35  C   UNL A   1      39.523  30.973  30.940  1.00  0.00     0.031 C 
ATOM     36  C   UNL A   1      39.468  26.892  27.999  1.00  0.00     0.029 A 
ATOM     37  N   UNL A   1      41.292  27.213  29.250  1.00  0.00    -0.354 N 
ATOM     38  C   UNL A   1      41.638  30.754  31.760  1.00  0.00     0.074 A 
ATOM     39  C   UNL A   1      40.461  31.583  31.645  1.00  0.00     0.031 C 
ATOM     40  C   UNL A   1      40.306  25.871  27.757  1.00  0.00     0.029 A 
ATOM     41  C   UNL A   1      41.519  26.058  28.543  1.00  0.00     0.049 A 
ATOM     42  H   UNL A   1      41.944  27.598  29.880  1.00  0.00     0.167 HD
ATOM     43  C   UNL A   1      42.695  31.038  32.556  1.00  0.00     0.037 A 
ATOM     44  C   UNL A   1      42.594  25.248  28.537  1.00  0.00     0.037 A 
ATOM     45  C   UNL A   1      43.846  30.186  32.680  1.00  0.00     0.049 A 
ATOM     46  C   UNL A   1      43.759  25.591  29.424  1.00  0.00     0.074 A 
ATOM     47  C   UNL A   1      44.951  30.341  33.494  1.00  0.00     0.029 A 
ATOM     48  N   UNL A   1      44.036  29.013  31.962  1.00  0.00    -0.354 N 
ATOM     49  N   UNL A   1      43.908  26.606  30.242  1.00  0.00    -0.248 NA
ATOM     50  C   UNL A   1      44.903  24.671  29.395  1.00  0.00     0.031 C 
ATOM     51  C   UNL A   1      45.836  29.292  33.230  1.00  0.00     0.029 A 
ATOM     52  C   UNL A   1      45.254  28.446  32.298  1.00  0.00     0.049 A 
ATOM     53  H   UNL A   1      43.400  28.639  31.311  1.00  0.00     0.167 HD
ATOM     54  C   UNL A   1      45.146  26.431  30.846  1.00  0.00     0.074 A 
ATOM     55  C   UNL A   1      45.697  25.202  30.312  1.00  0.00     0.031 C 
ATOM     56  C   UNL A   1      45.773  27.215  31.758  1.00  0.00     0.037 A 
BRANCH  43  57
ATOM     57  C   UNL A   1      42.646  32.310  33.352  1.00  0.00     0.064 A 
ATOM     58  C   UNL A   1      42.094  32.353  34.643  1.00  0.00     0.173 A 
ATOM     59  C   UNL A   1      43.176  33.499  32.829  1.00  0.00     0.173 A 
ATOM     60  F   UNL A   1      41.557  31.249  35.186  1.00  0.00    -0.203 F 
ATOM     61  C   UNL A   1      42.045  33.543  35.364  1.00  0.00     0.198 A 
ATOM     62  C   UNL A   1      43.158  34.679  33.569  1.00  0.00     0.198 A 
ATOM     63  F   UNL A   1      43.716  33.516  31.602  1.00  0.00    -0.203 F 
ATOM     64  F   UNL A   1      41.458  33.570  36.569  1.00  0.00    -0.200 F 
ATOM     65  C   UNL A   1      42.585  34.703  34.831  1.00  0.00     0.200 A 
ATOM     66  F   UNL A   1      43.692  35.797  33.056  1.00  0.00    -0.200 F 
ATOM     67  F   UNL A   1      42.545  35.845  35.530  1.00  0.00    -0.200 F 
ENDBRANCH  43  57
BRANCH  44  68
ATOM     68  C   UNL A   1      42.599  24.025  27.692  1.00  0.00     0.064 A 
ATOM     69  C   UNL A   1      42.243  22.780  28.228  1.00  0.00     0.173 A 
ATOM     70  C   UNL A   1      42.961  24.072  26.337  1.00  0.00     0.173 A 
ATOM     71  F   UNL A   1      41.903  22.680  29.521  1.00  0.00    -0.203 F 
ATOM     72  C   UNL A   1      42.274  21.625  27.449  1.00  0.00     0.198 A 
ATOM     73  C   UNL A   1      42.959  22.921  25.551  1.00  0.00     0.198 A 
ATOM     74  F   UNL A   1      43.299  25.240  25.771  1.00  0.00    -0.203 F 
ATOM     75  F   UNL A   1      41.978  20.440  28.001  1.00  0.00    -0.200 F 
ATOM     76  C   UNL A   1      42.626  21.698  26.110  1.00  0.00     0.200 A 
ATOM     77  F   UNL A   1      43.283  22.999  24.253  1.00  0.00    -0.200 F 
ATOM     78  F   UNL A   1      42.653  20.586  25.361  1.00  0.00    -0.200 F 
ENDBRANCH  44  68
BRANCH  56  79
ATOM     79  C   UNL A   1      47.103  26.744  32.267  1.00  0.00     0.064 A 
ATOM     80  C   UNL A   1      48.309  27.211  31.724  1.00  0.00     0.173 A 
ATOM     81  C   UNL A   1      47.170  25.848  33.346  1.00  0.00     0.173 A 
ATOM     82  F   UNL A   1      48.298  28.058  30.684  1.00  0.00    -0.203 F 
ATOM     83  C   UNL A   1      49.533  26.773  32.222  1.00  0.00     0.198 A 
ATOM     84  C   UNL A   1      48.395  25.442  33.864  1.00  0.00     0.198 A 
ATOM     85  F   UNL A   1      46.045  25.380  33.907  1.00  0.00    -0.203 F 
ATOM     86  F   UNL A   1      50.672  27.190  31.652  1.00  0.00    -0.200 F 
ATOM     87  C   UNL A   1      49.575  25.898  33.297  1.00  0.00     0.200 A 
ATOM     88  F   UNL A   1      48.434  24.611  34.915  1.00  0.00    -0.200 F 
ATOM     89  F   UNL A   1      50.755  25.486  33.782  1.00  0.00    -0.200 F 
ENDBRANCH  56  79
ENDBRANCH  30  31
ENDBRANCH  22  25
ENDBRANCH  20  21
ENDBRANCH  19  20
ENDBRANCH   1  19
TORSDOF 14
ENDMDL
MODEL 3
REMARK VINA RESULT:     -11.4      5.784     10.675
REMARK SMILES CO[C@H]1CC[C@@H]([NH2+]CC(=O)NCCCCNC(=O)c2ccc(-c3c4nc(c(-c5c(F)c(F)c(F)c(F)c5F)c5ccc([nH]5)c(-c5c(F)c(F)c(F)c(F)c5F)c5nc(c(-c6c(F)c(F)c(F)c(F)c6F)c6ccc3[nH]6)C=C5)C=C4)cc2)CC1
REMARK SMILES IDX 13 1 12 2 11 3 9 4 10 5 8 7 7 8 6 11 3 12 83 13 4 14 82 15
REMARK SMILES IDX 5 16 2 17 1 18 14 19 15 20 16 21 17 22 18 24 19 25 20 26
REMARK SMILES IDX 81 27 21 28 80 29 22 30 23 31 24 32 74 33 25 34 79 35 73 36
REMARK SMILES IDX 75 37 26 38 78 39 72 40 71 41 27 43 59 44 39 45 58 46 40 47
REMARK SMILES IDX 43 48 57 49 76 50 41 51 42 52 56 54 77 55 44 56 28 57 29 58
REMARK SMILES IDX 37 59 30 60 31 61 35 62 38 63 32 64 33 65 36 66 34 67 60 68
REMARK SMILES IDX 61 69 69 70 62 71 63 72 67 73 70 74 64 75 65 76 68 77 66 78
REMARK SMILES IDX 45 79 46 80 54 81 47 82 48 83 52 84 55 85 49 86 50 87 53 88
REMARK SMILES IDX 51 89
REMARK H PARENT 11 6 7 9 7 10 16 23 75 42 43 53
REMARK Flexibility Score: inf
ROOT
ATOM      1  C   UNL A   1      33.958  34.967  28.308  1.00  0.00     0.023 C 
ENDROOT
BRANCH   1   2
ATOM      2  C   UNL A   1      33.240  34.908  29.669  1.00  0.00     0.116 C 
BRANCH   2   3
ATOM      3  N   UNL A   1      32.872  36.192  30.252  1.00  0.00    -0.351 N 
ATOM      4  C   UNL A   1      33.195  36.766  31.458  1.00  0.00     0.275 C 
ATOM      5  O   UNL A   1      32.831  37.931  31.646  1.00  0.00    -0.269 OA
ATOM      6  H   UNL A   1      32.289  36.744  29.682  1.00  0.00     0.163 HD
BRANCH   4   7
ATOM      7  C   UNL A   1      33.910  35.971  32.569  1.00  0.00     0.362 C 
BRANCH   7   8
ATOM      8  N   UNL A   1      33.209  34.703  32.967  1.00  0.00    -0.336 N 
ATOM      9  H   UNL A   1      32.525  34.917  33.694  1.00  0.00     0.346 HD
ATOM     10  H   UNL A   1      32.750  34.318  32.143  1.00  0.00     0.346 HD
BRANCH   8  11
ATOM     11  C   UNL A   1      34.157  33.706  33.481  1.00  0.00     0.182 C 
ATOM     12  C   UNL A   1      37.042  32.998  33.382  1.00  0.00     0.118 C 
ATOM     13  C   UNL A   1      36.639  34.300  34.045  1.00  0.00     0.038 C 
ATOM     14  C   UNL A   1      36.188  32.802  32.131  1.00  0.00     0.038 C 
ATOM     15  C   UNL A   1      35.183  34.336  34.445  1.00  0.00     0.067 C 
ATOM     16  C   UNL A   1      34.707  32.693  32.463  1.00  0.00     0.067 C 
BRANCH  12  17
ATOM     17  O   UNL A   1      38.422  33.148  33.044  1.00  0.00    -0.381 OA
ATOM     18  C   UNL A   1      38.889  34.485  33.113  1.00  0.00     0.195 C 
ENDBRANCH  12  17
ENDBRANCH   8  11
ENDBRANCH   7   8
ENDBRANCH   4   7
ENDBRANCH   2   3
ENDBRANCH   1   2
BRANCH   1  19
ATOM     19  C   UNL A   1      34.753  33.731  27.912  1.00  0.00     0.023 C 
BRANCH  19  20
ATOM     20  C   UNL A   1      34.589  32.585  28.882  1.00  0.00     0.116 C 
BRANCH  20  21
ATOM     21  N   UNL A   1      33.981  31.421  28.247  1.00  0.00    -0.352 N 
ATOM     22  C   UNL A   1      34.572  30.261  27.827  1.00  0.00     0.251 C 
ATOM     23  H   UNL A   1      33.009  31.477  28.100  1.00  0.00     0.163 HD
ATOM     24  O   UNL A   1      33.964  29.475  27.103  1.00  0.00    -0.269 OA
BRANCH  22  25
ATOM     25  C   UNL A   1      35.949  29.975  28.254  1.00  0.00     0.039 A 
ATOM     26  C   UNL A   1      36.180  29.441  29.521  1.00  0.00     0.014 A 
ATOM     27  C   UNL A   1      37.008  30.211  27.371  1.00  0.00     0.014 A 
ATOM     28  C   UNL A   1      37.479  29.101  29.885  1.00  0.00     0.010 A 
ATOM     29  C   UNL A   1      38.275  29.757  27.687  1.00  0.00     0.010 A 
ATOM     30  C   UNL A   1      38.528  29.230  28.958  1.00  0.00    -0.014 A 
BRANCH  30  31
ATOM     31  C   UNL A   1      39.917  28.870  29.308  1.00  0.00     0.031 A 
ATOM     32  C   UNL A   1      40.729  29.810  30.153  1.00  0.00     0.074 A 
ATOM     33  C   UNL A   1      40.454  27.742  28.809  1.00  0.00     0.049 A 
ATOM     34  N   UNL A   1      41.984  29.728  30.510  1.00  0.00    -0.248 NA
ATOM     35  C   UNL A   1      40.051  31.030  30.629  1.00  0.00     0.031 C 
ATOM     36  C   UNL A   1      39.766  26.793  27.931  1.00  0.00     0.029 A 
ATOM     37  N   UNL A   1      41.705  27.208  28.963  1.00  0.00    -0.354 N 
ATOM     38  C   UNL A   1      42.244  30.885  31.232  1.00  0.00     0.074 A 
ATOM     39  C   UNL A   1      41.046  31.690  31.198  1.00  0.00     0.031 C 
ATOM     40  C   UNL A   1      40.594  25.773  27.655  1.00  0.00     0.029 A 
ATOM     41  C   UNL A   1      41.879  26.018  28.299  1.00  0.00     0.049 A 
ATOM     42  H   UNL A   1      42.412  27.635  29.500  1.00  0.00     0.167 HD
ATOM     43  C   UNL A   1      43.373  31.226  31.896  1.00  0.00     0.037 A 
ATOM     44  C   UNL A   1      42.963  25.224  28.221  1.00  0.00     0.037 A 
ATOM     45  C   UNL A   1      44.547  30.398  31.942  1.00  0.00     0.049 A 
ATOM     46  C   UNL A   1      44.208  25.631  28.961  1.00  0.00     0.074 A 
ATOM     47  C   UNL A   1      45.728  30.612  32.626  1.00  0.00     0.029 A 
ATOM     48  N   UNL A   1      44.683  29.190  31.271  1.00  0.00    -0.354 N 
ATOM     49  N   UNL A   1      44.422  26.691  29.704  1.00  0.00    -0.248 NA
ATOM     50  C   UNL A   1      45.360  24.726  28.860  1.00  0.00     0.031 C 
ATOM     51  C   UNL A   1      46.600  29.563  32.325  1.00  0.00     0.029 A 
ATOM     52  C   UNL A   1      45.940  28.659  31.506  1.00  0.00     0.049 A 
ATOM     53  H   UNL A   1      43.990  28.773  30.711  1.00  0.00     0.167 HD
ATOM     54  C   UNL A   1      45.719  26.566  30.182  1.00  0.00     0.074 A 
ATOM     55  C   UNL A   1      46.236  25.317  29.658  1.00  0.00     0.031 C 
ATOM     56  C   UNL A   1      46.423  27.408  30.980  1.00  0.00     0.037 A 
BRANCH  43  57
ATOM     57  C   UNL A   1      43.383  32.539  32.624  1.00  0.00     0.064 A 
ATOM     58  C   UNL A   1      43.017  32.636  33.977  1.00  0.00     0.173 A 
ATOM     59  C   UNL A   1      43.782  33.713  31.970  1.00  0.00     0.173 A 
ATOM     60  F   UNL A   1      42.610  31.547  34.647  1.00  0.00    -0.203 F 
ATOM     61  C   UNL A   1      43.020  33.863  34.635  1.00  0.00     0.198 A 
ATOM     62  C   UNL A   1      43.819  34.933  32.643  1.00  0.00     0.198 A 
ATOM     63  F   UNL A   1      44.142  33.680  30.678  1.00  0.00    -0.203 F 
ATOM     64  F   UNL A   1      42.610  33.938  35.909  1.00  0.00    -0.200 F 
ATOM     65  C   UNL A   1      43.430  35.008  33.971  1.00  0.00     0.200 A 
ATOM     66  F   UNL A   1      44.228  36.037  32.001  1.00  0.00    -0.200 F 
ATOM     67  F   UNL A   1      43.441  36.187  34.609  1.00  0.00    -0.200 F 
ENDBRANCH  43  57
BRANCH  44  68
ATOM     68  C   UNL A   1      42.903  23.957  27.446  1.00  0.00     0.064 A 
ATOM     69  C   UNL A   1      42.498  22.761  28.055  1.00  0.00     0.173 A 
ATOM     70  C   UNL A   1      43.250  23.912  26.088  1.00  0.00     0.173 A 
ATOM     71  F   UNL A   1      42.169  22.749  29.354  1.00  0.00    -0.203 F 
ATOM     72  C   UNL A   1      42.468  21.564  27.341  1.00  0.00     0.198 A 
ATOM     73  C   UNL A   1      43.187  22.720  25.368  1.00  0.00     0.198 A 
ATOM     74  F   UNL A   1      43.634  25.030  25.454  1.00  0.00    -0.203 F 
ATOM     75  F   UNL A   1      42.125  20.426  27.962  1.00  0.00    -0.200 F 
ATOM     76  C   UNL A   1      42.807  21.546  25.998  1.00  0.00     0.200 A 
ATOM     77  F   UNL A   1      43.499  22.711  24.065  1.00  0.00    -0.200 F 
ATOM     78  F   UNL A   1      42.774  20.395  25.312  1.00  0.00    -0.200 F 
ENDBRANCH  44  68
BRANCH  56  79
ATOM     79  C   UNL A   1      47.809  26.983  31.370  1.00  0.00     0.064 A 
ATOM     80  C   UNL A   1      48.038  26.112  32.445  1.00  0.00     0.173 A 
ATOM     81  C   UNL A   1      48.917  27.418  30.626  1.00  0.00     0.173 A 
ATOM     82  F   UNL A   1      47.014  25.679  33.195  1.00  0.00    -0.203 F 
ATOM     83  C   UNL A   1      49.331  25.718  32.780  1.00  0.00     0.198 A 
ATOM     84  C   UNL A   1      50.202  26.992  30.941  1.00  0.00     0.198 A 
ATOM     85  F   UNL A   1      48.748  28.244  29.582  1.00  0.00    -0.203 F 
ATOM     86  F   UNL A   1      49.532  24.930  33.845  1.00  0.00    -0.200 F 
ATOM     87  C   UNL A   1      50.410  26.150  32.023  1.00  0.00     0.200 A 
ATOM     88  F   UNL A   1      51.241  27.395  30.197  1.00  0.00    -0.200 F 
ATOM     89  F   UNL A   1      51.652  25.760  32.340  1.00  0.00    -0.200 F 
ENDBRANCH  56  79
ENDBRANCH  30  31
ENDBRANCH  22  25
ENDBRANCH  20  21
ENDBRANCH  19  20
ENDBRANCH   1  19
TORSDOF 14
ENDMDL
