MODEL 1
REMARK VINA RESULT:     -12.8      0.000      0.000
REMARK SMILES CN(C)c1c(Cl)cccc1NS(=O)(=O)c1ccc(F)c(C(=O)NCCCCNC(=O)c2ccc(-c3c4nc(c(-c5c(F)c(F)c(F)c(F)c5F)c5ccc([nH]5)c(-c5c(F)c(F)c(F)c(F)c5F)c5nc(c(-c6c(F)c(F)c(F)c(F)c6F)c6ccc3[nH]6)C=C5)C=C4)cc2)c1
REMARK SMILES IDX 24 1 23 2 21 3 22 4 20 6 15 7 16 8 94 9 17 10 18 11 19 12
REMARK SMILES IDX 12 13 13 14 14 15 11 16 10 18 4 19 5 20 6 21 7 22 9 23 8 24
REMARK SMILES IDX 2 25 1 26 3 27 25 28 26 29 27 30 28 31 29 32 30 34 31 35
REMARK SMILES IDX 32 36 93 37 33 38 92 39 34 40 35 41 36 42 86 43 37 44 91 45
REMARK SMILES IDX 85 46 87 47 38 48 90 49 84 50 83 51 39 53 71 54 51 55 70 56
REMARK SMILES IDX 52 57 55 58 69 59 88 60 53 61 54 62 68 64 89 65 56 66 40 67
REMARK SMILES IDX 41 68 49 69 42 70 43 71 47 72 50 73 44 74 45 75 48 76 46 77
REMARK SMILES IDX 72 78 73 79 81 80 74 81 75 82 79 83 82 84 76 85 77 86 80 87
REMARK SMILES IDX 78 88 57 89 58 90 66 91 59 92 60 93 64 94 67 95 61 96 62 97
REMARK SMILES IDX 65 98 63 99
REMARK H PARENT 23 5 11 17 28 33 87 52 55 63
REMARK Flexibility Score: inf
ROOT
ATOM      1  C   UNL A   1      32.963  29.958  26.167  1.00  0.00     0.116 C 
ENDROOT
BRANCH   1   2
ATOM      2  N   UNL A   1      33.651  29.686  24.917  1.00  0.00    -0.352 N 
ATOM      3  C   UNL A   1      33.288  28.906  23.838  1.00  0.00     0.254 C 
ATOM      4  O   UNL A   1      34.008  28.938  22.840  1.00  0.00    -0.269 OA
ATOM      5  H   UNL A   1      34.523  30.135  24.823  1.00  0.00     0.163 HD
BRANCH   3   6
ATOM      6  C   UNL A   1      32.166  27.930  23.875  1.00  0.00     0.076 A 
ATOM      7  C   UNL A   1      31.359  25.838  24.840  1.00  0.00     0.088 A 
ATOM      8  C   UNL A   1      30.054  26.166  24.456  1.00  0.00     0.025 A 
ATOM      9  C   UNL A   1      32.419  26.686  24.484  1.00  0.00     0.039 A 
ATOM     10  C   UNL A   1      29.828  27.322  23.701  1.00  0.00     0.041 A 
ATOM     11  C   UNL A   1      30.884  28.181  23.398  1.00  0.00     0.136 A 
ATOM     12  F   UNL A   1      30.625  29.240  22.617  1.00  0.00    -0.206 F 
BRANCH   7  13
ATOM     13  S   UNL A   1      31.690  24.290  25.679  1.00  0.00     0.261 S 
ATOM     14  O   UNL A   1      30.451  23.881  26.310  1.00  0.00    -0.201 OA
ATOM     15  O   UNL A   1      32.877  24.502  26.482  1.00  0.00    -0.201 OA
BRANCH  13  16
ATOM     16  N   UNL A   1      32.151  23.121  24.532  1.00  0.00    -0.277 N 
ATOM     17  H   UNL A   1      31.456  22.641  24.027  1.00  0.00     0.180 HD
BRANCH  16  18
ATOM     18  C   UNL A   1      33.534  22.820  24.287  1.00  0.00     0.074 A 
ATOM     19  C   UNL A   1      34.203  21.718  24.881  1.00  0.00     0.080 A 
ATOM     20  C   UNL A   1      35.572  21.550  24.538  1.00  0.00     0.066 A 
ATOM     21  Cl  UNL A   1      36.516  20.201  25.086  1.00  0.00    -0.082 Cl
ATOM     22  C   UNL A   1      36.247  22.474  23.725  1.00  0.00     0.023 A 
ATOM     23  C   UNL A   1      34.241  23.765  23.535  1.00  0.00     0.029 A 
ATOM     24  C   UNL A   1      35.586  23.595  23.244  1.00  0.00     0.004 A 
BRANCH  19  25
ATOM     25  N   UNL A   1      33.565  20.958  25.867  1.00  0.00    -0.375 N 
ATOM     26  C   UNL A   1      33.836  21.285  27.262  1.00  0.00     0.143 C 
ATOM     27  C   UNL A   1      33.015  19.652  25.540  1.00  0.00     0.143 C 
ENDBRANCH  19  25
ENDBRANCH  16  18
ENDBRANCH  13  16
ENDBRANCH   7  13
ENDBRANCH   3   6
ENDBRANCH   1   2
BRANCH   1  28
ATOM     28  C   UNL A   1      31.570  30.565  26.036  1.00  0.00     0.023 C 
BRANCH  28  29
ATOM     29  C   UNL A   1      31.353  31.974  26.576  1.00  0.00     0.023 C 
BRANCH  29  30
ATOM     30  C   UNL A   1      32.556  32.666  27.206  1.00  0.00     0.116 C 
BRANCH  30  31
ATOM     31  N   UNL A   1      32.319  34.049  27.592  1.00  0.00    -0.352 N 
ATOM     32  C   UNL A   1      32.990  34.847  28.491  1.00  0.00     0.251 C 
ATOM     33  H   UNL A   1      31.559  34.481  27.139  1.00  0.00     0.163 HD
ATOM     34  O   UNL A   1      32.591  35.987  28.712  1.00  0.00    -0.269 OA
BRANCH  32  35
ATOM     35  C   UNL A   1      34.159  34.326  29.235  1.00  0.00     0.039 A 
ATOM     36  C   UNL A   1      33.937  33.598  30.409  1.00  0.00     0.014 A 
ATOM     37  C   UNL A   1      35.463  34.528  28.780  1.00  0.00     0.014 A 
ATOM     38  C   UNL A   1      35.010  32.990  31.066  1.00  0.00     0.010 A 
ATOM     39  C   UNL A   1      36.521  33.853  29.386  1.00  0.00     0.010 A 
ATOM     40  C   UNL A   1      36.305  33.067  30.528  1.00  0.00    -0.014 A 
BRANCH  40  41
ATOM     41  C   UNL A   1      37.440  32.316  31.129  1.00  0.00     0.031 A 
ATOM     42  C   UNL A   1      37.947  32.675  32.498  1.00  0.00     0.074 A 
ATOM     43  C   UNL A   1      38.061  31.357  30.413  1.00  0.00     0.049 A 
ATOM     44  N   UNL A   1      38.978  32.200  33.150  1.00  0.00    -0.248 NA
ATOM     45  C   UNL A   1      37.214  33.727  33.223  1.00  0.00     0.031 C 
ATOM     46  C   UNL A   1      37.694  30.943  29.057  1.00  0.00     0.029 A 
ATOM     47  N   UNL A   1      39.137  30.560  30.720  1.00  0.00    -0.354 N 
ATOM     48  C   UNL A   1      39.024  32.899  34.347  1.00  0.00     0.074 A 
ATOM     49  C   UNL A   1      37.952  33.869  34.314  1.00  0.00     0.031 C 
ATOM     50  C   UNL A   1      38.509  29.952  28.663  1.00  0.00     0.029 A 
ATOM     51  C   UNL A   1      39.484  29.688  29.716  1.00  0.00     0.049 A 
ATOM     52  H   UNL A   1      39.614  30.609  31.580  1.00  0.00     0.167 HD
ATOM     53  C   UNL A   1      39.870  32.731  35.390  1.00  0.00     0.037 A 
ATOM     54  C   UNL A   1      40.479  28.782  29.649  1.00  0.00     0.037 A 
ATOM     55  C   UNL A   1      40.914  31.741  35.438  1.00  0.00     0.049 A 
ATOM     56  C   UNL A   1      41.410  28.620  30.820  1.00  0.00     0.074 A 
ATOM     57  C   UNL A   1      41.783  31.458  36.475  1.00  0.00     0.029 A 
ATOM     58  N   UNL A   1      41.226  30.870  34.404  1.00  0.00    -0.354 N 
ATOM     59  N   UNL A   1      41.410  29.255  31.967  1.00  0.00    -0.248 NA
ATOM     60  C   UNL A   1      42.477  27.618  30.690  1.00  0.00     0.031 C 
ATOM     61  C   UNL A   1      42.650  30.446  36.056  1.00  0.00     0.029 A 
ATOM     62  C   UNL A   1      42.288  30.063  34.775  1.00  0.00     0.049 A 
ATOM     63  H   UNL A   1      40.762  30.834  33.536  1.00  0.00     0.167 HD
ATOM     64  C   UNL A   1      42.455  28.712  32.703  1.00  0.00     0.074 A 
ATOM     65  C   UNL A   1      43.061  27.687  31.879  1.00  0.00     0.031 C 
ATOM     66  C   UNL A   1      42.873  29.037  33.950  1.00  0.00     0.037 A 
BRANCH  53  67
ATOM     67  C   UNL A   1      39.693  33.616  36.589  1.00  0.00     0.064 A 
ATOM     68  C   UNL A   1      38.858  33.226  37.647  1.00  0.00     0.173 A 
ATOM     69  C   UNL A   1      40.281  34.888  36.650  1.00  0.00     0.173 A 
ATOM     70  F   UNL A   1      38.266  32.022  37.633  1.00  0.00    -0.203 F 
ATOM     71  C   UNL A   1      38.605  34.084  38.713  1.00  0.00     0.198 A 
ATOM     72  C   UNL A   1      40.048  35.732  37.732  1.00  0.00     0.198 A 
ATOM     73  F   UNL A   1      41.095  35.303  35.669  1.00  0.00    -0.203 F 
ATOM     74  F   UNL A   1      37.774  33.704  39.695  1.00  0.00    -0.200 F 
ATOM     75  C   UNL A   1      39.202  35.335  38.756  1.00  0.00     0.200 A 
ATOM     76  F   UNL A   1      40.643  36.932  37.783  1.00  0.00    -0.200 F 
ATOM     77  F   UNL A   1      38.960  36.158  39.786  1.00  0.00    -0.200 F 
ENDBRANCH  53  67
BRANCH  54  78
ATOM     78  C   UNL A   1      40.625  27.932  28.437  1.00  0.00     0.064 A 
ATOM     79  C   UNL A   1      40.018  26.670  28.348  1.00  0.00     0.173 A 
ATOM     80  C   UNL A   1      41.392  28.364  27.346  1.00  0.00     0.173 A 
ATOM     81  F   UNL A   1      39.276  26.209  29.366  1.00  0.00    -0.203 F 
ATOM     82  C   UNL A   1      40.185  25.869  27.221  1.00  0.00     0.198 A 
ATOM     83  C   UNL A   1      41.536  27.574  26.208  1.00  0.00     0.198 A 
ATOM     84  F   UNL A   1      41.976  29.572  27.375  1.00  0.00    -0.203 F 
ATOM     85  F   UNL A   1      39.620  24.655  27.173  1.00  0.00    -0.200 F 
ATOM     86  C   UNL A   1      40.940  26.323  26.149  1.00  0.00     0.200 A 
ATOM     87  F   UNL A   1      42.246  28.027  25.165  1.00  0.00    -0.200 F 
ATOM     88  F   UNL A   1      41.088  25.558  25.059  1.00  0.00    -0.200 F 
ENDBRANCH  54  78
BRANCH  66  89
ATOM     89  C   UNL A   1      44.023  28.265  34.527  1.00  0.00     0.064 A 
ATOM     90  C   UNL A   1      43.793  27.088  35.256  1.00  0.00     0.173 A 
ATOM     91  C   UNL A   1      45.340  28.736  34.437  1.00  0.00     0.173 A 
ATOM     92  F   UNL A   1      42.548  26.602  35.378  1.00  0.00    -0.203 F 
ATOM     93  C   UNL A   1      44.837  26.423  35.891  1.00  0.00     0.198 A 
ATOM     94  C   UNL A   1      46.387  28.052  35.049  1.00  0.00     0.198 A 
ATOM     95  F   UNL A   1      45.613  29.849  33.740  1.00  0.00    -0.203 F 
ATOM     96  F   UNL A   1      44.588  25.324  36.616  1.00  0.00    -0.200 F 
ATOM     97  C   UNL A   1      46.133  26.904  35.786  1.00  0.00     0.200 A 
ATOM     98  F   UNL A   1      47.642  28.506  34.929  1.00  0.00    -0.200 F 
ATOM     99  F   UNL A   1      47.139  26.260  36.393  1.00  0.00    -0.200 F 
ENDBRANCH  66  89
ENDBRANCH  40  41
ENDBRANCH  32  35
ENDBRANCH  30  31
ENDBRANCH  29  30
ENDBRANCH  28  29
ENDBRANCH   1  28
TORSDOF 15
ENDMDL
MODEL 2
REMARK VINA RESULT:     -12.8      5.442      9.943
REMARK SMILES CN(C)c1c(Cl)cccc1NS(=O)(=O)c1ccc(F)c(C(=O)NCCCCNC(=O)c2ccc(-c3c4nc(c(-c5c(F)c(F)c(F)c(F)c5F)c5ccc([nH]5)c(-c5c(F)c(F)c(F)c(F)c5F)c5nc(c(-c6c(F)c(F)c(F)c(F)c6F)c6ccc3[nH]6)C=C5)C=C4)cc2)c1
REMARK SMILES IDX 24 1 23 2 21 3 22 4 20 6 15 7 16 8 94 9 17 10 18 11 19 12
REMARK SMILES IDX 12 13 13 14 14 15 11 16 10 18 4 19 5 20 6 21 7 22 9 23 8 24
REMARK SMILES IDX 2 25 1 26 3 27 25 28 26 29 27 30 28 31 29 32 30 34 31 35
REMARK SMILES IDX 32 36 93 37 33 38 92 39 34 40 35 41 36 42 86 43 37 44 91 45
REMARK SMILES IDX 85 46 87 47 38 48 90 49 84 50 83 51 39 53 71 54 51 55 70 56
REMARK SMILES IDX 52 57 55 58 69 59 88 60 53 61 54 62 68 64 89 65 56 66 40 67
REMARK SMILES IDX 41 68 49 69 42 70 43 71 47 72 50 73 44 74 45 75 48 76 46 77
REMARK SMILES IDX 72 78 73 79 81 80 74 81 75 82 79 83 82 84 76 85 77 86 80 87
REMARK SMILES IDX 78 88 57 89 58 90 66 91 59 92 60 93 64 94 67 95 61 96 62 97
REMARK SMILES IDX 65 98 63 99
REMARK H PARENT 23 5 11 17 28 33 87 52 55 63
REMARK Flexibility Score: inf
ROOT
ATOM      1  C   UNL A   1      36.890  22.291  25.386  1.00  0.00     0.116 C 
ENDROOT
BRANCH   1   2
ATOM      2  N   UNL A   1      35.984  22.042  26.494  1.00  0.00    -0.352 N 
ATOM      3  C   UNL A   1      34.639  21.733  26.508  1.00  0.00     0.254 C 
ATOM      4  O   UNL A   1      34.127  21.453  27.592  1.00  0.00    -0.269 OA
ATOM      5  H   UNL A   1      36.399  22.105  27.385  1.00  0.00     0.163 HD
BRANCH   3   6
ATOM      6  C   UNL A   1      33.758  21.860  25.317  1.00  0.00     0.076 A 
ATOM      7  C   UNL A   1      33.066  23.312  23.481  1.00  0.00     0.088 A 
ATOM      8  C   UNL A   1      32.530  22.206  22.810  1.00  0.00     0.025 A 
ATOM      9  C   UNL A   1      33.611  23.146  24.762  1.00  0.00     0.039 A 
ATOM     10  C   UNL A   1      32.524  20.956  23.438  1.00  0.00     0.041 A 
ATOM     11  C   UNL A   1      33.116  20.797  24.691  1.00  0.00     0.136 A 
ATOM     12  F   UNL A   1      33.025  19.594  25.277  1.00  0.00    -0.206 F 
BRANCH   7  13
ATOM     13  S   UNL A   1      32.951  24.948  22.758  1.00  0.00     0.261 S 
ATOM     14  O   UNL A   1      32.913  24.769  21.320  1.00  0.00    -0.201 OA
ATOM     15  O   UNL A   1      34.002  25.739  23.362  1.00  0.00    -0.201 OA
BRANCH  13  16
ATOM     16  N   UNL A   1      31.507  25.685  23.273  1.00  0.00    -0.277 N 
ATOM     17  H   UNL A   1      30.676  25.518  22.775  1.00  0.00     0.180 HD
BRANCH  16  18
ATOM     18  C   UNL A   1      31.478  26.549  24.421  1.00  0.00     0.074 A 
ATOM     19  C   UNL A   1      31.518  27.964  24.325  1.00  0.00     0.080 A 
ATOM     20  C   UNL A   1      31.480  28.682  25.552  1.00  0.00     0.066 A 
ATOM     21  Cl  UNL A   1      31.416  30.415  25.621  1.00  0.00    -0.082 Cl
ATOM     22  C   UNL A   1      31.490  28.024  26.791  1.00  0.00     0.023 A 
ATOM     23  C   UNL A   1      31.556  25.913  25.665  1.00  0.00     0.029 A 
ATOM     24  C   UNL A   1      31.552  26.639  26.847  1.00  0.00     0.004 A 
BRANCH  19  25
ATOM     25  N   UNL A   1      31.747  28.578  23.089  1.00  0.00    -0.375 N 
ATOM     26  C   UNL A   1      33.116  28.953  22.756  1.00  0.00     0.143 C 
ATOM     27  C   UNL A   1      30.647  29.202  22.370  1.00  0.00     0.143 C 
ENDBRANCH  19  25
ENDBRANCH  16  18
ENDBRANCH  13  16
ENDBRANCH   7  13
ENDBRANCH   3   6
ENDBRANCH   1   2
BRANCH   1  28
ATOM     28  C   UNL A   1      37.142  21.105  24.460  1.00  0.00     0.023 C 
BRANCH  28  29
ATOM     29  C   UNL A   1      37.965  19.941  25.001  1.00  0.00     0.023 C 
BRANCH  29  30
ATOM     30  C   UNL A   1      39.245  20.289  25.752  1.00  0.00     0.116 C 
BRANCH  30  31
ATOM     31  N   UNL A   1      40.208  19.202  25.832  1.00  0.00    -0.352 N 
ATOM     32  C   UNL A   1      41.553  19.227  26.124  1.00  0.00     0.251 C 
ATOM     33  H   UNL A   1      39.840  18.307  25.647  1.00  0.00     0.163 HD
ATOM     34  O   UNL A   1      42.206  18.188  26.087  1.00  0.00    -0.269 OA
BRANCH  32  35
ATOM     35  C   UNL A   1      42.234  20.506  26.430  1.00  0.00     0.039 A 
ATOM     36  C   UNL A   1      42.806  21.230  25.379  1.00  0.00     0.014 A 
ATOM     37  C   UNL A   1      42.296  21.006  27.732  1.00  0.00     0.014 A 
ATOM     38  C   UNL A   1      43.346  22.497  25.618  1.00  0.00     0.010 A 
ATOM     39  C   UNL A   1      42.758  22.301  27.955  1.00  0.00     0.010 A 
ATOM     40  C   UNL A   1      43.276  23.066  26.899  1.00  0.00    -0.014 A 
BRANCH  40  41
ATOM     41  C   UNL A   1      43.718  24.464  27.152  1.00  0.00     0.031 A 
ATOM     42  C   UNL A   1      42.739  25.492  27.646  1.00  0.00     0.074 A 
ATOM     43  C   UNL A   1      44.986  24.826  26.868  1.00  0.00     0.049 A 
ATOM     44  N   UNL A   1      42.912  26.775  27.837  1.00  0.00    -0.248 NA
ATOM     45  C   UNL A   1      41.375  25.021  27.941  1.00  0.00     0.031 C 
ATOM     46  C   UNL A   1      46.022  23.934  26.342  1.00  0.00     0.029 A 
ATOM     47  N   UNL A   1      45.620  26.040  26.973  1.00  0.00    -0.354 N 
ATOM     48  C   UNL A   1      41.684  27.264  28.259  1.00  0.00     0.074 A 
ATOM     49  C   UNL A   1      40.758  26.153  28.248  1.00  0.00     0.031 C 
ATOM     50  C   UNL A   1      47.165  24.623  26.200  1.00  0.00     0.029 A 
ATOM     51  C   UNL A   1      46.936  26.013  26.581  1.00  0.00     0.049 A 
ATOM     52  H   UNL A   1      45.172  26.854  27.300  1.00  0.00     0.167 HD
ATOM     53  C   UNL A   1      41.365  28.521  28.646  1.00  0.00     0.037 A 
ATOM     54  C   UNL A   1      47.854  26.998  26.528  1.00  0.00     0.037 A 
ATOM     55  C   UNL A   1      42.295  29.618  28.692  1.00  0.00     0.049 A 
ATOM     56  C   UNL A   1      47.470  28.388  26.957  1.00  0.00     0.074 A 
ATOM     57  C   UNL A   1      42.076  30.913  29.125  1.00  0.00     0.029 A 
ATOM     58  N   UNL A   1      43.623  29.546  28.296  1.00  0.00    -0.354 N 
ATOM     59  N   UNL A   1      46.317  28.825  27.402  1.00  0.00    -0.248 NA
ATOM     60  C   UNL A   1      48.512  29.422  26.877  1.00  0.00     0.031 C 
ATOM     61  C   UNL A   1      43.257  31.638  28.951  1.00  0.00     0.029 A 
ATOM     62  C   UNL A   1      44.228  30.781  28.458  1.00  0.00     0.049 A 
ATOM     63  H   UNL A   1      44.067  28.738  27.952  1.00  0.00     0.167 HD
ATOM     64  C   UNL A   1      46.502  30.173  27.680  1.00  0.00     0.074 A 
ATOM     65  C   UNL A   1      47.881  30.482  27.365  1.00  0.00     0.031 C 
ATOM     66  C   UNL A   1      45.606  31.072  28.154  1.00  0.00     0.037 A 
BRANCH  53  67
ATOM     67  C   UNL A   1      39.953  28.786  29.080  1.00  0.00     0.064 A 
ATOM     68  C   UNL A   1      39.558  28.550  30.406  1.00  0.00     0.173 A 
ATOM     69  C   UNL A   1      38.970  29.188  28.164  1.00  0.00     0.173 A 
ATOM     70  F   UNL A   1      40.458  28.158  31.321  1.00  0.00    -0.203 F 
ATOM     71  C   UNL A   1      38.229  28.693  30.793  1.00  0.00     0.198 A 
ATOM     72  C   UNL A   1      37.647  29.356  28.561  1.00  0.00     0.198 A 
ATOM     73  F   UNL A   1      39.299  29.435  26.887  1.00  0.00    -0.203 F 
ATOM     74  F   UNL A   1      37.868  28.427  32.057  1.00  0.00    -0.200 F 
ATOM     75  C   UNL A   1      37.275  29.097  29.872  1.00  0.00     0.200 A 
ATOM     76  F   UNL A   1      36.730  29.768  27.674  1.00  0.00    -0.200 F 
ATOM     77  F   UNL A   1      35.996  29.237  30.247  1.00  0.00    -0.200 F 
ENDBRANCH  53  67
BRANCH  54  78
ATOM     78  C   UNL A   1      49.240  26.694  26.081  1.00  0.00     0.064 A 
ATOM     79  C   UNL A   1      50.217  26.235  26.978  1.00  0.00     0.173 A 
ATOM     80  C   UNL A   1      49.618  26.875  24.743  1.00  0.00     0.173 A 
ATOM     81  F   UNL A   1      49.907  26.049  28.270  1.00  0.00    -0.203 F 
ATOM     82  C   UNL A   1      51.520  25.981  26.556  1.00  0.00     0.198 A 
ATOM     83  C   UNL A   1      50.914  26.595  24.317  1.00  0.00     0.198 A 
ATOM     84  F   UNL A   1      48.715  27.293  23.844  1.00  0.00    -0.203 F 
ATOM     85  F   UNL A   1      52.441  25.573  27.438  1.00  0.00    -0.200 F 
ATOM     86  C   UNL A   1      51.867  26.157  25.224  1.00  0.00     0.200 A 
ATOM     87  F   UNL A   1      51.238  26.742  23.024  1.00  0.00    -0.200 F 
ATOM     88  F   UNL A   1      53.117  25.899  24.816  1.00  0.00    -0.200 F 
ENDBRANCH  54  78
BRANCH  66  89
ATOM     89  C   UNL A   1      46.081  32.475  28.393  1.00  0.00     0.064 A 
ATOM     90  C   UNL A   1      46.573  32.851  29.652  1.00  0.00     0.173 A 
ATOM     91  C   UNL A   1      45.964  33.465  27.409  1.00  0.00     0.173 A 
ATOM     92  F   UNL A   1      46.696  31.941  30.630  1.00  0.00    -0.203 F 
ATOM     93  C   UNL A   1      46.912  34.173  29.923  1.00  0.00     0.198 A 
ATOM     94  C   UNL A   1      46.331  34.783  27.674  1.00  0.00     0.198 A 
ATOM     95  F   UNL A   1      45.510  33.153  26.186  1.00  0.00    -0.203 F 
ATOM     96  F   UNL A   1      47.342  34.518  31.144  1.00  0.00    -0.200 F 
ATOM     97  C   UNL A   1      46.792  35.137  28.933  1.00  0.00     0.200 A 
ATOM     98  F   UNL A   1      46.236  35.709  26.710  1.00  0.00    -0.200 F 
ATOM     99  F   UNL A   1      47.124  36.410  29.193  1.00  0.00    -0.200 F 
ENDBRANCH  66  89
ENDBRANCH  40  41
ENDBRANCH  32  35
ENDBRANCH  30  31
ENDBRANCH  29  30
ENDBRANCH  28  29
ENDBRANCH   1  28
TORSDOF 15
ENDMDL
MODEL 3
REMARK VINA RESULT:     -12.7      3.454      4.977
REMARK SMILES CN(C)c1c(Cl)cccc1NS(=O)(=O)c1ccc(F)c(C(=O)NCCCCNC(=O)c2ccc(-c3c4nc(c(-c5c(F)c(F)c(F)c(F)c5F)c5ccc([nH]5)c(-c5c(F)c(F)c(F)c(F)c5F)c5nc(c(-c6c(F)c(F)c(F)c(F)c6F)c6ccc3[nH]6)C=C5)C=C4)cc2)c1
REMARK SMILES IDX 24 1 23 2 21 3 22 4 20 6 15 7 16 8 94 9 17 10 18 11 19 12
REMARK SMILES IDX 12 13 13 14 14 15 11 16 10 18 4 19 5 20 6 21 7 22 9 23 8 24
REMARK SMILES IDX 2 25 1 26 3 27 25 28 26 29 27 30 28 31 29 32 30 34 31 35
REMARK SMILES IDX 32 36 93 37 33 38 92 39 34 40 35 41 36 42 86 43 37 44 91 45
REMARK SMILES IDX 85 46 87 47 38 48 90 49 84 50 83 51 39 53 71 54 51 55 70 56
REMARK SMILES IDX 52 57 55 58 69 59 88 60 53 61 54 62 68 64 89 65 56 66 40 67
REMARK SMILES IDX 41 68 49 69 42 70 43 71 47 72 50 73 44 74 45 75 48 76 46 77
REMARK SMILES IDX 72 78 73 79 81 80 74 81 75 82 79 83 82 84 76 85 77 86 80 87
REMARK SMILES IDX 78 88 57 89 58 90 66 91 59 92 60 93 64 94 67 95 61 96 62 97
REMARK SMILES IDX 65 98 63 99
REMARK H PARENT 23 5 11 17 28 33 87 52 55 63
REMARK Flexibility Score: inf
ROOT
ATOM      1  C   UNL A   1      31.040  30.066  24.911  1.00  0.00     0.116 C 
ENDROOT
BRANCH   1   2
ATOM      2  N   UNL A   1      30.550  30.176  23.548  1.00  0.00    -0.352 N 
ATOM      3  C   UNL A   1      30.046  29.221  22.689  1.00  0.00     0.254 C 
ATOM      4  O   UNL A   1      29.586  29.603  21.613  1.00  0.00    -0.269 OA
ATOM      5  H   UNL A   1      30.583  31.087  23.173  1.00  0.00     0.163 HD
BRANCH   3   6
ATOM      6  C   UNL A   1      30.163  27.758  22.934  1.00  0.00     0.076 A 
ATOM      7  C   UNL A   1      31.688  25.855  23.019  1.00  0.00     0.088 A 
ATOM      8  C   UNL A   1      30.738  25.128  23.748  1.00  0.00     0.025 A 
ATOM      9  C   UNL A   1      31.368  27.138  22.553  1.00  0.00     0.039 A 
ATOM     10  C   UNL A   1      29.476  25.683  23.979  1.00  0.00     0.041 A 
ATOM     11  C   UNL A   1      29.190  26.981  23.553  1.00  0.00     0.136 A 
ATOM     12  F   UNL A   1      27.944  27.441  23.743  1.00  0.00    -0.206 F 
BRANCH   7  13
ATOM     13  S   UNL A   1      33.257  25.106  22.585  1.00  0.00     0.261 S 
ATOM     14  O   UNL A   1      33.984  26.083  21.799  1.00  0.00    -0.201 OA
ATOM     15  O   UNL A   1      32.952  23.806  22.025  1.00  0.00    -0.201 OA
BRANCH  13  16
ATOM     16  N   UNL A   1      34.126  24.767  24.008  1.00  0.00    -0.277 N 
ATOM     17  H   UNL A   1      34.162  25.442  24.723  1.00  0.00     0.180 HD
BRANCH  16  18
ATOM     18  C   UNL A   1      34.810  23.516  24.185  1.00  0.00     0.074 A 
ATOM     19  C   UNL A   1      34.185  22.364  24.729  1.00  0.00     0.080 A 
ATOM     20  C   UNL A   1      34.993  21.199  24.840  1.00  0.00     0.066 A 
ATOM     21  Cl  UNL A   1      34.368  19.674  25.383  1.00  0.00    -0.082 Cl
ATOM     22  C   UNL A   1      36.357  21.215  24.511  1.00  0.00     0.023 A 
ATOM     23  C   UNL A   1      36.185  23.530  23.928  1.00  0.00     0.029 A 
ATOM     24  C   UNL A   1      36.958  22.388  24.077  1.00  0.00     0.004 A 
BRANCH  19  25
ATOM     25  N   UNL A   1      32.895  22.451  25.263  1.00  0.00    -0.375 N 
ATOM     26  C   UNL A   1      32.761  22.834  26.664  1.00  0.00     0.143 C 
ATOM     27  C   UNL A   1      31.785  21.782  24.604  1.00  0.00     0.143 C 
ENDBRANCH  19  25
ENDBRANCH  16  18
ENDBRANCH  13  16
ENDBRANCH   7  13
ENDBRANCH   3   6
ENDBRANCH   1   2
BRANCH   1  28
ATOM     28  C   UNL A   1      32.484  29.598  25.059  1.00  0.00     0.023 C 
BRANCH  28  29
ATOM     29  C   UNL A   1      32.755  28.394  25.954  1.00  0.00     0.023 C 
BRANCH  29  30
ATOM     30  C   UNL A   1      33.635  28.625  27.176  1.00  0.00     0.116 C 
BRANCH  30  31
ATOM     31  N   UNL A   1      33.658  30.001  27.649  1.00  0.00    -0.352 N 
ATOM     32  C   UNL A   1      34.673  30.721  28.235  1.00  0.00     0.251 C 
ATOM     33  H   UNL A   1      32.813  30.494  27.531  1.00  0.00     0.163 HD
ATOM     34  O   UNL A   1      34.468  31.871  28.614  1.00  0.00    -0.269 OA
BRANCH  32  35
ATOM     35  C   UNL A   1      36.001  30.105  28.464  1.00  0.00     0.039 A 
ATOM     36  C   UNL A   1      36.966  30.199  27.456  1.00  0.00     0.014 A 
ATOM     37  C   UNL A   1      36.308  29.458  29.662  1.00  0.00     0.014 A 
ATOM     38  C   UNL A   1      38.265  29.737  27.690  1.00  0.00     0.010 A 
ATOM     39  C   UNL A   1      37.621  29.074  29.925  1.00  0.00     0.010 A 
ATOM     40  C   UNL A   1      38.617  29.220  28.946  1.00  0.00    -0.014 A 
BRANCH  40  41
ATOM     41  C   UNL A   1      40.022  28.849  29.266  1.00  0.00     0.031 A 
ATOM     42  C   UNL A   1      40.892  29.785  30.059  1.00  0.00     0.074 A 
ATOM     43  C   UNL A   1      40.536  27.701  28.782  1.00  0.00     0.049 A 
ATOM     44  N   UNL A   1      42.162  29.678  30.358  1.00  0.00    -0.248 NA
ATOM     45  C   UNL A   1      40.259  31.015  30.561  1.00  0.00     0.031 C 
ATOM     46  C   UNL A   1      39.810  26.728  27.963  1.00  0.00     0.029 A 
ATOM     47  N   UNL A   1      41.793  27.158  28.899  1.00  0.00    -0.354 N 
ATOM     48  C   UNL A   1      42.480  30.828  31.068  1.00  0.00     0.074 A 
ATOM     49  C   UNL A   1      41.287  31.644  31.111  1.00  0.00     0.031 C 
ATOM     50  C   UNL A   1      40.621  25.698  27.679  1.00  0.00     0.029 A 
ATOM     51  C   UNL A   1      41.938  25.954  28.254  1.00  0.00     0.049 A 
ATOM     52  H   UNL A   1      42.522  27.593  29.399  1.00  0.00     0.167 HD
ATOM     53  C   UNL A   1      43.655  31.160  31.652  1.00  0.00     0.037 A 
ATOM     54  C   UNL A   1      43.011  25.148  28.135  1.00  0.00     0.037 A 
ATOM     55  C   UNL A   1      44.831  30.331  31.640  1.00  0.00     0.049 A 
ATOM     56  C   UNL A   1      44.308  25.545  28.788  1.00  0.00     0.074 A 
ATOM     57  C   UNL A   1      46.049  30.559  32.253  1.00  0.00     0.029 A 
ATOM     58  N   UNL A   1      44.933  29.113  30.984  1.00  0.00    -0.354 N 
ATOM     59  N   UNL A   1      44.580  26.612  29.500  1.00  0.00    -0.248 NA
ATOM     60  C   UNL A   1      45.445  24.629  28.624  1.00  0.00     0.031 C 
ATOM     61  C   UNL A   1      46.904  29.501  31.935  1.00  0.00     0.029 A 
ATOM     62  C   UNL A   1      46.202  28.588  31.165  1.00  0.00     0.049 A 
ATOM     63  H   UNL A   1      44.212  28.686  30.468  1.00  0.00     0.167 HD
ATOM     64  C   UNL A   1      45.906  26.483  29.889  1.00  0.00     0.074 A 
ATOM     65  C   UNL A   1      46.383  25.228  29.346  1.00  0.00     0.031 C 
ATOM     66  C   UNL A   1      46.660  27.331  30.630  1.00  0.00     0.037 A 
BRANCH  53  67
ATOM     67  C   UNL A   1      43.732  32.468  32.383  1.00  0.00     0.064 A 
ATOM     68  C   UNL A   1      43.355  32.554  33.733  1.00  0.00     0.173 A 
ATOM     69  C   UNL A   1      44.093  33.653  31.725  1.00  0.00     0.173 A 
ATOM     70  F   UNL A   1      42.995  31.451  34.406  1.00  0.00    -0.203 F 
ATOM     71  C   UNL A   1      43.323  33.781  34.390  1.00  0.00     0.198 A 
ATOM     72  C   UNL A   1      44.086  34.874  32.393  1.00  0.00     0.198 A 
ATOM     73  F   UNL A   1      44.469  33.622  30.438  1.00  0.00    -0.203 F 
ATOM     74  F   UNL A   1      42.925  33.844  35.669  1.00  0.00    -0.200 F 
ATOM     75  C   UNL A   1      43.690  34.938  33.721  1.00  0.00     0.200 A 
ATOM     76  F   UNL A   1      44.462  35.989  31.752  1.00  0.00    -0.200 F 
ATOM     77  F   UNL A   1      43.662  36.118  34.357  1.00  0.00    -0.200 F 
ENDBRANCH  53  67
BRANCH  54  78
ATOM     78  C   UNL A   1      42.895  23.865  27.392  1.00  0.00     0.064 A 
ATOM     79  C   UNL A   1      42.443  22.693  28.018  1.00  0.00     0.173 A 
ATOM     80  C   UNL A   1      43.251  23.785  26.039  1.00  0.00     0.173 A 
ATOM     81  F   UNL A   1      42.093  22.715  29.312  1.00  0.00    -0.203 F 
ATOM     82  C   UNL A   1      42.365  21.489  27.320  1.00  0.00     0.198 A 
ATOM     83  C   UNL A   1      43.147  22.587  25.336  1.00  0.00     0.198 A 
ATOM     84  F   UNL A   1      43.670  24.883  25.391  1.00  0.00    -0.203 F 
ATOM     85  F   UNL A   1      41.960  20.378  27.949  1.00  0.00    -0.200 F 
ATOM     86  C   UNL A   1      42.713  21.438  25.979  1.00  0.00     0.200 A 
ATOM     87  F   UNL A   1      43.460  22.548  24.033  1.00  0.00    -0.200 F 
ATOM     88  F   UNL A   1      42.624  20.283  25.305  1.00  0.00    -0.200 F 
ENDBRANCH  54  78
BRANCH  66  89
ATOM     89  C   UNL A   1      48.074  26.930  30.931  1.00  0.00     0.064 A 
ATOM     90  C   UNL A   1      49.120  27.332  30.087  1.00  0.00     0.173 A 
ATOM     91  C   UNL A   1      48.381  26.077  32.000  1.00  0.00     0.173 A 
ATOM     92  F   UNL A   1      48.875  28.141  29.046  1.00  0.00    -0.203 F 
ATOM     93  C   UNL A   1      50.419  26.877  30.289  1.00  0.00     0.198 A 
ATOM     94  C   UNL A   1      49.688  25.646  32.217  1.00  0.00     0.198 A 
ATOM     95  F   UNL A   1      47.418  25.675  32.842  1.00  0.00    -0.203 F 
ATOM     96  F   UNL A   1      51.395  27.241  29.446  1.00  0.00    -0.200 F 
ATOM     97  C   UNL A   1      50.702  26.036  31.355  1.00  0.00     0.200 A 
ATOM     98  F   UNL A   1      49.964  24.851  33.260  1.00  0.00    -0.200 F 
ATOM     99  F   UNL A   1      51.955  25.603  31.553  1.00  0.00    -0.200 F 
ENDBRANCH  66  89
ENDBRANCH  40  41
ENDBRANCH  32  35
ENDBRANCH  30  31
ENDBRANCH  29  30
ENDBRANCH  28  29
ENDBRANCH   1  28
TORSDOF 15
ENDMDL
