MODEL 1
REMARK VINA RESULT:     -12.8      0.000      0.000
REMARK SMILES O=C(NCCCCNC(=O)c1cccc(Oc2ncc([N+](=O)[O-])cc2Br)c1)c1ccc(-c2c3nc(c(-c4c(F)c(F)c(F)c(F)c4F)c4ccc([nH]4)c(-c4c(F)c(F)c(F)c(F)c4F)c4nc(c(-c5c(F)c(F)c(F)c(F)c5F)c5ccc2[nH]5)C=C4)C=C3)cc1
REMARK SMILES IDX 6 1 5 2 4 3 3 4 1 5 2 6 28 8 29 9 90 10 30 11 89 12 31 13
REMARK SMILES IDX 32 14 33 15 83 16 34 17 88 18 82 19 84 20 35 21 87 22 81 23
REMARK SMILES IDX 80 24 36 26 68 27 48 28 67 29 49 30 52 31 66 32 85 33 50 34
REMARK SMILES IDX 51 35 65 37 86 38 53 39 37 40 38 41 46 42 39 43 40 44 44 45
REMARK SMILES IDX 47 46 41 47 42 48 45 49 43 50 69 51 70 52 78 53 71 54 72 55
REMARK SMILES IDX 76 56 79 57 73 58 74 59 77 60 75 61 54 62 55 63 63 64 56 65
REMARK SMILES IDX 57 66 61 67 64 68 58 69 59 70 62 71 60 72 7 73 8 74 9 75
REMARK SMILES IDX 10 77 11 78 12 79 27 80 13 81 15 82 14 83 16 84 17 85 18 86
REMARK SMILES IDX 25 87 19 88 24 89 26 90 20 91 21 92 22 93 23 94
REMARK H PARENT 3 7 84 25 52 36 8 76
REMARK Flexibility Score: inf
ROOT
ATOM      1  C   UNL A   1      36.886  20.669  25.286  1.00  0.00     0.023 C 
ENDROOT
BRANCH   1   2
ATOM      2  C   UNL A   1      38.143  19.878  24.945  1.00  0.00     0.023 C 
BRANCH   2   3
ATOM      3  C   UNL A   1      39.359  20.219  25.793  1.00  0.00     0.116 C 
BRANCH   3   4
ATOM      4  N   UNL A   1      40.317  19.126  25.892  1.00  0.00    -0.352 N 
ATOM      5  O   UNL A   1      42.348  18.146  26.037  1.00  0.00    -0.269 OA
ATOM      6  C   UNL A   1      41.673  19.165  26.127  1.00  0.00     0.251 C 
ATOM      7  H   UNL A   1      39.938  18.224  25.773  1.00  0.00     0.163 HD
BRANCH   6   8
ATOM      8  C   UNL A   1      42.317  20.458  26.442  1.00  0.00     0.039 A 
ATOM      9  C   UNL A   1      42.392  20.903  27.761  1.00  0.00     0.014 A 
ATOM     10  C   UNL A   1      42.792  21.260  25.401  1.00  0.00     0.014 A 
ATOM     11  C   UNL A   1      42.726  22.226  28.016  1.00  0.00     0.010 A 
ATOM     12  C   UNL A   1      43.249  22.552  25.678  1.00  0.00     0.010 A 
ATOM     13  C   UNL A   1      43.163  23.068  26.980  1.00  0.00    -0.014 A 
BRANCH  13  14
ATOM     14  C   UNL A   1      43.536  24.472  27.299  1.00  0.00     0.031 A 
ATOM     15  C   UNL A   1      44.920  24.997  27.024  1.00  0.00     0.074 A 
ATOM     16  C   UNL A   1      42.592  25.295  27.797  1.00  0.00     0.049 A 
ATOM     17  N   UNL A   1      45.395  26.206  27.201  1.00  0.00    -0.248 NA
ATOM     18  C   UNL A   1      45.905  24.045  26.489  1.00  0.00     0.031 C 
ATOM     19  C   UNL A   1      41.216  24.902  28.112  1.00  0.00     0.029 A 
ATOM     20  N   UNL A   1      42.632  26.632  28.101  1.00  0.00    -0.354 N 
ATOM     21  C   UNL A   1      46.732  26.153  26.826  1.00  0.00     0.074 A 
ATOM     22  C   UNL A   1      47.004  24.784  26.440  1.00  0.00     0.031 C 
ATOM     23  C   UNL A   1      40.528  25.983  28.504  1.00  0.00     0.029 A 
ATOM     24  C   UNL A   1      41.429  27.128  28.541  1.00  0.00     0.049 A 
ATOM     25  H   UNL A   1      43.443  27.182  28.010  1.00  0.00     0.167 HD
ATOM     26  C   UNL A   1      47.646  27.154  26.801  1.00  0.00     0.037 A 
ATOM     27  C   UNL A   1      41.090  28.365  28.946  1.00  0.00     0.037 A 
ATOM     28  C   UNL A   1      47.365  28.519  27.170  1.00  0.00     0.049 A 
ATOM     29  C   UNL A   1      42.132  29.447  28.932  1.00  0.00     0.074 A 
ATOM     30  C   UNL A   1      48.211  29.615  27.138  1.00  0.00     0.029 A 
ATOM     31  N   UNL A   1      46.142  28.976  27.647  1.00  0.00    -0.354 N 
ATOM     32  N   UNL A   1      43.380  29.391  28.538  1.00  0.00    -0.248 NA
ATOM     33  C   UNL A   1      41.713  30.767  29.419  1.00  0.00     0.031 C 
ATOM     34  C   UNL A   1      47.521  30.717  27.656  1.00  0.00     0.029 A 
ATOM     35  C   UNL A   1      46.223  30.329  27.939  1.00  0.00     0.049 A 
ATOM     36  H   UNL A   1      45.338  28.420  27.761  1.00  0.00     0.167 HD
ATOM     37  C   UNL A   1      43.887  30.673  28.695  1.00  0.00     0.074 A 
ATOM     38  C   UNL A   1      42.803  31.488  29.206  1.00  0.00     0.031 C 
ATOM     39  C   UNL A   1      45.135  31.134  28.437  1.00  0.00     0.037 A 
BRANCH  26  40
ATOM     40  C   UNL A   1      49.052  26.812  26.388  1.00  0.00     0.064 A 
ATOM     41  C   UNL A   1      49.996  26.312  27.297  1.00  0.00     0.173 A 
ATOM     42  C   UNL A   1      49.448  26.949  25.047  1.00  0.00     0.173 A 
ATOM     43  F   UNL A   1      49.676  26.168  28.593  1.00  0.00    -0.203 F 
ATOM     44  C   UNL A   1      51.289  25.991  26.888  1.00  0.00     0.198 A 
ATOM     45  C   UNL A   1      50.731  26.594  24.636  1.00  0.00     0.198 A 
ATOM     46  F   UNL A   1      48.586  27.414  24.131  1.00  0.00    -0.203 F 
ATOM     47  F   UNL A   1      52.187  25.563  27.787  1.00  0.00    -0.200 F 
ATOM     48  C   UNL A   1      51.653  26.125  25.558  1.00  0.00     0.200 A 
ATOM     49  F   UNL A   1      51.074  26.708  23.345  1.00  0.00    -0.200 F 
ATOM     50  F   UNL A   1      52.894  25.807  25.164  1.00  0.00    -0.200 F 
ENDBRANCH  26  40
BRANCH  27  51
ATOM     51  C   UNL A   1      39.700  28.643  29.394  1.00  0.00     0.064 A 
ATOM     52  C   UNL A   1      38.740  29.138  28.502  1.00  0.00     0.173 A 
ATOM     53  C   UNL A   1      39.305  28.424  30.722  1.00  0.00     0.173 A 
ATOM     54  F   UNL A   1      39.073  29.379  27.226  1.00  0.00    -0.203 F 
ATOM     55  C   UNL A   1      37.444  29.426  28.927  1.00  0.00     0.198 A 
ATOM     56  C   UNL A   1      38.001  28.678  31.137  1.00  0.00     0.198 A 
ATOM     57  F   UNL A   1      40.184  27.944  31.615  1.00  0.00    -0.203 F 
ATOM     58  F   UNL A   1      36.561  29.949  28.065  1.00  0.00    -0.200 F 
ATOM     59  C   UNL A   1      37.074  29.190  30.242  1.00  0.00     0.200 A 
ATOM     60  F   UNL A   1      37.643  28.429  32.404  1.00  0.00    -0.200 F 
ATOM     61  F   UNL A   1      35.828  29.464  30.649  1.00  0.00    -0.200 F 
ENDBRANCH  27  51
BRANCH  39  62
ATOM     62  C   UNL A   1      45.380  32.602  28.645  1.00  0.00     0.064 A 
ATOM     63  C   UNL A   1      45.885  33.110  29.851  1.00  0.00     0.173 A 
ATOM     64  C   UNL A   1      45.112  33.514  27.611  1.00  0.00     0.173 A 
ATOM     65  F   UNL A   1      46.143  32.285  30.877  1.00  0.00    -0.203 F 
ATOM     66  C   UNL A   1      46.073  34.480  30.029  1.00  0.00     0.198 A 
ATOM     67  C   UNL A   1      45.339  34.877  27.778  1.00  0.00     0.198 A 
ATOM     68  F   UNL A   1      44.635  33.081  26.434  1.00  0.00    -0.203 F 
ATOM     69  F   UNL A   1      46.491  34.948  31.212  1.00  0.00    -0.200 F 
ATOM     70  C   UNL A   1      45.807  35.359  28.991  1.00  0.00     0.200 A 
ATOM     71  F   UNL A   1      45.096  35.723  26.769  1.00  0.00    -0.200 F 
ATOM     72  F   UNL A   1      45.990  36.676  29.162  1.00  0.00    -0.200 F 
ENDBRANCH  39  62
ENDBRANCH  13  14
ENDBRANCH   6   8
ENDBRANCH   3   4
ENDBRANCH   2   3
ENDBRANCH   1   2
BRANCH   1  73
ATOM     73  C   UNL A   1      37.114  22.156  25.517  1.00  0.00     0.116 C 
BRANCH  73  74
ATOM     74  N   UNL A   1      36.789  22.960  24.346  1.00  0.00    -0.352 N 
ATOM     75  C   UNL A   1      35.550  23.195  23.799  1.00  0.00     0.251 C 
ATOM     76  H   UNL A   1      37.549  23.387  23.892  1.00  0.00     0.163 HD
ATOM     77  O   UNL A   1      35.435  23.751  22.711  1.00  0.00    -0.269 OA
BRANCH  75  78
ATOM     78  C   UNL A   1      34.352  22.779  24.554  1.00  0.00     0.043 A 
ATOM     79  C   UNL A   1      33.889  23.547  25.619  1.00  0.00     0.014 A 
ATOM     80  C   UNL A   1      33.681  21.616  24.166  1.00  0.00     0.061 A 
ATOM     81  C   UNL A   1      32.702  23.177  26.253  1.00  0.00     0.005 A 
ATOM     82  C   UNL A   1      32.488  21.250  24.787  1.00  0.00     0.130 A 
ATOM     83  C   UNL A   1      31.998  22.042  25.829  1.00  0.00     0.047 A 
BRANCH  82  84
ATOM     84  O   UNL A   1      31.742  20.134  24.457  1.00  0.00    -0.438 OA
BRANCH  84  85
ATOM     85  C   UNL A   1      32.361  18.905  24.580  1.00  0.00     0.234 A 
ATOM     86  N   UNL A   1      32.656  18.524  25.852  1.00  0.00    -0.214 NA
ATOM     87  C   UNL A   1      32.633  18.116  23.460  1.00  0.00     0.087 A 
ATOM     88  C   UNL A   1      33.215  17.298  26.018  1.00  0.00     0.200 A 
ATOM     89  C   UNL A   1      33.159  16.840  23.657  1.00  0.00     0.108 A 
ATOM     90  Br  UNL A   1      32.259  18.679  21.692  1.00  0.00    -0.045 Br
ATOM     91  C   UNL A   1      33.453  16.431  24.961  1.00  0.00     0.288 A 
BRANCH  91  92
ATOM     92  N   UNL A   1      33.981  15.100  25.221  1.00  0.00     0.064 N 
ATOM     93  O   UNL A   1      33.169  14.189  25.422  1.00  0.00    -0.258 OA
ATOM     94  O   UNL A   1      35.211  14.963  25.210  1.00  0.00    -0.258 OA
ENDBRANCH  91  92
ENDBRANCH  84  85
ENDBRANCH  82  84
ENDBRANCH  75  78
ENDBRANCH  73  74
ENDBRANCH   1  73
TORSDOF 14
ENDMDL
MODEL 2
REMARK VINA RESULT:     -12.7      0.772      7.338
REMARK SMILES O=C(NCCCCNC(=O)c1cccc(Oc2ncc([N+](=O)[O-])cc2Br)c1)c1ccc(-c2c3nc(c(-c4c(F)c(F)c(F)c(F)c4F)c4ccc([nH]4)c(-c4c(F)c(F)c(F)c(F)c4F)c4nc(c(-c5c(F)c(F)c(F)c(F)c5F)c5ccc2[nH]5)C=C4)C=C3)cc1
REMARK SMILES IDX 6 1 5 2 4 3 3 4 1 5 2 6 28 8 29 9 90 10 30 11 89 12 31 13
REMARK SMILES IDX 32 14 33 15 83 16 34 17 88 18 82 19 84 20 35 21 87 22 81 23
REMARK SMILES IDX 80 24 36 26 68 27 48 28 67 29 49 30 52 31 66 32 85 33 50 34
REMARK SMILES IDX 51 35 65 37 86 38 53 39 37 40 38 41 46 42 39 43 40 44 44 45
REMARK SMILES IDX 47 46 41 47 42 48 45 49 43 50 69 51 70 52 78 53 71 54 72 55
REMARK SMILES IDX 76 56 79 57 73 58 74 59 77 60 75 61 54 62 55 63 63 64 56 65
REMARK SMILES IDX 57 66 61 67 64 68 58 69 59 70 62 71 60 72 7 73 8 74 9 75
REMARK SMILES IDX 10 77 11 78 12 79 27 80 13 81 15 82 14 83 16 84 17 85 18 86
REMARK SMILES IDX 25 87 19 88 24 89 26 90 20 91 21 92 22 93 23 94
REMARK H PARENT 3 7 84 25 52 36 8 76
REMARK Flexibility Score: inf
ROOT
ATOM      1  C   UNL A   1      37.011  20.531  25.055  1.00  0.00     0.023 C 
ENDROOT
BRANCH   1   2
ATOM      2  C   UNL A   1      38.256  19.681  24.836  1.00  0.00     0.023 C 
BRANCH   2   3
ATOM      3  C   UNL A   1      39.437  20.044  25.724  1.00  0.00     0.116 C 
BRANCH   3   4
ATOM      4  N   UNL A   1      40.392  18.955  25.886  1.00  0.00    -0.352 N 
ATOM      5  O   UNL A   1      42.419  17.979  26.099  1.00  0.00    -0.269 OA
ATOM      6  C   UNL A   1      41.745  19.004  26.131  1.00  0.00     0.251 C 
ATOM      7  H   UNL A   1      40.011  18.050  25.810  1.00  0.00     0.163 HD
BRANCH   6   8
ATOM      8  C   UNL A   1      42.391  20.309  26.385  1.00  0.00     0.039 A 
ATOM      9  C   UNL A   1      42.307  20.901  27.645  1.00  0.00     0.014 A 
ATOM     10  C   UNL A   1      43.029  20.976  25.337  1.00  0.00     0.014 A 
ATOM     11  C   UNL A   1      42.653  22.236  27.795  1.00  0.00     0.010 A 
ATOM     12  C   UNL A   1      43.494  22.280  25.529  1.00  0.00     0.010 A 
ATOM     13  C   UNL A   1      43.255  22.945  26.741  1.00  0.00    -0.014 A 
BRANCH  13  14
ATOM     14  C   UNL A   1      43.635  24.367  26.952  1.00  0.00     0.031 A 
ATOM     15  C   UNL A   1      42.660  25.364  27.519  1.00  0.00     0.074 A 
ATOM     16  C   UNL A   1      44.899  24.746  26.674  1.00  0.00     0.049 A 
ATOM     17  N   UNL A   1      42.845  26.630  27.806  1.00  0.00    -0.248 NA
ATOM     18  C   UNL A   1      41.295  24.887  27.791  1.00  0.00     0.031 C 
ATOM     19  C   UNL A   1      45.934  23.873  26.116  1.00  0.00     0.029 A 
ATOM     20  N   UNL A   1      45.536  25.948  26.846  1.00  0.00    -0.354 N 
ATOM     21  C   UNL A   1      41.622  27.103  28.266  1.00  0.00     0.074 A 
ATOM     22  C   UNL A   1      40.691  25.997  28.191  1.00  0.00     0.031 C 
ATOM     23  C   UNL A   1      47.090  24.548  26.050  1.00  0.00     0.029 A 
ATOM     24  C   UNL A   1      46.862  25.920  26.487  1.00  0.00     0.049 A 
ATOM     25  H   UNL A   1      45.088  26.752  27.193  1.00  0.00     0.167 HD
ATOM     26  C   UNL A   1      41.308  28.343  28.714  1.00  0.00     0.037 A 
ATOM     27  C   UNL A   1      47.790  26.893  26.494  1.00  0.00     0.037 A 
ATOM     28  C   UNL A   1      42.245  29.436  28.804  1.00  0.00     0.049 A 
ATOM     29  C   UNL A   1      47.404  28.264  26.971  1.00  0.00     0.074 A 
ATOM     30  C   UNL A   1      42.034  30.717  29.284  1.00  0.00     0.029 A 
ATOM     31  N   UNL A   1      43.572  29.377  28.396  1.00  0.00    -0.354 N 
ATOM     32  N   UNL A   1      46.256  28.686  27.440  1.00  0.00    -0.248 NA
ATOM     33  C   UNL A   1      48.449  29.293  26.921  1.00  0.00     0.031 C 
ATOM     34  C   UNL A   1      43.212  31.452  29.107  1.00  0.00     0.029 A 
ATOM     35  C   UNL A   1      44.180  30.609  28.587  1.00  0.00     0.049 A 
ATOM     36  H   UNL A   1      44.014  28.580  28.025  1.00  0.00     0.167 HD
ATOM     37  C   UNL A   1      46.447  30.019  27.774  1.00  0.00     0.074 A 
ATOM     38  C   UNL A   1      47.829  30.329  27.468  1.00  0.00     0.031 C 
ATOM     39  C   UNL A   1      45.560  30.904  28.289  1.00  0.00     0.037 A 
BRANCH  26  40
ATOM     40  C   UNL A   1      39.882  28.604  29.119  1.00  0.00     0.064 A 
ATOM     41  C   UNL A   1      39.426  28.382  30.428  1.00  0.00     0.173 A 
ATOM     42  C   UNL A   1      38.967  29.126  28.190  1.00  0.00     0.173 A 
ATOM     43  F   UNL A   1      40.254  27.876  31.355  1.00  0.00    -0.203 F 
ATOM     44  C   UNL A   1      38.104  28.642  30.782  1.00  0.00     0.198 A 
ATOM     45  C   UNL A   1      37.655  29.417  28.558  1.00  0.00     0.198 A 
ATOM     46  F   UNL A   1      39.348  29.367  26.928  1.00  0.00    -0.203 F 
ATOM     47  F   UNL A   1      37.680  28.373  32.025  1.00  0.00    -0.200 F 
ATOM     48  C   UNL A   1      37.222  29.166  29.850  1.00  0.00     0.200 A 
ATOM     49  F   UNL A   1      36.810  29.941  27.658  1.00  0.00    -0.200 F 
ATOM     50  F   UNL A   1      35.953  29.424  30.195  1.00  0.00    -0.200 F 
ENDBRANCH  26  40
BRANCH  27  51
ATOM     51  C   UNL A   1      49.173  26.600  26.037  1.00  0.00     0.064 A 
ATOM     52  C   UNL A   1      50.110  26.016  26.899  1.00  0.00     0.173 A 
ATOM     53  C   UNL A   1      49.588  26.902  24.731  1.00  0.00     0.173 A 
ATOM     54  F   UNL A   1      49.767  25.724  28.162  1.00  0.00    -0.203 F 
ATOM     55  C   UNL A   1      51.417  25.768  26.481  1.00  0.00     0.198 A 
ATOM     56  C   UNL A   1      50.883  26.620  24.303  1.00  0.00     0.198 A 
ATOM     57  F   UNL A   1      48.729  27.455  23.863  1.00  0.00    -0.203 F 
ATOM     58  F   UNL A   1      52.306  25.258  27.343  1.00  0.00    -0.200 F 
ATOM     59  C   UNL A   1      51.800  26.064  25.182  1.00  0.00     0.200 A 
ATOM     60  F   UNL A   1      51.242  26.890  23.041  1.00  0.00    -0.200 F 
ATOM     61  F   UNL A   1      53.054  25.821  24.780  1.00  0.00    -0.200 F 
ENDBRANCH  27  51
BRANCH  39  62
ATOM     62  C   UNL A   1      46.074  32.279  28.614  1.00  0.00     0.064 A 
ATOM     63  C   UNL A   1      46.628  32.591  29.864  1.00  0.00     0.173 A 
ATOM     64  C   UNL A   1      46.017  33.298  27.651  1.00  0.00     0.173 A 
ATOM     65  F   UNL A   1      46.692  31.659  30.827  1.00  0.00    -0.203 F 
ATOM     66  C   UNL A   1      47.069  33.881  30.151  1.00  0.00     0.198 A 
ATOM     67  C   UNL A   1      46.494  34.576  27.927  1.00  0.00     0.198 A 
ATOM     68  F   UNL A   1      45.503  33.053  26.435  1.00  0.00    -0.203 F 
ATOM     69  F   UNL A   1      47.532  34.172  31.375  1.00  0.00    -0.200 F 
ATOM     70  C   UNL A   1      47.007  34.870  29.181  1.00  0.00     0.200 A 
ATOM     71  F   UNL A   1      46.448  35.526  26.983  1.00  0.00    -0.200 F 
ATOM     72  F   UNL A   1      47.433  36.110  29.458  1.00  0.00    -0.200 F 
ENDBRANCH  39  62
ENDBRANCH  13  14
ENDBRANCH   6   8
ENDBRANCH   3   4
ENDBRANCH   2   3
ENDBRANCH   1   2
BRANCH   1  73
ATOM     73  C   UNL A   1      37.071  21.920  24.436  1.00  0.00     0.116 C 
BRANCH  73  74
ATOM     74  N   UNL A   1      36.552  22.951  25.324  1.00  0.00    -0.352 N 
ATOM     75  C   UNL A   1      35.330  23.579  25.268  1.00  0.00     0.251 C 
ATOM     76  H   UNL A   1      37.149  23.233  26.053  1.00  0.00     0.163 HD
ATOM     77  O   UNL A   1      35.088  24.553  25.975  1.00  0.00    -0.269 OA
BRANCH  75  78
ATOM     78  C   UNL A   1      34.304  23.051  24.348  1.00  0.00     0.043 A 
ATOM     79  C   UNL A   1      34.136  23.612  23.084  1.00  0.00     0.014 A 
ATOM     80  C   UNL A   1      33.523  21.968  24.759  1.00  0.00     0.061 A 
ATOM     81  C   UNL A   1      33.222  23.032  22.204  1.00  0.00     0.005 A 
ATOM     82  C   UNL A   1      32.619  21.376  23.879  1.00  0.00     0.130 A 
ATOM     83  C   UNL A   1      32.478  21.911  22.595  1.00  0.00     0.047 A 
BRANCH  82  84
ATOM     84  O   UNL A   1      31.823  20.289  24.185  1.00  0.00    -0.438 OA
BRANCH  84  85
ATOM     85  C   UNL A   1      32.458  19.078  24.375  1.00  0.00     0.234 A 
ATOM     86  N   UNL A   1      32.807  18.795  25.659  1.00  0.00    -0.214 NA
ATOM     87  C   UNL A   1      32.693  18.207  23.307  1.00  0.00     0.087 A 
ATOM     88  C   UNL A   1      33.385  17.589  25.893  1.00  0.00     0.200 A 
ATOM     89  C   UNL A   1      33.239  16.954  23.578  1.00  0.00     0.108 A 
ATOM     90  Br  UNL A   1      32.243  18.634  21.518  1.00  0.00    -0.045 Br
ATOM     91  C   UNL A   1      33.588  16.646  24.896  1.00  0.00     0.288 A 
BRANCH  91  92
ATOM     92  N   UNL A   1      34.140  15.342  25.234  1.00  0.00     0.064 N 
ATOM     93  O   UNL A   1      35.366  15.255  25.367  1.00  0.00    -0.258 OA
ATOM     94  O   UNL A   1      33.342  14.408  25.381  1.00  0.00    -0.258 OA
ENDBRANCH  91  92
ENDBRANCH  84  85
ENDBRANCH  82  84
ENDBRANCH  75  78
ENDBRANCH  73  74
ENDBRANCH   1  73
TORSDOF 14
ENDMDL
MODEL 3
REMARK VINA RESULT:     -12.6      6.898     12.030
REMARK SMILES O=C(NCCCCNC(=O)c1cccc(Oc2ncc([N+](=O)[O-])cc2Br)c1)c1ccc(-c2c3nc(c(-c4c(F)c(F)c(F)c(F)c4F)c4ccc([nH]4)c(-c4c(F)c(F)c(F)c(F)c4F)c4nc(c(-c5c(F)c(F)c(F)c(F)c5F)c5ccc2[nH]5)C=C4)C=C3)cc1
REMARK SMILES IDX 6 1 5 2 4 3 3 4 1 5 2 6 28 8 29 9 90 10 30 11 89 12 31 13
REMARK SMILES IDX 32 14 33 15 83 16 34 17 88 18 82 19 84 20 35 21 87 22 81 23
REMARK SMILES IDX 80 24 36 26 68 27 48 28 67 29 49 30 52 31 66 32 85 33 50 34
REMARK SMILES IDX 51 35 65 37 86 38 53 39 37 40 38 41 46 42 39 43 40 44 44 45
REMARK SMILES IDX 47 46 41 47 42 48 45 49 43 50 69 51 70 52 78 53 71 54 72 55
REMARK SMILES IDX 76 56 79 57 73 58 74 59 77 60 75 61 54 62 55 63 63 64 56 65
REMARK SMILES IDX 57 66 61 67 64 68 58 69 59 70 62 71 60 72 7 73 8 74 9 75
REMARK SMILES IDX 10 77 11 78 12 79 27 80 13 81 15 82 14 83 16 84 17 85 18 86
REMARK SMILES IDX 25 87 19 88 24 89 26 90 20 91 21 92 22 93 23 94
REMARK H PARENT 3 7 84 25 52 36 8 76
REMARK Flexibility Score: inf
ROOT
ATOM      1  C   UNL A   1      34.460  30.964  27.694  1.00  0.00     0.023 C 
ENDROOT
BRANCH   1   2
ATOM      2  C   UNL A   1      34.040  32.382  27.326  1.00  0.00     0.023 C 
BRANCH   2   3
ATOM      3  C   UNL A   1      32.608  32.737  27.696  1.00  0.00     0.116 C 
BRANCH   3   4
ATOM      4  N   UNL A   1      32.399  34.168  27.879  1.00  0.00    -0.352 N 
ATOM      5  O   UNL A   1      32.648  36.202  28.831  1.00  0.00    -0.269 OA
ATOM      6  C   UNL A   1      33.054  35.052  28.706  1.00  0.00     0.251 C 
ATOM      7  H   UNL A   1      31.681  34.560  27.330  1.00  0.00     0.163 HD
BRANCH   6   8
ATOM      8  C   UNL A   1      34.227  34.589  29.479  1.00  0.00     0.039 A 
ATOM      9  C   UNL A   1      35.516  34.789  28.987  1.00  0.00     0.014 A 
ATOM     10  C   UNL A   1      34.030  33.894  30.674  1.00  0.00     0.014 A 
ATOM     11  C   UNL A   1      36.578  34.104  29.561  1.00  0.00     0.010 A 
ATOM     12  C   UNL A   1      35.123  33.311  31.322  1.00  0.00     0.010 A 
ATOM     13  C   UNL A   1      36.398  33.359  30.739  1.00  0.00    -0.014 A 
BRANCH  13  14
ATOM     14  C   UNL A   1      37.568  32.661  31.337  1.00  0.00     0.031 A 
ATOM     15  C   UNL A   1      38.057  32.997  32.721  1.00  0.00     0.074 A 
ATOM     16  C   UNL A   1      38.160  31.673  30.636  1.00  0.00     0.049 A 
ATOM     17  N   UNL A   1      39.033  32.453  33.406  1.00  0.00    -0.248 NA
ATOM     18  C   UNL A   1      37.372  34.090  33.428  1.00  0.00     0.031 C 
ATOM     19  C   UNL A   1      37.780  31.259  29.283  1.00  0.00     0.029 A 
ATOM     20  N   UNL A   1      39.183  30.823  30.967  1.00  0.00    -0.354 N 
ATOM     21  C   UNL A   1      39.096  33.151  34.606  1.00  0.00     0.074 A 
ATOM     22  C   UNL A   1      38.079  34.180  34.545  1.00  0.00     0.031 C 
ATOM     23  C   UNL A   1      38.515  30.197  28.926  1.00  0.00     0.029 A 
ATOM     24  C   UNL A   1      39.468  29.903  29.988  1.00  0.00     0.049 A 
ATOM     25  H   UNL A   1      39.666  30.867  31.824  1.00  0.00     0.167 HD
ATOM     26  C   UNL A   1      39.921  32.948  35.663  1.00  0.00     0.037 A 
ATOM     27  C   UNL A   1      40.402  28.938  29.942  1.00  0.00     0.037 A 
ATOM     28  C   UNL A   1      40.920  31.910  35.725  1.00  0.00     0.049 A 
ATOM     29  C   UNL A   1      41.320  28.754  31.117  1.00  0.00     0.074 A 
ATOM     30  C   UNL A   1      41.776  31.596  36.767  1.00  0.00     0.029 A 
ATOM     31  N   UNL A   1      41.203  31.020  34.697  1.00  0.00    -0.354 N 
ATOM     32  N   UNL A   1      41.341  29.395  32.260  1.00  0.00    -0.248 NA
ATOM     33  C   UNL A   1      42.343  27.709  30.994  1.00  0.00     0.031 C 
ATOM     34  C   UNL A   1      42.618  30.561  36.346  1.00  0.00     0.029 A 
ATOM     35  C   UNL A   1      42.239  30.178  35.071  1.00  0.00     0.049 A 
ATOM     36  H   UNL A   1      40.736  30.992  33.830  1.00  0.00     0.167 HD
ATOM     37  C   UNL A   1      42.353  28.809  33.006  1.00  0.00     0.074 A 
ATOM     38  C   UNL A   1      42.911  27.751  32.190  1.00  0.00     0.031 C 
ATOM     39  C   UNL A   1      42.780  29.119  34.255  1.00  0.00     0.037 A 
BRANCH  26  40
ATOM     40  C   UNL A   1      39.805  33.884  36.836  1.00  0.00     0.064 A 
ATOM     41  C   UNL A   1      40.489  35.109  36.882  1.00  0.00     0.173 A 
ATOM     42  C   UNL A   1      38.961  33.568  37.912  1.00  0.00     0.173 A 
ATOM     43  F   UNL A   1      41.316  35.460  35.885  1.00  0.00    -0.203 F 
ATOM     44  C   UNL A   1      40.356  35.965  37.974  1.00  0.00     0.198 A 
ATOM     45  C   UNL A   1      38.804  34.442  38.985  1.00  0.00     0.198 A 
ATOM     46  F   UNL A   1      38.275  32.416  37.919  1.00  0.00    -0.203 F 
ATOM     47  F   UNL A   1      41.059  37.105  38.018  1.00  0.00    -0.200 F 
ATOM     48  C   UNL A   1      39.508  35.635  39.020  1.00  0.00     0.200 A 
ATOM     49  F   UNL A   1      37.970  34.128  39.987  1.00  0.00    -0.200 F 
ATOM     50  F   UNL A   1      39.375  36.464  40.065  1.00  0.00    -0.200 F 
ENDBRANCH  26  40
BRANCH  27  51
ATOM     51  C   UNL A   1      40.512  28.069  28.740  1.00  0.00     0.064 A 
ATOM     52  C   UNL A   1      41.296  28.450  27.643  1.00  0.00     0.173 A 
ATOM     53  C   UNL A   1      39.832  26.844  28.663  1.00  0.00     0.173 A 
ATOM     54  F   UNL A   1      41.952  29.619  27.663  1.00  0.00    -0.203 F 
ATOM     55  C   UNL A   1      41.377  27.651  26.504  1.00  0.00     0.198 A 
ATOM     56  C   UNL A   1      39.943  26.029  27.539  1.00  0.00     0.198 A 
ATOM     57  F   UNL A   1      39.074  26.429  29.688  1.00  0.00    -0.203 F 
ATOM     58  F   UNL A   1      42.091  28.064  25.449  1.00  0.00    -0.200 F 
ATOM     59  C   UNL A   1      40.705  26.438  26.456  1.00  0.00     0.200 A 
ATOM     60  F   UNL A   1      39.308  24.850  27.505  1.00  0.00    -0.200 F 
ATOM     61  F   UNL A   1      40.787  25.668  25.363  1.00  0.00    -0.200 F 
ENDBRANCH  27  51
BRANCH  39  62
ATOM     62  C   UNL A   1      43.866  28.260  34.841  1.00  0.00     0.064 A 
ATOM     63  C   UNL A   1      45.224  28.587  34.716  1.00  0.00     0.173 A 
ATOM     64  C   UNL A   1      43.536  27.093  35.547  1.00  0.00     0.173 A 
ATOM     65  F   UNL A   1      45.596  29.683  34.035  1.00  0.00    -0.203 F 
ATOM     66  C   UNL A   1      46.213  27.757  35.241  1.00  0.00     0.198 A 
ATOM     67  C   UNL A   1      44.524  26.287  36.105  1.00  0.00     0.198 A 
ATOM     68  F   UNL A   1      42.252  26.737  35.704  1.00  0.00    -0.203 F 
ATOM     69  F   UNL A   1      47.505  28.055  35.050  1.00  0.00    -0.200 F 
ATOM     70  C   UNL A   1      45.861  26.613  35.940  1.00  0.00     0.200 A 
ATOM     71  F   UNL A   1      44.182  25.190  36.795  1.00  0.00    -0.200 F 
ATOM     72  F   UNL A   1      46.813  25.816  36.446  1.00  0.00    -0.200 F 
ENDBRANCH  39  62
ENDBRANCH  13  14
ENDBRANCH   6   8
ENDBRANCH   3   4
ENDBRANCH   2   3
ENDBRANCH   1   2
BRANCH   1  73
ATOM     73  C   UNL A   1      33.767  29.869  26.896  1.00  0.00     0.116 C 
BRANCH  73  74
ATOM     74  N   UNL A   1      32.814  29.111  27.697  1.00  0.00    -0.352 N 
ATOM     75  C   UNL A   1      31.910  28.169  27.268  1.00  0.00     0.251 C 
ATOM     76  H   UNL A   1      32.818  29.298  28.662  1.00  0.00     0.163 HD
ATOM     77  O   UNL A   1      31.047  27.732  28.024  1.00  0.00    -0.269 OA
BRANCH  75  78
ATOM     78  C   UNL A   1      32.005  27.677  25.880  1.00  0.00     0.043 A 
ATOM     79  C   UNL A   1      33.166  27.051  25.433  1.00  0.00     0.014 A 
ATOM     80  C   UNL A   1      30.904  27.831  25.033  1.00  0.00     0.061 A 
ATOM     81  C   UNL A   1      33.191  26.514  24.145  1.00  0.00     0.005 A 
ATOM     82  C   UNL A   1      30.919  27.284  23.751  1.00  0.00     0.130 A 
ATOM     83  C   UNL A   1      32.068  26.619  23.314  1.00  0.00     0.047 A 
BRANCH  82  84
ATOM     84  O   UNL A   1      29.872  27.363  22.852  1.00  0.00    -0.438 OA
BRANCH  84  85
ATOM     85  C   UNL A   1      29.392  28.623  22.555  1.00  0.00     0.234 A 
ATOM     86  N   UNL A   1      30.269  29.449  21.924  1.00  0.00    -0.214 NA
ATOM     87  C   UNL A   1      28.081  28.993  22.870  1.00  0.00     0.087 A 
ATOM     88  C   UNL A   1      29.816  30.678  21.566  1.00  0.00     0.200 A 
ATOM     89  C   UNL A   1      27.622  30.239  22.447  1.00  0.00     0.108 A 
ATOM     90  Br  UNL A   1      26.886  27.849  23.790  1.00  0.00    -0.045 Br
ATOM     91  C   UNL A   1      28.510  31.091  21.785  1.00  0.00     0.288 A 
BRANCH  91  92
ATOM     92  N   UNL A   1      28.072  32.393  21.303  1.00  0.00     0.064 N 
ATOM     93  O   UNL A   1      27.654  32.464  20.141  1.00  0.00    -0.258 OA
ATOM     94  O   UNL A   1      28.132  33.343  22.094  1.00  0.00    -0.258 OA
ENDBRANCH  91  92
ENDBRANCH  84  85
ENDBRANCH  82  84
ENDBRANCH  75  78
ENDBRANCH  73  74
ENDBRANCH   1  73
TORSDOF 14
ENDMDL
