MODEL 1
REMARK VINA RESULT:     -12.8      0.000      0.000
REMARK SMILES COc1cc(/C=C2/SC(=S)N(c3ccc(C)cc3C)C2=O)ccc1O[C@@H](C)C(=O)NCCCCNC(=O)c1ccc(-c2c3nc(c(-c4c(F)c(F)c(F)c(F)c4F)c4ccc([nH]4)c(-c4c(F)c(F)c(F)c(F)c4F)c4nc(c(-c5c(F)c(F)c(F)c(F)c5F)c5ccc2[nH]5)C=C4)C=C3)cc1
REMARK SMILES IDX 31 1 30 2 28 3 29 4 26 6 27 7 25 8 24 9 3 10 4 11 5 12 23 13
REMARK SMILES IDX 22 14 2 15 1 16 6 17 7 18 8 19 20 20 9 21 11 22 21 23 10 24
REMARK SMILES IDX 12 25 13 26 18 27 14 28 17 29 19 30 15 31 16 32 32 33 33 34
REMARK SMILES IDX 34 35 35 36 36 37 37 39 38 40 39 41 100 42 40 43 99 44 41 45
REMARK SMILES IDX 42 46 43 47 93 48 44 49 98 50 92 51 94 52 45 53 97 54 91 55
REMARK SMILES IDX 90 56 46 58 78 59 58 60 77 61 59 62 62 63 76 64 95 65 60 66
REMARK SMILES IDX 61 67 75 69 96 70 63 71 47 72 48 73 56 74 49 75 50 76 54 77
REMARK SMILES IDX 57 78 51 79 52 80 55 81 53 82 79 83 80 84 88 85 81 86 82 87
REMARK SMILES IDX 86 88 89 89 83 90 84 91 87 92 85 93 64 94 65 95 73 96 66 97
REMARK SMILES IDX 67 98 71 99 74 100 68 101 69 102 72 103 70 104
REMARK H PARENT 30 5 35 38 94 57 62 68
REMARK Flexibility Score: inf
ROOT
ATOM      1  C   UNL A   1      31.531  29.671  25.118  1.00  0.00     0.116 C 
ENDROOT
BRANCH   1   2
ATOM      2  N   UNL A   1      30.662  30.459  24.284  1.00  0.00    -0.353 N 
ATOM      3  C   UNL A   1      29.548  30.218  23.565  1.00  0.00     0.260 C 
ATOM      4  O   UNL A   1      28.918  31.260  23.296  1.00  0.00    -0.271 OA
ATOM      5  H   UNL A   1      30.951  31.398  24.224  1.00  0.00     0.163 HD
BRANCH   3   6
ATOM      6  C   UNL A   1      28.954  28.842  23.041  1.00  0.00     0.259 C 
ATOM      7  C   UNL A   1      27.454  29.057  22.751  1.00  0.00     0.064 C 
BRANCH   6   8
ATOM      8  O   UNL A   1      29.081  27.448  23.198  1.00  0.00    -0.477 OA
BRANCH   8   9
ATOM      9  C   UNL A   1      30.282  26.901  23.479  1.00  0.00     0.162 A 
ATOM     10  C   UNL A   1      30.536  26.186  24.652  1.00  0.00     0.161 A 
ATOM     11  C   UNL A   1      31.807  25.629  24.865  1.00  0.00     0.058 A 
ATOM     12  C   UNL A   1      32.799  25.726  23.872  1.00  0.00    -0.020 A 
ATOM     13  C   UNL A   1      31.197  26.844  22.435  1.00  0.00     0.051 A 
ATOM     14  C   UNL A   1      32.424  26.210  22.614  1.00  0.00     0.012 A 
BRANCH  10  15
ATOM     15  O   UNL A   1      29.502  25.885  25.499  1.00  0.00    -0.493 OA
ATOM     16  C   UNL A   1      29.810  24.888  26.466  1.00  0.00     0.278 C 
ENDBRANCH  10  15
BRANCH  12  17
ATOM     17  C   UNL A   1      34.198  25.343  24.154  1.00  0.00     0.029 C 
ATOM     18  C   UNL A   1      34.670  24.101  24.386  1.00  0.00     0.081 C 
ATOM     19  S   UNL A   1      36.355  23.787  24.637  1.00  0.00    -0.054 SA
ATOM     20  C   UNL A   1      33.927  22.798  24.453  1.00  0.00     0.270 C 
ATOM     21  C   UNL A   1      36.127  22.044  24.804  1.00  0.00     0.152 C 
ATOM     22  N   UNL A   1      34.777  21.755  24.790  1.00  0.00    -0.261 N 
ATOM     23  O   UNL A   1      32.730  22.677  24.231  1.00  0.00    -0.268 OA
ATOM     24  S   UNL A   1      37.427  20.994  24.864  1.00  0.00    -0.051 S 
BRANCH  22  25
ATOM     25  C   UNL A   1      34.211  20.468  25.045  1.00  0.00     0.054 A 
ATOM     26  C   UNL A   1      34.192  19.522  24.004  1.00  0.00     0.027 A 
ATOM     27  C   UNL A   1      33.550  20.167  26.252  1.00  0.00    -0.027 A 
ATOM     28  C   UNL A   1      33.564  18.285  24.159  1.00  0.00     0.005 A 
ATOM     29  C   UNL A   1      32.938  18.903  26.399  1.00  0.00     0.009 A 
ATOM     30  C   UNL A   1      33.373  21.140  27.385  1.00  0.00     0.046 C 
ATOM     31  C   UNL A   1      32.932  17.965  25.360  1.00  0.00    -0.051 A 
ATOM     32  C   UNL A   1      32.227  16.649  25.507  1.00  0.00     0.044 C 
ENDBRANCH  22  25
ENDBRANCH  12  17
ENDBRANCH   8   9
ENDBRANCH   6   8
ENDBRANCH   3   6
ENDBRANCH   1   2
BRANCH   1  33
ATOM     33  C   UNL A   1      31.733  30.266  26.504  1.00  0.00     0.023 C 
BRANCH  33  34
ATOM     34  C   UNL A   1      31.568  31.782  26.603  1.00  0.00     0.023 C 
BRANCH  34  35
ATOM     35  C   UNL A   1      32.719  32.561  27.228  1.00  0.00     0.116 C 
BRANCH  35  36
ATOM     36  N   UNL A   1      32.397  33.923  27.618  1.00  0.00    -0.352 N 
ATOM     37  C   UNL A   1      33.038  34.725  28.540  1.00  0.00     0.251 C 
ATOM     38  H   UNL A   1      31.622  34.326  27.165  1.00  0.00     0.163 HD
ATOM     39  O   UNL A   1      32.622  35.857  28.773  1.00  0.00    -0.269 OA
BRANCH  37  40
ATOM     40  C   UNL A   1      34.204  34.192  29.285  1.00  0.00     0.039 A 
ATOM     41  C   UNL A   1      33.993  33.405  30.420  1.00  0.00     0.014 A 
ATOM     42  C   UNL A   1      35.503  34.415  28.821  1.00  0.00     0.014 A 
ATOM     43  C   UNL A   1      35.079  32.771  31.034  1.00  0.00     0.010 A 
ATOM     44  C   UNL A   1      36.565  33.706  29.373  1.00  0.00     0.010 A 
ATOM     45  C   UNL A   1      36.369  32.879  30.489  1.00  0.00    -0.014 A 
BRANCH  45  46
ATOM     46  C   UNL A   1      37.532  32.158  31.073  1.00  0.00     0.031 A 
ATOM     47  C   UNL A   1      38.020  32.511  32.454  1.00  0.00     0.074 A 
ATOM     48  C   UNL A   1      38.204  31.246  30.342  1.00  0.00     0.049 A 
ATOM     49  N   UNL A   1      39.066  32.068  33.108  1.00  0.00    -0.248 NA
ATOM     50  C   UNL A   1      37.251  33.533  33.182  1.00  0.00     0.031 C 
ATOM     51  C   UNL A   1      37.883  30.855  28.969  1.00  0.00     0.029 A 
ATOM     52  N   UNL A   1      39.306  30.485  30.652  1.00  0.00    -0.354 N 
ATOM     53  C   UNL A   1      39.090  32.774  34.304  1.00  0.00     0.074 A 
ATOM     54  C   UNL A   1      37.999  33.723  34.258  1.00  0.00     0.031 C 
ATOM     55  C   UNL A   1      38.743  29.902  28.569  1.00  0.00     0.029 A 
ATOM     56  C   UNL A   1      39.694  29.637  29.644  1.00  0.00     0.049 A 
ATOM     57  H   UNL A   1      39.773  30.543  31.517  1.00  0.00     0.167 HD
ATOM     58  C   UNL A   1      39.923  32.626  35.362  1.00  0.00     0.037 A 
ATOM     59  C   UNL A   1      40.698  28.740  29.597  1.00  0.00     0.037 A 
ATOM     60  C   UNL A   1      40.979  31.652  35.429  1.00  0.00     0.049 A 
ATOM     61  C   UNL A   1      41.586  28.564  30.800  1.00  0.00     0.074 A 
ATOM     62  C   UNL A   1      41.846  31.386  36.474  1.00  0.00     0.029 A 
ATOM     63  N   UNL A   1      41.303  30.772  34.407  1.00  0.00    -0.354 N 
ATOM     64  N   UNL A   1      41.560  29.195  31.948  1.00  0.00    -0.248 NA
ATOM     65  C   UNL A   1      42.634  27.538  30.703  1.00  0.00     0.031 C 
ATOM     66  C   UNL A   1      42.712  30.361  36.075  1.00  0.00     0.029 A 
ATOM     67  C   UNL A   1      42.356  29.962  34.797  1.00  0.00     0.049 A 
ATOM     68  H   UNL A   1      40.851  30.730  33.534  1.00  0.00     0.167 HD
ATOM     69  C   UNL A   1      42.556  28.616  32.724  1.00  0.00     0.074 A 
ATOM     70  C   UNL A   1      43.164  27.579  31.917  1.00  0.00     0.031 C 
ATOM     71  C   UNL A   1      42.931  28.915  33.992  1.00  0.00     0.037 A 
BRANCH  58  72
ATOM     72  C   UNL A   1      39.706  33.532  36.539  1.00  0.00     0.064 A 
ATOM     73  C   UNL A   1      38.880  33.156  37.611  1.00  0.00     0.173 A 
ATOM     74  C   UNL A   1      40.330  34.786  36.603  1.00  0.00     0.173 A 
ATOM     75  F   UNL A   1      38.247  31.973  37.593  1.00  0.00    -0.203 F 
ATOM     76  C   UNL A   1      38.655  34.018  38.682  1.00  0.00     0.198 A 
ATOM     77  C   UNL A   1      40.130  35.632  37.692  1.00  0.00     0.198 A 
ATOM     78  F   UNL A   1      41.134  35.193  35.610  1.00  0.00    -0.203 F 
ATOM     79  F   UNL A   1      37.811  33.663  39.659  1.00  0.00    -0.200 F 
ATOM     80  C   UNL A   1      39.285  35.253  38.723  1.00  0.00     0.200 A 
ATOM     81  F   UNL A   1      40.748  36.821  37.737  1.00  0.00    -0.200 F 
ATOM     82  F   UNL A   1      39.066  36.083  39.753  1.00  0.00    -0.200 F 
ENDBRANCH  58  72
BRANCH  59  83
ATOM     83  C   UNL A   1      40.880  27.889  28.393  1.00  0.00     0.064 A 
ATOM     84  C   UNL A   1      41.699  28.313  27.336  1.00  0.00     0.173 A 
ATOM     85  C   UNL A   1      40.240  26.649  28.263  1.00  0.00     0.173 A 
ATOM     86  F   UNL A   1      42.315  29.503  27.404  1.00  0.00    -0.203 F 
ATOM     87  C   UNL A   1      41.851  27.543  26.185  1.00  0.00     0.198 A 
ATOM     88  C   UNL A   1      40.411  25.866  27.123  1.00  0.00     0.198 A 
ATOM     89  F   UNL A   1      39.449  26.195  29.247  1.00  0.00    -0.203 F 
ATOM     90  F   UNL A   1      42.599  27.996  25.172  1.00  0.00    -0.200 F 
ATOM     91  C   UNL A   1      41.210  26.317  26.081  1.00  0.00     0.200 A 
ATOM     92  F   UNL A   1      39.801  24.677  27.029  1.00  0.00    -0.200 F 
ATOM     93  F   UNL A   1      41.355  25.576  24.975  1.00  0.00    -0.200 F 
ENDBRANCH  59  83
BRANCH  71  94
ATOM     94  C   UNL A   1      44.007  28.070  34.609  1.00  0.00     0.064 A 
ATOM     95  C   UNL A   1      45.357  28.444  34.567  1.00  0.00     0.173 A 
ATOM     96  C   UNL A   1      43.671  26.886  35.283  1.00  0.00     0.173 A 
ATOM     97  F   UNL A   1      45.729  29.560  33.922  1.00  0.00    -0.203 F 
ATOM     98  C   UNL A   1      46.337  27.648  35.154  1.00  0.00     0.198 A 
ATOM     99  C   UNL A   1      44.650  26.107  35.893  1.00  0.00     0.198 A 
ATOM    100  F   UNL A   1      42.392  26.489  35.358  1.00  0.00    -0.203 F 
ATOM    101  F   UNL A   1      47.627  27.998  35.060  1.00  0.00    -0.200 F 
ATOM    102  C   UNL A   1      45.982  26.484  35.821  1.00  0.00     0.200 A 
ATOM    103  F   UNL A   1      44.305  24.990  36.548  1.00  0.00    -0.200 F 
ATOM    104  F   UNL A   1      46.927  25.722  36.388  1.00  0.00    -0.200 F 
ENDBRANCH  71  94
ENDBRANCH  45  46
ENDBRANCH  37  40
ENDBRANCH  35  36
ENDBRANCH  34  35
ENDBRANCH  33  34
ENDBRANCH   1  33
TORSDOF 16
ENDMDL
MODEL 2
REMARK VINA RESULT:     -12.7      0.706      7.005
REMARK SMILES COc1cc(/C=C2/SC(=S)N(c3ccc(C)cc3C)C2=O)ccc1O[C@@H](C)C(=O)NCCCCNC(=O)c1ccc(-c2c3nc(c(-c4c(F)c(F)c(F)c(F)c4F)c4ccc([nH]4)c(-c4c(F)c(F)c(F)c(F)c4F)c4nc(c(-c5c(F)c(F)c(F)c(F)c5F)c5ccc2[nH]5)C=C4)C=C3)cc1
REMARK SMILES IDX 31 1 30 2 28 3 29 4 26 6 27 7 25 8 24 9 3 10 4 11 5 12 23 13
REMARK SMILES IDX 22 14 2 15 1 16 6 17 7 18 8 19 20 20 9 21 11 22 21 23 10 24
REMARK SMILES IDX 12 25 13 26 18 27 14 28 17 29 19 30 15 31 16 32 32 33 33 34
REMARK SMILES IDX 34 35 35 36 36 37 37 39 38 40 39 41 100 42 40 43 99 44 41 45
REMARK SMILES IDX 42 46 43 47 93 48 44 49 98 50 92 51 94 52 45 53 97 54 91 55
REMARK SMILES IDX 90 56 46 58 78 59 58 60 77 61 59 62 62 63 76 64 95 65 60 66
REMARK SMILES IDX 61 67 75 69 96 70 63 71 47 72 48 73 56 74 49 75 50 76 54 77
REMARK SMILES IDX 57 78 51 79 52 80 55 81 53 82 79 83 80 84 88 85 81 86 82 87
REMARK SMILES IDX 86 88 89 89 83 90 84 91 87 92 85 93 64 94 65 95 73 96 66 97
REMARK SMILES IDX 67 98 71 99 74 100 68 101 69 102 72 103 70 104
REMARK H PARENT 30 5 35 38 94 57 62 68
REMARK Flexibility Score: inf
ROOT
ATOM      1  C   UNL A   1      31.662  29.753  25.326  1.00  0.00     0.116 C 
ENDROOT
BRANCH   1   2
ATOM      2  N   UNL A   1      30.753  30.583  24.579  1.00  0.00    -0.353 N 
ATOM      3  C   UNL A   1      29.709  30.360  23.756  1.00  0.00     0.260 C 
ATOM      4  O   UNL A   1      28.981  31.363  23.624  1.00  0.00    -0.271 OA
ATOM      5  H   UNL A   1      30.939  31.542  24.698  1.00  0.00     0.163 HD
BRANCH   3   6
ATOM      6  C   UNL A   1      29.299  29.043  22.969  1.00  0.00     0.259 C 
ATOM      7  C   UNL A   1      27.934  29.302  22.300  1.00  0.00     0.064 C 
BRANCH   6   8
ATOM      8  O   UNL A   1      29.395  27.639  23.031  1.00  0.00    -0.477 OA
BRANCH   8   9
ATOM      9  C   UNL A   1      30.570  27.049  23.332  1.00  0.00     0.162 A 
ATOM     10  C   UNL A   1      30.781  26.330  24.510  1.00  0.00     0.161 A 
ATOM     11  C   UNL A   1      32.027  25.727  24.745  1.00  0.00     0.058 A 
ATOM     12  C   UNL A   1      33.036  25.784  23.766  1.00  0.00    -0.020 A 
ATOM     13  C   UNL A   1      31.498  26.954  22.302  1.00  0.00     0.051 A 
ATOM     14  C   UNL A   1      32.698  26.276  22.502  1.00  0.00     0.012 A 
BRANCH  10  15
ATOM     15  O   UNL A   1      29.724  26.071  25.343  1.00  0.00    -0.493 OA
ATOM     16  C   UNL A   1      29.958  25.024  26.277  1.00  0.00     0.278 C 
ENDBRANCH  10  15
BRANCH  12  17
ATOM     17  C   UNL A   1      34.416  25.351  24.070  1.00  0.00     0.029 C 
ATOM     18  C   UNL A   1      34.837  24.094  24.321  1.00  0.00     0.081 C 
ATOM     19  S   UNL A   1      36.505  23.719  24.597  1.00  0.00    -0.054 SA
ATOM     20  C   UNL A   1      34.044  22.821  24.391  1.00  0.00     0.270 C 
ATOM     21  C   UNL A   1      36.209  21.988  24.778  1.00  0.00     0.152 C 
ATOM     22  N   UNL A   1      34.849  21.750  24.749  1.00  0.00    -0.261 N 
ATOM     23  O   UNL A   1      32.847  22.743  24.154  1.00  0.00    -0.268 OA
ATOM     24  S   UNL A   1      37.467  20.890  24.865  1.00  0.00    -0.051 S 
BRANCH  22  25
ATOM     25  C   UNL A   1      34.232  20.489  25.009  1.00  0.00     0.054 A 
ATOM     26  C   UNL A   1      34.176  19.539  23.973  1.00  0.00     0.027 A 
ATOM     27  C   UNL A   1      33.556  20.220  26.215  1.00  0.00    -0.027 A 
ATOM     28  C   UNL A   1      33.498  18.329  24.132  1.00  0.00     0.005 A 
ATOM     29  C   UNL A   1      32.894  18.983  26.367  1.00  0.00     0.009 A 
ATOM     30  C   UNL A   1      33.417  21.205  27.344  1.00  0.00     0.046 C 
ATOM     31  C   UNL A   1      32.852  18.040  25.333  1.00  0.00    -0.051 A 
ATOM     32  C   UNL A   1      32.094  16.755  25.485  1.00  0.00     0.044 C 
ENDBRANCH  22  25
ENDBRANCH  12  17
ENDBRANCH   8   9
ENDBRANCH   6   8
ENDBRANCH   3   6
ENDBRANCH   1   2
BRANCH   1  33
ATOM     33  C   UNL A   1      32.084  30.369  26.653  1.00  0.00     0.023 C 
BRANCH  33  34
ATOM     34  C   UNL A   1      31.723  31.841  26.843  1.00  0.00     0.023 C 
BRANCH  34  35
ATOM     35  C   UNL A   1      32.842  32.772  27.293  1.00  0.00     0.116 C 
BRANCH  35  36
ATOM     36  N   UNL A   1      32.417  34.118  27.639  1.00  0.00    -0.352 N 
ATOM     37  C   UNL A   1      32.962  34.977  28.571  1.00  0.00     0.251 C 
ATOM     38  H   UNL A   1      31.640  34.463  27.142  1.00  0.00     0.163 HD
ATOM     39  O   UNL A   1      32.466  36.084  28.759  1.00  0.00    -0.269 OA
BRANCH  37  40
ATOM     40  C   UNL A   1      34.124  34.533  29.379  1.00  0.00     0.039 A 
ATOM     41  C   UNL A   1      33.909  33.978  30.643  1.00  0.00     0.014 A 
ATOM     42  C   UNL A   1      35.418  34.606  28.859  1.00  0.00     0.014 A 
ATOM     43  C   UNL A   1      34.983  33.416  31.343  1.00  0.00     0.010 A 
ATOM     44  C   UNL A   1      36.463  33.959  29.511  1.00  0.00     0.010 A 
ATOM     45  C   UNL A   1      36.261  33.360  30.763  1.00  0.00    -0.014 A 
BRANCH  45  46
ATOM     46  C   UNL A   1      37.407  32.703  31.448  1.00  0.00     0.031 A 
ATOM     47  C   UNL A   1      38.137  31.569  30.776  1.00  0.00     0.074 A 
ATOM     48  C   UNL A   1      37.746  33.062  32.703  1.00  0.00     0.049 A 
ATOM     49  N   UNL A   1      39.099  30.808  31.235  1.00  0.00    -0.248 NA
ATOM     50  C   UNL A   1      37.695  31.217  29.417  1.00  0.00     0.031 C 
ATOM     51  C   UNL A   1      37.083  34.097  33.498  1.00  0.00     0.029 A 
ATOM     52  N   UNL A   1      38.731  32.589  33.535  1.00  0.00    -0.354 N 
ATOM     53  C   UNL A   1      39.354  29.878  30.235  1.00  0.00     0.074 A 
ATOM     54  C   UNL A   1      38.403  30.125  29.175  1.00  0.00     0.031 C 
ATOM     55  C   UNL A   1      37.703  34.206  34.686  1.00  0.00     0.029 A 
ATOM     56  C   UNL A   1      38.786  33.229  34.749  1.00  0.00     0.049 A 
ATOM     57  H   UNL A   1      39.342  31.858  33.283  1.00  0.00     0.167 HD
ATOM     58  C   UNL A   1      40.316  28.926  30.186  1.00  0.00     0.037 A 
ATOM     59  C   UNL A   1      39.623  33.054  35.790  1.00  0.00     0.037 A 
ATOM     60  C   UNL A   1      41.293  28.709  31.219  1.00  0.00     0.049 A 
ATOM     61  C   UNL A   1      40.710  32.017  35.696  1.00  0.00     0.074 A 
ATOM     62  C   UNL A   1      42.341  27.804  31.243  1.00  0.00     0.029 A 
ATOM     63  N   UNL A   1      41.350  29.418  32.409  1.00  0.00    -0.354 N 
ATOM     64  N   UNL A   1      40.980  31.186  34.720  1.00  0.00    -0.248 NA
ATOM     65  C   UNL A   1      41.618  31.906  36.846  1.00  0.00     0.031 C 
ATOM     66  C   UNL A   1      43.016  27.950  32.461  1.00  0.00     0.029 A 
ATOM     67  C   UNL A   1      42.414  28.973  33.175  1.00  0.00     0.049 A 
ATOM     68  H   UNL A   1      40.725  30.133  32.671  1.00  0.00     0.167 HD
ATOM     69  C   UNL A   1      42.110  30.484  35.118  1.00  0.00     0.074 A 
ATOM     70  C   UNL A   1      42.479  30.992  36.423  1.00  0.00     0.031 C 
ATOM     71  C   UNL A   1      42.784  29.509  34.459  1.00  0.00     0.037 A 
BRANCH  58  72
ATOM     72  C   UNL A   1      40.363  28.059  28.960  1.00  0.00     0.064 A 
ATOM     73  C   UNL A   1      39.662  26.844  28.894  1.00  0.00     0.173 A 
ATOM     74  C   UNL A   1      41.108  28.447  27.837  1.00  0.00     0.173 A 
ATOM     75  F   UNL A   1      38.945  26.420  29.946  1.00  0.00    -0.203 F 
ATOM     76  C   UNL A   1      39.740  26.030  27.767  1.00  0.00     0.198 A 
ATOM     77  C   UNL A   1      41.157  27.647  26.698  1.00  0.00     0.198 A 
ATOM     78  F   UNL A   1      41.791  29.601  27.843  1.00  0.00    -0.203 F 
ATOM     79  F   UNL A   1      39.117  24.845  27.755  1.00  0.00    -0.200 F 
ATOM     80  C   UNL A   1      40.483  26.435  26.668  1.00  0.00     0.200 A 
ATOM     81  F   UNL A   1      41.866  28.043  25.632  1.00  0.00    -0.200 F 
ATOM     82  F   UNL A   1      40.560  25.650  25.584  1.00  0.00    -0.200 F 
ENDBRANCH  58  72
BRANCH  59  83
ATOM     83  C   UNL A   1      39.511  33.925  36.989  1.00  0.00     0.064 A 
ATOM     84  C   UNL A   1      38.770  33.511  38.105  1.00  0.00     0.173 A 
ATOM     85  C   UNL A   1      40.125  35.184  37.045  1.00  0.00     0.173 A 
ATOM     86  F   UNL A   1      38.146  32.323  38.090  1.00  0.00    -0.203 F 
ATOM     87  C   UNL A   1      38.627  34.331  39.222  1.00  0.00     0.198 A 
ATOM     88  C   UNL A   1      40.003  35.994  38.173  1.00  0.00     0.198 A 
ATOM     89  F   UNL A   1      40.848  35.625  36.005  1.00  0.00    -0.203 F 
ATOM     90  F   UNL A   1      37.873  33.930  40.254  1.00  0.00    -0.200 F 
ATOM     91  C   UNL A   1      39.247  35.571  39.257  1.00  0.00     0.200 A 
ATOM     92  F   UNL A   1      40.612  37.187  38.208  1.00  0.00    -0.200 F 
ATOM     93  F   UNL A   1      39.109  36.361  40.330  1.00  0.00    -0.200 F 
ENDBRANCH  59  83
BRANCH  71  94
ATOM     94  C   UNL A   1      44.024  28.970  35.110  1.00  0.00     0.064 A 
ATOM     95  C   UNL A   1      43.981  27.902  36.016  1.00  0.00     0.173 A 
ATOM     96  C   UNL A   1      45.279  29.512  34.789  1.00  0.00     0.173 A 
ATOM     97  F   UNL A   1      42.805  27.360  36.365  1.00  0.00    -0.203 F 
ATOM     98  C   UNL A   1      45.147  27.414  36.601  1.00  0.00     0.198 A 
ATOM     99  C   UNL A   1      46.444  29.004  35.355  1.00  0.00     0.198 A 
ATOM    100  F   UNL A   1      45.375  30.530  33.921  1.00  0.00    -0.203 F 
ATOM    101  F   UNL A   1      45.078  26.425  37.503  1.00  0.00    -0.200 F 
ATOM    102  C   UNL A   1      46.377  27.961  36.265  1.00  0.00     0.200 A 
ATOM    103  F   UNL A   1      47.633  29.524  35.019  1.00  0.00    -0.200 F 
ATOM    104  F   UNL A   1      47.497  27.486  36.826  1.00  0.00    -0.200 F 
ENDBRANCH  71  94
ENDBRANCH  45  46
ENDBRANCH  37  40
ENDBRANCH  35  36
ENDBRANCH  34  35
ENDBRANCH  33  34
ENDBRANCH   1  33
TORSDOF 16
ENDMDL
MODEL 3
REMARK VINA RESULT:     -12.4      7.174     12.182
REMARK SMILES COc1cc(/C=C2/SC(=S)N(c3ccc(C)cc3C)C2=O)ccc1O[C@@H](C)C(=O)NCCCCNC(=O)c1ccc(-c2c3nc(c(-c4c(F)c(F)c(F)c(F)c4F)c4ccc([nH]4)c(-c4c(F)c(F)c(F)c(F)c4F)c4nc(c(-c5c(F)c(F)c(F)c(F)c5F)c5ccc2[nH]5)C=C4)C=C3)cc1
REMARK SMILES IDX 31 1 30 2 28 3 29 4 26 6 27 7 25 8 24 9 3 10 4 11 5 12 23 13
REMARK SMILES IDX 22 14 2 15 1 16 6 17 7 18 8 19 20 20 9 21 11 22 21 23 10 24
REMARK SMILES IDX 12 25 13 26 18 27 14 28 17 29 19 30 15 31 16 32 32 33 33 34
REMARK SMILES IDX 34 35 35 36 36 37 37 39 38 40 39 41 100 42 40 43 99 44 41 45
REMARK SMILES IDX 42 46 43 47 93 48 44 49 98 50 92 51 94 52 45 53 97 54 91 55
REMARK SMILES IDX 90 56 46 58 78 59 58 60 77 61 59 62 62 63 76 64 95 65 60 66
REMARK SMILES IDX 61 67 75 69 96 70 63 71 47 72 48 73 56 74 49 75 50 76 54 77
REMARK SMILES IDX 57 78 51 79 52 80 55 81 53 82 79 83 80 84 88 85 81 86 82 87
REMARK SMILES IDX 86 88 89 89 83 90 84 91 87 92 85 93 64 94 65 95 73 96 66 97
REMARK SMILES IDX 67 98 71 99 74 100 68 101 69 102 72 103 70 104
REMARK H PARENT 30 5 35 38 94 57 62 68
REMARK Flexibility Score: inf
ROOT
ATOM      1  C   UNL A   1      36.478  23.774  25.889  1.00  0.00     0.116 C 
ENDROOT
BRANCH   1   2
ATOM      2  N   UNL A   1      35.856  23.625  24.600  1.00  0.00    -0.353 N 
ATOM      3  C   UNL A   1      34.681  24.000  24.055  1.00  0.00     0.260 C 
ATOM      4  O   UNL A   1      34.707  23.989  22.809  1.00  0.00    -0.271 OA
ATOM      5  H   UNL A   1      36.423  23.132  23.965  1.00  0.00     0.163 HD
BRANCH   3   6
ATOM      6  C   UNL A   1      33.328  24.439  24.760  1.00  0.00     0.259 C 
ATOM      7  C   UNL A   1      32.635  23.164  25.283  1.00  0.00     0.064 C 
BRANCH   6   8
ATOM      8  O   UNL A   1      32.290  25.388  24.675  1.00  0.00    -0.477 OA
BRANCH   8   9
ATOM      9  C   UNL A   1      32.453  26.624  25.191  1.00  0.00     0.162 A 
ATOM     10  C   UNL A   1      32.607  27.765  24.400  1.00  0.00     0.161 A 
ATOM     11  C   UNL A   1      32.753  29.021  25.010  1.00  0.00     0.058 A 
ATOM     12  C   UNL A   1      32.671  29.142  26.409  1.00  0.00    -0.020 A 
ATOM     13  C   UNL A   1      32.198  26.768  26.550  1.00  0.00     0.051 A 
ATOM     14  C   UNL A   1      32.251  28.027  27.142  1.00  0.00     0.012 A 
BRANCH  10  15
ATOM     15  O   UNL A   1      32.439  27.675  23.042  1.00  0.00    -0.493 OA
ATOM     16  C   UNL A   1      33.649  27.507  22.313  1.00  0.00     0.278 C 
ENDBRANCH  10  15
BRANCH  12  17
ATOM     17  C   UNL A   1      33.033  30.404  27.086  1.00  0.00     0.029 C 
ATOM     18  C   UNL A   1      34.236  30.735  27.600  1.00  0.00     0.081 C 
ATOM     19  S   UNL A   1      34.542  32.285  28.309  1.00  0.00    -0.054 SA
ATOM     20  C   UNL A   1      35.502  29.928  27.654  1.00  0.00     0.270 C 
ATOM     21  C   UNL A   1      36.236  31.928  28.651  1.00  0.00     0.152 C 
ATOM     22  N   UNL A   1      36.499  30.609  28.336  1.00  0.00    -0.261 N 
ATOM     23  O   UNL A   1      35.632  28.819  27.155  1.00  0.00    -0.268 OA
ATOM     24  S   UNL A   1      37.290  33.113  29.182  1.00  0.00    -0.051 S 
BRANCH  22  25
ATOM     25  C   UNL A   1      37.724  29.929  28.613  1.00  0.00     0.054 A 
ATOM     26  C   UNL A   1      38.625  29.704  27.557  1.00  0.00     0.027 A 
ATOM     27  C   UNL A   1      37.993  29.356  29.871  1.00  0.00    -0.027 A 
ATOM     28  C   UNL A   1      39.790  28.957  27.742  1.00  0.00     0.005 A 
ATOM     29  C   UNL A   1      39.186  28.622  30.047  1.00  0.00     0.009 A 
ATOM     30  C   UNL A   1      37.048  29.399  31.041  1.00  0.00     0.046 C 
ATOM     31  C   UNL A   1      40.081  28.411  28.991  1.00  0.00    -0.051 A 
ATOM     32  C   UNL A   1      41.316  27.578  29.175  1.00  0.00     0.044 C 
ENDBRANCH  22  25
ENDBRANCH  12  17
ENDBRANCH   8   9
ENDBRANCH   6   8
ENDBRANCH   3   6
ENDBRANCH   1   2
BRANCH   1  33
ATOM     33  C   UNL A   1      37.975  23.499  25.868  1.00  0.00     0.023 C 
BRANCH  33  34
ATOM     34  C   UNL A   1      38.853  24.572  26.511  1.00  0.00     0.023 C 
BRANCH  34  35
ATOM     35  C   UNL A   1      40.177  24.111  27.108  1.00  0.00     0.116 C 
BRANCH  35  36
ATOM     36  N   UNL A   1      40.923  23.171  26.289  1.00  0.00    -0.352 N 
ATOM     37  C   UNL A   1      42.187  23.314  25.753  1.00  0.00     0.251 C 
ATOM     38  H   UNL A   1      40.469  22.320  26.091  1.00  0.00     0.163 HD
ATOM     39  O   UNL A   1      42.670  22.426  25.058  1.00  0.00    -0.269 OA
BRANCH  37  40
ATOM     40  C   UNL A   1      42.938  24.572  25.984  1.00  0.00     0.039 A 
ATOM     41  C   UNL A   1      43.651  24.737  27.174  1.00  0.00     0.014 A 
ATOM     42  C   UNL A   1      42.990  25.558  24.996  1.00  0.00     0.014 A 
ATOM     43  C   UNL A   1      44.486  25.849  27.332  1.00  0.00     0.010 A 
ATOM     44  C   UNL A   1      43.895  26.608  25.114  1.00  0.00     0.010 A 
ATOM     45  C   UNL A   1      44.651  26.771  26.285  1.00  0.00    -0.014 A 
BRANCH  45  46
ATOM     46  C   UNL A   1      45.587  27.923  26.391  1.00  0.00     0.031 A 
ATOM     47  C   UNL A   1      47.066  27.711  26.200  1.00  0.00     0.074 A 
ATOM     48  C   UNL A   1      45.128  29.142  26.739  1.00  0.00     0.049 A 
ATOM     49  N   UNL A   1      48.055  28.560  26.338  1.00  0.00    -0.248 NA
ATOM     50  C   UNL A   1      47.495  26.349  25.846  1.00  0.00     0.031 C 
ATOM     51  C   UNL A   1      43.730  29.475  27.019  1.00  0.00     0.029 A 
ATOM     52  N   UNL A   1      45.792  30.330  26.924  1.00  0.00    -0.354 N 
ATOM     53  C   UNL A   1      49.214  27.828  26.114  1.00  0.00     0.074 A 
ATOM     54  C   UNL A   1      48.813  26.455  25.900  1.00  0.00     0.031 C 
ATOM     55  C   UNL A   1      43.637  30.786  27.303  1.00  0.00     0.029 A 
ATOM     56  C   UNL A   1      44.970  31.379  27.256  1.00  0.00     0.049 A 
ATOM     57  H   UNL A   1      46.769  30.421  26.827  1.00  0.00     0.167 HD
ATOM     58  C   UNL A   1      50.496  28.263  26.057  1.00  0.00     0.037 A 
ATOM     59  C   UNL A   1      45.259  32.675  27.485  1.00  0.00     0.037 A 
ATOM     60  C   UNL A   1      50.892  29.635  26.223  1.00  0.00     0.049 A 
ATOM     61  C   UNL A   1      46.685  33.143  27.376  1.00  0.00     0.074 A 
ATOM     62  C   UNL A   1      52.158  30.187  26.133  1.00  0.00     0.029 A 
ATOM     63  N   UNL A   1      50.020  30.677  26.501  1.00  0.00    -0.354 N 
ATOM     64  N   UNL A   1      47.765  32.453  27.103  1.00  0.00    -0.248 NA
ATOM     65  C   UNL A   1      46.929  34.576  27.592  1.00  0.00     0.031 C 
ATOM     66  C   UNL A   1      52.055  31.561  26.382  1.00  0.00     0.029 A 
ATOM     67  C   UNL A   1      50.720  31.869  26.586  1.00  0.00     0.049 A 
ATOM     68  H   UNL A   1      49.048  30.583  26.621  1.00  0.00     0.167 HD
ATOM     69  C   UNL A   1      48.807  33.370  27.073  1.00  0.00     0.074 A 
ATOM     70  C   UNL A   1      48.228  34.668  27.350  1.00  0.00     0.031 C 
ATOM     71  C   UNL A   1      50.125  33.157  26.835  1.00  0.00     0.037 A 
BRANCH  58  72
ATOM     72  C   UNL A   1      51.558  27.236  25.785  1.00  0.00     0.064 A 
ATOM     73  C   UNL A   1      52.254  26.607  26.830  1.00  0.00     0.173 A 
ATOM     74  C   UNL A   1      51.880  26.870  24.470  1.00  0.00     0.173 A 
ATOM     75  F   UNL A   1      51.994  26.931  28.106  1.00  0.00    -0.203 F 
ATOM     76  C   UNL A   1      53.262  25.683  26.567  1.00  0.00     0.198 A 
ATOM     77  C   UNL A   1      52.866  25.921  24.212  1.00  0.00     0.198 A 
ATOM     78  F   UNL A   1      51.242  27.435  23.435  1.00  0.00    -0.203 F 
ATOM     79  F   UNL A   1      53.957  25.147  27.579  1.00  0.00    -0.200 F 
ATOM     80  C   UNL A   1      53.563  25.337  25.259  1.00  0.00     0.200 A 
ATOM     81  F   UNL A   1      53.149  25.578  22.947  1.00  0.00    -0.200 F 
ATOM     82  F   UNL A   1      54.535  24.449  25.006  1.00  0.00    -0.200 F 
ENDBRANCH  58  72
BRANCH  59  83
ATOM     83  C   UNL A   1      44.167  33.640  27.776  1.00  0.00     0.064 A 
ATOM     84  C   UNL A   1      43.593  33.704  29.054  1.00  0.00     0.173 A 
ATOM     85  C   UNL A   1      43.667  34.505  26.794  1.00  0.00     0.173 A 
ATOM     86  F   UNL A   1      44.023  32.880  30.022  1.00  0.00    -0.203 F 
ATOM     87  C   UNL A   1      42.545  34.579  29.333  1.00  0.00     0.198 A 
ATOM     88  C   UNL A   1      42.636  35.399  27.078  1.00  0.00     0.198 A 
ATOM     89  F   UNL A   1      44.185  34.487  25.556  1.00  0.00    -0.203 F 
ATOM     90  F   UNL A   1      41.984  34.584  30.548  1.00  0.00    -0.200 F 
ATOM     91  C   UNL A   1      42.070  35.429  28.345  1.00  0.00     0.200 A 
ATOM     92  F   UNL A   1      42.186  36.226  26.126  1.00  0.00    -0.200 F 
ATOM     93  F   UNL A   1      41.061  36.270  28.611  1.00  0.00    -0.200 F 
ENDBRANCH  59  83
BRANCH  71  94
ATOM     94  C   UNL A   1      51.022  34.359  26.800  1.00  0.00     0.064 A 
ATOM     95  C   UNL A   1      51.750  34.772  27.924  1.00  0.00     0.173 A 
ATOM     96  C   UNL A   1      51.178  35.086  25.609  1.00  0.00     0.173 A 
ATOM     97  F   UNL A   1      51.622  34.119  29.088  1.00  0.00    -0.203 F 
ATOM     98  C   UNL A   1      52.582  35.887  27.865  1.00  0.00     0.198 A 
ATOM     99  C   UNL A   1      52.033  36.183  25.547  1.00  0.00     0.198 A 
ATOM    100  F   UNL A   1      50.509  34.726  24.504  1.00  0.00    -0.203 F 
ATOM    101  F   UNL A   1      53.232  36.294  28.965  1.00  0.00    -0.200 F 
ATOM    102  C   UNL A   1      52.728  36.587  26.676  1.00  0.00     0.200 A 
ATOM    103  F   UNL A   1      52.182  36.850  24.394  1.00  0.00    -0.200 F 
ATOM    104  F   UNL A   1      53.532  37.657  26.622  1.00  0.00    -0.200 F 
ENDBRANCH  71  94
ENDBRANCH  45  46
ENDBRANCH  37  40
ENDBRANCH  35  36
ENDBRANCH  34  35
ENDBRANCH  33  34
ENDBRANCH   1  33
TORSDOF 16
ENDMDL
