MODEL 1
REMARK VINA RESULT:     -13.9      0.000      0.000
REMARK SMILES C[C@@H](Oc1ccc2c(c1)OCO2)C(=O)N1CCn2nc(C(=O)NCCCCNC(=O)c3ccc(-c4c5nc(c(-c6c(F)c(F)c(F)c(F)c6F)c6ccc([nH]6)c(-c6c(F)c(F)c(F)c(F)c6F)c6nc(c(-c7c(F)c(F)c(F)c(F)c7F)c7ccc4[nH]7)C=C6)C=C5)cc3)cc2C1
REMARK SMILES IDX 24 1 23 2 21 3 22 4 20 6 15 7 16 8 96 9 17 10 95 11 18 12
REMARK SMILES IDX 94 13 19 14 13 15 14 16 2 17 1 18 3 19 4 20 5 21 9 22 6 23
REMARK SMILES IDX 8 24 7 25 10 26 12 27 11 28 25 29 26 30 27 31 28 32 29 33
REMARK SMILES IDX 30 35 31 36 32 37 93 38 33 39 92 40 34 41 35 42 36 43 86 44
REMARK SMILES IDX 37 45 91 46 85 47 87 48 38 49 90 50 84 51 83 52 39 54 71 55
REMARK SMILES IDX 51 56 70 57 52 58 55 59 69 60 88 61 53 62 54 63 68 65 89 66
REMARK SMILES IDX 56 67 40 68 41 69 49 70 42 71 43 72 47 73 50 74 44 75 45 76
REMARK SMILES IDX 48 77 46 78 72 79 73 80 81 81 74 82 75 83 79 84 82 85 76 86
REMARK SMILES IDX 77 87 80 88 78 89 57 90 58 91 66 92 59 93 60 94 64 95 67 96
REMARK SMILES IDX 61 97 62 98 65 99 63 100
REMARK H PARENT 23 5 28 34 87 53 55 64
REMARK Flexibility Score: inf
ROOT
ATOM      1  C   UNL A   1      36.988  21.654  25.170  1.00  0.00     0.116 C 
ENDROOT
BRANCH   1   2
ATOM      2  N   UNL A   1      35.959  20.637  25.190  1.00  0.00    -0.351 N 
ATOM      3  C   UNL A   1      34.597  20.688  24.976  1.00  0.00     0.271 C 
ATOM      4  O   UNL A   1      34.019  19.598  25.001  1.00  0.00    -0.267 OA
ATOM      5  H   UNL A   1      36.295  19.735  25.396  1.00  0.00     0.163 HD
BRANCH   3   6
ATOM      6  C   UNL A   1      33.891  21.958  24.699  1.00  0.00     0.150 A 
ATOM      7  N   UNL A   1      31.561  25.778  23.621  1.00  0.00    -0.332 N 
ATOM      8  C   UNL A   1      31.956  26.059  25.012  1.00  0.00     0.143 C 
ATOM      9  C   UNL A   1      31.781  24.472  23.025  1.00  0.00     0.175 C 
ATOM     10  C   UNL A   1      32.376  24.890  25.902  1.00  0.00     0.166 C 
ATOM     11  C   UNL A   1      32.683  23.617  23.811  1.00  0.00     0.059 A 
ATOM     12  N   UNL A   1      32.876  23.781  25.137  1.00  0.00    -0.265 N 
ATOM     13  C   UNL A   1      33.460  22.536  23.471  1.00  0.00     0.061 A 
ATOM     14  N   UNL A   1      33.543  22.778  25.717  1.00  0.00    -0.167 NA
BRANCH   7  15
ATOM     15  C   UNL A   1      30.998  26.716  22.752  1.00  0.00     0.263 C 
ATOM     16  O   UNL A   1      31.589  27.053  21.719  1.00  0.00    -0.271 OA
BRANCH  15  17
ATOM     17  C   UNL A   1      29.670  27.401  23.118  1.00  0.00     0.259 C 
ATOM     18  C   UNL A   1      28.756  26.493  23.932  1.00  0.00     0.064 C 
BRANCH  17  19
ATOM     19  O   UNL A   1      30.048  28.610  23.797  1.00  0.00    -0.481 OA
BRANCH  19  20
ATOM     20  C   UNL A   1      29.442  29.737  23.321  1.00  0.00     0.124 A 
ATOM     21  C   UNL A   1      29.538  30.927  24.057  1.00  0.00     0.050 A 
ATOM     22  C   UNL A   1      28.896  29.728  22.034  1.00  0.00     0.097 A 
ATOM     23  C   UNL A   1      29.044  32.124  23.539  1.00  0.00     0.054 A 
ATOM     24  C   UNL A   1      28.433  30.930  21.539  1.00  0.00     0.169 A 
ATOM     25  C   UNL A   1      28.503  32.093  22.275  1.00  0.00     0.166 A 
ATOM     26  O   UNL A   1      27.898  31.138  20.305  1.00  0.00    -0.453 OA
ATOM     27  O   UNL A   1      28.017  33.169  21.602  1.00  0.00    -0.454 OA
ATOM     28  C   UNL A   1      27.655  32.561  20.346  1.00  0.00     0.468 C 
ENDBRANCH  19  20
ENDBRANCH  17  19
ENDBRANCH  15  17
ENDBRANCH   7  15
ENDBRANCH   3   6
ENDBRANCH   1   2
BRANCH   1  29
ATOM     29  C   UNL A   1      38.378  21.064  25.420  1.00  0.00     0.023 C 
BRANCH  29  30
ATOM     30  C   UNL A   1      39.314  21.955  26.252  1.00  0.00     0.023 C 
BRANCH  30  31
ATOM     31  C   UNL A   1      40.563  21.257  26.787  1.00  0.00     0.116 C 
BRANCH  31  32
ATOM     32  N   UNL A   1      41.756  21.536  25.995  1.00  0.00    -0.352 N 
ATOM     33  C   UNL A   1      42.283  22.770  25.667  1.00  0.00     0.251 C 
ATOM     34  H   UNL A   1      42.242  20.751  25.654  1.00  0.00     0.163 HD
ATOM     35  O   UNL A   1      42.988  22.906  24.679  1.00  0.00    -0.269 OA
BRANCH  33  36
ATOM     36  C   UNL A   1      41.987  23.929  26.531  1.00  0.00     0.039 A 
ATOM     37  C   UNL A   1      42.724  24.152  27.695  1.00  0.00     0.014 A 
ATOM     38  C   UNL A   1      40.957  24.799  26.169  1.00  0.00     0.014 A 
ATOM     39  C   UNL A   1      42.474  25.302  28.438  1.00  0.00     0.010 A 
ATOM     40  C   UNL A   1      40.780  25.990  26.842  1.00  0.00     0.010 A 
ATOM     41  C   UNL A   1      41.523  26.240  27.990  1.00  0.00    -0.014 A 
BRANCH  41  42
ATOM     42  C   UNL A   1      41.457  27.555  28.629  1.00  0.00     0.031 A 
ATOM     43  C   UNL A   1      42.572  28.462  28.232  1.00  0.00     0.074 A 
ATOM     44  C   UNL A   1      40.429  28.016  29.375  1.00  0.00     0.049 A 
ATOM     45  N   UNL A   1      43.518  28.903  28.992  1.00  0.00    -0.248 NA
ATOM     46  C   UNL A   1      42.747  28.796  26.809  1.00  0.00     0.031 C 
ATOM     47  C   UNL A   1      39.128  27.394  29.625  1.00  0.00     0.029 A 
ATOM     48  N   UNL A   1      40.306  29.216  30.014  1.00  0.00    -0.354 N 
ATOM     49  C   UNL A   1      44.308  29.724  28.193  1.00  0.00     0.074 A 
ATOM     50  C   UNL A   1      43.886  29.492  26.837  1.00  0.00     0.031 C 
ATOM     51  C   UNL A   1      38.281  28.307  30.152  1.00  0.00     0.029 A 
ATOM     52  C   UNL A   1      39.013  29.532  30.421  1.00  0.00     0.049 A 
ATOM     53  H   UNL A   1      41.073  29.812  30.176  1.00  0.00     0.167 HD
ATOM     54  C   UNL A   1      45.077  30.698  28.757  1.00  0.00     0.037 A 
ATOM     55  C   UNL A   1      38.577  30.724  30.914  1.00  0.00     0.037 A 
ATOM     56  C   UNL A   1      45.290  30.431  30.161  1.00  0.00     0.049 A 
ATOM     57  C   UNL A   1      39.770  31.453  31.416  1.00  0.00     0.074 A 
ATOM     58  C   UNL A   1      45.808  29.361  30.868  1.00  0.00     0.029 A 
ATOM     59  N   UNL A   1      44.583  31.166  31.081  1.00  0.00    -0.354 N 
ATOM     60  N   UNL A   1      40.451  31.089  32.466  1.00  0.00    -0.248 NA
ATOM     61  C   UNL A   1      40.476  32.305  30.470  1.00  0.00     0.031 C 
ATOM     62  C   UNL A   1      44.953  29.225  32.002  1.00  0.00     0.029 A 
ATOM     63  C   UNL A   1      44.038  30.276  31.970  1.00  0.00     0.049 A 
ATOM     64  H   UNL A   1      44.486  32.146  31.098  1.00  0.00     0.167 HD
ATOM     65  C   UNL A   1      41.774  31.262  32.091  1.00  0.00     0.074 A 
ATOM     66  C   UNL A   1      41.726  32.081  30.880  1.00  0.00     0.031 C 
ATOM     67  C   UNL A   1      42.765  30.484  32.615  1.00  0.00     0.037 A 
BRANCH  54  68
ATOM     68  C   UNL A   1      45.285  32.069  28.157  1.00  0.00     0.064 A 
ATOM     69  C   UNL A   1      44.155  32.869  27.885  1.00  0.00     0.173 A 
ATOM     70  C   UNL A   1      46.485  32.493  27.546  1.00  0.00     0.173 A 
ATOM     71  F   UNL A   1      42.957  32.561  28.403  1.00  0.00    -0.203 F 
ATOM     72  C   UNL A   1      44.205  33.938  26.987  1.00  0.00     0.198 A 
ATOM     73  C   UNL A   1      46.541  33.593  26.692  1.00  0.00     0.198 A 
ATOM     74  F   UNL A   1      47.627  31.805  27.652  1.00  0.00    -0.203 F 
ATOM     75  F   UNL A   1      43.074  34.575  26.649  1.00  0.00    -0.200 F 
ATOM     76  C   UNL A   1      45.396  34.293  26.383  1.00  0.00     0.200 A 
ATOM     77  F   UNL A   1      47.704  33.908  26.103  1.00  0.00    -0.200 F 
ATOM     78  F   UNL A   1      45.433  35.270  25.469  1.00  0.00    -0.200 F 
ENDBRANCH  54  68
BRANCH  55  79
ATOM     79  C   UNL A   1      37.268  31.406  30.729  1.00  0.00     0.064 A 
ATOM     80  C   UNL A   1      36.336  31.483  31.782  1.00  0.00     0.173 A 
ATOM     81  C   UNL A   1      37.024  32.250  29.628  1.00  0.00     0.173 A 
ATOM     82  F   UNL A   1      36.503  30.744  32.889  1.00  0.00    -0.203 F 
ATOM     83  C   UNL A   1      35.261  32.379  31.756  1.00  0.00     0.198 A 
ATOM     84  C   UNL A   1      35.946  33.139  29.600  1.00  0.00     0.198 A 
ATOM     85  F   UNL A   1      37.879  32.305  28.598  1.00  0.00    -0.203 F 
ATOM     86  F   UNL A   1      34.443  32.475  32.813  1.00  0.00    -0.200 F 
ATOM     87  C   UNL A   1      35.075  33.217  30.671  1.00  0.00     0.200 A 
ATOM     88  F   UNL A   1      35.795  33.967  28.556  1.00  0.00    -0.200 F 
ATOM     89  F   UNL A   1      34.088  34.125  30.674  1.00  0.00    -0.200 F 
ENDBRANCH  55  79
BRANCH  67  90
ATOM     90  C   UNL A   1      42.458  29.618  33.804  1.00  0.00     0.064 A 
ATOM     91  C   UNL A   1      41.863  28.345  33.735  1.00  0.00     0.173 A 
ATOM     92  C   UNL A   1      42.940  30.033  35.054  1.00  0.00     0.173 A 
ATOM     93  F   UNL A   1      41.464  27.828  32.566  1.00  0.00    -0.203 F 
ATOM     94  C   UNL A   1      41.727  27.550  34.873  1.00  0.00     0.198 A 
ATOM     95  C   UNL A   1      42.842  29.221  36.178  1.00  0.00     0.198 A 
ATOM     96  F   UNL A   1      43.562  31.219  35.173  1.00  0.00    -0.203 F 
ATOM     97  F   UNL A   1      41.147  26.344  34.784  1.00  0.00    -0.200 F 
ATOM     98  C   UNL A   1      42.227  27.983  36.090  1.00  0.00     0.200 A 
ATOM     99  F   UNL A   1      43.373  29.625  37.339  1.00  0.00    -0.200 F 
ATOM    100  F   UNL A   1      42.139  27.199  37.173  1.00  0.00    -0.200 F 
ENDBRANCH  67  90
ENDBRANCH  41  42
ENDBRANCH  33  36
ENDBRANCH  31  32
ENDBRANCH  30  31
ENDBRANCH  29  30
ENDBRANCH   1  29
TORSDOF 15
ENDMDL
MODEL 2
REMARK VINA RESULT:     -13.8      3.241      9.886
REMARK SMILES C[C@@H](Oc1ccc2c(c1)OCO2)C(=O)N1CCn2nc(C(=O)NCCCCNC(=O)c3ccc(-c4c5nc(c(-c6c(F)c(F)c(F)c(F)c6F)c6ccc([nH]6)c(-c6c(F)c(F)c(F)c(F)c6F)c6nc(c(-c7c(F)c(F)c(F)c(F)c7F)c7ccc4[nH]7)C=C6)C=C5)cc3)cc2C1
REMARK SMILES IDX 24 1 23 2 21 3 22 4 20 6 15 7 16 8 96 9 17 10 95 11 18 12
REMARK SMILES IDX 94 13 19 14 13 15 14 16 2 17 1 18 3 19 4 20 5 21 9 22 6 23
REMARK SMILES IDX 8 24 7 25 10 26 12 27 11 28 25 29 26 30 27 31 28 32 29 33
REMARK SMILES IDX 30 35 31 36 32 37 93 38 33 39 92 40 34 41 35 42 36 43 86 44
REMARK SMILES IDX 37 45 91 46 85 47 87 48 38 49 90 50 84 51 83 52 39 54 71 55
REMARK SMILES IDX 51 56 70 57 52 58 55 59 69 60 88 61 53 62 54 63 68 65 89 66
REMARK SMILES IDX 56 67 40 68 41 69 49 70 42 71 43 72 47 73 50 74 44 75 45 76
REMARK SMILES IDX 48 77 46 78 72 79 73 80 81 81 74 82 75 83 79 84 82 85 76 86
REMARK SMILES IDX 77 87 80 88 78 89 57 90 58 91 66 92 59 93 60 94 64 95 67 96
REMARK SMILES IDX 61 97 62 98 65 99 63 100
REMARK H PARENT 23 5 28 34 87 53 55 64
REMARK Flexibility Score: inf
ROOT
ATOM      1  C   UNL A   1      32.987  29.574  27.214  1.00  0.00     0.116 C 
ENDROOT
BRANCH   1   2
ATOM      2  N   UNL A   1      32.193  29.728  26.014  1.00  0.00    -0.351 N 
ATOM      3  C   UNL A   1      31.595  28.814  25.171  1.00  0.00     0.271 C 
ATOM      4  O   UNL A   1      30.919  29.301  24.260  1.00  0.00    -0.267 OA
ATOM      5  H   UNL A   1      32.052  30.665  25.748  1.00  0.00     0.163 HD
BRANCH   3   6
ATOM      6  C   UNL A   1      31.728  27.354  25.371  1.00  0.00     0.150 A 
ATOM      7  N   UNL A   1      32.419  22.856  26.057  1.00  0.00    -0.332 N 
ATOM      8  C   UNL A   1      30.957  22.953  26.201  1.00  0.00     0.143 C 
ATOM      9  C   UNL A   1      33.244  24.045  25.941  1.00  0.00     0.175 C 
ATOM     10  C   UNL A   1      30.339  24.323  26.476  1.00  0.00     0.166 C 
ATOM     11  C   UNL A   1      32.472  25.267  25.672  1.00  0.00     0.059 A 
ATOM     12  N   UNL A   1      31.168  25.394  25.998  1.00  0.00    -0.265 N 
ATOM     13  C   UNL A   1      32.818  26.474  25.114  1.00  0.00     0.061 A 
ATOM     14  N   UNL A   1      30.700  26.643  25.889  1.00  0.00    -0.167 NA
BRANCH   7  15
ATOM     15  C   UNL A   1      33.130  21.655  25.972  1.00  0.00     0.263 C 
ATOM     16  O   UNL A   1      33.954  21.347  26.841  1.00  0.00    -0.271 OA
BRANCH  15  17
ATOM     17  C   UNL A   1      32.950  20.743  24.747  1.00  0.00     0.259 C 
ATOM     18  C   UNL A   1      32.558  21.521  23.497  1.00  0.00     0.064 C 
BRANCH  17  19
ATOM     19  O   UNL A   1      34.192  20.031  24.626  1.00  0.00    -0.481 OA
BRANCH  19  20
ATOM     20  C   UNL A   1      34.072  18.672  24.691  1.00  0.00     0.124 A 
ATOM     21  C   UNL A   1      35.212  17.876  24.507  1.00  0.00     0.050 A 
ATOM     22  C   UNL A   1      32.863  18.112  25.115  1.00  0.00     0.097 A 
ATOM     23  C   UNL A   1      35.152  16.496  24.695  1.00  0.00     0.054 A 
ATOM     24  C   UNL A   1      32.838  16.746  25.313  1.00  0.00     0.169 A 
ATOM     25  C   UNL A   1      33.951  15.962  25.104  1.00  0.00     0.166 A 
ATOM     26  O   UNL A   1      31.775  16.018  25.751  1.00  0.00    -0.453 OA
ATOM     27  O   UNL A   1      33.727  14.650  25.376  1.00  0.00    -0.454 OA
ATOM     28  C   UNL A   1      32.351  14.695  25.806  1.00  0.00     0.468 C 
ENDBRANCH  19  20
ENDBRANCH  17  19
ENDBRANCH  15  17
ENDBRANCH   7  15
ENDBRANCH   3   6
ENDBRANCH   1   2
BRANCH   1  29
ATOM     29  C   UNL A   1      34.089  30.632  27.308  1.00  0.00     0.023 C 
BRANCH  29  30
ATOM     30  C   UNL A   1      33.592  32.051  27.626  1.00  0.00     0.023 C 
BRANCH  30  31
ATOM     31  C   UNL A   1      34.642  32.985  28.224  1.00  0.00     0.116 C 
BRANCH  31  32
ATOM     32  N   UNL A   1      34.547  33.094  29.676  1.00  0.00    -0.352 N 
ATOM     33  C   UNL A   1      35.159  32.298  30.624  1.00  0.00     0.251 C 
ATOM     34  H   UNL A   1      33.980  33.821  30.020  1.00  0.00     0.163 HD
ATOM     35  O   UNL A   1      34.690  32.189  31.746  1.00  0.00    -0.269 OA
BRANCH  33  36
ATOM     36  C   UNL A   1      36.397  31.578  30.267  1.00  0.00     0.039 A 
ATOM     37  C   UNL A   1      37.600  32.269  30.117  1.00  0.00     0.014 A 
ATOM     38  C   UNL A   1      36.346  30.196  30.078  1.00  0.00     0.014 A 
ATOM     39  C   UNL A   1      38.762  31.545  29.865  1.00  0.00     0.010 A 
ATOM     40  C   UNL A   1      37.509  29.468  29.935  1.00  0.00     0.010 A 
ATOM     41  C   UNL A   1      38.720  30.138  29.809  1.00  0.00    -0.014 A 
BRANCH  41  42
ATOM     42  C   UNL A   1      39.975  29.383  29.806  1.00  0.00     0.031 A 
ATOM     43  C   UNL A   1      40.527  29.151  31.171  1.00  0.00     0.074 A 
ATOM     44  C   UNL A   1      40.532  28.787  28.729  1.00  0.00     0.049 A 
ATOM     45  N   UNL A   1      41.620  29.636  31.657  1.00  0.00    -0.248 NA
ATOM     46  C   UNL A   1      39.709  28.426  32.158  1.00  0.00     0.031 C 
ATOM     47  C   UNL A   1      39.990  28.651  27.376  1.00  0.00     0.029 A 
ATOM     48  N   UNL A   1      41.702  28.088  28.647  1.00  0.00    -0.354 N 
ATOM     49  C   UNL A   1      41.732  29.131  32.948  1.00  0.00     0.074 A 
ATOM     50  C   UNL A   1      40.460  28.533  33.257  1.00  0.00     0.031 C 
ATOM     51  C   UNL A   1      40.706  27.730  26.691  1.00  0.00     0.029 A 
ATOM     52  C   UNL A   1      41.845  27.322  27.494  1.00  0.00     0.049 A 
ATOM     53  H   UNL A   1      42.391  28.123  29.350  1.00  0.00     0.167 HD
ATOM     54  C   UNL A   1      42.950  29.049  33.552  1.00  0.00     0.037 A 
ATOM     55  C   UNL A   1      42.814  26.401  27.237  1.00  0.00     0.037 A 
ATOM     56  C   UNL A   1      43.901  29.924  32.906  1.00  0.00     0.049 A 
ATOM     57  C   UNL A   1      43.955  26.703  28.140  1.00  0.00     0.074 A 
ATOM     58  C   UNL A   1      43.927  31.280  32.631  1.00  0.00     0.029 A 
ATOM     59  N   UNL A   1      44.841  29.368  32.073  1.00  0.00    -0.354 N 
ATOM     60  N   UNL A   1      44.709  27.760  28.024  1.00  0.00    -0.248 NA
ATOM     61  C   UNL A   1      43.952  26.071  29.451  1.00  0.00     0.031 C 
ATOM     62  C   UNL A   1      44.463  31.376  31.313  1.00  0.00     0.029 A 
ATOM     63  C   UNL A   1      44.823  30.091  30.909  1.00  0.00     0.049 A 
ATOM     64  H   UNL A   1      45.418  28.596  32.274  1.00  0.00     0.167 HD
ATOM     65  C   UNL A   1      44.892  28.192  29.327  1.00  0.00     0.074 A 
ATOM     66  C   UNL A   1      44.464  27.073  30.167  1.00  0.00     0.031 C 
ATOM     67  C   UNL A   1      45.086  29.511  29.614  1.00  0.00     0.037 A 
BRANCH  54  68
ATOM     68  C   UNL A   1      43.383  27.902  34.436  1.00  0.00     0.064 A 
ATOM     69  C   UNL A   1      43.267  26.584  33.945  1.00  0.00     0.173 A 
ATOM     70  C   UNL A   1      43.592  28.011  35.829  1.00  0.00     0.173 A 
ATOM     71  F   UNL A   1      43.059  26.357  32.640  1.00  0.00    -0.203 F 
ATOM     72  C   UNL A   1      43.251  25.477  34.796  1.00  0.00     0.198 A 
ATOM     73  C   UNL A   1      43.628  26.899  36.668  1.00  0.00     0.198 A 
ATOM     74  F   UNL A   1      43.656  29.191  36.456  1.00  0.00    -0.203 F 
ATOM     75  F   UNL A   1      42.989  24.260  34.298  1.00  0.00    -0.200 F 
ATOM     76  C   UNL A   1      43.420  25.636  36.158  1.00  0.00     0.200 A 
ATOM     77  F   UNL A   1      43.776  27.078  37.988  1.00  0.00    -0.200 F 
ATOM     78  F   UNL A   1      43.333  24.586  36.984  1.00  0.00    -0.200 F 
ENDBRANCH  54  68
BRANCH  55  79
ATOM     79  C   UNL A   1      42.730  25.117  26.491  1.00  0.00     0.064 A 
ATOM     80  C   UNL A   1      43.596  24.848  25.412  1.00  0.00     0.173 A 
ATOM     81  C   UNL A   1      42.016  24.014  26.995  1.00  0.00     0.173 A 
ATOM     82  F   UNL A   1      44.346  25.828  24.887  1.00  0.00    -0.203 F 
ATOM     83  C   UNL A   1      43.771  23.554  24.908  1.00  0.00     0.198 A 
ATOM     84  C   UNL A   1      42.185  22.723  26.486  1.00  0.00     0.198 A 
ATOM     85  F   UNL A   1      41.211  24.142  28.059  1.00  0.00    -0.203 F 
ATOM     86  F   UNL A   1      44.664  23.331  23.933  1.00  0.00    -0.200 F 
ATOM     87  C   UNL A   1      43.077  22.490  25.455  1.00  0.00     0.200 A 
ATOM     88  F   UNL A   1      41.530  21.697  27.045  1.00  0.00    -0.200 F 
ATOM     89  F   UNL A   1      43.294  21.240  25.021  1.00  0.00    -0.200 F 
ENDBRANCH  55  79
BRANCH  67  90
ATOM     90  C   UNL A   1      45.372  30.466  28.490  1.00  0.00     0.064 A 
ATOM     91  C   UNL A   1      44.389  31.086  27.696  1.00  0.00     0.173 A 
ATOM     92  C   UNL A   1      46.697  30.894  28.320  1.00  0.00     0.173 A 
ATOM     93  F   UNL A   1      43.089  30.811  27.861  1.00  0.00    -0.203 F 
ATOM     94  C   UNL A   1      44.730  32.058  26.755  1.00  0.00     0.198 A 
ATOM     95  C   UNL A   1      47.028  31.893  27.411  1.00  0.00     0.198 A 
ATOM     96  F   UNL A   1      47.673  30.373  29.082  1.00  0.00    -0.203 F 
ATOM     97  F   UNL A   1      43.777  32.627  26.002  1.00  0.00    -0.200 F 
ATOM     98  C   UNL A   1      46.046  32.468  26.621  1.00  0.00     0.200 A 
ATOM     99  F   UNL A   1      48.294  32.320  27.323  1.00  0.00    -0.200 F 
ATOM    100  F   UNL A   1      46.367  33.435  25.751  1.00  0.00    -0.200 F 
ENDBRANCH  67  90
ENDBRANCH  41  42
ENDBRANCH  33  36
ENDBRANCH  31  32
ENDBRANCH  30  31
ENDBRANCH  29  30
ENDBRANCH   1  29
TORSDOF 15
ENDMDL
MODEL 3
REMARK VINA RESULT:     -13.8      2.346      3.454
REMARK SMILES C[C@@H](Oc1ccc2c(c1)OCO2)C(=O)N1CCn2nc(C(=O)NCCCCNC(=O)c3ccc(-c4c5nc(c(-c6c(F)c(F)c(F)c(F)c6F)c6ccc([nH]6)c(-c6c(F)c(F)c(F)c(F)c6F)c6nc(c(-c7c(F)c(F)c(F)c(F)c7F)c7ccc4[nH]7)C=C6)C=C5)cc3)cc2C1
REMARK SMILES IDX 24 1 23 2 21 3 22 4 20 6 15 7 16 8 96 9 17 10 95 11 18 12
REMARK SMILES IDX 94 13 19 14 13 15 14 16 2 17 1 18 3 19 4 20 5 21 9 22 6 23
REMARK SMILES IDX 8 24 7 25 10 26 12 27 11 28 25 29 26 30 27 31 28 32 29 33
REMARK SMILES IDX 30 35 31 36 32 37 93 38 33 39 92 40 34 41 35 42 36 43 86 44
REMARK SMILES IDX 37 45 91 46 85 47 87 48 38 49 90 50 84 51 83 52 39 54 71 55
REMARK SMILES IDX 51 56 70 57 52 58 55 59 69 60 88 61 53 62 54 63 68 65 89 66
REMARK SMILES IDX 56 67 40 68 41 69 49 70 42 71 43 72 47 73 50 74 44 75 45 76
REMARK SMILES IDX 48 77 46 78 72 79 73 80 81 81 74 82 75 83 79 84 82 85 76 86
REMARK SMILES IDX 77 87 80 88 78 89 57 90 58 91 66 92 59 93 60 94 64 95 67 96
REMARK SMILES IDX 61 97 62 98 65 99 63 100
REMARK H PARENT 23 5 28 34 87 53 55 64
REMARK Flexibility Score: inf
ROOT
ATOM      1  C   UNL A   1      39.479  21.495  26.162  1.00  0.00     0.116 C 
ENDROOT
BRANCH   1   2
ATOM      2  N   UNL A   1      38.706  20.442  25.541  1.00  0.00    -0.351 N 
ATOM      3  C   UNL A   1      37.394  20.374  25.123  1.00  0.00     0.271 C 
ATOM      4  O   UNL A   1      37.073  19.325  24.557  1.00  0.00    -0.267 OA
ATOM      5  H   UNL A   1      39.215  19.613  25.385  1.00  0.00     0.163 HD
BRANCH   3   6
ATOM      6  C   UNL A   1      36.450  21.499  25.310  1.00  0.00     0.150 A 
ATOM      7  N   UNL A   1      33.639  25.125  25.671  1.00  0.00    -0.332 N 
ATOM      8  C   UNL A   1      32.880  24.093  26.396  1.00  0.00     0.143 C 
ATOM      9  C   UNL A   1      34.844  24.793  24.931  1.00  0.00     0.175 C 
ATOM     10  C   UNL A   1      33.234  22.625  26.161  1.00  0.00     0.166 C 
ATOM     11  C   UNL A   1      35.368  23.454  25.241  1.00  0.00     0.059 A 
ATOM     12  N   UNL A   1      34.593  22.460  25.728  1.00  0.00    -0.265 N 
ATOM     13  C   UNL A   1      36.618  22.899  25.113  1.00  0.00     0.061 A 
ATOM     14  N   UNL A   1      35.185  21.261  25.729  1.00  0.00    -0.167 NA
BRANCH   7  15
ATOM     15  C   UNL A   1      33.317  26.485  25.659  1.00  0.00     0.263 C 
ATOM     16  O   UNL A   1      34.147  27.333  26.006  1.00  0.00    -0.271 OA
BRANCH  15  17
ATOM     17  C   UNL A   1      31.893  26.932  25.289  1.00  0.00     0.259 C 
ATOM     18  C   UNL A   1      31.000  27.093  26.513  1.00  0.00     0.064 C 
BRANCH  17  19
ATOM     19  O   UNL A   1      32.066  28.140  24.530  1.00  0.00    -0.481 OA
BRANCH  19  20
ATOM     20  C   UNL A   1      30.916  28.631  23.981  1.00  0.00     0.124 A 
ATOM     21  C   UNL A   1      29.988  27.736  23.427  1.00  0.00     0.050 A 
ATOM     22  C   UNL A   1      30.604  29.984  24.143  1.00  0.00     0.097 A 
ATOM     23  C   UNL A   1      28.748  28.187  22.978  1.00  0.00     0.054 A 
ATOM     24  C   UNL A   1      29.362  30.399  23.707  1.00  0.00     0.169 A 
ATOM     25  C   UNL A   1      28.462  29.524  23.137  1.00  0.00     0.166 A 
ATOM     26  O   UNL A   1      28.858  31.659  23.801  1.00  0.00    -0.453 OA
ATOM     27  O   UNL A   1      27.292  30.123  22.797  1.00  0.00    -0.454 OA
ATOM     28  C   UNL A   1      27.541  31.472  23.240  1.00  0.00     0.468 C 
ENDBRANCH  19  20
ENDBRANCH  17  19
ENDBRANCH  15  17
ENDBRANCH   7  15
ENDBRANCH   3   6
ENDBRANCH   1   2
BRANCH   1  29
ATOM     29  C   UNL A   1      40.773  20.962  26.783  1.00  0.00     0.023 C 
BRANCH  29  30
ATOM     30  C   UNL A   1      41.340  19.703  26.108  1.00  0.00     0.023 C 
BRANCH  30  31
ATOM     31  C   UNL A   1      42.721  19.274  26.597  1.00  0.00     0.116 C 
BRANCH  31  32
ATOM     32  N   UNL A   1      43.700  19.169  25.520  1.00  0.00    -0.352 N 
ATOM     33  C   UNL A   1      44.172  20.180  24.706  1.00  0.00     0.251 C 
ATOM     34  H   UNL A   1      44.067  18.271  25.354  1.00  0.00     0.163 HD
ATOM     35  O   UNL A   1      44.626  19.932  23.600  1.00  0.00    -0.269 OA
BRANCH  33  36
ATOM     36  C   UNL A   1      44.125  21.573  25.192  1.00  0.00     0.039 A 
ATOM     37  C   UNL A   1      43.190  22.472  24.677  1.00  0.00     0.014 A 
ATOM     38  C   UNL A   1      45.033  21.979  26.171  1.00  0.00     0.014 A 
ATOM     39  C   UNL A   1      43.119  23.751  25.221  1.00  0.00     0.010 A 
ATOM     40  C   UNL A   1      44.895  23.208  26.784  1.00  0.00     0.010 A 
ATOM     41  C   UNL A   1      43.951  24.107  26.301  1.00  0.00    -0.014 A 
BRANCH  41  42
ATOM     42  C   UNL A   1      43.689  25.350  27.029  1.00  0.00     0.031 A 
ATOM     43  C   UNL A   1      44.651  26.440  26.704  1.00  0.00     0.074 A 
ATOM     44  C   UNL A   1      42.604  25.597  27.797  1.00  0.00     0.049 A 
ATOM     45  N   UNL A   1      45.522  26.966  27.499  1.00  0.00    -0.248 NA
ATOM     46  C   UNL A   1      44.769  26.894  25.308  1.00  0.00     0.031 C 
ATOM     47  C   UNL A   1      41.414  24.768  27.995  1.00  0.00     0.029 A 
ATOM     48  N   UNL A   1      42.303  26.717  28.517  1.00  0.00    -0.354 N 
ATOM     49  C   UNL A   1      46.175  27.951  26.765  1.00  0.00     0.074 A 
ATOM     50  C   UNL A   1      45.789  27.752  25.392  1.00  0.00     0.031 C 
ATOM     51  C   UNL A   1      40.440  25.504  28.577  1.00  0.00     0.029 A 
ATOM     52  C   UNL A   1      40.978  26.804  28.936  1.00  0.00     0.049 A 
ATOM     53  H   UNL A   1      42.971  27.410  28.725  1.00  0.00     0.167 HD
ATOM     54  C   UNL A   1      46.789  28.988  27.399  1.00  0.00     0.037 A 
ATOM     55  C   UNL A   1      40.368  27.879  29.506  1.00  0.00     0.037 A 
ATOM     56  C   UNL A   1      47.045  28.661  28.783  1.00  0.00     0.049 A 
ATOM     57  C   UNL A   1      41.438  28.744  30.066  1.00  0.00     0.074 A 
ATOM     58  C   UNL A   1      47.722  27.635  29.419  1.00  0.00     0.029 A 
ATOM     59  N   UNL A   1      46.238  29.214  29.746  1.00  0.00    -0.354 N 
ATOM     60  N   UNL A   1      42.170  28.416  31.093  1.00  0.00    -0.248 NA
ATOM     61  C   UNL A   1      42.003  29.757  29.186  1.00  0.00     0.031 C 
ATOM     62  C   UNL A   1      46.901  27.293  30.534  1.00  0.00     0.029 A 
ATOM     63  C   UNL A   1      45.837  28.193  30.568  1.00  0.00     0.049 A 
ATOM     64  H   UNL A   1      45.993  30.164  29.830  1.00  0.00     0.167 HD
ATOM     65  C   UNL A   1      43.450  28.813  30.741  1.00  0.00     0.074 A 
ATOM     66  C   UNL A   1      43.274  29.697  29.589  1.00  0.00     0.031 C 
ATOM     67  C   UNL A   1      44.549  28.160  31.217  1.00  0.00     0.037 A 
BRANCH  54  68
ATOM     68  C   UNL A   1      46.785  30.413  26.897  1.00  0.00     0.064 A 
ATOM     69  C   UNL A   1      47.982  31.158  26.956  1.00  0.00     0.173 A 
ATOM     70  C   UNL A   1      45.614  31.170  26.670  1.00  0.00     0.173 A 
ATOM     71  F   UNL A   1      49.156  30.549  27.173  1.00  0.00    -0.203 F 
ATOM     72  C   UNL A   1      47.987  32.554  26.904  1.00  0.00     0.198 A 
ATOM     73  C   UNL A   1      45.631  32.560  26.566  1.00  0.00     0.198 A 
ATOM     74  F   UNL A   1      44.395  30.620  26.654  1.00  0.00    -0.203 F 
ATOM     75  F   UNL A   1      49.131  33.222  27.113  1.00  0.00    -0.200 F 
ATOM     76  C   UNL A   1      46.811  33.255  26.720  1.00  0.00     0.200 A 
ATOM     77  F   UNL A   1      44.475  33.220  26.406  1.00  0.00    -0.200 F 
ATOM     78  F   UNL A   1      46.802  34.593  26.742  1.00  0.00    -0.200 F 
ENDBRANCH  54  68
BRANCH  55  79
ATOM     79  C   UNL A   1      38.970  28.366  29.359  1.00  0.00     0.064 A 
ATOM     80  C   UNL A   1      38.146  28.553  30.486  1.00  0.00     0.173 A 
ATOM     81  C   UNL A   1      38.510  28.939  28.158  1.00  0.00     0.173 A 
ATOM     82  F   UNL A   1      38.518  28.074  31.682  1.00  0.00    -0.203 F 
ATOM     83  C   UNL A   1      36.967  29.306  30.424  1.00  0.00     0.198 A 
ATOM     84  C   UNL A   1      37.329  29.684  28.096  1.00  0.00     0.198 A 
ATOM     85  F   UNL A   1      39.243  28.877  27.038  1.00  0.00    -0.203 F 
ATOM     86  F   UNL A   1      36.254  29.524  31.538  1.00  0.00    -0.200 F 
ATOM     87  C   UNL A   1      36.567  29.883  29.232  1.00  0.00     0.200 A 
ATOM     88  F   UNL A   1      36.969  30.264  26.942  1.00  0.00    -0.200 F 
ATOM     89  F   UNL A   1      35.477  30.662  29.186  1.00  0.00    -0.200 F 
ENDBRANCH  55  79
BRANCH  67  90
ATOM     90  C   UNL A   1      44.382  27.177  32.340  1.00  0.00     0.064 A 
ATOM     91  C   UNL A   1      44.275  25.783  32.176  1.00  0.00     0.173 A 
ATOM     92  C   UNL A   1      44.498  27.661  33.652  1.00  0.00     0.173 A 
ATOM     93  F   UNL A   1      44.259  25.227  30.959  1.00  0.00    -0.203 F 
ATOM     94  C   UNL A   1      44.250  24.928  33.278  1.00  0.00     0.198 A 
ATOM     95  C   UNL A   1      44.515  26.802  34.745  1.00  0.00     0.198 A 
ATOM     96  F   UNL A   1      44.650  28.978  33.870  1.00  0.00    -0.203 F 
ATOM     97  F   UNL A   1      44.137  23.604  33.097  1.00  0.00    -0.200 F 
ATOM     98  C   UNL A   1      44.381  25.437  34.560  1.00  0.00     0.200 A 
ATOM     99  F   UNL A   1      44.693  27.297  35.977  1.00  0.00    -0.200 F 
ATOM    100  F   UNL A   1      44.405  24.610  35.615  1.00  0.00    -0.200 F 
ENDBRANCH  67  90
ENDBRANCH  41  42
ENDBRANCH  33  36
ENDBRANCH  31  32
ENDBRANCH  30  31
ENDBRANCH  29  30
ENDBRANCH   1  29
TORSDOF 15
ENDMDL
