MODEL 1
REMARK VINA RESULT:     -11.6      0.000      0.000
REMARK SMILES CCC[C@H](C)C[N@H+]1[C@@H]2CC[C@H]1C[C@H](CC(=O)NCCCCNC(=O)c1ccc(-c3c4nc(c(-c5c(F)c(F)c(F)c(F)c5F)c5ccc([nH]5)c(-c5c(F)c(F)c(F)c(F)c5F)c5nc(c(-c6c(F)c(F)c(F)c(F)c6F)c6ccc3[nH]6)C=C5)C=C4)cc1)C2
REMARK SMILES IDX 18 1 17 2 15 3 16 4 14 6 13 7 7 8 8 9 11 10 9 12 88 13 10 14
REMARK SMILES IDX 12 15 6 16 4 17 5 18 3 19 2 20 1 21 19 22 20 23 21 24 22 25
REMARK SMILES IDX 23 26 24 28 25 29 26 30 87 31 27 32 86 33 28 34 29 35 30 36
REMARK SMILES IDX 80 37 31 38 85 39 79 40 81 41 32 42 84 43 78 44 77 45 33 47
REMARK SMILES IDX 65 48 45 49 64 50 46 51 49 52 63 53 82 54 47 55 48 56 62 58
REMARK SMILES IDX 83 59 50 60 34 61 35 62 43 63 36 64 37 65 41 66 44 67 38 68
REMARK SMILES IDX 39 69 42 70 40 71 66 72 67 73 75 74 68 75 69 76 73 77 76 78
REMARK SMILES IDX 70 79 71 80 74 81 72 82 51 83 52 84 60 85 53 86 54 87 58 88
REMARK SMILES IDX 61 89 55 90 56 91 59 92 57 93
REMARK H PARENT 17 5 7 11 22 27 81 46 49 57
REMARK Flexibility Score: inf
ROOT
ATOM      1  C   UNL A   1      32.357  28.648  22.870  1.00  0.00     0.116 C 
ENDROOT
BRANCH   1   2
ATOM      2  N   UNL A   1      33.135  27.588  22.252  1.00  0.00    -0.356 N 
ATOM      3  C   UNL A   1      32.833  26.278  22.022  1.00  0.00     0.220 C 
ATOM      4  O   UNL A   1      33.721  25.553  21.567  1.00  0.00    -0.275 OA
ATOM      5  H   UNL A   1      34.031  27.860  21.949  1.00  0.00     0.163 HD
BRANCH   3   6
ATOM      6  C   UNL A   1      31.445  25.720  22.295  1.00  0.00     0.104 C 
BRANCH   6   7
ATOM      7  C   UNL A   1      31.305  24.989  23.650  1.00  0.00     0.010 C 
ATOM      8  N   UNL A   1      33.235  23.091  24.873  1.00  0.00    -0.330 N 
ATOM      9  C   UNL A   1      32.943  24.347  25.559  1.00  0.00     0.184 C 
ATOM     10  C   UNL A   1      31.905  22.591  24.526  1.00  0.00     0.184 C 
ATOM     11  H   UNL A   1      33.801  22.547  25.523  1.00  0.00     0.348 HD
ATOM     12  C   UNL A   1      31.849  23.882  26.543  1.00  0.00     0.071 C 
ATOM     13  C   UNL A   1      32.393  25.452  24.642  1.00  0.00     0.069 C 
ATOM     14  C   UNL A   1      31.142  22.733  25.836  1.00  0.00     0.071 C 
ATOM     15  C   UNL A   1      31.282  23.466  23.441  1.00  0.00     0.069 C 
BRANCH   8  16
ATOM     16  C   UNL A   1      34.243  22.930  23.819  1.00  0.00     0.265 C 
BRANCH  16  17
ATOM     17  C   UNL A   1      35.649  22.330  24.078  1.00  0.00     0.041 C 
ATOM     18  C   UNL A   1      36.697  22.880  23.108  1.00  0.00     0.013 C 
BRANCH  17  19
ATOM     19  C   UNL A   1      36.121  22.620  25.529  1.00  0.00     0.009 C 
BRANCH  19  20
ATOM     20  C   UNL A   1      36.841  23.965  25.696  1.00  0.00    -0.003 C 
ATOM     21  C   UNL A   1      38.188  23.834  26.396  1.00  0.00     0.004 C 
ENDBRANCH  19  20
ENDBRANCH  17  19
ENDBRANCH  16  17
ENDBRANCH   8  16
ENDBRANCH   6   7
ENDBRANCH   3   6
ENDBRANCH   1   2
BRANCH   1  22
ATOM     22  C   UNL A   1      32.955  29.051  24.221  1.00  0.00     0.023 C 
BRANCH  22  23
ATOM     23  C   UNL A   1      32.009  29.758  25.172  1.00  0.00     0.023 C 
BRANCH  23  24
ATOM     24  C   UNL A   1      32.634  30.085  26.510  1.00  0.00     0.116 C 
BRANCH  24  25
ATOM     25  N   UNL A   1      32.539  31.497  26.871  1.00  0.00    -0.352 N 
ATOM     26  C   UNL A   1      33.474  32.270  27.526  1.00  0.00     0.251 C 
ATOM     27  H   UNL A   1      31.705  31.952  26.617  1.00  0.00     0.163 HD
ATOM     28  O   UNL A   1      33.238  33.429  27.841  1.00  0.00    -0.269 OA
BRANCH  26  29
ATOM     29  C   UNL A   1      34.758  31.640  27.889  1.00  0.00     0.039 A 
ATOM     30  C   UNL A   1      35.886  32.443  28.067  1.00  0.00     0.014 A 
ATOM     31  C   UNL A   1      34.785  30.282  28.212  1.00  0.00     0.014 A 
ATOM     32  C   UNL A   1      37.018  31.901  28.677  1.00  0.00     0.010 A 
ATOM     33  C   UNL A   1      35.865  29.781  28.921  1.00  0.00     0.010 A 
ATOM     34  C   UNL A   1      36.993  30.584  29.163  1.00  0.00    -0.014 A 
BRANCH  34  35
ATOM     35  C   UNL A   1      38.129  29.989  29.908  1.00  0.00     0.031 A 
ATOM     36  C   UNL A   1      38.383  30.434  31.320  1.00  0.00     0.074 A 
ATOM     37  C   UNL A   1      38.993  29.160  29.291  1.00  0.00     0.049 A 
ATOM     38  N   UNL A   1      39.422  30.224  32.085  1.00  0.00    -0.248 NA
ATOM     39  C   UNL A   1      37.347  31.283  31.934  1.00  0.00     0.031 C 
ATOM     40  C   UNL A   1      38.888  28.695  27.906  1.00  0.00     0.029 A 
ATOM     41  N   UNL A   1      40.149  28.575  29.748  1.00  0.00    -0.354 N 
ATOM     42  C   UNL A   1      39.187  30.954  33.242  1.00  0.00     0.074 A 
ATOM     43  C   UNL A   1      37.935  31.653  33.061  1.00  0.00     0.031 C 
ATOM     44  C   UNL A   1      39.922  27.881  27.634  1.00  0.00     0.029 A 
ATOM     45  C   UNL A   1      40.786  27.801  28.808  1.00  0.00     0.049 A 
ATOM     46  H   UNL A   1      40.488  28.699  30.663  1.00  0.00     0.167 HD
ATOM     47  C   UNL A   1      39.937  31.015  34.366  1.00  0.00     0.037 A 
ATOM     48  C   UNL A   1      41.943  27.116  28.887  1.00  0.00     0.037 A 
ATOM     49  C   UNL A   1      41.142  30.260  34.568  1.00  0.00     0.049 A 
ATOM     50  C   UNL A   1      42.730  27.153  30.169  1.00  0.00     0.074 A 
ATOM     51  C   UNL A   1      41.935  30.187  35.698  1.00  0.00     0.029 A 
ATOM     52  N   UNL A   1      41.715  29.428  33.618  1.00  0.00    -0.354 N 
ATOM     53  N   UNL A   1      42.477  27.811  31.275  1.00  0.00    -0.248 NA
ATOM     54  C   UNL A   1      43.961  26.352  30.217  1.00  0.00     0.031 C 
ATOM     55  C   UNL A   1      43.003  29.326  35.424  1.00  0.00     0.029 A 
ATOM     56  C   UNL A   1      42.854  28.837  34.136  1.00  0.00     0.049 A 
ATOM     57  H   UNL A   1      41.364  29.280  32.710  1.00  0.00     0.167 HD
ATOM     58  C   UNL A   1      43.494  27.479  32.158  1.00  0.00     0.074 A 
ATOM     59  C   UNL A   1      44.368  26.558  31.462  1.00  0.00     0.031 C 
ATOM     60  C   UNL A   1      43.689  27.901  33.431  1.00  0.00     0.037 A 
BRANCH  47  61
ATOM     61  C   UNL A   1      39.463  31.920  35.464  1.00  0.00     0.064 A 
ATOM     62  C   UNL A   1      39.914  33.244  35.573  1.00  0.00     0.173 A 
ATOM     63  C   UNL A   1      38.538  31.461  36.414  1.00  0.00     0.173 A 
ATOM     64  F   UNL A   1      40.812  33.724  34.700  1.00  0.00    -0.203 F 
ATOM     65  C   UNL A   1      39.485  34.065  36.612  1.00  0.00     0.198 A 
ATOM     66  C   UNL A   1      38.087  32.295  37.434  1.00  0.00     0.198 A 
ATOM     67  F   UNL A   1      38.074  30.204  36.355  1.00  0.00    -0.203 F 
ATOM     68  F   UNL A   1      39.976  35.306  36.729  1.00  0.00    -0.200 F 
ATOM     69  C   UNL A   1      38.567  33.592  37.538  1.00  0.00     0.200 A 
ATOM     70  F   UNL A   1      37.192  31.840  38.323  1.00  0.00    -0.200 F 
ATOM     71  F   UNL A   1      38.153  34.384  38.536  1.00  0.00    -0.200 F 
ENDBRANCH  47  61
BRANCH  48  72
ATOM     72  C   UNL A   1      42.411  26.310  27.730  1.00  0.00     0.064 A 
ATOM     73  C   UNL A   1      41.915  25.016  27.515  1.00  0.00     0.173 A 
ATOM     74  C   UNL A   1      43.357  26.805  26.822  1.00  0.00     0.173 A 
ATOM     75  F   UNL A   1      41.024  24.491  28.369  1.00  0.00    -0.203 F 
ATOM     76  C   UNL A   1      42.361  24.241  26.447  1.00  0.00     0.198 A 
ATOM     77  C   UNL A   1      43.784  26.038  25.739  1.00  0.00     0.198 A 
ATOM     78  F   UNL A   1      43.858  28.039  26.981  1.00  0.00    -0.203 F 
ATOM     79  F   UNL A   1      41.900  22.993  26.289  1.00  0.00    -0.200 F 
ATOM     80  C   UNL A   1      43.292  24.755  25.556  1.00  0.00     0.200 A 
ATOM     81  F   UNL A   1      44.676  26.541  24.875  1.00  0.00    -0.200 F 
ATOM     82  F   UNL A   1      43.719  24.011  24.527  1.00  0.00    -0.200 F 
ENDBRANCH  48  72
BRANCH  60  83
ATOM     83  C   UNL A   1      44.859  27.331  34.174  1.00  0.00     0.064 A 
ATOM     84  C   UNL A   1      46.101  27.980  34.196  1.00  0.00     0.173 A 
ATOM     85  C   UNL A   1      44.711  26.160  34.931  1.00  0.00     0.173 A 
ATOM     86  F   UNL A   1      46.292  29.097  33.476  1.00  0.00    -0.203 F 
ATOM     87  C   UNL A   1      47.159  27.469  34.941  1.00  0.00     0.198 A 
ATOM     88  C   UNL A   1      45.763  25.664  35.695  1.00  0.00     0.198 A 
ATOM     89  F   UNL A   1      43.538  25.509  34.946  1.00  0.00    -0.203 F 
ATOM     90  F   UNL A   1      48.347  28.088  34.927  1.00  0.00    -0.200 F 
ATOM     91  C   UNL A   1      46.987  26.318  35.697  1.00  0.00     0.200 A 
ATOM     92  F   UNL A   1      45.592  24.559  36.433  1.00  0.00    -0.200 F 
ATOM     93  F   UNL A   1      48.003  25.835  36.425  1.00  0.00    -0.200 F 
ENDBRANCH  60  83
ENDBRANCH  34  35
ENDBRANCH  26  29
ENDBRANCH  24  25
ENDBRANCH  23  24
ENDBRANCH  22  23
ENDBRANCH   1  22
TORSDOF 16
ENDMDL
MODEL 2
REMARK VINA RESULT:     -11.5      0.718      2.498
REMARK SMILES CCC[C@H](C)C[N@H+]1[C@@H]2CC[C@H]1C[C@H](CC(=O)NCCCCNC(=O)c1ccc(-c3c4nc(c(-c5c(F)c(F)c(F)c(F)c5F)c5ccc([nH]5)c(-c5c(F)c(F)c(F)c(F)c5F)c5nc(c(-c6c(F)c(F)c(F)c(F)c6F)c6ccc3[nH]6)C=C5)C=C4)cc1)C2
REMARK SMILES IDX 18 1 17 2 15 3 16 4 14 6 13 7 7 8 8 9 11 10 9 12 88 13 10 14
REMARK SMILES IDX 12 15 6 16 4 17 5 18 3 19 2 20 1 21 19 22 20 23 21 24 22 25
REMARK SMILES IDX 23 26 24 28 25 29 26 30 87 31 27 32 86 33 28 34 29 35 30 36
REMARK SMILES IDX 80 37 31 38 85 39 79 40 81 41 32 42 84 43 78 44 77 45 33 47
REMARK SMILES IDX 65 48 45 49 64 50 46 51 49 52 63 53 82 54 47 55 48 56 62 58
REMARK SMILES IDX 83 59 50 60 34 61 35 62 43 63 36 64 37 65 41 66 44 67 38 68
REMARK SMILES IDX 39 69 42 70 40 71 66 72 67 73 75 74 68 75 69 76 73 77 76 78
REMARK SMILES IDX 70 79 71 80 74 81 72 82 51 83 52 84 60 85 53 86 54 87 58 88
REMARK SMILES IDX 61 89 55 90 56 91 59 92 57 93
REMARK H PARENT 17 5 7 11 22 27 81 46 49 57
REMARK Flexibility Score: inf
ROOT
ATOM      1  C   UNL A   1      31.118  28.044  23.325  1.00  0.00     0.116 C 
ENDROOT
BRANCH   1   2
ATOM      2  N   UNL A   1      32.034  27.538  22.316  1.00  0.00    -0.356 N 
ATOM      3  C   UNL A   1      32.894  26.480  22.344  1.00  0.00     0.220 C 
ATOM      4  O   UNL A   1      33.645  26.324  21.379  1.00  0.00    -0.275 OA
ATOM      5  H   UNL A   1      32.035  28.045  21.473  1.00  0.00     0.163 HD
BRANCH   3   6
ATOM      6  C   UNL A   1      32.921  25.505  23.510  1.00  0.00     0.104 C 
BRANCH   6   7
ATOM      7  C   UNL A   1      34.326  24.959  23.855  1.00  0.00     0.010 C 
ATOM      8  N   UNL A   1      34.971  22.461  25.324  1.00  0.00    -0.330 N 
ATOM      9  C   UNL A   1      35.402  22.598  23.936  1.00  0.00     0.184 C 
ATOM     10  C   UNL A   1      35.377  23.733  25.921  1.00  0.00     0.184 C 
ATOM     11  H   UNL A   1      35.409  21.606  25.666  1.00  0.00     0.348 HD
ATOM     12  C   UNL A   1      36.847  23.101  24.138  1.00  0.00     0.071 C 
ATOM     13  C   UNL A   1      34.594  23.626  23.125  1.00  0.00     0.069 C 
ATOM     14  C   UNL A   1      36.816  23.881  25.446  1.00  0.00     0.071 C 
ATOM     15  C   UNL A   1      34.510  24.867  25.378  1.00  0.00     0.069 C 
BRANCH   8  16
ATOM     16  C   UNL A   1      33.649  21.982  25.746  1.00  0.00     0.265 C 
BRANCH  16  17
ATOM     17  C   UNL A   1      32.517  21.637  24.745  1.00  0.00     0.041 C 
ATOM     18  C   UNL A   1      32.152  20.152  24.779  1.00  0.00     0.013 C 
BRANCH  17  19
ATOM     19  C   UNL A   1      31.237  22.465  25.043  1.00  0.00     0.009 C 
BRANCH  19  20
ATOM     20  C   UNL A   1      31.162  23.008  26.476  1.00  0.00    -0.003 C 
ATOM     21  C   UNL A   1      29.797  22.795  27.121  1.00  0.00     0.004 C 
ENDBRANCH  19  20
ENDBRANCH  17  19
ENDBRANCH  16  17
ENDBRANCH   8  16
ENDBRANCH   6   7
ENDBRANCH   3   6
ENDBRANCH   1   2
BRANCH   1  22
ATOM     22  C   UNL A   1      31.779  29.138  24.167  1.00  0.00     0.023 C 
BRANCH  22  23
ATOM     23  C   UNL A   1      31.621  28.996  25.668  1.00  0.00     0.023 C 
BRANCH  23  24
ATOM     24  C   UNL A   1      32.784  29.561  26.452  1.00  0.00     0.116 C 
BRANCH  24  25
ATOM     25  N   UNL A   1      32.630  30.973  26.793  1.00  0.00    -0.352 N 
ATOM     26  C   UNL A   1      33.529  31.792  27.441  1.00  0.00     0.251 C 
ATOM     27  H   UNL A   1      31.779  31.390  26.528  1.00  0.00     0.163 HD
ATOM     28  O   UNL A   1      33.244  32.946  27.739  1.00  0.00    -0.269 OA
BRANCH  26  29
ATOM     29  C   UNL A   1      34.835  31.220  27.819  1.00  0.00     0.039 A 
ATOM     30  C   UNL A   1      35.921  32.074  28.024  1.00  0.00     0.014 A 
ATOM     31  C   UNL A   1      34.922  29.861  28.128  1.00  0.00     0.014 A 
ATOM     32  C   UNL A   1      37.067  31.580  28.647  1.00  0.00     0.010 A 
ATOM     33  C   UNL A   1      36.013  29.405  28.849  1.00  0.00     0.010 A 
ATOM     34  C   UNL A   1      37.098  30.258  29.118  1.00  0.00    -0.014 A 
BRANCH  34  35
ATOM     35  C   UNL A   1      38.249  29.709  29.876  1.00  0.00     0.031 A 
ATOM     36  C   UNL A   1      38.489  30.189  31.280  1.00  0.00     0.074 A 
ATOM     37  C   UNL A   1      39.136  28.892  29.276  1.00  0.00     0.049 A 
ATOM     38  N   UNL A   1      39.532  30.023  32.049  1.00  0.00    -0.248 NA
ATOM     39  C   UNL A   1      37.429  31.021  31.876  1.00  0.00     0.031 C 
ATOM     40  C   UNL A   1      39.046  28.397  27.901  1.00  0.00     0.029 A 
ATOM     41  N   UNL A   1      40.307  28.349  29.745  1.00  0.00    -0.354 N 
ATOM     42  C   UNL A   1      39.276  30.769  33.191  1.00  0.00     0.074 A 
ATOM     43  C   UNL A   1      38.005  31.429  32.995  1.00  0.00     0.031 C 
ATOM     44  C   UNL A   1      40.102  27.607  27.646  1.00  0.00     0.029 A 
ATOM     45  C   UNL A   1      40.967  27.574  28.822  1.00  0.00     0.049 A 
ATOM     46  H   UNL A   1      40.642  28.500  30.658  1.00  0.00     0.167 HD
ATOM     47  C   UNL A   1      40.023  30.873  34.314  1.00  0.00     0.037 A 
ATOM     48  C   UNL A   1      42.141  26.923  28.915  1.00  0.00     0.037 A 
ATOM     49  C   UNL A   1      41.247  30.156  34.532  1.00  0.00     0.049 A 
ATOM     50  C   UNL A   1      42.926  27.007  30.196  1.00  0.00     0.074 A 
ATOM     51  C   UNL A   1      42.041  30.126  35.664  1.00  0.00     0.029 A 
ATOM     52  N   UNL A   1      41.844  29.321  33.599  1.00  0.00    -0.354 N 
ATOM     53  N   UNL A   1      42.653  27.679  31.289  1.00  0.00    -0.248 NA
ATOM     54  C   UNL A   1      44.178  26.241  30.261  1.00  0.00     0.031 C 
ATOM     55  C   UNL A   1      43.133  29.290  35.408  1.00  0.00     0.029 A 
ATOM     56  C   UNL A   1      42.999  28.772  34.129  1.00  0.00     0.049 A 
ATOM     57  H   UNL A   1      41.498  29.145  32.694  1.00  0.00     0.167 HD
ATOM     58  C   UNL A   1      43.678  27.393  32.179  1.00  0.00     0.074 A 
ATOM     59  C   UNL A   1      44.578  26.483  31.502  1.00  0.00     0.031 C 
ATOM     60  C   UNL A   1      43.860  27.845  33.444  1.00  0.00     0.037 A 
BRANCH  47  61
ATOM     61  C   UNL A   1      39.522  31.785  35.394  1.00  0.00     0.064 A 
ATOM     62  C   UNL A   1      38.619  31.341  36.373  1.00  0.00     0.173 A 
ATOM     63  C   UNL A   1      39.955  33.118  35.458  1.00  0.00     0.173 A 
ATOM     64  F   UNL A   1      38.160  30.080  36.344  1.00  0.00    -0.203 F 
ATOM     65  C   UNL A   1      38.143  32.205  37.354  1.00  0.00     0.198 A 
ATOM     66  C   UNL A   1      39.501  33.971  36.459  1.00  0.00     0.198 A 
ATOM     67  F   UNL A   1      40.819  33.592  34.548  1.00  0.00    -0.203 F 
ATOM     68  F   UNL A   1      37.236  31.774  38.241  1.00  0.00    -0.200 F 
ATOM     69  C   UNL A   1      38.589  33.518  37.401  1.00  0.00     0.200 A 
ATOM     70  F   UNL A   1      39.940  35.237  36.510  1.00  0.00    -0.200 F 
ATOM     71  F   UNL A   1      38.131  34.348  38.347  1.00  0.00    -0.200 F 
ENDBRANCH  47  61
BRANCH  48  72
ATOM     72  C   UNL A   1      42.633  26.107  27.774  1.00  0.00     0.064 A 
ATOM     73  C   UNL A   1      43.535  26.646  26.846  1.00  0.00     0.173 A 
ATOM     74  C   UNL A   1      42.217  24.782  27.584  1.00  0.00     0.173 A 
ATOM     75  F   UNL A   1      43.945  27.917  26.975  1.00  0.00    -0.203 F 
ATOM     76  C   UNL A   1      43.988  25.900  25.762  1.00  0.00     0.198 A 
ATOM     77  C   UNL A   1      42.690  24.027  26.512  1.00  0.00     0.198 A 
ATOM     78  F   UNL A   1      41.359  24.217  28.447  1.00  0.00    -0.203 F 
ATOM     79  F   UNL A   1      44.818  26.454  24.868  1.00  0.00    -0.200 F 
ATOM     80  C   UNL A   1      43.569  24.587  25.598  1.00  0.00     0.200 A 
ATOM     81  F   UNL A   1      42.291  22.756  26.363  1.00  0.00    -0.200 F 
ATOM     82  F   UNL A   1      44.006  23.867  24.556  1.00  0.00    -0.200 F 
ENDBRANCH  48  72
BRANCH  60  83
ATOM     83  C   UNL A   1      45.044  27.323  34.199  1.00  0.00     0.064 A 
ATOM     84  C   UNL A   1      46.270  28.003  34.204  1.00  0.00     0.173 A 
ATOM     85  C   UNL A   1      44.926  26.167  34.983  1.00  0.00     0.173 A 
ATOM     86  F   UNL A   1      46.432  29.107  33.458  1.00  0.00    -0.203 F 
ATOM     87  C   UNL A   1      47.340  27.536  34.960  1.00  0.00     0.198 A 
ATOM     88  C   UNL A   1      45.990  25.716  35.757  1.00  0.00     0.198 A 
ATOM     89  F   UNL A   1      43.769  25.487  35.015  1.00  0.00    -0.203 F 
ATOM     90  F   UNL A   1      48.512  28.184  34.930  1.00  0.00    -0.200 F 
ATOM     91  C   UNL A   1      47.197  26.399  35.742  1.00  0.00     0.200 A 
ATOM     92  F   UNL A   1      45.847  24.624  36.521  1.00  0.00    -0.200 F 
ATOM     93  F   UNL A   1      48.226  25.960  36.481  1.00  0.00    -0.200 F 
ENDBRANCH  60  83
ENDBRANCH  34  35
ENDBRANCH  26  29
ENDBRANCH  24  25
ENDBRANCH  23  24
ENDBRANCH  22  23
ENDBRANCH   1  22
TORSDOF 16
ENDMDL
MODEL 3
REMARK VINA RESULT:     -11.5      2.065      8.137
REMARK SMILES CCC[C@H](C)C[N@H+]1[C@@H]2CC[C@H]1C[C@H](CC(=O)NCCCCNC(=O)c1ccc(-c3c4nc(c(-c5c(F)c(F)c(F)c(F)c5F)c5ccc([nH]5)c(-c5c(F)c(F)c(F)c(F)c5F)c5nc(c(-c6c(F)c(F)c(F)c(F)c6F)c6ccc3[nH]6)C=C5)C=C4)cc1)C2
REMARK SMILES IDX 18 1 17 2 15 3 16 4 14 6 13 7 7 8 8 9 11 10 9 12 88 13 10 14
REMARK SMILES IDX 12 15 6 16 4 17 5 18 3 19 2 20 1 21 19 22 20 23 21 24 22 25
REMARK SMILES IDX 23 26 24 28 25 29 26 30 87 31 27 32 86 33 28 34 29 35 30 36
REMARK SMILES IDX 80 37 31 38 85 39 79 40 81 41 32 42 84 43 78 44 77 45 33 47
REMARK SMILES IDX 65 48 45 49 64 50 46 51 49 52 63 53 82 54 47 55 48 56 62 58
REMARK SMILES IDX 83 59 50 60 34 61 35 62 43 63 36 64 37 65 41 66 44 67 38 68
REMARK SMILES IDX 39 69 42 70 40 71 66 72 67 73 75 74 68 75 69 76 73 77 76 78
REMARK SMILES IDX 70 79 71 80 74 81 72 82 51 83 52 84 60 85 53 86 54 87 58 88
REMARK SMILES IDX 61 89 55 90 56 91 59 92 57 93
REMARK H PARENT 17 5 7 11 22 27 81 46 49 57
REMARK Flexibility Score: inf
ROOT
ATOM      1  C   UNL A   1      32.727  30.017  25.846  1.00  0.00     0.116 C 
ENDROOT
BRANCH   1   2
ATOM      2  N   UNL A   1      33.221  29.703  24.516  1.00  0.00    -0.356 N 
ATOM      3  C   UNL A   1      33.851  28.591  24.039  1.00  0.00     0.220 C 
ATOM      4  O   UNL A   1      34.265  28.617  22.878  1.00  0.00    -0.275 OA
ATOM      5  H   UNL A   1      33.079  30.411  23.848  1.00  0.00     0.163 HD
BRANCH   3   6
ATOM      6  C   UNL A   1      34.026  27.346  24.894  1.00  0.00     0.104 C 
BRANCH   6   7
ATOM      7  C   UNL A   1      32.842  26.353  24.827  1.00  0.00     0.010 C 
ATOM      8  N   UNL A   1      30.213  26.782  23.513  1.00  0.00    -0.330 N 
ATOM      9  C   UNL A   1      31.087  25.720  23.022  1.00  0.00     0.184 C 
ATOM     10  C   UNL A   1      30.233  26.578  24.962  1.00  0.00     0.184 C 
ATOM     11  H   UNL A   1      29.329  26.661  23.021  1.00  0.00     0.348 HD
ATOM     12  C   UNL A   1      30.516  24.508  23.790  1.00  0.00     0.071 C 
ATOM     13  C   UNL A   1      32.572  25.914  23.372  1.00  0.00     0.069 C 
ATOM     14  C   UNL A   1      29.977  25.083  25.093  1.00  0.00     0.071 C 
ATOM     15  C   UNL A   1      31.605  26.942  25.524  1.00  0.00     0.069 C 
BRANCH   8  16
ATOM     16  C   UNL A   1      30.287  28.186  23.092  1.00  0.00     0.265 C 
BRANCH  16  17
ATOM     17  C   UNL A   1      29.112  28.923  22.401  1.00  0.00     0.041 C 
ATOM     18  C   UNL A   1      27.781  28.682  23.115  1.00  0.00     0.013 C 
BRANCH  17  19
ATOM     19  C   UNL A   1      29.369  30.454  22.344  1.00  0.00     0.009 C 
BRANCH  19  20
ATOM     20  C   UNL A   1      28.637  31.252  23.432  1.00  0.00    -0.003 C 
ATOM     21  C   UNL A   1      28.416  32.711  23.049  1.00  0.00     0.004 C 
ENDBRANCH  19  20
ENDBRANCH  17  19
ENDBRANCH  16  17
ENDBRANCH   8  16
ENDBRANCH   6   7
ENDBRANCH   3   6
ENDBRANCH   1   2
BRANCH   1  22
ATOM     22  C   UNL A   1      31.402  30.781  25.772  1.00  0.00     0.023 C 
BRANCH  22  23
ATOM     23  C   UNL A   1      31.251  31.930  26.749  1.00  0.00     0.023 C 
BRANCH  23  24
ATOM     24  C   UNL A   1      32.472  32.819  26.826  1.00  0.00     0.116 C 
BRANCH  24  25
ATOM     25  N   UNL A   1      32.263  34.035  27.608  1.00  0.00    -0.352 N 
ATOM     26  C   UNL A   1      33.047  34.535  28.625  1.00  0.00     0.251 C 
ATOM     27  H   UNL A   1      31.463  34.561  27.381  1.00  0.00     0.163 HD
ATOM     28  O   UNL A   1      32.716  35.529  29.259  1.00  0.00    -0.269 OA
BRANCH  26  29
ATOM     29  C   UNL A   1      34.279  33.800  28.971  1.00  0.00     0.039 A 
ATOM     30  C   UNL A   1      35.519  34.387  28.711  1.00  0.00     0.014 A 
ATOM     31  C   UNL A   1      34.185  32.614  29.702  1.00  0.00     0.014 A 
ATOM     32  C   UNL A   1      36.667  33.836  29.283  1.00  0.00     0.010 A 
ATOM     33  C   UNL A   1      35.308  32.140  30.360  1.00  0.00     0.010 A 
ATOM     34  C   UNL A   1      36.561  32.745  30.160  1.00  0.00    -0.014 A 
BRANCH  34  35
ATOM     35  C   UNL A   1      37.733  32.182  30.874  1.00  0.00     0.031 A 
ATOM     36  C   UNL A   1      38.547  31.113  30.201  1.00  0.00     0.074 A 
ATOM     37  C   UNL A   1      37.990  32.530  32.150  1.00  0.00     0.049 A 
ATOM     38  N   UNL A   1      39.468  30.330  30.700  1.00  0.00    -0.248 NA
ATOM     39  C   UNL A   1      38.238  30.851  28.784  1.00  0.00     0.031 C 
ATOM     40  C   UNL A   1      37.241  33.515  32.932  1.00  0.00     0.029 A 
ATOM     41  N   UNL A   1      38.947  32.074  33.023  1.00  0.00    -0.354 N 
ATOM     42  C   UNL A   1      39.806  29.455  29.677  1.00  0.00     0.074 A 
ATOM     43  C   UNL A   1      38.960  29.767  28.548  1.00  0.00     0.031 C 
ATOM     44  C   UNL A   1      37.780  33.605  34.160  1.00  0.00     0.029 A 
ATOM     45  C   UNL A   1      38.882  32.654  34.267  1.00  0.00     0.049 A 
ATOM     46  H   UNL A   1      39.617  31.395  32.780  1.00  0.00     0.167 HD
ATOM     47  C   UNL A   1      40.758  28.493  29.672  1.00  0.00     0.037 A 
ATOM     48  C   UNL A   1      39.623  32.432  35.368  1.00  0.00     0.037 A 
ATOM     49  C   UNL A   1      41.646  28.239  30.771  1.00  0.00     0.049 A 
ATOM     50  C   UNL A   1      40.715  31.397  35.320  1.00  0.00     0.074 A 
ATOM     51  C   UNL A   1      42.697  27.343  30.843  1.00  0.00     0.029 A 
ATOM     52  N   UNL A   1      41.597  28.901  31.989  1.00  0.00    -0.354 N 
ATOM     53  N   UNL A   1      41.059  30.605  34.333  1.00  0.00    -0.248 NA
ATOM     54  C   UNL A   1      41.524  31.226  36.535  1.00  0.00     0.031 C 
ATOM     55  C   UNL A   1      43.271  27.447  32.114  1.00  0.00     0.029 A 
ATOM     56  C   UNL A   1      42.599  28.432  32.821  1.00  0.00     0.049 A 
ATOM     57  H   UNL A   1      40.945  29.600  32.227  1.00  0.00     0.167 HD
ATOM     58  C   UNL A   1      42.140  29.868  34.794  1.00  0.00     0.074 A 
ATOM     59  C   UNL A   1      42.400  30.308  36.149  1.00  0.00     0.031 C 
ATOM     60  C   UNL A   1      42.853  28.909  34.154  1.00  0.00     0.037 A 
BRANCH  47  61
ATOM     61  C   UNL A   1      40.891  27.661  28.432  1.00  0.00     0.064 A 
ATOM     62  C   UNL A   1      40.153  26.480  28.256  1.00  0.00     0.173 A 
ATOM     63  C   UNL A   1      41.760  28.051  27.402  1.00  0.00     0.173 A 
ATOM     64  F   UNL A   1      39.322  26.054  29.220  1.00  0.00    -0.203 F 
ATOM     65  C   UNL A   1      40.306  25.703  27.112  1.00  0.00     0.198 A 
ATOM     66  C   UNL A   1      41.886  27.288  26.245  1.00  0.00     0.198 A 
ATOM     67  F   UNL A   1      42.487  29.172  27.519  1.00  0.00    -0.203 F 
ATOM     68  F   UNL A   1      39.635  24.549  26.993  1.00  0.00    -0.200 F 
ATOM     69  C   UNL A   1      41.167  26.111  26.104  1.00  0.00     0.200 A 
ATOM     70  F   UNL A   1      42.712  27.688  25.267  1.00  0.00    -0.200 F 
ATOM     71  F   UNL A   1      41.310  25.363  25.002  1.00  0.00    -0.200 F 
ENDBRANCH  47  61
BRANCH  48  72
ATOM     72  C   UNL A   1      39.383  33.226  36.601  1.00  0.00     0.064 A 
ATOM     73  C   UNL A   1      38.472  32.783  37.570  1.00  0.00     0.173 A 
ATOM     74  C   UNL A   1      40.049  34.437  36.838  1.00  0.00     0.173 A 
ATOM     75  F   UNL A   1      37.795  31.640  37.377  1.00  0.00    -0.203 F 
ATOM     76  C   UNL A   1      38.222  33.527  38.720  1.00  0.00     0.198 A 
ATOM     77  C   UNL A   1      39.816  35.170  38.001  1.00  0.00     0.198 A 
ATOM     78  F   UNL A   1      40.934  34.903  35.944  1.00  0.00    -0.203 F 
ATOM     79  F   UNL A   1      37.316  33.099  39.609  1.00  0.00    -0.200 F 
ATOM     80  C   UNL A   1      38.898  34.718  38.937  1.00  0.00     0.200 A 
ATOM     81  F   UNL A   1      40.479  36.314  38.213  1.00  0.00    -0.200 F 
ATOM     82  F   UNL A   1      38.660  35.434  40.044  1.00  0.00    -0.200 F 
ENDBRANCH  48  72
BRANCH  60  83
ATOM     83  C   UNL A   1      44.015  28.310  34.886  1.00  0.00     0.064 A 
ATOM     84  C   UNL A   1      45.285  28.902  34.858  1.00  0.00     0.173 A 
ATOM     85  C   UNL A   1      43.834  27.171  35.684  1.00  0.00     0.173 A 
ATOM     86  F   UNL A   1      45.508  29.986  34.099  1.00  0.00    -0.203 F 
ATOM     87  C   UNL A   1      46.337  28.366  35.593  1.00  0.00     0.198 A 
ATOM     88  C   UNL A   1      44.881  26.651  36.437  1.00  0.00     0.198 A 
ATOM     89  F   UNL A   1      42.633  26.575  35.747  1.00  0.00    -0.203 F 
ATOM     90  F   UNL A   1      47.551  28.929  35.531  1.00  0.00    -0.200 F 
ATOM     91  C   UNL A   1      46.133  27.247  36.389  1.00  0.00     0.200 A 
ATOM     92  F   UNL A   1      44.679  25.578  37.213  1.00  0.00    -0.200 F 
ATOM     93  F   UNL A   1      47.145  26.741  37.108  1.00  0.00    -0.200 F 
ENDBRANCH  60  83
ENDBRANCH  34  35
ENDBRANCH  26  29
ENDBRANCH  24  25
ENDBRANCH  23  24
ENDBRANCH  22  23
ENDBRANCH   1  22
TORSDOF 16
ENDMDL
