MODEL 1
REMARK VINA RESULT:     -11.2      0.000      0.000
REMARK SMILES C[C@@H]1CN(C(=O)N2CC(CC(=O)NCCCCNC(=O)c3ccc(-c4c5nc(c(-c6c(F)c(F)c(F)c(F)c6F)c6ccc([nH]6)c(-c6c(F)c(F)c(F)c(F)c6F)c6nc(c(-c7c(F)c(F)c(F)c(F)c7F)c7ccc4[nH]7)C=C6)C=C5)cc3)C2)C[C@H]1C
REMARK SMILES IDX 16 1 15 2 14 3 13 4 11 5 12 6 10 8 9 9 1 10 2 11 3 12 86 13
REMARK SMILES IDX 4 14 85 15 87 16 5 17 6 18 7 19 8 20 84 21 17 22 18 23 19 24
REMARK SMILES IDX 20 26 21 27 22 28 83 29 23 30 82 31 24 32 25 33 26 34 76 35
REMARK SMILES IDX 27 36 81 37 75 38 77 39 28 40 80 41 74 42 73 43 29 45 61 46
REMARK SMILES IDX 41 47 60 48 42 49 45 50 59 51 78 52 43 53 44 54 58 56 79 57
REMARK SMILES IDX 46 58 30 59 31 60 39 61 32 62 33 63 37 64 40 65 34 66 35 67
REMARK SMILES IDX 38 68 36 69 62 70 63 71 71 72 64 73 65 74 69 75 72 76 66 77
REMARK SMILES IDX 67 78 70 79 68 80 47 81 48 82 56 83 49 84 50 85 54 86 57 87
REMARK SMILES IDX 51 88 52 89 55 90 53 91
REMARK H PARENT 13 7 18 25 77 44 45 55
REMARK Flexibility Score: inf
ROOT
ATOM      1  C   UNL A   1      35.131  34.179  29.252  1.00  0.00     0.023 C 
ENDROOT
BRANCH   1   2
ATOM      2  C   UNL A   1      34.286  35.346  28.755  1.00  0.00     0.023 C 
BRANCH   2   3
ATOM      3  C   UNL A   1      32.876  35.432  29.339  1.00  0.00     0.116 C 
BRANCH   3   4
ATOM      4  N   UNL A   1      32.800  36.465  30.351  1.00  0.00    -0.356 N 
ATOM      5  C   UNL A   1      32.825  36.349  31.707  1.00  0.00     0.220 C 
ATOM      6  O   UNL A   1      32.596  37.355  32.381  1.00  0.00    -0.275 OA
ATOM      7  H   UNL A   1      32.718  37.384  30.009  1.00  0.00     0.163 HD
BRANCH   5   8
ATOM      8  C   UNL A   1      33.127  35.020  32.370  1.00  0.00     0.107 C 
BRANCH   8   9
ATOM      9  C   UNL A   1      34.337  35.041  33.299  1.00  0.00     0.037 C 
ATOM     10  C   UNL A   1      38.177  29.338  33.049  1.00  0.00     0.010 C 
ATOM     11  C   UNL A   1      38.097  30.426  34.110  1.00  0.00     0.010 C 
ATOM     12  C   UNL A   1      37.162  31.570  33.702  1.00  0.00     0.125 C 
ATOM     13  C   UNL A   1      39.438  31.137  34.358  1.00  0.00     0.010 C 
ATOM     14  N   UNL A   1      37.780  32.786  34.215  1.00  0.00    -0.324 N 
ATOM     15  C   UNL A   1      38.998  32.478  34.942  1.00  0.00     0.125 C 
ATOM     16  C   UNL A   1      40.372  30.365  35.275  1.00  0.00     0.010 C 
ATOM     17  C   UNL A   1      37.486  34.078  33.820  1.00  0.00     0.320 C 
ATOM     18  O   UNL A   1      38.278  35.007  33.965  1.00  0.00    -0.248 OA
ATOM     19  N   UNL A   1      36.258  34.271  33.249  1.00  0.00    -0.324 N 
ATOM     20  C   UNL A   1      35.681  35.473  32.676  1.00  0.00     0.127 C 
ATOM     21  C   UNL A   1      34.987  33.677  33.582  1.00  0.00     0.127 C 
ENDBRANCH   8   9
ENDBRANCH   5   8
ENDBRANCH   3   4
ENDBRANCH   2   3
ENDBRANCH   1   2
BRANCH   1  22
ATOM     22  C   UNL A   1      35.456  33.129  28.201  1.00  0.00     0.116 C 
BRANCH  22  23
ATOM     23  N   UNL A   1      34.355  32.219  27.913  1.00  0.00    -0.352 N 
ATOM     24  C   UNL A   1      34.392  30.844  27.850  1.00  0.00     0.251 C 
ATOM     25  H   UNL A   1      33.480  32.636  27.743  1.00  0.00     0.163 HD
ATOM     26  O   UNL A   1      33.399  30.198  27.530  1.00  0.00    -0.269 OA
BRANCH  24  27
ATOM     27  C   UNL A   1      35.672  30.162  28.124  1.00  0.00     0.039 A 
ATOM     28  C   UNL A   1      36.659  30.151  27.136  1.00  0.00     0.014 A 
ATOM     29  C   UNL A   1      35.929  29.649  29.397  1.00  0.00     0.014 A 
ATOM     30  C   UNL A   1      37.945  29.715  27.457  1.00  0.00     0.010 A 
ATOM     31  C   UNL A   1      37.226  29.290  29.736  1.00  0.00     0.010 A 
ATOM     32  C   UNL A   1      38.250  29.334  28.775  1.00  0.00    -0.014 A 
BRANCH  32  33
ATOM     33  C   UNL A   1      39.630  28.995  29.194  1.00  0.00     0.031 A 
ATOM     34  C   UNL A   1      40.442  30.002  29.953  1.00  0.00     0.074 A 
ATOM     35  C   UNL A   1      40.195  27.846  28.775  1.00  0.00     0.049 A 
ATOM     36  N   UNL A   1      41.717  29.988  30.249  1.00  0.00    -0.248 NA
ATOM     37  C   UNL A   1      39.733  31.211  30.399  1.00  0.00     0.031 C 
ATOM     38  C   UNL A   1      39.531  26.820  27.970  1.00  0.00     0.029 A 
ATOM     39  N   UNL A   1      41.470  27.366  28.941  1.00  0.00    -0.354 N 
ATOM     40  C   UNL A   1      41.970  31.203  30.869  1.00  0.00     0.074 A 
ATOM     41  C   UNL A   1      40.727  31.943  30.878  1.00  0.00     0.031 C 
ATOM     42  C   UNL A   1      40.402  25.829  27.716  1.00  0.00     0.029 A 
ATOM     43  C   UNL A   1      41.691  26.167  28.311  1.00  0.00     0.049 A 
ATOM     44  H   UNL A   1      42.159  27.837  29.463  1.00  0.00     0.167 HD
ATOM     45  C   UNL A   1      43.134  31.654  31.395  1.00  0.00     0.037 A 
ATOM     46  C   UNL A   1      42.814  25.430  28.211  1.00  0.00     0.037 A 
ATOM     47  C   UNL A   1      44.351  30.891  31.436  1.00  0.00     0.049 A 
ATOM     48  C   UNL A   1      44.073  25.914  28.871  1.00  0.00     0.074 A 
ATOM     49  C   UNL A   1      45.556  31.217  32.033  1.00  0.00     0.029 A 
ATOM     50  N   UNL A   1      44.514  29.639  30.862  1.00  0.00    -0.354 N 
ATOM     51  N   UNL A   1      44.288  27.037  29.512  1.00  0.00    -0.248 NA
ATOM     52  C   UNL A   1      45.243  25.028  28.802  1.00  0.00     0.031 C 
ATOM     53  C   UNL A   1      46.457  30.171  31.798  1.00  0.00     0.029 A 
ATOM     54  C   UNL A   1      45.802  29.181  31.082  1.00  0.00     0.049 A 
ATOM     55  H   UNL A   1      43.817  29.148  30.369  1.00  0.00     0.167 HD
ATOM     56  C   UNL A   1      45.608  26.987  29.936  1.00  0.00     0.074 A 
ATOM     57  C   UNL A   1      46.144  25.717  29.489  1.00  0.00     0.031 C 
ATOM     58  C   UNL A   1      46.313  27.911  30.633  1.00  0.00     0.037 A 
BRANCH  45  59
ATOM     59  C   UNL A   1      43.134  33.041  31.964  1.00  0.00     0.064 A 
ATOM     60  C   UNL A   1      43.359  34.167  31.159  1.00  0.00     0.173 A 
ATOM     61  C   UNL A   1      42.916  33.245  33.334  1.00  0.00     0.173 A 
ATOM     62  F   UNL A   1      43.592  34.022  29.845  1.00  0.00    -0.203 F 
ATOM     63  C   UNL A   1      43.404  35.444  31.710  1.00  0.00     0.198 A 
ATOM     64  C   UNL A   1      42.933  34.526  33.878  1.00  0.00     0.198 A 
ATOM     65  F   UNL A   1      42.695  32.201  34.147  1.00  0.00    -0.203 F 
ATOM     66  F   UNL A   1      43.683  36.499  30.932  1.00  0.00    -0.200 F 
ATOM     67  C   UNL A   1      43.188  35.623  33.069  1.00  0.00     0.200 A 
ATOM     68  F   UNL A   1      42.717  34.699  35.190  1.00  0.00    -0.200 F 
ATOM     69  F   UNL A   1      43.238  36.853  33.600  1.00  0.00    -0.200 F 
ENDBRANCH  45  59
BRANCH  46  70
ATOM     70  C   UNL A   1      42.779  24.142  27.476  1.00  0.00     0.064 A 
ATOM     71  C   UNL A   1      43.087  24.089  26.110  1.00  0.00     0.173 A 
ATOM     72  C   UNL A   1      42.476  22.938  28.127  1.00  0.00     0.173 A 
ATOM     73  F   UNL A   1      43.366  25.219  25.444  1.00  0.00    -0.203 F 
ATOM     74  C   UNL A   1      43.084  22.879  25.420  1.00  0.00     0.198 A 
ATOM     75  C   UNL A   1      42.492  21.726  27.440  1.00  0.00     0.198 A 
ATOM     76  F   UNL A   1      42.184  22.939  29.436  1.00  0.00    -0.203 F 
ATOM     77  F   UNL A   1      43.358  22.859  24.108  1.00  0.00    -0.200 F 
ATOM     78  C   UNL A   1      42.794  21.698  26.086  1.00  0.00     0.200 A 
ATOM     79  F   UNL A   1      42.224  20.586  28.089  1.00  0.00    -0.200 F 
ATOM     80  F   UNL A   1      42.803  20.534  25.424  1.00  0.00    -0.200 F 
ENDBRANCH  46  70
BRANCH  58  81
ATOM     81  C   UNL A   1      47.732  27.575  30.976  1.00  0.00     0.064 A 
ATOM     82  C   UNL A   1      48.054  26.863  32.140  1.00  0.00     0.173 A 
ATOM     83  C   UNL A   1      48.774  27.926  30.106  1.00  0.00     0.173 A 
ATOM     84  F   UNL A   1      47.091  26.521  33.010  1.00  0.00    -0.203 F 
ATOM     85  C   UNL A   1      49.373  26.524  32.426  1.00  0.00     0.198 A 
ATOM     86  C   UNL A   1      50.089  27.567  30.384  1.00  0.00     0.198 A 
ATOM     87  F   UNL A   1      48.513  28.604  28.978  1.00  0.00    -0.203 F 
ATOM     88  F   UNL A   1      49.665  25.869  33.558  1.00  0.00    -0.200 F 
ATOM     89  C   UNL A   1      50.388  26.869  31.545  1.00  0.00     0.200 A 
ATOM     90  F   UNL A   1      51.067  27.894  29.529  1.00  0.00    -0.200 F 
ATOM     91  F   UNL A   1      51.657  26.534  31.818  1.00  0.00    -0.200 F 
ENDBRANCH  58  81
ENDBRANCH  32  33
ENDBRANCH  24  27
ENDBRANCH  22  23
ENDBRANCH   1  22
TORSDOF 12
ENDMDL
MODEL 2
REMARK VINA RESULT:     -11.2      5.102      9.885
REMARK SMILES C[C@@H]1CN(C(=O)N2CC(CC(=O)NCCCCNC(=O)c3ccc(-c4c5nc(c(-c6c(F)c(F)c(F)c(F)c6F)c6ccc([nH]6)c(-c6c(F)c(F)c(F)c(F)c6F)c6nc(c(-c7c(F)c(F)c(F)c(F)c7F)c7ccc4[nH]7)C=C6)C=C5)cc3)C2)C[C@H]1C
REMARK SMILES IDX 16 1 15 2 14 3 13 4 11 5 12 6 10 8 9 9 1 10 2 11 3 12 86 13
REMARK SMILES IDX 4 14 85 15 87 16 5 17 6 18 7 19 8 20 84 21 17 22 18 23 19 24
REMARK SMILES IDX 20 26 21 27 22 28 83 29 23 30 82 31 24 32 25 33 26 34 76 35
REMARK SMILES IDX 27 36 81 37 75 38 77 39 28 40 80 41 74 42 73 43 29 45 61 46
REMARK SMILES IDX 41 47 60 48 42 49 45 50 59 51 78 52 43 53 44 54 58 56 79 57
REMARK SMILES IDX 46 58 30 59 31 60 39 61 32 62 33 63 37 64 40 65 34 66 35 67
REMARK SMILES IDX 38 68 36 69 62 70 63 71 71 72 64 73 65 74 69 75 72 76 66 77
REMARK SMILES IDX 67 78 70 79 68 80 47 81 48 82 56 83 49 84 50 85 54 86 57 87
REMARK SMILES IDX 51 88 52 89 55 90 53 91
REMARK H PARENT 13 7 18 25 77 44 45 55
REMARK Flexibility Score: inf
ROOT
ATOM      1  C   UNL A   1      38.143  21.165  25.016  1.00  0.00     0.023 C 
ENDROOT
BRANCH   1   2
ATOM      2  C   UNL A   1      36.974  20.187  24.997  1.00  0.00     0.023 C 
BRANCH   2   3
ATOM      3  C   UNL A   1      35.584  20.823  25.027  1.00  0.00     0.116 C 
BRANCH   3   4
ATOM      4  N   UNL A   1      34.569  19.828  25.298  1.00  0.00    -0.356 N 
ATOM      5  C   UNL A   1      33.215  19.919  25.178  1.00  0.00     0.220 C 
ATOM      6  O   UNL A   1      32.529  18.990  25.608  1.00  0.00    -0.275 OA
ATOM      7  H   UNL A   1      34.905  18.960  25.617  1.00  0.00     0.163 HD
BRANCH   5   8
ATOM      8  C   UNL A   1      32.570  21.128  24.531  1.00  0.00     0.107 C 
BRANCH   8   9
ATOM      9  C   UNL A   1      32.173  22.228  25.511  1.00  0.00     0.037 C 
ATOM     10  C   UNL A   1      33.850  28.575  23.450  1.00  0.00     0.010 C 
ATOM     11  C   UNL A   1      33.512  28.045  24.837  1.00  0.00     0.010 C 
ATOM     12  C   UNL A   1      33.106  26.568  24.814  1.00  0.00     0.125 C 
ATOM     13  C   UNL A   1      32.295  28.737  25.474  1.00  0.00     0.010 C 
ATOM     14  N   UNL A   1      32.058  26.432  25.818  1.00  0.00    -0.324 N 
ATOM     15  C   UNL A   1      31.817  27.698  26.485  1.00  0.00     0.125 C 
ATOM     16  C   UNL A   1      32.624  30.079  26.107  1.00  0.00     0.010 C 
ATOM     17  C   UNL A   1      31.169  25.380  25.929  1.00  0.00     0.320 C 
ATOM     18  O   UNL A   1      30.086  25.491  26.501  1.00  0.00    -0.248 OA
ATOM     19  N   UNL A   1      31.554  24.198  25.358  1.00  0.00    -0.324 N 
ATOM     20  C   UNL A   1      30.832  22.944  25.242  1.00  0.00     0.127 C 
ATOM     21  C   UNL A   1      32.860  23.588  25.305  1.00  0.00     0.127 C 
ENDBRANCH   8   9
ENDBRANCH   5   8
ENDBRANCH   3   4
ENDBRANCH   2   3
ENDBRANCH   1   2
BRANCH   1  22
ATOM     22  C   UNL A   1      39.153  20.936  26.129  1.00  0.00     0.116 C 
BRANCH  22  23
ATOM     23  N   UNL A   1      39.919  19.704  25.990  1.00  0.00    -0.352 N 
ATOM     24  C   UNL A   1      41.282  19.543  26.091  1.00  0.00     0.251 C 
ATOM     25  H   UNL A   1      39.400  18.890  25.801  1.00  0.00     0.163 HD
ATOM     26  O   UNL A   1      41.808  18.453  25.884  1.00  0.00    -0.269 OA
BRANCH  24  27
ATOM     27  C   UNL A   1      42.109  20.726  26.401  1.00  0.00     0.039 A 
ATOM     28  C   UNL A   1      42.576  21.519  25.351  1.00  0.00     0.014 A 
ATOM     29  C   UNL A   1      42.309  21.106  27.729  1.00  0.00     0.014 A 
ATOM     30  C   UNL A   1      43.160  22.755  25.634  1.00  0.00     0.010 A 
ATOM     31  C   UNL A   1      42.817  22.368  28.005  1.00  0.00     0.010 A 
ATOM     32  C   UNL A   1      43.233  23.210  26.961  1.00  0.00    -0.014 A 
BRANCH  32  33
ATOM     33  C   UNL A   1      43.718  24.570  27.299  1.00  0.00     0.031 A 
ATOM     34  C   UNL A   1      42.751  25.595  27.812  1.00  0.00     0.074 A 
ATOM     35  C   UNL A   1      44.988  24.918  27.014  1.00  0.00     0.049 A 
ATOM     36  N   UNL A   1      42.919  26.881  27.986  1.00  0.00    -0.248 NA
ATOM     37  C   UNL A   1      41.397  25.116  28.127  1.00  0.00     0.031 C 
ATOM     38  C   UNL A   1      46.003  24.030  26.445  1.00  0.00     0.029 A 
ATOM     39  N   UNL A   1      45.630  26.125  27.134  1.00  0.00    -0.354 N 
ATOM     40  C   UNL A   1      41.682  27.370  28.382  1.00  0.00     0.074 A 
ATOM     41  C   UNL A   1      40.766  26.250  28.391  1.00  0.00     0.031 C 
ATOM     42  C   UNL A   1      47.142  24.721  26.270  1.00  0.00     0.029 A 
ATOM     43  C   UNL A   1      46.926  26.104  26.682  1.00  0.00     0.049 A 
ATOM     44  H   UNL A   1      45.201  26.928  27.510  1.00  0.00     0.167 HD
ATOM     45  C   UNL A   1      41.346  28.637  28.720  1.00  0.00     0.037 A 
ATOM     46  C   UNL A   1      47.833  27.095  26.595  1.00  0.00     0.037 A 
ATOM     47  C   UNL A   1      42.274  29.734  28.768  1.00  0.00     0.049 A 
ATOM     48  C   UNL A   1      47.461  28.477  27.052  1.00  0.00     0.074 A 
ATOM     49  C   UNL A   1      42.056  31.033  29.192  1.00  0.00     0.029 A 
ATOM     50  N   UNL A   1      43.605  29.654  28.384  1.00  0.00    -0.354 N 
ATOM     51  N   UNL A   1      46.305  28.918  27.486  1.00  0.00    -0.248 NA
ATOM     52  C   UNL A   1      48.517  29.498  27.014  1.00  0.00     0.031 C 
ATOM     53  C   UNL A   1      43.251  31.747  29.041  1.00  0.00     0.029 A 
ATOM     54  C   UNL A   1      44.219  30.884  28.553  1.00  0.00     0.049 A 
ATOM     55  H   UNL A   1      44.047  28.845  28.041  1.00  0.00     0.167 HD
ATOM     56  C   UNL A   1      46.497  30.258  27.788  1.00  0.00     0.074 A 
ATOM     57  C   UNL A   1      47.885  30.558  27.498  1.00  0.00     0.031 C 
ATOM     58  C   UNL A   1      45.603  31.160  28.263  1.00  0.00     0.037 A 
BRANCH  45  59
ATOM     59  C   UNL A   1      39.909  28.895  29.063  1.00  0.00     0.064 A 
ATOM     60  C   UNL A   1      39.428  28.757  30.373  1.00  0.00     0.173 A 
ATOM     61  C   UNL A   1      39.000  29.276  28.066  1.00  0.00     0.173 A 
ATOM     62  F   UNL A   1      40.256  28.376  31.360  1.00  0.00    -0.203 F 
ATOM     63  C   UNL A   1      38.082  28.954  30.666  1.00  0.00     0.198 A 
ATOM     64  C   UNL A   1      37.660  29.500  28.367  1.00  0.00     0.198 A 
ATOM     65  F   UNL A   1      39.410  29.423  26.796  1.00  0.00    -0.203 F 
ATOM     66  F   UNL A   1      37.633  28.756  31.913  1.00  0.00    -0.200 F 
ATOM     67  C   UNL A   1      37.200  29.328  29.664  1.00  0.00     0.200 A 
ATOM     68  F   UNL A   1      36.809  29.868  27.399  1.00  0.00    -0.200 F 
ATOM     69  F   UNL A   1      35.902  29.511  29.946  1.00  0.00    -0.200 F 
ENDBRANCH  45  59
BRANCH  46  70
ATOM     70  C   UNL A   1      49.191  26.799  26.078  1.00  0.00     0.064 A 
ATOM     71  C   UNL A   1      49.511  27.030  24.733  1.00  0.00     0.173 A 
ATOM     72  C   UNL A   1      50.203  26.315  26.919  1.00  0.00     0.173 A 
ATOM     73  F   UNL A   1      48.569  27.476  23.890  1.00  0.00    -0.203 F 
ATOM     74  C   UNL A   1      50.792  26.781  24.246  1.00  0.00     0.198 A 
ATOM     75  C   UNL A   1      51.489  26.085  26.435  1.00  0.00     0.198 A 
ATOM     76  F   UNL A   1      49.946  26.088  28.215  1.00  0.00    -0.203 F 
ATOM     77  F   UNL A   1      51.065  26.987  22.951  1.00  0.00    -0.200 F 
ATOM     78  C   UNL A   1      51.782  26.316  25.099  1.00  0.00     0.200 A 
ATOM     79  F   UNL A   1      52.446  25.647  27.264  1.00  0.00    -0.200 F 
ATOM     80  F   UNL A   1      53.017  26.086  24.633  1.00  0.00    -0.200 F 
ENDBRANCH  46  70
BRANCH  58  81
ATOM     81  C   UNL A   1      46.102  32.548  28.521  1.00  0.00     0.064 A 
ATOM     82  C   UNL A   1      46.666  32.905  29.754  1.00  0.00     0.173 A 
ATOM     83  C   UNL A   1      46.060  33.516  27.507  1.00  0.00     0.173 A 
ATOM     84  F   UNL A   1      46.711  32.016  30.758  1.00  0.00    -0.203 F 
ATOM     85  C   UNL A   1      47.160  34.189  29.967  1.00  0.00     0.198 A 
ATOM     86  C   UNL A   1      46.575  34.791  27.716  1.00  0.00     0.198 A 
ATOM     87  F   UNL A   1      45.534  33.218  26.310  1.00  0.00    -0.203 F 
ATOM     88  F   UNL A   1      47.669  34.520  31.161  1.00  0.00    -0.200 F 
ATOM     89  C   UNL A   1      47.122  35.128  28.946  1.00  0.00     0.200 A 
ATOM     90  F   UNL A   1      46.545  35.695  26.728  1.00  0.00    -0.200 F 
ATOM     91  F   UNL A   1      47.606  36.361  29.149  1.00  0.00    -0.200 F 
ENDBRANCH  58  81
ENDBRANCH  32  33
ENDBRANCH  24  27
ENDBRANCH  22  23
ENDBRANCH   1  22
TORSDOF 12
ENDMDL
MODEL 3
REMARK VINA RESULT:     -11.1      4.208      7.807
REMARK SMILES C[C@@H]1CN(C(=O)N2CC(CC(=O)NCCCCNC(=O)c3ccc(-c4c5nc(c(-c6c(F)c(F)c(F)c(F)c6F)c6ccc([nH]6)c(-c6c(F)c(F)c(F)c(F)c6F)c6nc(c(-c7c(F)c(F)c(F)c(F)c7F)c7ccc4[nH]7)C=C6)C=C5)cc3)C2)C[C@H]1C
REMARK SMILES IDX 16 1 15 2 14 3 13 4 11 5 12 6 10 8 9 9 1 10 2 11 3 12 86 13
REMARK SMILES IDX 4 14 85 15 87 16 5 17 6 18 7 19 8 20 84 21 17 22 18 23 19 24
REMARK SMILES IDX 20 26 21 27 22 28 83 29 23 30 82 31 24 32 25 33 26 34 76 35
REMARK SMILES IDX 27 36 81 37 75 38 77 39 28 40 80 41 74 42 73 43 29 45 61 46
REMARK SMILES IDX 41 47 60 48 42 49 45 50 59 51 78 52 43 53 44 54 58 56 79 57
REMARK SMILES IDX 46 58 30 59 31 60 39 61 32 62 33 63 37 64 40 65 34 66 35 67
REMARK SMILES IDX 38 68 36 69 62 70 63 71 71 72 64 73 65 74 69 75 72 76 66 77
REMARK SMILES IDX 67 78 70 79 68 80 47 81 48 82 56 83 49 84 50 85 54 86 57 87
REMARK SMILES IDX 51 88 52 89 55 90 53 91
REMARK H PARENT 13 7 18 25 77 44 45 55
REMARK Flexibility Score: inf
ROOT
ATOM      1  C   UNL A   1      31.780  31.798  26.915  1.00  0.00     0.023 C 
ENDROOT
BRANCH   1   2
ATOM      2  C   UNL A   1      32.121  30.313  26.901  1.00  0.00     0.023 C 
BRANCH   2   3
ATOM      3  C   UNL A   1      32.395  29.715  25.521  1.00  0.00     0.116 C 
BRANCH   3   4
ATOM      4  N   UNL A   1      31.342  30.063  24.591  1.00  0.00    -0.356 N 
ATOM      5  C   UNL A   1      30.562  29.252  23.824  1.00  0.00     0.220 C 
ATOM      6  O   UNL A   1      29.823  29.775  22.988  1.00  0.00    -0.275 OA
ATOM      7  H   UNL A   1      31.164  31.027  24.498  1.00  0.00     0.163 HD
BRANCH   5   8
ATOM      8  C   UNL A   1      30.600  27.746  23.996  1.00  0.00     0.107 C 
BRANCH   8   9
ATOM      9  C   UNL A   1      31.799  27.068  23.341  1.00  0.00     0.037 C 
ATOM     10  C   UNL A   1      34.426  21.856  26.982  1.00  0.00     0.010 C 
ATOM     11  C   UNL A   1      35.039  22.682  25.861  1.00  0.00     0.010 C 
ATOM     12  C   UNL A   1      34.048  23.691  25.271  1.00  0.00     0.125 C 
ATOM     13  C   UNL A   1      35.456  21.842  24.641  1.00  0.00     0.010 C 
ATOM     14  N   UNL A   1      34.337  23.739  23.843  1.00  0.00    -0.324 N 
ATOM     15  C   UNL A   1      35.454  22.872  23.514  1.00  0.00     0.125 C 
ATOM     16  C   UNL A   1      36.798  21.150  24.814  1.00  0.00     0.010 C 
ATOM     17  C   UNL A   1      33.506  24.245  22.861  1.00  0.00     0.320 C 
ATOM     18  O   UNL A   1      33.600  23.908  21.682  1.00  0.00    -0.248 OA
ATOM     19  N   UNL A   1      32.561  25.145  23.272  1.00  0.00    -0.324 N 
ATOM     20  C   UNL A   1      31.511  25.798  22.513  1.00  0.00     0.127 C 
ATOM     21  C   UNL A   1      32.657  26.188  24.263  1.00  0.00     0.127 C 
ENDBRANCH   8   9
ENDBRANCH   5   8
ENDBRANCH   3   4
ENDBRANCH   2   3
ENDBRANCH   1   2
BRANCH   1  22
ATOM     22  C   UNL A   1      32.932  32.718  27.288  1.00  0.00     0.116 C 
BRANCH  22  23
ATOM     23  N   UNL A   1      32.525  34.082  27.599  1.00  0.00    -0.352 N 
ATOM     24  C   UNL A   1      33.035  34.914  28.570  1.00  0.00     0.251 C 
ATOM     25  H   UNL A   1      31.799  34.454  27.048  1.00  0.00     0.163 HD
ATOM     26  O   UNL A   1      32.552  36.024  28.770  1.00  0.00    -0.269 OA
BRANCH  24  27
ATOM     27  C   UNL A   1      34.144  34.418  29.408  1.00  0.00     0.039 A 
ATOM     28  C   UNL A   1      33.849  33.746  30.595  1.00  0.00     0.014 A 
ATOM     29  C   UNL A   1      35.460  34.516  28.949  1.00  0.00     0.014 A 
ATOM     30  C   UNL A   1      34.869  33.079  31.276  1.00  0.00     0.010 A 
ATOM     31  C   UNL A   1      36.456  33.787  29.582  1.00  0.00     0.010 A 
ATOM     32  C   UNL A   1      36.168  33.050  30.743  1.00  0.00    -0.014 A 
BRANCH  32  33
ATOM     33  C   UNL A   1      37.250  32.242  31.355  1.00  0.00     0.031 A 
ATOM     34  C   UNL A   1      37.748  32.592  32.727  1.00  0.00     0.074 A 
ATOM     35  C   UNL A   1      37.872  31.293  30.630  1.00  0.00     0.049 A 
ATOM     36  N   UNL A   1      38.799  32.146  33.366  1.00  0.00    -0.248 NA
ATOM     37  C   UNL A   1      36.987  33.616  33.458  1.00  0.00     0.031 C 
ATOM     38  C   UNL A   1      37.525  30.912  29.260  1.00  0.00     0.029 A 
ATOM     39  N   UNL A   1      38.949  30.500  30.935  1.00  0.00    -0.354 N 
ATOM     40  C   UNL A   1      38.852  32.870  34.549  1.00  0.00     0.074 A 
ATOM     41  C   UNL A   1      37.748  33.805  34.524  1.00  0.00     0.031 C 
ATOM     42  C   UNL A   1      38.371  29.955  28.844  1.00  0.00     0.029 A 
ATOM     43  C   UNL A   1      39.336  29.681  29.903  1.00  0.00     0.049 A 
ATOM     44  H   UNL A   1      39.400  30.517  31.810  1.00  0.00     0.167 HD
ATOM     45  C   UNL A   1      39.735  32.754  35.569  1.00  0.00     0.037 A 
ATOM     46  C   UNL A   1      40.365  28.817  29.817  1.00  0.00     0.037 A 
ATOM     47  C   UNL A   1      40.794  31.783  35.615  1.00  0.00     0.049 A 
ATOM     48  C   UNL A   1      41.285  28.648  30.993  1.00  0.00     0.074 A 
ATOM     49  C   UNL A   1      41.680  31.518  36.643  1.00  0.00     0.029 A 
ATOM     50  N   UNL A   1      41.103  30.908  34.583  1.00  0.00    -0.354 N 
ATOM     51  N   UNL A   1      41.289  29.292  32.135  1.00  0.00    -0.248 NA
ATOM     52  C   UNL A   1      42.338  27.629  30.874  1.00  0.00     0.031 C 
ATOM     53  C   UNL A   1      42.543  30.498  36.225  1.00  0.00     0.029 A 
ATOM     54  C   UNL A   1      42.172  30.107  34.948  1.00  0.00     0.049 A 
ATOM     55  H   UNL A   1      40.632  30.863  33.720  1.00  0.00     0.167 HD
ATOM     56  C   UNL A   1      42.329  28.748  32.875  1.00  0.00     0.074 A 
ATOM     57  C   UNL A   1      42.929  27.713  32.057  1.00  0.00     0.031 C 
ATOM     58  C   UNL A   1      42.750  29.078  34.121  1.00  0.00     0.037 A 
BRANCH  45  59
ATOM     59  C   UNL A   1      39.586  33.710  36.714  1.00  0.00     0.064 A 
ATOM     60  C   UNL A   1      38.812  33.393  37.841  1.00  0.00     0.173 A 
ATOM     61  C   UNL A   1      40.217  34.961  36.681  1.00  0.00     0.173 A 
ATOM     62  F   UNL A   1      38.173  32.214  37.912  1.00  0.00    -0.203 F 
ATOM     63  C   UNL A   1      38.644  34.309  38.875  1.00  0.00     0.198 A 
ATOM     64  C   UNL A   1      40.070  35.865  37.730  1.00  0.00     0.198 A 
ATOM     65  F   UNL A   1      40.969  35.312  35.626  1.00  0.00    -0.203 F 
ATOM     66  F   UNL A   1      37.850  34.010  39.912  1.00  0.00    -0.200 F 
ATOM     67  C   UNL A   1      39.276  35.543  38.820  1.00  0.00     0.200 A 
ATOM     68  F   UNL A   1      40.686  37.054  37.679  1.00  0.00    -0.200 F 
ATOM     69  F   UNL A   1      39.108  36.428  39.813  1.00  0.00    -0.200 F 
ENDBRANCH  45  59
BRANCH  46  70
ATOM     70  C   UNL A   1      40.555  28.027  28.576  1.00  0.00     0.064 A 
ATOM     71  C   UNL A   1      39.941  26.777  28.423  1.00  0.00     0.173 A 
ATOM     72  C   UNL A   1      41.320  28.518  27.509  1.00  0.00     0.173 A 
ATOM     73  F   UNL A   1      39.215  26.262  29.425  1.00  0.00    -0.203 F 
ATOM     74  C   UNL A   1      40.092  26.043  27.249  1.00  0.00     0.198 A 
ATOM     75  C   UNL A   1      41.454  27.791  26.328  1.00  0.00     0.198 A 
ATOM     76  F   UNL A   1      41.919  29.714  27.607  1.00  0.00    -0.203 F 
ATOM     77  F   UNL A   1      39.514  24.838  27.137  1.00  0.00    -0.200 F 
ATOM     78  C   UNL A   1      40.841  26.553  26.200  1.00  0.00     0.200 A 
ATOM     79  F   UNL A   1      42.168  28.292  25.312  1.00  0.00    -0.200 F 
ATOM     80  F   UNL A   1      40.977  25.851  25.067  1.00  0.00    -0.200 F 
ENDBRANCH  46  70
BRANCH  58  81
ATOM     81  C   UNL A   1      43.897  28.299  34.686  1.00  0.00     0.064 A 
ATOM     82  C   UNL A   1      45.220  28.744  34.553  1.00  0.00     0.173 A 
ATOM     83  C   UNL A   1      43.665  27.121  35.410  1.00  0.00     0.173 A 
ATOM     84  F   UNL A   1      45.490  29.857  33.855  1.00  0.00    -0.203 F 
ATOM     85  C   UNL A   1      46.273  28.030  35.117  1.00  0.00     0.198 A 
ATOM     86  C   UNL A   1      44.718  26.420  35.991  1.00  0.00     0.198 A 
ATOM     87  F   UNL A   1      42.416  26.658  35.566  1.00  0.00    -0.203 F 
ATOM     88  F   UNL A   1      47.533  28.456  34.954  1.00  0.00    -0.200 F 
ATOM     89  C   UNL A   1      46.021  26.873  35.842  1.00  0.00     0.200 A 
ATOM     90  F   UNL A   1      44.473  25.308  36.696  1.00  0.00    -0.200 F 
ATOM     91  F   UNL A   1      47.035  26.191  36.391  1.00  0.00    -0.200 F 
ENDBRANCH  58  81
ENDBRANCH  32  33
ENDBRANCH  24  27
ENDBRANCH  22  23
ENDBRANCH   1  22
TORSDOF 12
ENDMDL
