MODEL 1
REMARK VINA RESULT:     -12.4      0.000      0.000
REMARK SMILES Cc1nn([C@H]2CCS(=O)(=O)C2)c(C)c1[C@@H]([NH3+])C(=O)NCCCCNC(=O)c1ccc(-c2c3nc(c(-c4c(F)c(F)c(F)c(F)c4F)c4ccc([nH]4)c(-c4c(F)c(F)c(F)c(F)c4F)c4nc(c(-c5c(F)c(F)c(F)c(F)c5F)c5ccc2[nH]5)C=C4)C=C3)cc1
REMARK SMILES IDX 21 1 20 2 19 3 17 4 18 5 15 7 14 8 1 9 2 10 3 11 4 12 12 13
REMARK SMILES IDX 13 14 5 15 6 16 11 17 7 18 8 19 9 20 10 21 16 22 22 26 23 27
REMARK SMILES IDX 24 28 25 29 26 31 27 32 28 33 89 34 29 35 88 36 30 37 31 38
REMARK SMILES IDX 32 39 82 40 33 41 87 42 81 43 83 44 34 45 86 46 80 47 79 48
REMARK SMILES IDX 35 50 67 51 47 52 66 53 48 54 51 55 65 56 84 57 49 58 50 59
REMARK SMILES IDX 64 61 85 62 52 63 36 64 37 65 45 66 38 67 39 68 43 69 46 70
REMARK SMILES IDX 40 71 41 72 44 73 42 74 68 75 69 76 77 77 70 78 71 79 75 80
REMARK SMILES IDX 78 81 72 82 73 83 76 84 74 85 53 86 54 87 62 88 55 89 56 90
REMARK SMILES IDX 60 91 63 92 57 93 58 94 61 95 59 96
REMARK H PARENT 19 6 16 23 16 24 16 25 24 30 83 49 51 60
REMARK Flexibility Score: inf
ROOT
ATOM      1  C   UNL A   1      36.974  21.155  24.884  1.00  0.00     0.023 C 
ENDROOT
BRANCH   1   2
ATOM      2  C   UNL A   1      35.600  21.022  25.545  1.00  0.00     0.116 C 
BRANCH   2   3
ATOM      3  N   UNL A   1      34.555  20.701  24.596  1.00  0.00    -0.351 N 
ATOM      4  C   UNL A   1      33.261  21.147  24.524  1.00  0.00     0.283 C 
ATOM      5  O   UNL A   1      32.594  20.738  23.563  1.00  0.00    -0.268 OA
ATOM      6  H   UNL A   1      34.814  20.062  23.893  1.00  0.00     0.163 HD
BRANCH   4   7
ATOM      7  C   UNL A   1      32.628  22.152  25.534  1.00  0.00     0.306 C 
BRANCH   7   8
ATOM      8  C   UNL A   1      32.702  23.589  25.084  1.00  0.00     0.063 A 
ATOM      9  C   UNL A   1      30.699  23.579  23.381  1.00  0.00     0.069 C 
ATOM     10  C   UNL A   1      31.760  24.213  24.210  1.00  0.00     0.069 A 
ATOM     11  N   UNL A   1      31.971  25.529  24.105  1.00  0.00    -0.177 NA
ATOM     12  N   UNL A   1      33.053  25.758  24.871  1.00  0.00    -0.265 N 
ATOM     13  C   UNL A   1      33.677  24.580  25.233  1.00  0.00     0.046 A 
ATOM     14  C   UNL A   1      35.100  24.496  25.657  1.00  0.00     0.067 C 
BRANCH  12  15
ATOM     15  C   UNL A   1      33.393  27.155  25.155  1.00  0.00     0.123 C 
ATOM     16  C   UNL A   1      32.624  28.135  24.231  1.00  0.00     0.044 C 
ATOM     17  C   UNL A   1      33.048  27.618  26.560  1.00  0.00     0.164 C 
ATOM     18  C   UNL A   1      32.821  29.546  24.765  1.00  0.00     0.139 C 
ATOM     19  S   UNL A   1      32.988  29.378  26.524  1.00  0.00     0.152 S 
ATOM     20  O   UNL A   1      34.274  29.882  26.928  1.00  0.00    -0.229 OA
ATOM     21  O   UNL A   1      31.737  29.778  27.155  1.00  0.00    -0.229 OA
ENDBRANCH  12  15
ENDBRANCH   7   8
BRANCH   7  22
ATOM     22  N   UNL A   1      31.269  21.741  25.916  1.00  0.00    -0.343 N 
ATOM     23  H   UNL A   1      31.321  20.928  26.531  1.00  0.00     0.345 HD
ATOM     24  H   UNL A   1      30.738  21.501  25.079  1.00  0.00     0.345 HD
ATOM     25  H   UNL A   1      30.806  22.508  26.405  1.00  0.00     0.345 HD
ENDBRANCH   7  22
ENDBRANCH   4   7
ENDBRANCH   2   3
ENDBRANCH   1   2
BRANCH   1  26
ATOM     26  C   UNL A   1      37.941  19.968  24.968  1.00  0.00     0.023 C 
BRANCH  26  27
ATOM     27  C   UNL A   1      39.236  20.293  25.710  1.00  0.00     0.116 C 
BRANCH  27  28
ATOM     28  N   UNL A   1      40.202  19.182  25.787  1.00  0.00    -0.352 N 
ATOM     29  C   UNL A   1      41.580  19.282  25.941  1.00  0.00     0.251 C 
ATOM     30  H   UNL A   1      39.831  18.272  25.724  1.00  0.00     0.163 HD
ATOM     31  O   UNL A   1      42.348  18.363  25.688  1.00  0.00    -0.269 OA
BRANCH  29  32
ATOM     32  C   UNL A   1      42.110  20.549  26.460  1.00  0.00     0.039 A 
ATOM     33  C   UNL A   1      42.592  21.567  25.627  1.00  0.00     0.014 A 
ATOM     34  C   UNL A   1      41.957  20.732  27.826  1.00  0.00     0.014 A 
ATOM     35  C   UNL A   1      42.825  22.824  26.179  1.00  0.00     0.010 A 
ATOM     36  C   UNL A   1      41.970  22.006  28.309  1.00  0.00     0.010 A 
ATOM     37  C   UNL A   1      42.484  23.035  27.520  1.00  0.00    -0.014 A 
BRANCH  37  38
ATOM     38  C   UNL A   1      42.542  24.339  28.164  1.00  0.00     0.031 A 
ATOM     39  C   UNL A   1      41.307  25.163  28.034  1.00  0.00     0.074 A 
ATOM     40  C   UNL A   1      43.501  24.566  29.091  1.00  0.00     0.049 A 
ATOM     41  N   UNL A   1      41.187  26.337  27.509  1.00  0.00    -0.248 NA
ATOM     42  C   UNL A   1      40.018  24.561  28.421  1.00  0.00     0.031 C 
ATOM     43  C   UNL A   1      44.567  23.651  29.528  1.00  0.00     0.029 A 
ATOM     44  N   UNL A   1      43.624  25.596  29.967  1.00  0.00    -0.354 N 
ATOM     45  C   UNL A   1      39.854  26.709  27.691  1.00  0.00     0.074 A 
ATOM     46  C   UNL A   1      39.154  25.505  28.045  1.00  0.00     0.031 C 
ATOM     47  C   UNL A   1      45.048  24.047  30.724  1.00  0.00     0.029 A 
ATOM     48  C   UNL A   1      44.454  25.325  31.055  1.00  0.00     0.049 A 
ATOM     49  H   UNL A   1      43.167  26.460  29.846  1.00  0.00     0.167 HD
ATOM     50  C   UNL A   1      39.504  28.022  27.808  1.00  0.00     0.037 A 
ATOM     51  C   UNL A   1      44.578  26.089  32.170  1.00  0.00     0.037 A 
ATOM     52  C   UNL A   1      40.582  28.872  27.359  1.00  0.00     0.049 A 
ATOM     53  C   UNL A   1      44.059  27.440  31.822  1.00  0.00     0.074 A 
ATOM     54  C   UNL A   1      41.273  29.018  26.170  1.00  0.00     0.029 A 
ATOM     55  N   UNL A   1      41.370  29.466  28.317  1.00  0.00    -0.354 N 
ATOM     56  N   UNL A   1      44.631  28.224  30.947  1.00  0.00    -0.248 NA
ATOM     57  C   UNL A   1      42.643  27.689  32.053  1.00  0.00     0.031 C 
ATOM     58  C   UNL A   1      42.632  29.213  26.560  1.00  0.00     0.029 A 
ATOM     59  C   UNL A   1      42.676  29.274  27.953  1.00  0.00     0.049 A 
ATOM     60  H   UNL A   1      41.052  29.942  29.118  1.00  0.00     0.167 HD
ATOM     61  C   UNL A   1      43.582  28.758  30.212  1.00  0.00     0.074 A 
ATOM     62  C   UNL A   1      42.378  28.439  30.979  1.00  0.00     0.031 C 
ATOM     63  C   UNL A   1      43.750  29.126  28.906  1.00  0.00     0.037 A 
BRANCH  50  64
ATOM     64  C   UNL A   1      38.395  28.561  28.694  1.00  0.00     0.064 A 
ATOM     65  C   UNL A   1      37.621  29.643  28.216  1.00  0.00     0.173 A 
ATOM     66  C   UNL A   1      38.265  28.298  30.075  1.00  0.00     0.173 A 
ATOM     67  F   UNL A   1      37.641  29.978  26.917  1.00  0.00    -0.203 F 
ATOM     68  C   UNL A   1      36.894  30.472  29.074  1.00  0.00     0.198 A 
ATOM     69  C   UNL A   1      37.496  29.099  30.920  1.00  0.00     0.198 A 
ATOM     70  F   UNL A   1      38.950  27.333  30.695  1.00  0.00    -0.203 F 
ATOM     71  F   UNL A   1      36.304  31.574  28.590  1.00  0.00    -0.200 F 
ATOM     72  C   UNL A   1      36.846  30.209  30.429  1.00  0.00     0.200 A 
ATOM     73  F   UNL A   1      37.466  28.828  32.232  1.00  0.00    -0.200 F 
ATOM     74  F   UNL A   1      36.217  31.044  31.265  1.00  0.00    -0.200 F 
ENDBRANCH  50  64
BRANCH  51  75
ATOM     75  C   UNL A   1      44.781  25.631  33.568  1.00  0.00     0.064 A 
ATOM     76  C   UNL A   1      45.533  26.389  34.481  1.00  0.00     0.173 A 
ATOM     77  C   UNL A   1      44.026  24.572  34.114  1.00  0.00     0.173 A 
ATOM     78  F   UNL A   1      46.243  27.443  34.055  1.00  0.00    -0.203 F 
ATOM     79  C   UNL A   1      45.513  26.118  35.855  1.00  0.00     0.198 A 
ATOM     80  C   UNL A   1      44.013  24.298  35.482  1.00  0.00     0.198 A 
ATOM     81  F   UNL A   1      43.210  23.838  33.343  1.00  0.00    -0.203 F 
ATOM     82  F   UNL A   1      46.197  26.900  36.702  1.00  0.00    -0.200 F 
ATOM     83  C   UNL A   1      44.746  25.078  36.356  1.00  0.00     0.200 A 
ATOM     84  F   UNL A   1      43.237  23.311  35.956  1.00  0.00    -0.200 F 
ATOM     85  F   UNL A   1      44.681  24.855  37.675  1.00  0.00    -0.200 F 
ENDBRANCH  51  75
BRANCH  63  86
ATOM     86  C   UNL A   1      45.148  29.157  28.349  1.00  0.00     0.064 A 
ATOM     87  C   UNL A   1      45.757  28.079  27.682  1.00  0.00     0.173 A 
ATOM     88  C   UNL A   1      45.825  30.382  28.333  1.00  0.00     0.173 A 
ATOM     89  F   UNL A   1      45.133  26.903  27.558  1.00  0.00    -0.203 F 
ATOM     90  C   UNL A   1      47.001  28.213  27.066  1.00  0.00     0.198 A 
ATOM     91  C   UNL A   1      47.050  30.525  27.686  1.00  0.00     0.198 A 
ATOM     92  F   UNL A   1      45.267  31.463  28.900  1.00  0.00    -0.203 F 
ATOM     93  F   UNL A   1      47.558  27.164  26.441  1.00  0.00    -0.200 F 
ATOM     94  C   UNL A   1      47.641  29.439  27.061  1.00  0.00     0.200 A 
ATOM     95  F   UNL A   1      47.640  31.726  27.639  1.00  0.00    -0.200 F 
ATOM     96  F   UNL A   1      48.815  29.582  26.431  1.00  0.00    -0.200 F 
ENDBRANCH  63  86
ENDBRANCH  37  38
ENDBRANCH  29  32
ENDBRANCH  27  28
ENDBRANCH  26  27
ENDBRANCH   1  26
TORSDOF 14
ENDMDL
MODEL 2
REMARK VINA RESULT:     -12.4      3.232      7.961
REMARK SMILES Cc1nn([C@H]2CCS(=O)(=O)C2)c(C)c1[C@@H]([NH3+])C(=O)NCCCCNC(=O)c1ccc(-c2c3nc(c(-c4c(F)c(F)c(F)c(F)c4F)c4ccc([nH]4)c(-c4c(F)c(F)c(F)c(F)c4F)c4nc(c(-c5c(F)c(F)c(F)c(F)c5F)c5ccc2[nH]5)C=C4)C=C3)cc1
REMARK SMILES IDX 21 1 20 2 19 3 17 4 18 5 15 7 14 8 1 9 2 10 3 11 4 12 12 13
REMARK SMILES IDX 13 14 5 15 6 16 11 17 7 18 8 19 9 20 10 21 16 22 22 26 23 27
REMARK SMILES IDX 24 28 25 29 26 31 27 32 28 33 89 34 29 35 88 36 30 37 31 38
REMARK SMILES IDX 32 39 82 40 33 41 87 42 81 43 83 44 34 45 86 46 80 47 79 48
REMARK SMILES IDX 35 50 67 51 47 52 66 53 48 54 51 55 65 56 84 57 49 58 50 59
REMARK SMILES IDX 64 61 85 62 52 63 36 64 37 65 45 66 38 67 39 68 43 69 46 70
REMARK SMILES IDX 40 71 41 72 44 73 42 74 68 75 69 76 77 77 70 78 71 79 75 80
REMARK SMILES IDX 78 81 72 82 73 83 76 84 74 85 53 86 54 87 62 88 55 89 56 90
REMARK SMILES IDX 60 91 63 92 57 93 58 94 61 95 59 96
REMARK H PARENT 19 6 16 23 16 24 16 25 24 30 83 49 51 60
REMARK Flexibility Score: inf
ROOT
ATOM      1  C   UNL A   1      32.436  29.495  27.014  1.00  0.00     0.023 C 
ENDROOT
BRANCH   1   2
ATOM      2  C   UNL A   1      32.451  30.231  25.671  1.00  0.00     0.116 C 
BRANCH   2   3
ATOM      3  N   UNL A   1      31.120  30.519  25.180  1.00  0.00    -0.351 N 
ATOM      4  C   UNL A   1      30.520  30.166  24.000  1.00  0.00     0.283 C 
ATOM      5  O   UNL A   1      29.338  30.511  23.862  1.00  0.00    -0.268 OA
ATOM      6  H   UNL A   1      30.559  31.051  25.789  1.00  0.00     0.163 HD
BRANCH   4   7
ATOM      7  C   UNL A   1      31.218  29.332  22.882  1.00  0.00     0.306 C 
BRANCH   7   8
ATOM      8  C   UNL A   1      31.252  27.852  23.163  1.00  0.00     0.063 A 
ATOM      9  C   UNL A   1      33.576  27.290  22.068  1.00  0.00     0.069 C 
ATOM     10  C   UNL A   1      32.365  27.000  22.884  1.00  0.00     0.069 A 
ATOM     11  N   UNL A   1      32.190  25.771  23.379  1.00  0.00    -0.177 NA
ATOM     12  N   UNL A   1      30.970  25.806  23.944  1.00  0.00    -0.265 N 
ATOM     13  C   UNL A   1      30.274  26.943  23.580  1.00  0.00     0.046 A 
ATOM     14  C   UNL A   1      28.794  27.060  23.639  1.00  0.00     0.067 C 
BRANCH  12  15
ATOM     15  C   UNL A   1      30.586  24.671  24.788  1.00  0.00     0.123 C 
ATOM     16  C   UNL A   1      31.293  23.362  24.350  1.00  0.00     0.044 C 
ATOM     17  C   UNL A   1      30.950  24.821  26.255  1.00  0.00     0.164 C 
ATOM     18  C   UNL A   1      31.057  22.312  25.426  1.00  0.00     0.139 C 
ATOM     19  S   UNL A   1      30.944  23.205  26.956  1.00  0.00     0.152 S 
ATOM     20  O   UNL A   1      29.651  22.972  27.544  1.00  0.00    -0.229 OA
ATOM     21  O   UNL A   1      32.195  23.048  27.686  1.00  0.00    -0.229 OA
ENDBRANCH  12  15
ENDBRANCH   7   8
BRANCH   7  22
ATOM     22  N   UNL A   1      30.668  29.652  21.556  1.00  0.00    -0.343 N 
ATOM     23  H   UNL A   1      30.540  28.790  21.025  1.00  0.00     0.345 HD
ATOM     24  H   UNL A   1      31.313  30.265  21.058  1.00  0.00     0.345 HD
ATOM     25  H   UNL A   1      29.768  30.120  21.665  1.00  0.00     0.345 HD
ENDBRANCH   7  22
ENDBRANCH   4   7
ENDBRANCH   2   3
ENDBRANCH   1   2
BRANCH   1  26
ATOM     26  C   UNL A   1      33.748  28.890  27.528  1.00  0.00     0.023 C 
BRANCH  26  27
ATOM     27  C   UNL A   1      34.899  29.893  27.577  1.00  0.00     0.116 C 
BRANCH  27  28
ATOM     28  N   UNL A   1      34.596  31.150  28.286  1.00  0.00    -0.352 N 
ATOM     29  C   UNL A   1      35.130  31.576  29.497  1.00  0.00     0.251 C 
ATOM     30  H   UNL A   1      33.947  31.752  27.855  1.00  0.00     0.163 HD
ATOM     31  O   UNL A   1      34.621  32.456  30.178  1.00  0.00    -0.269 OA
BRANCH  29  32
ATOM     32  C   UNL A   1      36.379  30.944  29.942  1.00  0.00     0.039 A 
ATOM     33  C   UNL A   1      36.485  29.571  30.194  1.00  0.00     0.014 A 
ATOM     34  C   UNL A   1      37.487  31.777  29.946  1.00  0.00     0.014 A 
ATOM     35  C   UNL A   1      37.755  29.020  30.352  1.00  0.00     0.010 A 
ATOM     36  C   UNL A   1      38.721  31.204  29.877  1.00  0.00     0.010 A 
ATOM     37  C   UNL A   1      38.866  29.848  30.165  1.00  0.00    -0.014 A 
BRANCH  37  38
ATOM     38  C   UNL A   1      40.237  29.356  30.157  1.00  0.00     0.031 A 
ATOM     39  C   UNL A   1      40.854  29.184  31.501  1.00  0.00     0.074 A 
ATOM     40  C   UNL A   1      40.713  28.772  29.033  1.00  0.00     0.049 A 
ATOM     41  N   UNL A   1      41.924  29.743  31.963  1.00  0.00    -0.248 NA
ATOM     42  C   UNL A   1      40.130  28.388  32.510  1.00  0.00     0.031 C 
ATOM     43  C   UNL A   1      40.021  28.595  27.746  1.00  0.00     0.029 A 
ATOM     44  N   UNL A   1      41.853  28.056  28.852  1.00  0.00    -0.354 N 
ATOM     45  C   UNL A   1      42.123  29.209  33.236  1.00  0.00     0.074 A 
ATOM     46  C   UNL A   1      40.887  28.569  33.593  1.00  0.00     0.031 C 
ATOM     47  C   UNL A   1      40.630  27.629  27.029  1.00  0.00     0.029 A 
ATOM     48  C   UNL A   1      41.842  27.242  27.719  1.00  0.00     0.049 A 
ATOM     49  H   UNL A   1      42.620  28.108  29.465  1.00  0.00     0.167 HD
ATOM     50  C   UNL A   1      43.377  29.100  33.761  1.00  0.00     0.037 A 
ATOM     51  C   UNL A   1      42.750  26.278  27.425  1.00  0.00     0.037 A 
ATOM     52  C   UNL A   1      44.308  29.913  33.012  1.00  0.00     0.049 A 
ATOM     53  C   UNL A   1      43.959  26.565  28.245  1.00  0.00     0.074 A 
ATOM     54  C   UNL A   1      44.398  31.259  32.713  1.00  0.00     0.029 A 
ATOM     55  N   UNL A   1      45.124  29.279  32.105  1.00  0.00    -0.354 N 
ATOM     56  N   UNL A   1      44.699  27.630  28.080  1.00  0.00    -0.248 NA
ATOM     57  C   UNL A   1      44.032  25.950  29.562  1.00  0.00     0.031 C 
ATOM     58  C   UNL A   1      44.832  31.302  31.354  1.00  0.00     0.029 A 
ATOM     59  C   UNL A   1      45.074  29.993  30.937  1.00  0.00     0.049 A 
ATOM     60  H   UNL A   1      45.648  28.461  32.265  1.00  0.00     0.167 HD
ATOM     61  C   UNL A   1      44.982  28.066  29.367  1.00  0.00     0.074 A 
ATOM     62  C   UNL A   1      44.595  26.956  30.239  1.00  0.00     0.031 C 
ATOM     63  C   UNL A   1      45.202  29.389  29.633  1.00  0.00     0.037 A 
BRANCH  50  64
ATOM     64  C   UNL A   1      43.862  27.974  34.657  1.00  0.00     0.064 A 
ATOM     65  C   UNL A   1      44.561  28.311  35.838  1.00  0.00     0.173 A 
ATOM     66  C   UNL A   1      43.960  26.621  34.271  1.00  0.00     0.173 A 
ATOM     67  F   UNL A   1      44.528  29.563  36.321  1.00  0.00    -0.203 F 
ATOM     68  C   UNL A   1      45.398  27.403  36.490  1.00  0.00     0.198 A 
ATOM     69  C   UNL A   1      44.757  25.703  34.957  1.00  0.00     0.198 A 
ATOM     70  F   UNL A   1      43.386  26.141  33.163  1.00  0.00    -0.203 F 
ATOM     71  F   UNL A   1      46.158  27.816  37.514  1.00  0.00    -0.200 F 
ATOM     72  C   UNL A   1      45.508  26.102  36.039  1.00  0.00     0.200 A 
ATOM     73  F   UNL A   1      44.852  24.446  34.498  1.00  0.00    -0.200 F 
ATOM     74  F   UNL A   1      46.368  25.250  36.611  1.00  0.00    -0.200 F 
ENDBRANCH  50  64
BRANCH  51  75
ATOM     75  C   UNL A   1      42.506  24.969  26.767  1.00  0.00     0.064 A 
ATOM     76  C   UNL A   1      43.144  24.629  25.563  1.00  0.00     0.173 A 
ATOM     77  C   UNL A   1      41.847  23.918  27.439  1.00  0.00     0.173 A 
ATOM     78  F   UNL A   1      43.834  25.555  24.883  1.00  0.00    -0.203 F 
ATOM     79  C   UNL A   1      43.139  23.316  25.072  1.00  0.00     0.198 A 
ATOM     80  C   UNL A   1      41.837  22.612  26.946  1.00  0.00     0.198 A 
ATOM     81  F   UNL A   1      41.277  24.115  28.636  1.00  0.00    -0.203 F 
ATOM     82  F   UNL A   1      43.809  23.019  23.949  1.00  0.00    -0.200 F 
ATOM     83  C   UNL A   1      42.494  22.308  25.769  1.00  0.00     0.200 A 
ATOM     84  F   UNL A   1      41.238  21.640  27.649  1.00  0.00    -0.200 F 
ATOM     85  F   UNL A   1      42.539  21.042  25.331  1.00  0.00    -0.200 F 
ENDBRANCH  51  75
BRANCH  63  86
ATOM     86  C   UNL A   1      45.360  30.332  28.471  1.00  0.00     0.064 A 
ATOM     87  C   UNL A   1      44.308  31.077  27.909  1.00  0.00     0.173 A 
ATOM     88  C   UNL A   1      46.655  30.624  28.029  1.00  0.00     0.173 A 
ATOM     89  F   UNL A   1      43.052  30.936  28.347  1.00  0.00    -0.203 F 
ATOM     90  C   UNL A   1      44.541  32.038  26.926  1.00  0.00     0.198 A 
ATOM     91  C   UNL A   1      46.891  31.609  27.074  1.00  0.00     0.198 A 
ATOM     92  F   UNL A   1      47.707  29.990  28.571  1.00  0.00    -0.203 F 
ATOM     93  F   UNL A   1      43.514  32.730  26.406  1.00  0.00    -0.200 F 
ATOM     94  C   UNL A   1      45.833  32.309  26.516  1.00  0.00     0.200 A 
ATOM     95  F   UNL A   1      48.148  31.904  26.720  1.00  0.00    -0.200 F 
ATOM     96  F   UNL A   1      46.064  33.263  25.604  1.00  0.00    -0.200 F 
ENDBRANCH  63  86
ENDBRANCH  37  38
ENDBRANCH  29  32
ENDBRANCH  27  28
ENDBRANCH  26  27
ENDBRANCH   1  26
TORSDOF 14
ENDMDL
MODEL 3
REMARK VINA RESULT:     -12.3      3.026      7.605
REMARK SMILES Cc1nn([C@H]2CCS(=O)(=O)C2)c(C)c1[C@@H]([NH3+])C(=O)NCCCCNC(=O)c1ccc(-c2c3nc(c(-c4c(F)c(F)c(F)c(F)c4F)c4ccc([nH]4)c(-c4c(F)c(F)c(F)c(F)c4F)c4nc(c(-c5c(F)c(F)c(F)c(F)c5F)c5ccc2[nH]5)C=C4)C=C3)cc1
REMARK SMILES IDX 21 1 20 2 19 3 17 4 18 5 15 7 14 8 1 9 2 10 3 11 4 12 12 13
REMARK SMILES IDX 13 14 5 15 6 16 11 17 7 18 8 19 9 20 10 21 16 22 22 26 23 27
REMARK SMILES IDX 24 28 25 29 26 31 27 32 28 33 89 34 29 35 88 36 30 37 31 38
REMARK SMILES IDX 32 39 82 40 33 41 87 42 81 43 83 44 34 45 86 46 80 47 79 48
REMARK SMILES IDX 35 50 67 51 47 52 66 53 48 54 51 55 65 56 84 57 49 58 50 59
REMARK SMILES IDX 64 61 85 62 52 63 36 64 37 65 45 66 38 67 39 68 43 69 46 70
REMARK SMILES IDX 40 71 41 72 44 73 42 74 68 75 69 76 77 77 70 78 71 79 75 80
REMARK SMILES IDX 78 81 72 82 73 83 76 84 74 85 53 86 54 87 62 88 55 89 56 90
REMARK SMILES IDX 60 91 63 92 57 93 58 94 61 95 59 96
REMARK H PARENT 19 6 16 23 16 24 16 25 24 30 83 49 51 60
REMARK Flexibility Score: inf
ROOT
ATOM      1  C   UNL A   1      37.215  22.375  24.808  1.00  0.00     0.023 C 
ENDROOT
BRANCH   1   2
ATOM      2  C   UNL A   1      36.445  21.440  25.744  1.00  0.00     0.116 C 
BRANCH   2   3
ATOM      3  N   UNL A   1      36.021  20.222  25.086  1.00  0.00    -0.351 N 
ATOM      4  C   UNL A   1      34.806  19.590  25.098  1.00  0.00     0.283 C 
ATOM      5  O   UNL A   1      34.709  18.574  24.394  1.00  0.00    -0.268 OA
ATOM      6  H   UNL A   1      36.715  19.778  24.546  1.00  0.00     0.163 HD
BRANCH   4   7
ATOM      7  C   UNL A   1      33.564  20.103  25.890  1.00  0.00     0.306 C 
BRANCH   7   8
ATOM      8  C   UNL A   1      32.918  21.320  25.279  1.00  0.00     0.063 A 
ATOM      9  C   UNL A   1      32.433  22.665  27.485  1.00  0.00     0.069 C 
ATOM     10  C   UNL A   1      32.529  22.484  26.011  1.00  0.00     0.069 A 
ATOM     11  N   UNL A   1      32.132  23.472  25.204  1.00  0.00    -0.177 NA
ATOM     12  N   UNL A   1      32.228  22.956  23.966  1.00  0.00    -0.265 N 
ATOM     13  C   UNL A   1      32.417  21.587  24.001  1.00  0.00     0.046 A 
ATOM     14  C   UNL A   1      32.102  20.680  22.866  1.00  0.00     0.067 C 
BRANCH  12  15
ATOM     15  C   UNL A   1      32.089  23.880  22.838  1.00  0.00     0.123 C 
ATOM     16  C   UNL A   1      31.244  25.125  23.213  1.00  0.00     0.044 C 
ATOM     17  C   UNL A   1      33.398  24.457  22.327  1.00  0.00     0.164 C 
ATOM     18  C   UNL A   1      31.377  26.145  22.092  1.00  0.00     0.139 C 
ATOM     19  S   UNL A   1      33.001  25.911  21.416  1.00  0.00     0.152 S 
ATOM     20  O   UNL A   1      32.887  25.557  20.026  1.00  0.00    -0.229 OA
ATOM     21  O   UNL A   1      33.870  26.974  21.902  1.00  0.00    -0.229 OA
ENDBRANCH  12  15
ENDBRANCH   7   8
BRANCH   7  22
ATOM     22  N   UNL A   1      32.608  19.015  26.148  1.00  0.00    -0.343 N 
ATOM     23  H   UNL A   1      32.926  18.166  25.679  1.00  0.00     0.345 HD
ATOM     24  H   UNL A   1      31.690  19.277  25.791  1.00  0.00     0.345 HD
ATOM     25  H   UNL A   1      32.548  18.847  27.152  1.00  0.00     0.345 HD
ENDBRANCH   7  22
ENDBRANCH   4   7
ENDBRANCH   2   3
ENDBRANCH   1   2
BRANCH   1  26
ATOM     26  C   UNL A   1      37.796  23.670  25.390  1.00  0.00     0.023 C 
BRANCH  26  27
ATOM     27  C   UNL A   1      38.692  23.439  26.604  1.00  0.00     0.116 C 
BRANCH  27  28
ATOM     28  N   UNL A   1      39.888  22.616  26.345  1.00  0.00    -0.352 N 
ATOM     29  C   UNL A   1      41.186  23.069  26.137  1.00  0.00     0.251 C 
ATOM     30  H   UNL A   1      39.752  21.641  26.317  1.00  0.00     0.163 HD
ATOM     31  O   UNL A   1      42.059  22.381  25.626  1.00  0.00    -0.269 OA
BRANCH  29  32
ATOM     32  C   UNL A   1      41.504  24.429  26.587  1.00  0.00     0.039 A 
ATOM     33  C   UNL A   1      41.040  25.574  25.928  1.00  0.00     0.014 A 
ATOM     34  C   UNL A   1      42.170  24.504  27.802  1.00  0.00     0.014 A 
ATOM     35  C   UNL A   1      41.164  26.807  26.565  1.00  0.00     0.010 A 
ATOM     36  C   UNL A   1      42.086  25.665  28.509  1.00  0.00     0.010 A 
ATOM     37  C   UNL A   1      41.668  26.831  27.870  1.00  0.00    -0.014 A 
BRANCH  37  38
ATOM     38  C   UNL A   1      41.706  28.034  28.689  1.00  0.00     0.031 A 
ATOM     39  C   UNL A   1      42.779  29.006  28.335  1.00  0.00     0.074 A 
ATOM     40  C   UNL A   1      40.618  28.354  29.428  1.00  0.00     0.049 A 
ATOM     41  N   UNL A   1      43.730  29.449  29.089  1.00  0.00    -0.248 NA
ATOM     42  C   UNL A   1      42.889  29.450  26.933  1.00  0.00     0.031 C 
ATOM     43  C   UNL A   1      39.362  27.599  29.557  1.00  0.00     0.029 A 
ATOM     44  N   UNL A   1      40.334  29.508  30.084  1.00  0.00    -0.354 N 
ATOM     45  C   UNL A   1      44.427  30.385  28.323  1.00  0.00     0.074 A 
ATOM     46  C   UNL A   1      44.009  30.174  26.965  1.00  0.00     0.031 C 
ATOM     47  C   UNL A   1      38.388  28.409  30.019  1.00  0.00     0.029 A 
ATOM     48  C   UNL A   1      38.981  29.679  30.379  1.00  0.00     0.049 A 
ATOM     49  H   UNL A   1      41.021  30.168  30.332  1.00  0.00     0.167 HD
ATOM     50  C   UNL A   1      45.072  31.432  28.915  1.00  0.00     0.037 A 
ATOM     51  C   UNL A   1      38.403  30.821  30.829  1.00  0.00     0.037 A 
ATOM     52  C   UNL A   1      45.220  31.195  30.333  1.00  0.00     0.049 A 
ATOM     53  C   UNL A   1      39.498  31.665  31.380  1.00  0.00     0.074 A 
ATOM     54  C   UNL A   1      45.823  30.212  31.094  1.00  0.00     0.029 A 
ATOM     55  N   UNL A   1      44.351  31.838  31.182  1.00  0.00    -0.354 N 
ATOM     56  N   UNL A   1      40.195  31.334  32.436  1.00  0.00    -0.248 NA
ATOM     57  C   UNL A   1      40.150  32.593  30.466  1.00  0.00     0.031 C 
ATOM     58  C   UNL A   1      44.922  29.988  32.179  1.00  0.00     0.029 A 
ATOM     59  C   UNL A   1      43.880  30.908  32.070  1.00  0.00     0.049 A 
ATOM     60  H   UNL A   1      44.112  32.793  31.157  1.00  0.00     0.167 HD
ATOM     61  C   UNL A   1      41.506  31.652  32.107  1.00  0.00     0.074 A 
ATOM     62  C   UNL A   1      41.407  32.480  30.905  1.00  0.00     0.031 C 
ATOM     63  C   UNL A   1      42.556  30.961  32.644  1.00  0.00     0.037 A 
BRANCH  50  64
ATOM     64  C   UNL A   1      45.198  32.829  28.334  1.00  0.00     0.064 A 
ATOM     65  C   UNL A   1      46.493  33.357  28.133  1.00  0.00     0.173 A 
ATOM     66  C   UNL A   1      44.152  33.774  28.271  1.00  0.00     0.173 A 
ATOM     67  F   UNL A   1      47.570  32.556  28.148  1.00  0.00    -0.203 F 
ATOM     68  C   UNL A   1      46.727  34.730  28.020  1.00  0.00     0.198 A 
ATOM     69  C   UNL A   1      44.386  35.140  28.105  1.00  0.00     0.198 A 
ATOM     70  F   UNL A   1      42.871  33.450  28.471  1.00  0.00    -0.203 F 
ATOM     71  F   UNL A   1      47.985  35.189  27.986  1.00  0.00    -0.200 F 
ATOM     72  C   UNL A   1      45.673  35.622  28.023  1.00  0.00     0.200 A 
ATOM     73  F   UNL A   1      43.349  35.989  28.116  1.00  0.00    -0.200 F 
ATOM     74  F   UNL A   1      45.895  36.942  27.995  1.00  0.00    -0.200 F 
ENDBRANCH  50  64
BRANCH  51  75
ATOM     75  C   UNL A   1      37.057  31.352  30.496  1.00  0.00     0.064 A 
ATOM     76  C   UNL A   1      36.130  31.672  31.501  1.00  0.00     0.173 A 
ATOM     77  C   UNL A   1      36.744  31.807  29.197  1.00  0.00     0.173 A 
ATOM     78  F   UNL A   1      36.370  31.321  32.772  1.00  0.00    -0.203 F 
ATOM     79  C   UNL A   1      34.974  32.415  31.229  1.00  0.00     0.198 A 
ATOM     80  C   UNL A   1      35.589  32.541  28.925  1.00  0.00     0.198 A 
ATOM     81  F   UNL A   1      37.600  31.628  28.180  1.00  0.00    -0.203 F 
ATOM     82  F   UNL A   1      34.143  32.751  32.226  1.00  0.00    -0.200 F 
ATOM     83  C   UNL A   1      34.710  32.857  29.943  1.00  0.00     0.200 A 
ATOM     84  F   UNL A   1      35.365  32.993  27.682  1.00  0.00    -0.200 F 
ATOM     85  F   UNL A   1      33.636  33.618  29.692  1.00  0.00    -0.200 F 
ENDBRANCH  51  75
BRANCH  63  86
ATOM     86  C   UNL A   1      42.277  30.004  33.772  1.00  0.00     0.064 A 
ATOM     87  C   UNL A   1      41.964  28.644  33.596  1.00  0.00     0.173 A 
ATOM     88  C   UNL A   1      42.513  30.440  35.081  1.00  0.00     0.173 A 
ATOM     89  F   UNL A   1      41.825  28.121  32.373  1.00  0.00    -0.203 F 
ATOM     90  C   UNL A   1      41.853  27.777  34.681  1.00  0.00     0.198 A 
ATOM     91  C   UNL A   1      42.439  29.565  36.161  1.00  0.00     0.198 A 
ATOM     92  F   UNL A   1      42.877  31.712  35.308  1.00  0.00    -0.203 F 
ATOM     93  F   UNL A   1      41.547  26.485  34.481  1.00  0.00    -0.200 F 
ATOM     94  C   UNL A   1      42.100  28.236  35.962  1.00  0.00     0.200 A 
ATOM     95  F   UNL A   1      42.730  30.003  37.392  1.00  0.00    -0.200 F 
ATOM     96  F   UNL A   1      42.038  27.394  37.003  1.00  0.00    -0.200 F 
ENDBRANCH  63  86
ENDBRANCH  37  38
ENDBRANCH  29  32
ENDBRANCH  27  28
ENDBRANCH  26  27
ENDBRANCH   1  26
TORSDOF 14
ENDMDL
