MODEL 1
REMARK VINA RESULT:     -13.7      0.000      0.000
REMARK SMILES COc1cc2c(CC(=O)NCCCCNC(=O)c3ccc(-c4c5nc(c(-c6c(F)c(F)c(F)c(F)c6F)c6ccc([nH]6)c(-c6c(F)c(F)c(F)c(F)c6F)c6nc(c(-c7c(F)c(F)c(F)c(F)c7F)c7ccc4[nH]7)C=C6)C=C5)cc3)c(C)n(C(=O)c3ccc(Cl)cc3)c2cc1Cl
REMARK SMILES IDX 12 1 11 2 10 3 8 4 9 5 7 7 6 8 3 9 4 10 95 11 5 12 94 13
REMARK SMILES IDX 96 14 93 15 81 16 83 17 82 18 2 19 1 20 84 21 85 22 86 23
REMARK SMILES IDX 87 24 92 25 88 26 91 27 89 28 90 29 13 30 14 31 15 32 16 33
REMARK SMILES IDX 17 35 18 36 19 37 80 38 20 39 79 40 21 41 22 42 23 43 73 44
REMARK SMILES IDX 24 45 78 46 72 47 74 48 25 49 77 50 71 51 70 52 26 54 58 55
REMARK SMILES IDX 38 56 57 57 39 58 42 59 56 60 75 61 40 62 41 63 55 65 76 66
REMARK SMILES IDX 43 67 27 68 28 69 36 70 29 71 30 72 34 73 37 74 31 75 32 76
REMARK SMILES IDX 35 77 33 78 59 79 60 80 68 81 61 82 62 83 66 84 69 85 63 86
REMARK SMILES IDX 64 87 67 88 65 89 44 90 45 91 53 92 46 93 47 94 51 95 54 96
REMARK SMILES IDX 48 97 49 98 52 99 50 100
REMARK H PARENT 10 6 15 34 74 53 42 64
REMARK Flexibility Score: inf
ROOT
ATOM      1  C   UNL A   1      31.816  28.899  27.267  1.00  0.00     0.023 C 
ENDROOT
BRANCH   1   2
ATOM      2  C   UNL A   1      31.359  27.868  26.236  1.00  0.00     0.116 C 
BRANCH   2   3
ATOM      3  N   UNL A   1      31.201  26.552  26.819  1.00  0.00    -0.356 N 
ATOM      4  C   UNL A   1      31.911  25.416  26.555  1.00  0.00     0.224 C 
ATOM      5  O   UNL A   1      31.620  24.389  27.172  1.00  0.00    -0.275 OA
ATOM      6  H   UNL A   1      30.490  26.465  27.495  1.00  0.00     0.163 HD
BRANCH   4   7
ATOM      7  C   UNL A   1      33.065  25.447  25.564  1.00  0.00     0.138 C 
BRANCH   7   8
ATOM      8  C   UNL A   1      33.365  24.110  24.943  1.00  0.00    -0.009 A 
ATOM      9  C   UNL A   1      36.838  22.679  25.717  1.00  0.00     0.138 A 
ATOM     10  C   UNL A   1      35.770  23.585  25.801  1.00  0.00     0.058 A 
ATOM     11  C   UNL A   1      36.722  21.567  24.891  1.00  0.00     0.085 A 
ATOM     12  C   UNL A   1      34.571  23.367  25.084  1.00  0.00     0.008 A 
ATOM     13  C   UNL A   1      35.558  21.357  24.139  1.00  0.00     0.051 A 
ATOM     14  Cl  UNL A   1      37.918  20.321  24.791  1.00  0.00    -0.080 Cl
ATOM     15  C   UNL A   1      34.453  22.220  24.294  1.00  0.00     0.058 A 
ATOM     16  C   UNL A   1      32.543  23.397  24.075  1.00  0.00     0.028 A 
ATOM     17  N   UNL A   1      33.128  22.147  23.837  1.00  0.00    -0.280 N 
ATOM     18  C   UNL A   1      31.221  23.822  23.514  1.00  0.00     0.065 C 
BRANCH   9  19
ATOM     19  O   UNL A   1      37.885  22.958  26.555  1.00  0.00    -0.495 OA
ATOM     20  C   UNL A   1      38.315  24.317  26.551  1.00  0.00     0.278 C 
ENDBRANCH   9  19
BRANCH  17  21
ATOM     21  C   UNL A   1      32.479  21.008  23.270  1.00  0.00     0.262 C 
ATOM     22  O   UNL A   1      31.812  21.144  22.254  1.00  0.00    -0.268 OA
BRANCH  21  23
ATOM     23  C   UNL A   1      32.535  19.646  23.833  1.00  0.00     0.040 A 
ATOM     24  C   UNL A   1      32.523  19.443  25.219  1.00  0.00     0.015 A 
ATOM     25  C   UNL A   1      32.661  18.569  22.949  1.00  0.00     0.015 A 
ATOM     26  C   UNL A   1      32.724  18.155  25.720  1.00  0.00     0.021 A 
ATOM     27  C   UNL A   1      32.852  17.283  23.459  1.00  0.00     0.021 A 
ATOM     28  C   UNL A   1      32.901  17.085  24.840  1.00  0.00     0.041 A 
ATOM     29  Cl  UNL A   1      33.208  15.510  25.460  1.00  0.00    -0.084 Cl
ENDBRANCH  21  23
ENDBRANCH  17  21
ENDBRANCH   7   8
ENDBRANCH   4   7
ENDBRANCH   2   3
ENDBRANCH   1   2
BRANCH   1  30
ATOM     30  C   UNL A   1      33.332  29.142  27.297  1.00  0.00     0.023 C 
BRANCH  30  31
ATOM     31  C   UNL A   1      33.759  30.582  26.999  1.00  0.00     0.116 C 
BRANCH  31  32
ATOM     32  N   UNL A   1      33.967  31.377  28.195  1.00  0.00    -0.352 N 
ATOM     33  C   UNL A   1      35.009  31.582  29.054  1.00  0.00     0.251 C 
ATOM     34  H   UNL A   1      33.166  31.890  28.447  1.00  0.00     0.163 HD
ATOM     35  O   UNL A   1      34.820  32.425  29.936  1.00  0.00    -0.269 OA
BRANCH  33  36
ATOM     36  C   UNL A   1      36.311  30.862  29.024  1.00  0.00     0.039 A 
ATOM     37  C   UNL A   1      36.473  29.481  28.933  1.00  0.00     0.014 A 
ATOM     38  C   UNL A   1      37.465  31.663  29.149  1.00  0.00     0.014 A 
ATOM     39  C   UNL A   1      37.740  28.910  29.014  1.00  0.00     0.010 A 
ATOM     40  C   UNL A   1      38.736  31.099  29.225  1.00  0.00     0.010 A 
ATOM     41  C   UNL A   1      38.869  29.715  29.191  1.00  0.00    -0.014 A 
BRANCH  41  42
ATOM     42  C   UNL A   1      40.161  29.040  29.292  1.00  0.00     0.031 A 
ATOM     43  C   UNL A   1      40.701  28.864  30.666  1.00  0.00     0.074 A 
ATOM     44  C   UNL A   1      40.828  28.537  28.234  1.00  0.00     0.049 A 
ATOM     45  N   UNL A   1      41.811  29.321  31.148  1.00  0.00    -0.248 NA
ATOM     46  C   UNL A   1      39.883  28.124  31.638  1.00  0.00     0.031 C 
ATOM     47  C   UNL A   1      40.319  28.350  26.874  1.00  0.00     0.029 A 
ATOM     48  N   UNL A   1      42.084  27.993  28.180  1.00  0.00    -0.354 N 
ATOM     49  C   UNL A   1      41.910  28.806  32.439  1.00  0.00     0.074 A 
ATOM     50  C   UNL A   1      40.657  28.156  32.724  1.00  0.00     0.031 C 
ATOM     51  C   UNL A   1      41.164  27.543  26.194  1.00  0.00     0.029 A 
ATOM     52  C   UNL A   1      42.335  27.286  27.016  1.00  0.00     0.049 A 
ATOM     53  H   UNL A   1      42.745  28.093  28.902  1.00  0.00     0.167 HD
ATOM     54  C   UNL A   1      43.097  28.771  33.104  1.00  0.00     0.037 A 
ATOM     55  C   UNL A   1      43.403  26.497  26.758  1.00  0.00     0.037 A 
ATOM     56  C   UNL A   1      44.099  29.588  32.483  1.00  0.00     0.049 A 
ATOM     57  C   UNL A   1      44.537  26.934  27.604  1.00  0.00     0.074 A 
ATOM     58  C   UNL A   1      44.497  30.904  32.523  1.00  0.00     0.029 A 
ATOM     59  N   UNL A   1      44.709  29.008  31.409  1.00  0.00    -0.354 N 
ATOM     60  N   UNL A   1      45.136  28.086  27.483  1.00  0.00    -0.248 NA
ATOM     61  C   UNL A   1      44.891  26.169  28.797  1.00  0.00     0.031 C 
ATOM     62  C   UNL A   1      45.265  31.131  31.341  1.00  0.00     0.029 A 
ATOM     63  C   UNL A   1      45.316  29.946  30.614  1.00  0.00     0.049 A 
ATOM     64  H   UNL A   1      44.715  28.040  31.228  1.00  0.00     0.167 HD
ATOM     65  C   UNL A   1      45.599  28.361  28.753  1.00  0.00     0.074 A 
ATOM     66  C   UNL A   1      45.597  27.089  29.456  1.00  0.00     0.031 C 
ATOM     67  C   UNL A   1      45.604  29.634  29.235  1.00  0.00     0.037 A 
BRANCH  54  68
ATOM     68  C   UNL A   1      43.497  27.689  34.074  1.00  0.00     0.064 A 
ATOM     69  C   UNL A   1      43.722  26.376  33.613  1.00  0.00     0.173 A 
ATOM     70  C   UNL A   1      43.352  27.834  35.469  1.00  0.00     0.173 A 
ATOM     71  F   UNL A   1      43.830  26.124  32.300  1.00  0.00    -0.203 F 
ATOM     72  C   UNL A   1      43.765  25.287  34.488  1.00  0.00     0.198 A 
ATOM     73  C   UNL A   1      43.445  26.751  36.344  1.00  0.00     0.198 A 
ATOM     74  F   UNL A   1      43.004  29.006  36.019  1.00  0.00    -0.203 F 
ATOM     75  F   UNL A   1      43.882  24.044  34.001  1.00  0.00    -0.200 F 
ATOM     76  C   UNL A   1      43.628  25.476  35.852  1.00  0.00     0.200 A 
ATOM     77  F   UNL A   1      43.279  26.949  37.659  1.00  0.00    -0.200 F 
ATOM     78  F   UNL A   1      43.626  24.428  36.688  1.00  0.00    -0.200 F 
ENDBRANCH  54  68
BRANCH  55  79
ATOM     79  C   UNL A   1      43.429  25.224  26.000  1.00  0.00     0.064 A 
ATOM     80  C   UNL A   1      44.481  24.938  25.115  1.00  0.00     0.173 A 
ATOM     81  C   UNL A   1      42.587  24.149  26.344  1.00  0.00     0.173 A 
ATOM     82  F   UNL A   1      45.347  25.898  24.761  1.00  0.00    -0.203 F 
ATOM     83  C   UNL A   1      44.712  23.641  24.648  1.00  0.00     0.198 A 
ATOM     84  C   UNL A   1      42.809  22.858  25.864  1.00  0.00     0.198 A 
ATOM     85  F   UNL A   1      41.594  24.303  27.231  1.00  0.00    -0.203 F 
ATOM     86  F   UNL A   1      45.777  23.390  23.875  1.00  0.00    -0.200 F 
ATOM     87  C   UNL A   1      43.884  22.600  25.034  1.00  0.00     0.200 A 
ATOM     88  F   UNL A   1      42.017  21.855  26.269  1.00  0.00    -0.200 F 
ATOM     89  F   UNL A   1      44.146  21.345  24.644  1.00  0.00    -0.200 F 
ENDBRANCH  55  79
BRANCH  67  90
ATOM     90  C   UNL A   1      45.692  30.748  28.246  1.00  0.00     0.064 A 
ATOM     91  C   UNL A   1      44.580  31.375  27.663  1.00  0.00     0.173 A 
ATOM     92  C   UNL A   1      46.964  31.240  27.920  1.00  0.00     0.173 A 
ATOM     93  F   UNL A   1      43.334  31.011  27.991  1.00  0.00    -0.203 F 
ATOM     94  C   UNL A   1      44.742  32.420  26.755  1.00  0.00     0.198 A 
ATOM     95  C   UNL A   1      47.121  32.306  27.040  1.00  0.00     0.198 A 
ATOM     96  F   UNL A   1      48.058  30.702  28.481  1.00  0.00    -0.203 F 
ATOM     97  F   UNL A   1      43.668  32.992  26.190  1.00  0.00    -0.200 F 
ATOM     98  C   UNL A   1      46.011  32.888  26.449  1.00  0.00     0.200 A 
ATOM     99  F   UNL A   1      48.346  32.781  26.780  1.00  0.00    -0.200 F 
ATOM    100  F   UNL A   1      46.164  33.913  25.599  1.00  0.00    -0.200 F 
ENDBRANCH  67  90
ENDBRANCH  41  42
ENDBRANCH  33  36
ENDBRANCH  31  32
ENDBRANCH  30  31
ENDBRANCH   1  30
TORSDOF 15
ENDMDL
MODEL 2
REMARK VINA RESULT:     -13.6      3.729      9.261
REMARK SMILES COc1cc2c(CC(=O)NCCCCNC(=O)c3ccc(-c4c5nc(c(-c6c(F)c(F)c(F)c(F)c6F)c6ccc([nH]6)c(-c6c(F)c(F)c(F)c(F)c6F)c6nc(c(-c7c(F)c(F)c(F)c(F)c7F)c7ccc4[nH]7)C=C6)C=C5)cc3)c(C)n(C(=O)c3ccc(Cl)cc3)c2cc1Cl
REMARK SMILES IDX 12 1 11 2 10 3 8 4 9 5 7 7 6 8 3 9 4 10 95 11 5 12 94 13
REMARK SMILES IDX 96 14 93 15 81 16 83 17 82 18 2 19 1 20 84 21 85 22 86 23
REMARK SMILES IDX 87 24 92 25 88 26 91 27 89 28 90 29 13 30 14 31 15 32 16 33
REMARK SMILES IDX 17 35 18 36 19 37 80 38 20 39 79 40 21 41 22 42 23 43 73 44
REMARK SMILES IDX 24 45 78 46 72 47 74 48 25 49 77 50 71 51 70 52 26 54 58 55
REMARK SMILES IDX 38 56 57 57 39 58 42 59 56 60 75 61 40 62 41 63 55 65 76 66
REMARK SMILES IDX 43 67 27 68 28 69 36 70 29 71 30 72 34 73 37 74 31 75 32 76
REMARK SMILES IDX 35 77 33 78 59 79 60 80 68 81 61 82 62 83 66 84 69 85 63 86
REMARK SMILES IDX 64 87 67 88 65 89 44 90 45 91 53 92 46 93 47 94 51 95 54 96
REMARK SMILES IDX 48 97 49 98 52 99 50 100
REMARK H PARENT 10 6 15 34 74 53 42 64
REMARK Flexibility Score: inf
ROOT
ATOM      1  C   UNL A   1      35.715  20.941  24.983  1.00  0.00     0.023 C 
ENDROOT
BRANCH   1   2
ATOM      2  C   UNL A   1      34.467  21.820  24.919  1.00  0.00     0.116 C 
BRANCH   2   3
ATOM      3  N   UNL A   1      34.489  22.708  23.776  1.00  0.00    -0.356 N 
ATOM      4  C   UNL A   1      34.349  24.067  23.754  1.00  0.00     0.224 C 
ATOM      5  O   UNL A   1      34.404  24.642  22.665  1.00  0.00    -0.275 OA
ATOM      6  H   UNL A   1      34.621  22.277  22.901  1.00  0.00     0.163 HD
BRANCH   4   7
ATOM      7  C   UNL A   1      34.186  24.841  25.054  1.00  0.00     0.138 C 
BRANCH   7   8
ATOM      8  C   UNL A   1      33.018  25.788  25.051  1.00  0.00    -0.009 A 
ATOM      9  C   UNL A   1      33.727  29.278  26.474  1.00  0.00     0.138 A 
ATOM     10  C   UNL A   1      34.026  27.974  26.052  1.00  0.00     0.058 A 
ATOM     11  C   UNL A   1      32.418  29.738  26.387  1.00  0.00     0.085 A 
ATOM     12  C   UNL A   1      33.023  27.135  25.513  1.00  0.00     0.008 A 
ATOM     13  C   UNL A   1      31.403  28.905  25.896  1.00  0.00     0.051 A 
ATOM     14  Cl  UNL A   1      31.945  31.358  26.764  1.00  0.00    -0.080 Cl
ATOM     15  C   UNL A   1      31.722  27.628  25.389  1.00  0.00     0.058 A 
ATOM     16  C   UNL A   1      31.716  25.496  24.656  1.00  0.00     0.028 A 
ATOM     17  N   UNL A   1      30.970  26.681  24.677  1.00  0.00    -0.280 N 
ATOM     18  C   UNL A   1      31.171  24.172  24.214  1.00  0.00     0.065 C 
BRANCH   9  19
ATOM     19  O   UNL A   1      34.816  30.013  26.862  1.00  0.00    -0.495 OA
ATOM     20  C   UNL A   1      35.443  29.572  28.064  1.00  0.00     0.278 C 
ENDBRANCH   9  19
BRANCH  17  21
ATOM     21  C   UNL A   1      29.701  26.888  24.054  1.00  0.00     0.262 C 
ATOM     22  O   UNL A   1      28.803  26.078  24.241  1.00  0.00    -0.268 OA
BRANCH  21  23
ATOM     23  C   UNL A   1      29.379  28.020  23.166  1.00  0.00     0.040 A 
ATOM     24  C   UNL A   1      30.382  28.658  22.426  1.00  0.00     0.015 A 
ATOM     25  C   UNL A   1      28.057  28.478  23.130  1.00  0.00     0.015 A 
ATOM     26  C   UNL A   1      30.069  29.815  21.710  1.00  0.00     0.021 A 
ATOM     27  C   UNL A   1      27.750  29.629  22.404  1.00  0.00     0.021 A 
ATOM     28  C   UNL A   1      28.760  30.303  21.713  1.00  0.00     0.041 A 
ATOM     29  Cl  UNL A   1      28.389  31.762  20.880  1.00  0.00    -0.084 Cl
ENDBRANCH  21  23
ENDBRANCH  17  21
ENDBRANCH   7   8
ENDBRANCH   4   7
ENDBRANCH   2   3
ENDBRANCH   1   2
BRANCH   1  30
ATOM     30  C   UNL A   1      37.013  21.642  24.555  1.00  0.00     0.023 C 
BRANCH  30  31
ATOM     31  C   UNL A   1      37.692  22.465  25.653  1.00  0.00     0.116 C 
BRANCH  31  32
ATOM     32  N   UNL A   1      39.070  22.077  25.889  1.00  0.00    -0.352 N 
ATOM     33  C   UNL A   1      40.131  22.623  26.555  1.00  0.00     0.251 C 
ATOM     34  H   UNL A   1      39.293  21.216  25.469  1.00  0.00     0.163 HD
ATOM     35  O   UNL A   1      41.150  21.928  26.602  1.00  0.00    -0.269 OA
BRANCH  33  36
ATOM     36  C   UNL A   1      40.157  23.970  27.186  1.00  0.00     0.039 A 
ATOM     37  C   UNL A   1      39.122  24.902  27.153  1.00  0.00     0.014 A 
ATOM     38  C   UNL A   1      41.361  24.331  27.827  1.00  0.00     0.014 A 
ATOM     39  C   UNL A   1      39.296  26.172  27.694  1.00  0.00     0.010 A 
ATOM     40  C   UNL A   1      41.539  25.598  28.376  1.00  0.00     0.010 A 
ATOM     41  C   UNL A   1      40.513  26.533  28.278  1.00  0.00    -0.014 A 
BRANCH  41  42
ATOM     42  C   UNL A   1      40.627  27.892  28.803  1.00  0.00     0.031 A 
ATOM     43  C   UNL A   1      41.731  28.717  28.246  1.00  0.00     0.074 A 
ATOM     44  C   UNL A   1      39.766  28.425  29.693  1.00  0.00     0.049 A 
ATOM     45  N   UNL A   1      42.722  29.253  28.882  1.00  0.00    -0.248 NA
ATOM     46  C   UNL A   1      41.760  28.937  26.792  1.00  0.00     0.031 C 
ATOM     47  C   UNL A   1      38.474  27.881  30.112  1.00  0.00     0.029 A 
ATOM     48  N   UNL A   1      39.828  29.630  30.342  1.00  0.00    -0.354 N 
ATOM     49  C   UNL A   1      43.423  30.003  27.940  1.00  0.00     0.074 A 
ATOM     50  C   UNL A   1      42.847  29.700  26.656  1.00  0.00     0.031 C 
ATOM     51  C   UNL A   1      37.780  28.841  30.763  1.00  0.00     0.029 A 
ATOM     52  C   UNL A   1      38.634  30.005  30.935  1.00  0.00     0.049 A 
ATOM     53  H   UNL A   1      40.645  30.179  30.382  1.00  0.00     0.167 HD
ATOM     54  C   UNL A   1      44.292  30.982  28.312  1.00  0.00     0.037 A 
ATOM     55  C   UNL A   1      38.339  31.206  31.483  1.00  0.00     0.037 A 
ATOM     56  C   UNL A   1      44.630  30.917  29.704  1.00  0.00     0.049 A 
ATOM     57  C   UNL A   1      39.599  31.863  31.903  1.00  0.00     0.074 A 
ATOM     58  C   UNL A   1      45.550  30.265  30.491  1.00  0.00     0.029 A 
ATOM     59  N   UNL A   1      43.695  31.464  30.534  1.00  0.00    -0.354 N 
ATOM     60  N   UNL A   1      40.370  31.419  32.856  1.00  0.00    -0.248 NA
ATOM     61  C   UNL A   1      40.166  32.934  31.089  1.00  0.00     0.031 C 
ATOM     62  C   UNL A   1      45.051  30.321  31.828  1.00  0.00     0.029 A 
ATOM     63  C   UNL A   1      43.841  31.008  31.818  1.00  0.00     0.049 A 
ATOM     64  H   UNL A   1      43.004  32.104  30.248  1.00  0.00     0.167 HD
ATOM     65  C   UNL A   1      41.631  31.849  32.499  1.00  0.00     0.074 A 
ATOM     66  C   UNL A   1      41.423  32.919  31.536  1.00  0.00     0.031 C 
ATOM     67  C   UNL A   1      42.726  31.076  32.732  1.00  0.00     0.037 A 
BRANCH  54  68
ATOM     68  C   UNL A   1      44.526  32.252  27.535  1.00  0.00     0.064 A 
ATOM     69  C   UNL A   1      45.720  32.423  26.806  1.00  0.00     0.173 A 
ATOM     70  C   UNL A   1      43.763  33.419  27.746  1.00  0.00     0.173 A 
ATOM     71  F   UNL A   1      46.540  31.384  26.587  1.00  0.00    -0.203 F 
ATOM     72  C   UNL A   1      46.132  33.680  26.352  1.00  0.00     0.198 A 
ATOM     73  C   UNL A   1      44.152  34.663  27.250  1.00  0.00     0.198 A 
ATOM     74  F   UNL A   1      42.679  33.413  28.535  1.00  0.00    -0.203 F 
ATOM     75  F   UNL A   1      47.321  33.816  25.749  1.00  0.00    -0.200 F 
ATOM     76  C   UNL A   1      45.346  34.798  26.573  1.00  0.00     0.200 A 
ATOM     77  F   UNL A   1      43.394  35.740  27.500  1.00  0.00    -0.200 F 
ATOM     78  F   UNL A   1      45.760  36.009  26.177  1.00  0.00    -0.200 F 
ENDBRANCH  54  68
BRANCH  55  79
ATOM     79  C   UNL A   1      37.048  31.931  31.439  1.00  0.00     0.064 A 
ATOM     80  C   UNL A   1      36.329  32.186  32.619  1.00  0.00     0.173 A 
ATOM     81  C   UNL A   1      36.643  32.638  30.291  1.00  0.00     0.173 A 
ATOM     82  F   UNL A   1      36.671  31.579  33.763  1.00  0.00    -0.203 F 
ATOM     83  C   UNL A   1      35.303  33.134  32.659  1.00  0.00     0.198 A 
ATOM     84  C   UNL A   1      35.607  33.572  30.330  1.00  0.00     0.198 A 
ATOM     85  F   UNL A   1      37.304  32.515  29.132  1.00  0.00    -0.203 F 
ATOM     86  F   UNL A   1      34.698  33.412  33.822  1.00  0.00    -0.200 F 
ATOM     87  C   UNL A   1      34.952  33.835  31.518  1.00  0.00     0.200 A 
ATOM     88  F   UNL A   1      35.298  34.265  29.225  1.00  0.00    -0.200 F 
ATOM     89  F   UNL A   1      34.018  34.794  31.572  1.00  0.00    -0.200 F 
ENDBRANCH  55  79
BRANCH  67  90
ATOM     90  C   UNL A   1      42.658  30.102  33.862  1.00  0.00     0.064 A 
ATOM     91  C   UNL A   1      43.030  30.398  35.182  1.00  0.00     0.173 A 
ATOM     92  C   UNL A   1      42.137  28.827  33.601  1.00  0.00     0.173 A 
ATOM     93  F   UNL A   1      43.460  31.621  35.519  1.00  0.00    -0.203 F 
ATOM     94  C   UNL A   1      42.926  29.438  36.187  1.00  0.00     0.198 A 
ATOM     95  C   UNL A   1      42.002  27.883  34.613  1.00  0.00     0.198 A 
ATOM     96  F   UNL A   1      41.729  28.508  32.362  1.00  0.00    -0.203 F 
ATOM     97  F   UNL A   1      43.308  29.732  37.439  1.00  0.00    -0.200 F 
ATOM     98  C   UNL A   1      42.407  28.185  35.903  1.00  0.00     0.200 A 
ATOM     99  F   UNL A   1      41.462  26.687  34.341  1.00  0.00    -0.200 F 
ATOM    100  F   UNL A   1      42.279  27.272  36.877  1.00  0.00    -0.200 F 
ENDBRANCH  67  90
ENDBRANCH  41  42
ENDBRANCH  33  36
ENDBRANCH  31  32
ENDBRANCH  30  31
ENDBRANCH   1  30
TORSDOF 15
ENDMDL
MODEL 3
REMARK VINA RESULT:     -13.0      1.532      2.183
REMARK SMILES COc1cc2c(CC(=O)NCCCCNC(=O)c3ccc(-c4c5nc(c(-c6c(F)c(F)c(F)c(F)c6F)c6ccc([nH]6)c(-c6c(F)c(F)c(F)c(F)c6F)c6nc(c(-c7c(F)c(F)c(F)c(F)c7F)c7ccc4[nH]7)C=C6)C=C5)cc3)c(C)n(C(=O)c3ccc(Cl)cc3)c2cc1Cl
REMARK SMILES IDX 12 1 11 2 10 3 8 4 9 5 7 7 6 8 3 9 4 10 95 11 5 12 94 13
REMARK SMILES IDX 96 14 93 15 81 16 83 17 82 18 2 19 1 20 84 21 85 22 86 23
REMARK SMILES IDX 87 24 92 25 88 26 91 27 89 28 90 29 13 30 14 31 15 32 16 33
REMARK SMILES IDX 17 35 18 36 19 37 80 38 20 39 79 40 21 41 22 42 23 43 73 44
REMARK SMILES IDX 24 45 78 46 72 47 74 48 25 49 77 50 71 51 70 52 26 54 58 55
REMARK SMILES IDX 38 56 57 57 39 58 42 59 56 60 75 61 40 62 41 63 55 65 76 66
REMARK SMILES IDX 43 67 27 68 28 69 36 70 29 71 30 72 34 73 37 74 31 75 32 76
REMARK SMILES IDX 35 77 33 78 59 79 60 80 68 81 61 82 62 83 66 84 69 85 63 86
REMARK SMILES IDX 64 87 67 88 65 89 44 90 45 91 53 92 46 93 47 94 51 95 54 96
REMARK SMILES IDX 48 97 49 98 52 99 50 100
REMARK H PARENT 10 6 15 34 74 53 42 64
REMARK Flexibility Score: inf
ROOT
ATOM      1  C   UNL A   1      32.896  29.074  27.071  1.00  0.00     0.023 C 
ENDROOT
BRANCH   1   2
ATOM      2  C   UNL A   1      32.938  27.851  26.157  1.00  0.00     0.116 C 
BRANCH   2   3
ATOM      3  N   UNL A   1      31.699  27.101  26.199  1.00  0.00    -0.356 N 
ATOM      4  C   UNL A   1      31.510  25.793  26.541  1.00  0.00     0.224 C 
ATOM      5  O   UNL A   1      30.362  25.344  26.518  1.00  0.00    -0.275 OA
ATOM      6  H   UNL A   1      30.888  27.600  25.948  1.00  0.00     0.163 HD
BRANCH   4   7
ATOM      7  C   UNL A   1      32.687  24.941  26.991  1.00  0.00     0.138 C 
BRANCH   7   8
ATOM      8  C   UNL A   1      33.087  23.887  25.995  1.00  0.00    -0.009 A 
ATOM      9  C   UNL A   1      32.674  24.866  22.310  1.00  0.00     0.138 A 
ATOM     10  C   UNL A   1      32.665  25.051  23.701  1.00  0.00     0.058 A 
ATOM     11  C   UNL A   1      33.027  23.626  21.791  1.00  0.00     0.085 A 
ATOM     12  C   UNL A   1      33.038  24.006  24.577  1.00  0.00     0.008 A 
ATOM     13  C   UNL A   1      33.357  22.566  22.646  1.00  0.00     0.051 A 
ATOM     14  Cl  UNL A   1      33.188  23.307  20.099  1.00  0.00    -0.080 Cl
ATOM     15  C   UNL A   1      33.435  22.779  24.038  1.00  0.00     0.058 A 
ATOM     16  C   UNL A   1      33.513  22.594  26.283  1.00  0.00     0.028 A 
ATOM     17  N   UNL A   1      33.916  21.983  25.090  1.00  0.00    -0.280 N 
ATOM     18  C   UNL A   1      33.606  21.942  27.629  1.00  0.00     0.065 C 
BRANCH   9  19
ATOM     19  O   UNL A   1      32.405  25.998  21.586  1.00  0.00    -0.495 OA
ATOM     20  C   UNL A   1      32.287  27.192  22.356  1.00  0.00     0.278 C 
ENDBRANCH   9  19
BRANCH  17  21
ATOM     21  C   UNL A   1      34.700  20.795  24.974  1.00  0.00     0.262 C 
ATOM     22  O   UNL A   1      35.918  20.887  24.908  1.00  0.00    -0.268 OA
BRANCH  21  23
ATOM     23  C   UNL A   1      34.147  19.429  24.908  1.00  0.00     0.040 A 
ATOM     24  C   UNL A   1      32.824  19.174  25.288  1.00  0.00     0.015 A 
ATOM     25  C   UNL A   1      34.997  18.390  24.515  1.00  0.00     0.015 A 
ATOM     26  C   UNL A   1      32.377  17.852  25.353  1.00  0.00     0.021 A 
ATOM     27  C   UNL A   1      34.540  17.072  24.574  1.00  0.00     0.021 A 
ATOM     28  C   UNL A   1      33.240  16.808  25.010  1.00  0.00     0.041 A 
ATOM     29  Cl  UNL A   1      32.707  15.178  25.149  1.00  0.00    -0.084 Cl
ENDBRANCH  21  23
ENDBRANCH  17  21
ENDBRANCH   7   8
ENDBRANCH   4   7
ENDBRANCH   2   3
ENDBRANCH   1   2
BRANCH   1  30
ATOM     30  C   UNL A   1      34.275  29.589  27.510  1.00  0.00     0.023 C 
BRANCH  30  31
ATOM     31  C   UNL A   1      34.421  31.114  27.515  1.00  0.00     0.116 C 
BRANCH  31  32
ATOM     32  N   UNL A   1      34.348  31.691  28.844  1.00  0.00    -0.352 N 
ATOM     33  C   UNL A   1      35.186  31.756  29.921  1.00  0.00     0.251 C 
ATOM     34  H   UNL A   1      33.490  32.144  29.009  1.00  0.00     0.163 HD
ATOM     35  O   UNL A   1      34.786  32.431  30.873  1.00  0.00    -0.269 OA
BRANCH  33  36
ATOM     36  C   UNL A   1      36.501  31.068  30.038  1.00  0.00     0.039 A 
ATOM     37  C   UNL A   1      37.738  31.624  29.721  1.00  0.00     0.014 A 
ATOM     38  C   UNL A   1      36.461  29.724  30.461  1.00  0.00     0.014 A 
ATOM     39  C   UNL A   1      38.896  30.853  29.775  1.00  0.00     0.010 A 
ATOM     40  C   UNL A   1      37.616  28.948  30.523  1.00  0.00     0.010 A 
ATOM     41  C   UNL A   1      38.832  29.507  30.145  1.00  0.00    -0.014 A 
BRANCH  41  42
ATOM     42  C   UNL A   1      40.086  28.756  30.154  1.00  0.00     0.031 A 
ATOM     43  C   UNL A   1      40.764  28.634  31.472  1.00  0.00     0.074 A 
ATOM     44  C   UNL A   1      40.601  28.143  29.070  1.00  0.00     0.049 A 
ATOM     45  N   UNL A   1      41.945  29.047  31.800  1.00  0.00    -0.248 NA
ATOM     46  C   UNL A   1      40.016  28.012  32.576  1.00  0.00     0.031 C 
ATOM     47  C   UNL A   1      39.935  27.903  27.788  1.00  0.00     0.029 A 
ATOM     48  N   UNL A   1      41.809  27.515  28.922  1.00  0.00    -0.354 N 
ATOM     49  C   UNL A   1      42.156  28.610  33.106  1.00  0.00     0.074 A 
ATOM     50  C   UNL A   1      40.907  28.064  33.569  1.00  0.00     0.031 C 
ATOM     51  C   UNL A   1      40.651  27.001  27.081  1.00  0.00     0.029 A 
ATOM     52  C   UNL A   1      41.889  26.721  27.790  1.00  0.00     0.049 A 
ATOM     53  H   UNL A   1      42.551  27.618  29.560  1.00  0.00     0.167 HD
ATOM     54  C   UNL A   1      43.405  28.539  33.642  1.00  0.00     0.037 A 
ATOM     55  C   UNL A   1      42.873  25.848  27.476  1.00  0.00     0.037 A 
ATOM     56  C   UNL A   1      44.378  29.247  32.861  1.00  0.00     0.049 A 
ATOM     57  C   UNL A   1      44.118  26.263  28.164  1.00  0.00     0.074 A 
ATOM     58  C   UNL A   1      44.855  30.534  32.766  1.00  0.00     0.029 A 
ATOM     59  N   UNL A   1      44.831  28.561  31.772  1.00  0.00    -0.354 N 
ATOM     60  N   UNL A   1      44.767  27.362  27.899  1.00  0.00    -0.248 NA
ATOM     61  C   UNL A   1      44.556  25.554  29.363  1.00  0.00     0.031 C 
ATOM     62  C   UNL A   1      45.499  30.633  31.495  1.00  0.00     0.029 A 
ATOM     63  C   UNL A   1      45.400  29.403  30.853  1.00  0.00     0.049 A 
ATOM     64  H   UNL A   1      44.760  27.585  31.661  1.00  0.00     0.167 HD
ATOM     65  C   UNL A   1      45.382  27.687  29.089  1.00  0.00     0.074 A 
ATOM     66  C   UNL A   1      45.383  26.466  29.877  1.00  0.00     0.031 C 
ATOM     67  C   UNL A   1      45.515  28.985  29.476  1.00  0.00     0.037 A 
BRANCH  54  68
ATOM     68  C   UNL A   1      43.846  27.498  34.638  1.00  0.00     0.064 A 
ATOM     69  C   UNL A   1      43.861  26.136  34.275  1.00  0.00     0.173 A 
ATOM     70  C   UNL A   1      43.944  27.767  36.019  1.00  0.00     0.173 A 
ATOM     71  F   UNL A   1      43.730  25.772  32.991  1.00  0.00    -0.203 F 
ATOM     72  C   UNL A   1      43.936  25.120  35.233  1.00  0.00     0.198 A 
ATOM     73  C   UNL A   1      44.068  26.753  36.968  1.00  0.00     0.198 A 
ATOM     74  F   UNL A   1      43.809  29.010  36.501  1.00  0.00    -0.203 F 
ATOM     75  F   UNL A   1      43.847  23.838  34.854  1.00  0.00    -0.200 F 
ATOM     76  C   UNL A   1      44.041  25.430  36.578  1.00  0.00     0.200 A 
ATOM     77  F   UNL A   1      44.138  27.070  38.268  1.00  0.00    -0.200 F 
ATOM     78  F   UNL A   1      44.068  24.458  37.500  1.00  0.00    -0.200 F 
ENDBRANCH  54  68
BRANCH  55  79
ATOM     79  C   UNL A   1      42.741  24.530  26.812  1.00  0.00     0.064 A 
ATOM     80  C   UNL A   1      43.221  24.333  25.507  1.00  0.00     0.173 A 
ATOM     81  C   UNL A   1      42.411  23.371  27.542  1.00  0.00     0.173 A 
ATOM     82  F   UNL A   1      43.588  25.381  24.757  1.00  0.00    -0.203 F 
ATOM     83  C   UNL A   1      43.414  23.051  24.984  1.00  0.00     0.198 A 
ATOM     84  C   UNL A   1      42.588  22.093  27.012  1.00  0.00     0.198 A 
ATOM     85  F   UNL A   1      42.006  23.448  28.817  1.00  0.00    -0.203 F 
ATOM     86  F   UNL A   1      43.955  22.902  23.768  1.00  0.00    -0.200 F 
ATOM     87  C   UNL A   1      43.110  21.933  25.742  1.00  0.00     0.200 A 
ATOM     88  F   UNL A   1      42.318  21.020  27.768  1.00  0.00    -0.200 F 
ATOM     89  F   UNL A   1      43.361  20.705  25.269  1.00  0.00    -0.200 F 
ENDBRANCH  55  79
BRANCH  67  90
ATOM     90  C   UNL A   1      45.558  30.026  28.407  1.00  0.00     0.064 A 
ATOM     91  C   UNL A   1      44.421  30.626  27.845  1.00  0.00     0.173 A 
ATOM     92  C   UNL A   1      46.814  30.474  27.975  1.00  0.00     0.173 A 
ATOM     93  F   UNL A   1      43.192  30.305  28.268  1.00  0.00    -0.203 F 
ATOM     94  C   UNL A   1      44.542  31.602  26.857  1.00  0.00     0.198 A 
ATOM     95  C   UNL A   1      46.932  31.473  27.014  1.00  0.00     0.198 A 
ATOM     96  F   UNL A   1      47.933  29.961  28.511  1.00  0.00    -0.203 F 
ATOM     97  F   UNL A   1      43.443  32.149  26.315  1.00  0.00    -0.200 F 
ATOM     98  C   UNL A   1      45.796  32.028  26.447  1.00  0.00     0.200 A 
ATOM     99  F   UNL A   1      48.145  31.910  26.651  1.00  0.00    -0.200 F 
ATOM    100  F   UNL A   1      45.911  32.989  25.519  1.00  0.00    -0.200 F 
ENDBRANCH  67  90
ENDBRANCH  41  42
ENDBRANCH  33  36
ENDBRANCH  31  32
ENDBRANCH  30  31
ENDBRANCH   1  30
TORSDOF 15
ENDMDL
