MODEL 1
REMARK VINA RESULT:     -11.9      0.000      0.000
REMARK SMILES CCC([NH3+])(CC)C(=O)N1CCC(CC(=O)NCCCCNC(=O)c2ccc(-c3c4nc(c(-c5c(F)c(F)c(F)c(F)c5F)c5ccc([nH]5)c(-c5c(F)c(F)c(F)c(F)c5F)c5nc(c(-c6c(F)c(F)c(F)c(F)c6F)c6ccc3[nH]6)C=C5)C=C4)cc2)CC1
REMARK SMILES IDX 18 1 17 2 16 3 14 4 15 5 13 7 12 8 7 9 8 10 9 11 10 12 88 13
REMARK SMILES IDX 11 14 87 15 3 16 2 17 1 18 4 19 5 23 6 24 19 25 20 26 21 27
REMARK SMILES IDX 22 28 23 30 24 31 25 32 86 33 26 34 85 35 27 36 28 37 29 38
REMARK SMILES IDX 79 39 30 40 84 41 78 42 80 43 31 44 83 45 77 46 76 47 32 49
REMARK SMILES IDX 64 50 44 51 63 52 45 53 48 54 62 55 81 56 46 57 47 58 61 60
REMARK SMILES IDX 82 61 49 62 33 63 34 64 42 65 35 66 36 67 40 68 43 69 37 70
REMARK SMILES IDX 38 71 41 72 39 73 65 74 66 75 74 76 67 77 68 78 72 79 75 80
REMARK SMILES IDX 69 81 70 82 73 83 71 84 50 85 51 86 59 87 52 88 53 89 57 90
REMARK SMILES IDX 60 91 54 92 55 93 58 94 56 95
REMARK H PARENT 16 6 4 20 4 21 4 22 21 29 80 48 48 59
REMARK Flexibility Score: inf
ROOT
ATOM      1  C   UNL A   1      32.213  30.342  26.802  1.00  0.00     0.023 C 
ENDROOT
BRANCH   1   2
ATOM      2  C   UNL A   1      32.759  29.883  25.446  1.00  0.00     0.116 C 
BRANCH   2   3
ATOM      3  N   UNL A   1      31.692  29.660  24.486  1.00  0.00    -0.356 N 
ATOM      4  C   UNL A   1      30.941  28.546  24.242  1.00  0.00     0.220 C 
ATOM      5  O   UNL A   1      30.131  28.581  23.314  1.00  0.00    -0.275 OA
ATOM      6  H   UNL A   1      31.475  30.437  23.921  1.00  0.00     0.163 HD
BRANCH   4   7
ATOM      7  C   UNL A   1      31.106  27.290  25.084  1.00  0.00     0.103 C 
BRANCH   7   8
ATOM      8  C   UNL A   1      32.139  26.290  24.526  1.00  0.00     0.002 C 
ATOM      9  C   UNL A   1      33.075  22.811  25.995  1.00  0.00     0.283 C 
ATOM     10  O   UNL A   1      32.753  23.263  27.094  1.00  0.00    -0.268 OA
ATOM     11  N   UNL A   1      33.383  23.663  24.925  1.00  0.00    -0.337 N 
ATOM     12  C   UNL A   1      34.160  24.848  25.228  1.00  0.00     0.120 C 
ATOM     13  C   UNL A   1      32.452  23.860  23.820  1.00  0.00     0.120 C 
ATOM     14  C   UNL A   1      33.263  26.035  25.531  1.00  0.00     0.026 C 
ATOM     15  C   UNL A   1      31.447  24.971  24.143  1.00  0.00     0.026 C 
BRANCH   9  16
ATOM     16  C   UNL A   1      33.360  21.278  25.755  1.00  0.00     0.173 C 
BRANCH  16  17
ATOM     17  C   UNL A   1      32.179  20.580  25.020  1.00  0.00     0.075 C 
ATOM     18  C   UNL A   1      32.414  20.162  23.570  1.00  0.00     0.011 C 
ENDBRANCH  16  17
BRANCH  16  19
ATOM     19  N   UNL A   1      33.556  20.646  27.091  1.00  0.00    -0.345 N 
ATOM     20  H   UNL A   1      33.887  19.689  26.968  1.00  0.00     0.345 HD
ATOM     21  H   UNL A   1      32.669  20.636  27.596  1.00  0.00     0.345 HD
ATOM     22  H   UNL A   1      34.243  21.180  27.622  1.00  0.00     0.345 HD
ENDBRANCH  16  19
BRANCH  16  23
ATOM     23  C   UNL A   1      34.659  21.027  24.955  1.00  0.00     0.075 C 
ATOM     24  C   UNL A   1      35.936  21.435  25.685  1.00  0.00     0.011 C 
ENDBRANCH  16  23
ENDBRANCH   9  16
ENDBRANCH   7   8
ENDBRANCH   4   7
ENDBRANCH   2   3
ENDBRANCH   1   2
BRANCH   1  25
ATOM     25  C   UNL A   1      31.835  31.808  26.890  1.00  0.00     0.023 C 
BRANCH  25  26
ATOM     26  C   UNL A   1      32.915  32.685  27.485  1.00  0.00     0.116 C 
BRANCH  26  27
ATOM     27  N   UNL A   1      32.493  34.064  27.701  1.00  0.00    -0.352 N 
ATOM     28  C   UNL A   1      32.996  34.986  28.591  1.00  0.00     0.251 C 
ATOM     29  H   UNL A   1      31.749  34.377  27.137  1.00  0.00     0.163 HD
ATOM     30  O   UNL A   1      32.475  36.083  28.730  1.00  0.00    -0.269 OA
BRANCH  28  31
ATOM     31  C   UNL A   1      34.157  34.599  29.417  1.00  0.00     0.039 A 
ATOM     32  C   UNL A   1      33.941  34.124  30.710  1.00  0.00     0.014 A 
ATOM     33  C   UNL A   1      35.437  34.606  28.861  1.00  0.00     0.014 A 
ATOM     34  C   UNL A   1      35.006  33.567  31.417  1.00  0.00     0.010 A 
ATOM     35  C   UNL A   1      36.465  33.947  29.517  1.00  0.00     0.010 A 
ATOM     36  C   UNL A   1      36.263  33.430  30.805  1.00  0.00    -0.014 A 
BRANCH  36  37
ATOM     37  C   UNL A   1      37.400  32.777  31.496  1.00  0.00     0.031 A 
ATOM     38  C   UNL A   1      38.101  31.626  30.833  1.00  0.00     0.074 A 
ATOM     39  C   UNL A   1      37.736  33.154  32.744  1.00  0.00     0.049 A 
ATOM     40  N   UNL A   1      39.036  30.841  31.303  1.00  0.00    -0.248 NA
ATOM     41  C   UNL A   1      37.656  31.279  29.472  1.00  0.00     0.031 C 
ATOM     42  C   UNL A   1      37.083  34.213  33.518  1.00  0.00     0.029 A 
ATOM     43  N   UNL A   1      38.708  32.680  33.588  1.00  0.00    -0.354 N 
ATOM     44  C   UNL A   1      39.262  29.896  30.312  1.00  0.00     0.074 A 
ATOM     45  C   UNL A   1      38.324  30.160  29.246  1.00  0.00     0.031 C 
ATOM     46  C   UNL A   1      37.695  34.329  34.708  1.00  0.00     0.029 A 
ATOM     47  C   UNL A   1      38.757  33.332  34.795  1.00  0.00     0.049 A 
ATOM     48  H   UNL A   1      39.314  31.941  33.350  1.00  0.00     0.167 HD
ATOM     49  C   UNL A   1      40.196  28.916  30.279  1.00  0.00     0.037 A 
ATOM     50  C   UNL A   1      39.571  33.144  35.851  1.00  0.00     0.037 A 
ATOM     51  C   UNL A   1      41.162  28.695  31.319  1.00  0.00     0.049 A 
ATOM     52  C   UNL A   1      40.624  32.072  35.776  1.00  0.00     0.074 A 
ATOM     53  C   UNL A   1      42.202  27.785  31.353  1.00  0.00     0.029 A 
ATOM     54  N   UNL A   1      41.209  29.406  32.510  1.00  0.00    -0.354 N 
ATOM     55  N   UNL A   1      40.879  31.229  34.806  1.00  0.00    -0.248 NA
ATOM     56  C   UNL A   1      41.507  31.930  36.942  1.00  0.00     0.031 C 
ATOM     57  C   UNL A   1      42.859  27.922  32.580  1.00  0.00     0.029 A 
ATOM     58  C   UNL A   1      42.254  28.945  33.293  1.00  0.00     0.049 A 
ATOM     59  H   UNL A   1      40.591  30.131  32.761  1.00  0.00     0.167 HD
ATOM     60  C   UNL A   1      41.964  30.474  35.228  1.00  0.00     0.074 A 
ATOM     61  C   UNL A   1      42.329  30.970  36.541  1.00  0.00     0.031 C 
ATOM     62  C   UNL A   1      42.602  29.462  34.591  1.00  0.00     0.037 A 
BRANCH  49  63
ATOM     63  C   UNL A   1      40.215  28.026  29.071  1.00  0.00     0.064 A 
ATOM     64  C   UNL A   1      39.512  26.811  29.040  1.00  0.00     0.173 A 
ATOM     65  C   UNL A   1      40.944  28.390  27.929  1.00  0.00     0.173 A 
ATOM     66  F   UNL A   1      38.813  26.409  30.113  1.00  0.00    -0.203 F 
ATOM     67  C   UNL A   1      39.569  25.977  27.928  1.00  0.00     0.198 A 
ATOM     68  C   UNL A   1      40.973  27.568  26.806  1.00  0.00     0.198 A 
ATOM     69  F   UNL A   1      41.633  29.540  27.905  1.00  0.00    -0.203 F 
ATOM     70  F   UNL A   1      38.941  24.793  27.948  1.00  0.00    -0.200 F 
ATOM     71  C   UNL A   1      40.294  26.358  26.809  1.00  0.00     0.200 A 
ATOM     72  F   UNL A   1      41.666  27.941  25.722  1.00  0.00    -0.200 F 
ATOM     73  F   UNL A   1      40.349  25.554  25.739  1.00  0.00    -0.200 F 
ENDBRANCH  49  63
BRANCH  50  74
ATOM     74  C   UNL A   1      39.452  34.019  37.045  1.00  0.00     0.064 A 
ATOM     75  C   UNL A   1      38.733  33.596  38.172  1.00  0.00     0.173 A 
ATOM     76  C   UNL A   1      40.055  35.284  37.093  1.00  0.00     0.173 A 
ATOM     77  F   UNL A   1      38.123  32.401  38.166  1.00  0.00    -0.203 F 
ATOM     78  C   UNL A   1      38.608  34.411  39.295  1.00  0.00     0.198 A 
ATOM     79  C   UNL A   1      39.949  36.088  38.226  1.00  0.00     0.198 A 
ATOM     80  F   UNL A   1      40.760  35.732  36.044  1.00  0.00    -0.203 F 
ATOM     81  F   UNL A   1      37.882  33.997  40.343  1.00  0.00    -0.200 F 
ATOM     82  C   UNL A   1      39.220  35.654  39.323  1.00  0.00     0.200 A 
ATOM     83  F   UNL A   1      40.553  37.284  38.255  1.00  0.00    -0.200 F 
ATOM     84  F   UNL A   1      39.103  36.437  40.405  1.00  0.00    -0.200 F 
ENDBRANCH  50  74
BRANCH  62  85
ATOM     85  C   UNL A   1      43.775  28.845  35.289  1.00  0.00     0.064 A 
ATOM     86  C   UNL A   1      45.081  29.317  35.089  1.00  0.00     0.173 A 
ATOM     87  C   UNL A   1      43.584  27.801  36.206  1.00  0.00     0.173 A 
ATOM     88  F   UNL A   1      45.313  30.303  34.210  1.00  0.00    -0.203 F 
ATOM     89  C   UNL A   1      46.155  28.753  35.769  1.00  0.00     0.198 A 
ATOM     90  C   UNL A   1      44.658  27.257  36.905  1.00  0.00     0.198 A 
ATOM     91  F   UNL A   1      42.353  27.319  36.436  1.00  0.00    -0.203 F 
ATOM     92  F   UNL A   1      47.399  29.192  35.534  1.00  0.00    -0.200 F 
ATOM     93  C   UNL A   1      45.943  27.729  36.682  1.00  0.00     0.200 A 
ATOM     94  F   UNL A   1      44.449  26.277  37.796  1.00  0.00    -0.200 F 
ATOM     95  F   UNL A   1      46.978  27.194  37.342  1.00  0.00    -0.200 F 
ENDBRANCH  62  85
ENDBRANCH  36  37
ENDBRANCH  28  31
ENDBRANCH  26  27
ENDBRANCH  25  26
ENDBRANCH   1  25
TORSDOF 16
ENDMDL
MODEL 2
REMARK VINA RESULT:     -11.9      4.483     10.574
REMARK SMILES CCC([NH3+])(CC)C(=O)N1CCC(CC(=O)NCCCCNC(=O)c2ccc(-c3c4nc(c(-c5c(F)c(F)c(F)c(F)c5F)c5ccc([nH]5)c(-c5c(F)c(F)c(F)c(F)c5F)c5nc(c(-c6c(F)c(F)c(F)c(F)c6F)c6ccc3[nH]6)C=C5)C=C4)cc2)CC1
REMARK SMILES IDX 18 1 17 2 16 3 14 4 15 5 13 7 12 8 7 9 8 10 9 11 10 12 88 13
REMARK SMILES IDX 11 14 87 15 3 16 2 17 1 18 4 19 5 23 6 24 19 25 20 26 21 27
REMARK SMILES IDX 22 28 23 30 24 31 25 32 86 33 26 34 85 35 27 36 28 37 29 38
REMARK SMILES IDX 79 39 30 40 84 41 78 42 80 43 31 44 83 45 77 46 76 47 32 49
REMARK SMILES IDX 64 50 44 51 63 52 45 53 48 54 62 55 81 56 46 57 47 58 61 60
REMARK SMILES IDX 82 61 49 62 33 63 34 64 42 65 35 66 36 67 40 68 43 69 37 70
REMARK SMILES IDX 38 71 41 72 39 73 65 74 66 75 74 76 67 77 68 78 72 79 75 80
REMARK SMILES IDX 69 81 70 82 73 83 71 84 50 85 51 86 59 87 52 88 53 89 57 90
REMARK SMILES IDX 60 91 54 92 55 93 58 94 56 95
REMARK H PARENT 16 6 4 20 4 21 4 22 21 29 80 48 48 59
REMARK Flexibility Score: inf
ROOT
ATOM      1  C   UNL A   1      34.283  34.688  28.111  1.00  0.00     0.023 C 
ENDROOT
BRANCH   1   2
ATOM      2  C   UNL A   1      33.105  34.699  29.090  1.00  0.00     0.116 C 
BRANCH   2   3
ATOM      3  N   UNL A   1      33.079  35.917  29.884  1.00  0.00    -0.356 N 
ATOM      4  C   UNL A   1      33.300  36.106  31.217  1.00  0.00     0.220 C 
ATOM      5  O   UNL A   1      33.151  37.239  31.678  1.00  0.00    -0.275 OA
ATOM      6  H   UNL A   1      32.870  36.735  29.378  1.00  0.00     0.163 HD
BRANCH   4   7
ATOM      7  C   UNL A   1      33.709  34.950  32.116  1.00  0.00     0.103 C 
BRANCH   7   8
ATOM      8  C   UNL A   1      35.165  34.481  31.915  1.00  0.00     0.002 C 
ATOM      9  C   UNL A   1      37.298  32.321  34.349  1.00  0.00     0.283 C 
ATOM     10  O   UNL A   1      36.615  32.791  35.259  1.00  0.00    -0.268 OA
ATOM     11  N   UNL A   1      37.372  32.953  33.099  1.00  0.00    -0.337 N 
ATOM     12  C   UNL A   1      37.458  34.399  33.096  1.00  0.00     0.120 C 
ATOM     13  C   UNL A   1      36.669  32.422  31.938  1.00  0.00     0.120 C 
ATOM     14  C   UNL A   1      36.082  35.035  33.007  1.00  0.00     0.026 C 
ATOM     15  C   UNL A   1      35.229  32.945  31.884  1.00  0.00     0.026 C 
BRANCH   9  16
ATOM     16  C   UNL A   1      38.285  31.110  34.563  1.00  0.00     0.173 C 
BRANCH  16  17
ATOM     17  C   UNL A   1      38.101  30.015  33.474  1.00  0.00     0.075 C 
ATOM     18  C   UNL A   1      39.316  29.148  33.150  1.00  0.00     0.011 C 
ENDBRANCH  16  17
BRANCH  16  19
ATOM     19  N   UNL A   1      37.993  30.529  35.905  1.00  0.00    -0.345 N 
ATOM     20  H   UNL A   1      37.191  31.009  36.316  1.00  0.00     0.345 HD
ATOM     21  H   UNL A   1      38.805  30.646  36.512  1.00  0.00     0.345 HD
ATOM     22  H   UNL A   1      37.782  29.536  35.808  1.00  0.00     0.345 HD
ENDBRANCH  16  19
BRANCH  16  23
ATOM     23  C   UNL A   1      39.770  31.542  34.587  1.00  0.00     0.075 C 
ATOM     24  C   UNL A   1      40.347  31.735  35.986  1.00  0.00     0.011 C 
ENDBRANCH  16  23
ENDBRANCH   9  16
ENDBRANCH   7   8
ENDBRANCH   4   7
ENDBRANCH   2   3
ENDBRANCH   1   2
BRANCH   1  25
ATOM     25  C   UNL A   1      35.017  33.366  27.991  1.00  0.00     0.023 C 
BRANCH  25  26
ATOM     26  C   UNL A   1      34.453  32.269  28.868  1.00  0.00     0.116 C 
BRANCH  26  27
ATOM     27  N   UNL A   1      33.994  31.104  28.121  1.00  0.00    -0.352 N 
ATOM     28  C   UNL A   1      34.706  29.983  27.756  1.00  0.00     0.251 C 
ATOM     29  H   UNL A   1      33.051  31.120  27.840  1.00  0.00     0.163 HD
ATOM     30  O   UNL A   1      34.212  29.123  27.042  1.00  0.00    -0.269 OA
BRANCH  28  31
ATOM     31  C   UNL A   1      36.107  29.868  28.206  1.00  0.00     0.039 A 
ATOM     32  C   UNL A   1      36.370  29.351  29.475  1.00  0.00     0.014 A 
ATOM     33  C   UNL A   1      37.147  30.168  27.326  1.00  0.00     0.014 A 
ATOM     34  C   UNL A   1      37.686  29.049  29.827  1.00  0.00     0.010 A 
ATOM     35  C   UNL A   1      38.434  29.758  27.631  1.00  0.00     0.010 A 
ATOM     36  C   UNL A   1      38.719  29.204  28.888  1.00  0.00    -0.014 A 
BRANCH  36  37
ATOM     37  C   UNL A   1      40.118  28.825  29.199  1.00  0.00     0.031 A 
ATOM     38  C   UNL A   1      40.977  29.771  29.988  1.00  0.00     0.074 A 
ATOM     39  C   UNL A   1      40.635  27.688  28.698  1.00  0.00     0.049 A 
ATOM     40  N   UNL A   1      42.252  29.694  30.272  1.00  0.00    -0.248 NA
ATOM     41  C   UNL A   1      40.326  30.996  30.485  1.00  0.00     0.031 C 
ATOM     42  C   UNL A   1      39.919  26.724  27.860  1.00  0.00     0.029 A 
ATOM     43  N   UNL A   1      41.894  27.154  28.814  1.00  0.00    -0.354 N 
ATOM     44  C   UNL A   1      42.555  30.869  30.948  1.00  0.00     0.074 A 
ATOM     45  C   UNL A   1      41.354  31.672  30.972  1.00  0.00     0.031 C 
ATOM     46  C   UNL A   1      40.738  25.702  27.566  1.00  0.00     0.029 A 
ATOM     47  C   UNL A   1      42.045  25.954  28.162  1.00  0.00     0.049 A 
ATOM     48  H   UNL A   1      42.620  27.590  29.315  1.00  0.00     0.167 HD
ATOM     49  C   UNL A   1      43.723  31.230  31.528  1.00  0.00     0.037 A 
ATOM     50  C   UNL A   1      43.122  25.151  28.064  1.00  0.00     0.037 A 
ATOM     51  C   UNL A   1      44.898  30.402  31.548  1.00  0.00     0.049 A 
ATOM     52  C   UNL A   1      44.399  25.558  28.747  1.00  0.00     0.074 A 
ATOM     53  C   UNL A   1      46.107  30.634  32.175  1.00  0.00     0.029 A 
ATOM     54  N   UNL A   1      45.000  29.171  30.916  1.00  0.00    -0.354 N 
ATOM     55  N   UNL A   1      44.657  26.637  29.444  1.00  0.00    -0.248 NA
ATOM     56  C   UNL A   1      45.533  24.630  28.635  1.00  0.00     0.031 C 
ATOM     57  C   UNL A   1      46.956  29.558  31.894  1.00  0.00     0.029 A 
ATOM     58  C   UNL A   1      46.260  28.637  31.126  1.00  0.00     0.049 A 
ATOM     59  H   UNL A   1      44.284  28.742  30.394  1.00  0.00     0.167 HD
ATOM     60  C   UNL A   1      45.970  26.510  29.877  1.00  0.00     0.074 A 
ATOM     61  C   UNL A   1      46.452  25.239  29.372  1.00  0.00     0.031 C 
ATOM     62  C   UNL A   1      46.711  27.366  30.622  1.00  0.00     0.037 A 
BRANCH  49  63
ATOM     63  C   UNL A   1      43.773  32.572  32.196  1.00  0.00     0.064 A 
ATOM     64  C   UNL A   1      43.475  32.727  33.560  1.00  0.00     0.173 A 
ATOM     65  C   UNL A   1      44.123  33.719  31.468  1.00  0.00     0.173 A 
ATOM     66  F   UNL A   1      43.118  31.664  34.297  1.00  0.00    -0.203 F 
ATOM     67  C   UNL A   1      43.487  33.984  34.159  1.00  0.00     0.198 A 
ATOM     68  C   UNL A   1      44.166  34.970  32.079  1.00  0.00     0.198 A 
ATOM     69  F   UNL A   1      44.418  33.628  30.163  1.00  0.00    -0.203 F 
ATOM     70  F   UNL A   1      43.137  34.113  35.446  1.00  0.00    -0.200 F 
ATOM     71  C   UNL A   1      43.838  35.103  33.420  1.00  0.00     0.200 A 
ATOM     72  F   UNL A   1      44.514  36.050  31.366  1.00  0.00    -0.200 F 
ATOM     73  F   UNL A   1      43.849  36.312  33.997  1.00  0.00    -0.200 F 
ENDBRANCH  49  63
BRANCH  50  74
ATOM     74  C   UNL A   1      43.023  23.865  27.328  1.00  0.00     0.064 A 
ATOM     75  C   UNL A   1      42.546  22.712  27.966  1.00  0.00     0.173 A 
ATOM     76  C   UNL A   1      43.392  23.759  25.980  1.00  0.00     0.173 A 
ATOM     77  F   UNL A   1      42.199  22.759  29.261  1.00  0.00    -0.203 F 
ATOM     78  C   UNL A   1      42.455  21.497  27.289  1.00  0.00     0.198 A 
ATOM     79  C   UNL A   1      43.278  22.549  25.296  1.00  0.00     0.198 A 
ATOM     80  F   UNL A   1      43.848  24.835  25.321  1.00  0.00    -0.203 F 
ATOM     81  F   UNL A   1      42.033  20.402  27.935  1.00  0.00    -0.200 F 
ATOM     82  C   UNL A   1      42.817  21.419  25.953  1.00  0.00     0.200 A 
ATOM     83  F   UNL A   1      43.616  22.480  24.001  1.00  0.00    -0.200 F 
ATOM     84  F   UNL A   1      42.726  20.252  25.300  1.00  0.00    -0.200 F 
ENDBRANCH  50  74
BRANCH  62  85
ATOM     85  C   UNL A   1      48.108  26.944  30.962  1.00  0.00     0.064 A 
ATOM     86  C   UNL A   1      48.377  26.103  32.051  1.00  0.00     0.173 A 
ATOM     87  C   UNL A   1      49.184  27.347  30.157  1.00  0.00     0.173 A 
ATOM     88  F   UNL A   1      47.382  25.705  32.858  1.00  0.00    -0.203 F 
ATOM     89  C   UNL A   1      49.678  25.696  32.333  1.00  0.00     0.198 A 
ATOM     90  C   UNL A   1      50.480  26.915  30.426  1.00  0.00     0.198 A 
ATOM     91  F   UNL A   1      48.977  28.146  29.099  1.00  0.00    -0.203 F 
ATOM     92  F   UNL A   1      49.918  24.924  33.403  1.00  0.00    -0.200 F 
ATOM     93  C   UNL A   1      50.726  26.096  31.517  1.00  0.00     0.200 A 
ATOM     94  F   UNL A   1      51.490  27.291  29.629  1.00  0.00    -0.200 F 
ATOM     95  F   UNL A   1      51.976  25.695  31.786  1.00  0.00    -0.200 F 
ENDBRANCH  62  85
ENDBRANCH  36  37
ENDBRANCH  28  31
ENDBRANCH  26  27
ENDBRANCH  25  26
ENDBRANCH   1  25
TORSDOF 16
ENDMDL
MODEL 3
REMARK VINA RESULT:     -11.9      0.756      7.398
REMARK SMILES CCC([NH3+])(CC)C(=O)N1CCC(CC(=O)NCCCCNC(=O)c2ccc(-c3c4nc(c(-c5c(F)c(F)c(F)c(F)c5F)c5ccc([nH]5)c(-c5c(F)c(F)c(F)c(F)c5F)c5nc(c(-c6c(F)c(F)c(F)c(F)c6F)c6ccc3[nH]6)C=C5)C=C4)cc2)CC1
REMARK SMILES IDX 18 1 17 2 16 3 14 4 15 5 13 7 12 8 7 9 8 10 9 11 10 12 88 13
REMARK SMILES IDX 11 14 87 15 3 16 2 17 1 18 4 19 5 23 6 24 19 25 20 26 21 27
REMARK SMILES IDX 22 28 23 30 24 31 25 32 86 33 26 34 85 35 27 36 28 37 29 38
REMARK SMILES IDX 79 39 30 40 84 41 78 42 80 43 31 44 83 45 77 46 76 47 32 49
REMARK SMILES IDX 64 50 44 51 63 52 45 53 48 54 62 55 81 56 46 57 47 58 61 60
REMARK SMILES IDX 82 61 49 62 33 63 34 64 42 65 35 66 36 67 40 68 43 69 37 70
REMARK SMILES IDX 38 71 41 72 39 73 65 74 66 75 74 76 67 77 68 78 72 79 75 80
REMARK SMILES IDX 69 81 70 82 73 83 71 84 50 85 51 86 59 87 52 88 53 89 57 90
REMARK SMILES IDX 60 91 54 92 55 93 58 94 56 95
REMARK H PARENT 16 6 4 20 4 21 4 22 21 29 80 48 48 59
REMARK Flexibility Score: inf
ROOT
ATOM      1  C   UNL A   1      31.778  30.539  26.766  1.00  0.00     0.023 C 
ENDROOT
BRANCH   1   2
ATOM      2  C   UNL A   1      32.448  29.915  25.538  1.00  0.00     0.116 C 
BRANCH   2   3
ATOM      3  N   UNL A   1      31.500  29.710  24.456  1.00  0.00    -0.356 N 
ATOM      4  C   UNL A   1      30.873  28.573  24.034  1.00  0.00     0.220 C 
ATOM      5  O   UNL A   1      30.155  28.640  23.035  1.00  0.00    -0.275 OA
ATOM      6  H   UNL A   1      31.274  30.521  23.946  1.00  0.00     0.163 HD
BRANCH   4   7
ATOM      7  C   UNL A   1      31.062  27.255  24.769  1.00  0.00     0.103 C 
BRANCH   7   8
ATOM      8  C   UNL A   1      32.344  26.493  24.375  1.00  0.00     0.002 C 
ATOM      9  C   UNL A   1      33.490  23.001  25.650  1.00  0.00     0.283 C 
ATOM     10  O   UNL A   1      32.860  23.244  26.680  1.00  0.00    -0.268 OA
ATOM     11  N   UNL A   1      33.884  24.030  24.783  1.00  0.00    -0.337 N 
ATOM     12  C   UNL A   1      34.367  25.254  25.389  1.00  0.00     0.120 C 
ATOM     13  C   UNL A   1      33.204  24.254  23.513  1.00  0.00     0.120 C 
ATOM     14  C   UNL A   1      33.241  26.253  25.590  1.00  0.00     0.026 C 
ATOM     15  C   UNL A   1      31.983  25.160  23.698  1.00  0.00     0.026 C 
BRANCH   9  16
ATOM     16  C   UNL A   1      34.070  21.571  25.325  1.00  0.00     0.173 C 
BRANCH  16  17
ATOM     17  C   UNL A   1      33.239  20.847  24.227  1.00  0.00     0.075 C 
ATOM     18  C   UNL A   1      32.530  19.556  24.632  1.00  0.00     0.011 C 
ENDBRANCH  16  17
BRANCH  16  19
ATOM     19  N   UNL A   1      34.027  20.775  26.585  1.00  0.00    -0.345 N 
ATOM     20  H   UNL A   1      34.686  21.168  27.257  1.00  0.00     0.345 HD
ATOM     21  H   UNL A   1      34.282  19.807  26.386  1.00  0.00     0.345 HD
ATOM     22  H   UNL A   1      33.085  20.804  26.975  1.00  0.00     0.345 HD
ENDBRANCH  16  19
BRANCH  16  23
ATOM     23  C   UNL A   1      35.551  21.610  24.881  1.00  0.00     0.075 C 
ATOM     24  C   UNL A   1      36.278  20.273  24.998  1.00  0.00     0.011 C 
ENDBRANCH  16  23
ENDBRANCH   9  16
ENDBRANCH   7   8
ENDBRANCH   4   7
ENDBRANCH   2   3
ENDBRANCH   1   2
BRANCH   1  25
ATOM     25  C   UNL A   1      31.601  32.045  26.715  1.00  0.00     0.023 C 
BRANCH  25  26
ATOM     26  C   UNL A   1      32.771  32.820  27.281  1.00  0.00     0.116 C 
BRANCH  26  27
ATOM     27  N   UNL A   1      32.445  34.199  27.626  1.00  0.00    -0.352 N 
ATOM     28  C   UNL A   1      33.017  35.002  28.587  1.00  0.00     0.251 C 
ATOM     29  H   UNL A   1      31.719  34.611  27.103  1.00  0.00     0.163 HD
ATOM     30  O   UNL A   1      32.573  36.113  28.831  1.00  0.00    -0.269 OA
BRANCH  28  31
ATOM     31  C   UNL A   1      34.156  34.465  29.358  1.00  0.00     0.039 A 
ATOM     32  C   UNL A   1      33.905  33.736  30.520  1.00  0.00     0.014 A 
ATOM     33  C   UNL A   1      35.454  34.595  28.861  1.00  0.00     0.014 A 
ATOM     34  C   UNL A   1      34.955  33.056  31.138  1.00  0.00     0.010 A 
ATOM     35  C   UNL A   1      36.469  33.825  29.406  1.00  0.00     0.010 A 
ATOM     36  C   UNL A   1      36.233  33.057  30.555  1.00  0.00    -0.014 A 
BRANCH  36  37
ATOM     37  C   UNL A   1      37.356  32.287  31.140  1.00  0.00     0.031 A 
ATOM     38  C   UNL A   1      37.844  32.632  32.518  1.00  0.00     0.074 A 
ATOM     39  C   UNL A   1      37.989  31.354  30.405  1.00  0.00     0.049 A 
ATOM     40  N   UNL A   1      38.879  32.170  33.172  1.00  0.00    -0.248 NA
ATOM     41  C   UNL A   1      37.095  33.675  33.241  1.00  0.00     0.031 C 
ATOM     42  C   UNL A   1      37.651  30.980  29.030  1.00  0.00     0.029 A 
ATOM     43  N   UNL A   1      39.061  30.554  30.710  1.00  0.00    -0.354 N 
ATOM     44  C   UNL A   1      38.919  32.887  34.361  1.00  0.00     0.074 A 
ATOM     45  C   UNL A   1      37.852  33.860  34.311  1.00  0.00     0.031 C 
ATOM     46  C   UNL A   1      38.476  30.002  28.623  1.00  0.00     0.029 A 
ATOM     47  C   UNL A   1      39.423  29.705  29.693  1.00  0.00     0.049 A 
ATOM     48  H   UNL A   1      39.528  30.586  31.576  1.00  0.00     0.167 HD
ATOM     49  C   UNL A   1      39.751  32.724  35.416  1.00  0.00     0.037 A 
ATOM     50  C   UNL A   1      40.408  28.789  29.637  1.00  0.00     0.037 A 
ATOM     51  C   UNL A   1      40.774  31.717  35.481  1.00  0.00     0.049 A 
ATOM     52  C   UNL A   1      41.297  28.601  30.836  1.00  0.00     0.074 A 
ATOM     53  C   UNL A   1      41.619  31.411  36.532  1.00  0.00     0.029 A 
ATOM     54  N   UNL A   1      41.082  30.843  34.448  1.00  0.00    -0.354 N 
ATOM     55  N   UNL A   1      41.283  29.234  31.983  1.00  0.00    -0.248 NA
ATOM     56  C   UNL A   1      42.335  27.566  30.734  1.00  0.00     0.031 C 
ATOM     57  C   UNL A   1      42.462  30.373  36.122  1.00  0.00     0.029 A 
ATOM     58  C   UNL A   1      42.115  30.005  34.831  1.00  0.00     0.049 A 
ATOM     59  H   UNL A   1      40.632  30.823  33.572  1.00  0.00     0.167 HD
ATOM     60  C   UNL A   1      42.288  28.660  32.750  1.00  0.00     0.074 A 
ATOM     61  C   UNL A   1      42.885  27.618  31.940  1.00  0.00     0.031 C 
ATOM     62  C   UNL A   1      42.683  28.969  34.009  1.00  0.00     0.037 A 
BRANCH  49  63
ATOM     63  C   UNL A   1      39.570  33.649  36.583  1.00  0.00     0.064 A 
ATOM     64  C   UNL A   1      40.214  34.896  36.640  1.00  0.00     0.173 A 
ATOM     65  C   UNL A   1      38.744  33.289  37.658  1.00  0.00     0.173 A 
ATOM     66  F   UNL A   1      41.028  35.281  35.645  1.00  0.00    -0.203 F 
ATOM     67  C   UNL A   1      40.068  35.729  37.746  1.00  0.00     0.198 A 
ATOM     68  C   UNL A   1      38.575  34.139  38.747  1.00  0.00     0.198 A 
ATOM     69  F   UNL A   1      38.105  32.110  37.654  1.00  0.00    -0.203 F 
ATOM     70  F   UNL A   1      40.743  36.885  37.804  1.00  0.00    -0.200 F 
ATOM     71  C   UNL A   1      39.244  35.353  38.796  1.00  0.00     0.200 A 
ATOM     72  F   UNL A   1      37.772  33.779  39.758  1.00  0.00    -0.200 F 
ATOM     73  F   UNL A   1      39.105  36.155  39.860  1.00  0.00    -0.200 F 
ENDBRANCH  49  63
BRANCH  50  74
ATOM     74  C   UNL A   1      40.574  27.951  28.422  1.00  0.00     0.064 A 
ATOM     75  C   UNL A   1      39.951  26.698  28.327  1.00  0.00     0.173 A 
ATOM     76  C   UNL A   1      41.345  28.380  27.333  1.00  0.00     0.173 A 
ATOM     77  F   UNL A   1      39.218  26.237  29.352  1.00  0.00    -0.203 F 
ATOM     78  C   UNL A   1      40.105  25.900  27.196  1.00  0.00     0.198 A 
ATOM     79  C   UNL A   1      41.479  27.591  26.191  1.00  0.00     0.198 A 
ATOM     80  F   UNL A   1      41.956  29.573  27.371  1.00  0.00    -0.203 F 
ATOM     81  F   UNL A   1      39.530  24.690  27.149  1.00  0.00    -0.200 F 
ATOM     82  C   UNL A   1      40.865  26.349  26.127  1.00  0.00     0.200 A 
ATOM     83  F   UNL A   1      42.203  28.034  25.154  1.00  0.00    -0.200 F 
ATOM     84  F   UNL A   1      41.010  25.583  25.037  1.00  0.00    -0.200 F 
ENDBRANCH  50  74
BRANCH  62  85
ATOM     85  C   UNL A   1      43.792  28.150  34.599  1.00  0.00     0.064 A 
ATOM     86  C   UNL A   1      45.128  28.572  34.539  1.00  0.00     0.173 A 
ATOM     87  C   UNL A   1      43.506  26.954  35.274  1.00  0.00     0.173 A 
ATOM     88  F   UNL A   1      45.450  29.701  33.890  1.00  0.00    -0.203 F 
ATOM     89  C   UNL A   1      46.141  27.814  35.120  1.00  0.00     0.198 A 
ATOM     90  C   UNL A   1      44.519  26.214  35.877  1.00  0.00     0.198 A 
ATOM     91  F   UNL A   1      42.242  26.512  35.364  1.00  0.00    -0.203 F 
ATOM     92  F   UNL A   1      47.416  28.215  35.017  1.00  0.00    -0.200 F 
ATOM     93  C   UNL A   1      45.835  26.641  35.794  1.00  0.00     0.200 A 
ATOM     94  F   UNL A   1      44.221  25.087  36.539  1.00  0.00    -0.200 F 
ATOM     95  F   UNL A   1      46.812  25.919  36.359  1.00  0.00    -0.200 F 
ENDBRANCH  62  85
ENDBRANCH  36  37
ENDBRANCH  28  31
ENDBRANCH  26  27
ENDBRANCH  25  26
ENDBRANCH   1  25
TORSDOF 16
ENDMDL
