MODEL 1
REMARK VINA RESULT:     -12.2      0.000      0.000
REMARK SMILES C#CCNC(=O)N[C@@]1(C(=O)NCCCCNC(=O)c2ccc(-c3c4nc(c(-c5c(F)c(F)c(F)c(F)c5F)c5ccc([nH]5)c(-c5c(F)c(F)c(F)c(F)c5F)c5nc(c(-c6c(F)c(F)c(F)c(F)c6F)c6ccc3[nH]6)C=C5)C=C4)cc2)CCc2ccccc21
REMARK SMILES IDX 13 1 12 2 11 3 9 4 10 5 8 7 82 8 89 9 83 10 84 11 88 12
REMARK SMILES IDX 85 13 87 14 86 15 7 16 4 17 5 18 6 20 3 22 2 23 1 24 14 25
REMARK SMILES IDX 15 26 16 27 17 28 18 30 19 31 20 32 81 33 21 34 80 35 22 36
REMARK SMILES IDX 23 37 24 38 74 39 25 40 79 41 73 42 75 43 26 44 78 45 72 46
REMARK SMILES IDX 71 47 27 49 59 50 39 51 58 52 40 53 43 54 57 55 76 56 41 57
REMARK SMILES IDX 42 58 56 60 77 61 44 62 28 63 29 64 37 65 30 66 31 67 35 68
REMARK SMILES IDX 38 69 32 70 33 71 36 72 34 73 60 74 61 75 69 76 62 77 63 78
REMARK SMILES IDX 67 79 70 80 64 81 65 82 68 83 66 84 45 85 46 86 54 87 47 88
REMARK SMILES IDX 48 89 52 90 55 91 49 92 50 93 53 94 51 95
REMARK H PARENT 11 6 4 19 7 21 16 29 75 48 43 59
REMARK Flexibility Score: inf
ROOT
ATOM      1  C   UNL A   1      32.221  27.452  26.780  1.00  0.00     0.023 C 
ENDROOT
BRANCH   1   2
ATOM      2  C   UNL A   1      32.671  26.195  26.025  1.00  0.00     0.116 C 
BRANCH   2   3
ATOM      3  N   UNL A   1      31.831  25.011  26.130  1.00  0.00    -0.354 N 
ATOM      4  C   UNL A   1      31.394  24.101  25.193  1.00  0.00     0.250 C 
ATOM      5  O   UNL A   1      30.936  23.033  25.620  1.00  0.00    -0.272 OA
ATOM      6  H   UNL A   1      31.517  24.825  27.045  1.00  0.00     0.163 HD
BRANCH   4   7
ATOM      7  C   UNL A   1      31.630  24.328  23.668  1.00  0.00     0.146 C 
ATOM      8  C   UNL A   1      32.991  24.990  23.280  1.00  0.00     0.048 C 
ATOM      9  C   UNL A   1      30.680  25.486  23.312  1.00  0.00    -0.010 A 
ATOM     10  C   UNL A   1      32.704  26.048  22.206  1.00  0.00     0.039 C 
ATOM     11  C   UNL A   1      31.358  26.508  22.642  1.00  0.00    -0.042 A 
ATOM     12  C   UNL A   1      29.425  25.743  23.867  1.00  0.00     0.007 A 
ATOM     13  C   UNL A   1      30.836  27.791  22.563  1.00  0.00     0.004 A 
ATOM     14  C   UNL A   1      28.915  27.039  23.837  1.00  0.00     0.000 A 
ATOM     15  C   UNL A   1      29.624  28.061  23.200  1.00  0.00     0.000 A 
BRANCH   7  16
ATOM     16  N   UNL A   1      31.476  23.108  22.896  1.00  0.00    -0.320 N 
ATOM     17  N   UNL A   1      33.256  21.717  23.668  1.00  0.00    -0.327 N 
ATOM     18  C   UNL A   1      32.242  22.004  22.832  1.00  0.00     0.316 C 
ATOM     19  H   UNL A   1      33.411  20.747  23.737  1.00  0.00     0.166 HD
ATOM     20  O   UNL A   1      31.929  21.142  22.008  1.00  0.00    -0.249 OA
ATOM     21  H   UNL A   1      30.677  23.086  22.322  1.00  0.00     0.166 HD
BRANCH  17  22
ATOM     22  C   UNL A   1      34.179  22.472  24.492  1.00  0.00     0.207 C 
BRANCH  22  23
ATOM     23  C   UNL A   1      35.548  22.765  23.902  1.00  0.00    -0.085 C 
ATOM     24  C   UNL A   1      36.722  23.015  23.396  1.00  0.00     0.006 C 
ENDBRANCH  22  23
ENDBRANCH  17  22
ENDBRANCH   7  16
ENDBRANCH   4   7
ENDBRANCH   2   3
ENDBRANCH   1   2
BRANCH   1  25
ATOM     25  C   UNL A   1      31.821  28.691  25.986  1.00  0.00     0.023 C 
BRANCH  25  26
ATOM     26  C   UNL A   1      32.921  29.695  25.696  1.00  0.00     0.116 C 
BRANCH  26  27
ATOM     27  N   UNL A   1      32.630  31.016  26.217  1.00  0.00    -0.352 N 
ATOM     28  C   UNL A   1      33.281  31.766  27.154  1.00  0.00     0.251 C 
ATOM     29  H   UNL A   1      31.831  31.444  25.831  1.00  0.00     0.163 HD
ATOM     30  O   UNL A   1      32.795  32.839  27.508  1.00  0.00    -0.269 OA
BRANCH  28  31
ATOM     31  C   UNL A   1      34.527  31.283  27.782  1.00  0.00     0.039 A 
ATOM     32  C   UNL A   1      35.575  32.197  27.917  1.00  0.00     0.014 A 
ATOM     33  C   UNL A   1      34.688  29.965  28.217  1.00  0.00     0.014 A 
ATOM     34  C   UNL A   1      36.763  31.802  28.527  1.00  0.00     0.010 A 
ATOM     35  C   UNL A   1      35.844  29.596  28.904  1.00  0.00     0.010 A 
ATOM     36  C   UNL A   1      36.896  30.508  29.057  1.00  0.00    -0.014 A 
BRANCH  36  37
ATOM     37  C   UNL A   1      38.135  30.132  29.782  1.00  0.00     0.031 A 
ATOM     38  C   UNL A   1      38.394  30.626  31.176  1.00  0.00     0.074 A 
ATOM     39  C   UNL A   1      39.031  29.332  29.170  1.00  0.00     0.049 A 
ATOM     40  N   UNL A   1      39.386  30.341  31.982  1.00  0.00    -0.248 NA
ATOM     41  C   UNL A   1      37.426  31.583  31.734  1.00  0.00     0.031 C 
ATOM     42  C   UNL A   1      38.920  28.838  27.797  1.00  0.00     0.029 A 
ATOM     43  N   UNL A   1      40.203  28.784  29.627  1.00  0.00    -0.354 N 
ATOM     44  C   UNL A   1      39.162  31.080  33.137  1.00  0.00     0.074 A 
ATOM     45  C   UNL A   1      37.976  31.875  32.904  1.00  0.00     0.031 C 
ATOM     46  C   UNL A   1      39.954  28.023  27.538  1.00  0.00     0.029 A 
ATOM     47  C   UNL A   1      40.818  27.966  28.712  1.00  0.00     0.049 A 
ATOM     48  H   UNL A   1      40.567  28.961  30.524  1.00  0.00     0.167 HD
ATOM     49  C   UNL A   1      39.867  31.075  34.294  1.00  0.00     0.037 A 
ATOM     50  C   UNL A   1      41.949  27.244  28.811  1.00  0.00     0.037 A 
ATOM     51  C   UNL A   1      41.044  30.275  34.521  1.00  0.00     0.049 A 
ATOM     52  C   UNL A   1      42.711  27.255  30.108  1.00  0.00     0.074 A 
ATOM     53  C   UNL A   1      41.800  30.160  35.675  1.00  0.00     0.029 A 
ATOM     54  N   UNL A   1      41.642  29.461  33.570  1.00  0.00    -0.354 N 
ATOM     55  N   UNL A   1      42.443  27.892  31.222  1.00  0.00    -0.248 NA
ATOM     56  C   UNL A   1      43.925  26.433  30.165  1.00  0.00     0.031 C 
ATOM     57  C   UNL A   1      42.888  29.323  35.403  1.00  0.00     0.029 A 
ATOM     58  C   UNL A   1      42.774  28.862  34.103  1.00  0.00     0.049 A 
ATOM     59  H   UNL A   1      41.312  29.327  32.652  1.00  0.00     0.167 HD
ATOM     60  C   UNL A   1      43.438  27.529  32.119  1.00  0.00     0.074 A 
ATOM     61  C   UNL A   1      44.297  26.591  31.425  1.00  0.00     0.031 C 
ATOM     62  C   UNL A   1      43.627  27.937  33.399  1.00  0.00     0.037 A 
BRANCH  49  63
ATOM     63  C   UNL A   1      39.384  31.965  35.406  1.00  0.00     0.064 A 
ATOM     64  C   UNL A   1      38.516  31.497  36.404  1.00  0.00     0.173 A 
ATOM     65  C   UNL A   1      39.826  33.294  35.496  1.00  0.00     0.173 A 
ATOM     66  F   UNL A   1      38.054  30.238  36.361  1.00  0.00    -0.203 F 
ATOM     67  C   UNL A   1      38.085  32.332  37.432  1.00  0.00     0.198 A 
ATOM     68  C   UNL A   1      39.420  34.116  36.544  1.00  0.00     0.198 A 
ATOM     69  F   UNL A   1      40.660  33.795  34.572  1.00  0.00    -0.203 F 
ATOM     70  F   UNL A   1      37.215  31.876  38.343  1.00  0.00    -0.200 F 
ATOM     71  C   UNL A   1      38.545  33.638  37.506  1.00  0.00     0.200 A 
ATOM     72  F   UNL A   1      39.877  35.375  36.622  1.00  0.00    -0.200 F 
ATOM     73  F   UNL A   1      38.136  34.438  38.500  1.00  0.00    -0.200 F 
ENDBRANCH  49  63
BRANCH  50  74
ATOM     74  C   UNL A   1      42.414  26.427  27.659  1.00  0.00     0.064 A 
ATOM     75  C   UNL A   1      41.921  25.132  27.443  1.00  0.00     0.173 A 
ATOM     76  C   UNL A   1      43.367  26.920  26.754  1.00  0.00     0.173 A 
ATOM     77  F   UNL A   1      41.022  24.608  28.289  1.00  0.00    -0.203 F 
ATOM     78  C   UNL A   1      42.384  24.352  26.385  1.00  0.00     0.198 A 
ATOM     79  C   UNL A   1      43.802  26.152  25.677  1.00  0.00     0.198 A 
ATOM     80  F   UNL A   1      43.865  28.155  26.910  1.00  0.00    -0.203 F 
ATOM     81  F   UNL A   1      41.937  23.098  26.235  1.00  0.00    -0.200 F 
ATOM     82  C   UNL A   1      43.319  24.866  25.499  1.00  0.00     0.200 A 
ATOM     83  F   UNL A   1      44.694  26.659  24.814  1.00  0.00    -0.200 F 
ATOM     84  F   UNL A   1      43.761  24.116  24.480  1.00  0.00    -0.200 F 
ENDBRANCH  50  74
BRANCH  62  85
ATOM     85  C   UNL A   1      44.795  27.342  34.137  1.00  0.00     0.064 A 
ATOM     86  C   UNL A   1      46.057  27.957  34.143  1.00  0.00     0.173 A 
ATOM     87  C   UNL A   1      44.653  26.135  34.838  1.00  0.00     0.173 A 
ATOM     88  F   UNL A   1      46.253  29.106  33.477  1.00  0.00    -0.203 F 
ATOM     89  C   UNL A   1      47.143  27.359  34.779  1.00  0.00     0.198 A 
ATOM     90  C   UNL A   1      45.730  25.561  35.507  1.00  0.00     0.198 A 
ATOM     91  F   UNL A   1      43.466  25.510  34.876  1.00  0.00    -0.203 F 
ATOM     92  F   UNL A   1      48.355  27.926  34.704  1.00  0.00    -0.200 F 
ATOM     93  C   UNL A   1      46.977  26.165  35.464  1.00  0.00     0.200 A 
ATOM     94  F   UNL A   1      45.564  24.417  36.183  1.00  0.00    -0.200 F 
ATOM     95  F   UNL A   1      48.024  25.588  36.069  1.00  0.00    -0.200 F 
ENDBRANCH  62  85
ENDBRANCH  36  37
ENDBRANCH  28  31
ENDBRANCH  26  27
ENDBRANCH  25  26
ENDBRANCH   1  25
TORSDOF 14
ENDMDL
MODEL 2
REMARK VINA RESULT:     -12.2      0.120      1.132
REMARK SMILES C#CCNC(=O)N[C@@]1(C(=O)NCCCCNC(=O)c2ccc(-c3c4nc(c(-c5c(F)c(F)c(F)c(F)c5F)c5ccc([nH]5)c(-c5c(F)c(F)c(F)c(F)c5F)c5nc(c(-c6c(F)c(F)c(F)c(F)c6F)c6ccc3[nH]6)C=C5)C=C4)cc2)CCc2ccccc21
REMARK SMILES IDX 13 1 12 2 11 3 9 4 10 5 8 7 82 8 89 9 83 10 84 11 88 12
REMARK SMILES IDX 85 13 87 14 86 15 7 16 4 17 5 18 6 20 3 22 2 23 1 24 14 25
REMARK SMILES IDX 15 26 16 27 17 28 18 30 19 31 20 32 81 33 21 34 80 35 22 36
REMARK SMILES IDX 23 37 24 38 74 39 25 40 79 41 73 42 75 43 26 44 78 45 72 46
REMARK SMILES IDX 71 47 27 49 59 50 39 51 58 52 40 53 43 54 57 55 76 56 41 57
REMARK SMILES IDX 42 58 56 60 77 61 44 62 28 63 29 64 37 65 30 66 31 67 35 68
REMARK SMILES IDX 38 69 32 70 33 71 36 72 34 73 60 74 61 75 69 76 62 77 63 78
REMARK SMILES IDX 67 79 70 80 64 81 65 82 68 83 66 84 45 85 46 86 54 87 47 88
REMARK SMILES IDX 48 89 52 90 55 91 49 92 50 93 53 94 51 95
REMARK H PARENT 11 6 4 19 7 21 16 29 75 48 43 59
REMARK Flexibility Score: inf
ROOT
ATOM      1  C   UNL A   1      32.136  27.461  26.843  1.00  0.00     0.023 C 
ENDROOT
BRANCH   1   2
ATOM      2  C   UNL A   1      32.577  26.227  26.046  1.00  0.00     0.116 C 
BRANCH   2   3
ATOM      3  N   UNL A   1      31.746  25.036  26.137  1.00  0.00    -0.354 N 
ATOM      4  C   UNL A   1      31.343  24.115  25.196  1.00  0.00     0.250 C 
ATOM      5  O   UNL A   1      30.884  23.046  25.618  1.00  0.00    -0.272 OA
ATOM      6  H   UNL A   1      31.408  24.854  27.044  1.00  0.00     0.163 HD
BRANCH   4   7
ATOM      7  C   UNL A   1      31.619  24.333  23.676  1.00  0.00     0.146 C 
ATOM      8  C   UNL A   1      33.001  24.967  23.318  1.00  0.00     0.048 C 
ATOM      9  C   UNL A   1      30.701  25.507  23.295  1.00  0.00    -0.010 A 
ATOM     10  C   UNL A   1      32.760  26.027  22.235  1.00  0.00     0.039 C 
ATOM     11  C   UNL A   1      31.413  26.514  22.638  1.00  0.00    -0.042 A 
ATOM     12  C   UNL A   1      29.438  25.790  23.819  1.00  0.00     0.007 A 
ATOM     13  C   UNL A   1      30.918  27.807  22.543  1.00  0.00     0.004 A 
ATOM     14  C   UNL A   1      28.954  27.096  23.774  1.00  0.00     0.000 A 
ATOM     15  C   UNL A   1      29.697  28.102  23.151  1.00  0.00     0.000 A 
BRANCH   7  16
ATOM     16  N   UNL A   1      31.460  23.114  22.903  1.00  0.00    -0.320 N 
ATOM     17  N   UNL A   1      33.199  21.694  23.714  1.00  0.00    -0.327 N 
ATOM     18  C   UNL A   1      32.207  21.997  22.857  1.00  0.00     0.316 C 
ATOM     19  H   UNL A   1      33.336  20.721  23.789  1.00  0.00     0.166 HD
ATOM     20  O   UNL A   1      31.897  21.137  22.029  1.00  0.00    -0.249 OA
ATOM     21  H   UNL A   1      30.672  23.104  22.313  1.00  0.00     0.166 HD
BRANCH  17  22
ATOM     22  C   UNL A   1      34.118  22.435  24.556  1.00  0.00     0.207 C 
BRANCH  22  23
ATOM     23  C   UNL A   1      35.509  22.687  24.000  1.00  0.00    -0.085 C 
ATOM     24  C   UNL A   1      36.703  22.903  23.523  1.00  0.00     0.006 C 
ENDBRANCH  22  23
ENDBRANCH  17  22
ENDBRANCH   7  16
ENDBRANCH   4   7
ENDBRANCH   2   3
ENDBRANCH   1   2
BRANCH   1  25
ATOM     25  C   UNL A   1      31.799  28.746  26.094  1.00  0.00     0.023 C 
BRANCH  25  26
ATOM     26  C   UNL A   1      32.952  29.696  25.826  1.00  0.00     0.116 C 
BRANCH  26  27
ATOM     27  N   UNL A   1      32.700  31.039  26.313  1.00  0.00    -0.352 N 
ATOM     28  C   UNL A   1      33.386  31.801  27.214  1.00  0.00     0.251 C 
ATOM     29  H   UNL A   1      31.904  31.473  25.929  1.00  0.00     0.163 HD
ATOM     30  O   UNL A   1      32.931  32.896  27.544  1.00  0.00    -0.269 OA
BRANCH  28  31
ATOM     31  C   UNL A   1      34.633  31.310  27.832  1.00  0.00     0.039 A 
ATOM     32  C   UNL A   1      35.687  32.217  27.963  1.00  0.00     0.014 A 
ATOM     33  C   UNL A   1      34.788  29.990  28.263  1.00  0.00     0.014 A 
ATOM     34  C   UNL A   1      36.876  31.813  28.565  1.00  0.00     0.010 A 
ATOM     35  C   UNL A   1      35.946  29.612  28.943  1.00  0.00     0.010 A 
ATOM     36  C   UNL A   1      37.005  30.517  29.091  1.00  0.00    -0.014 A 
BRANCH  36  37
ATOM     37  C   UNL A   1      38.246  30.132  29.807  1.00  0.00     0.031 A 
ATOM     38  C   UNL A   1      38.513  30.614  31.205  1.00  0.00     0.074 A 
ATOM     39  C   UNL A   1      39.138  29.335  29.185  1.00  0.00     0.049 A 
ATOM     40  N   UNL A   1      39.508  30.320  32.003  1.00  0.00    -0.248 NA
ATOM     41  C   UNL A   1      37.550  31.569  31.775  1.00  0.00     0.031 C 
ATOM     42  C   UNL A   1      39.018  28.852  27.808  1.00  0.00     0.029 A 
ATOM     43  N   UNL A   1      40.310  28.780  29.632  1.00  0.00    -0.354 N 
ATOM     44  C   UNL A   1      39.291  31.050  33.165  1.00  0.00     0.074 A 
ATOM     45  C   UNL A   1      38.106  31.851  32.944  1.00  0.00     0.031 C 
ATOM     46  C   UNL A   1      40.049  28.037  27.538  1.00  0.00     0.029 A 
ATOM     47  C   UNL A   1      40.919  27.967  28.708  1.00  0.00     0.049 A 
ATOM     48  H   UNL A   1      40.679  28.948  30.529  1.00  0.00     0.167 HD
ATOM     49  C   UNL A   1      40.001  31.034  34.319  1.00  0.00     0.037 A 
ATOM     50  C   UNL A   1      42.048  27.242  28.795  1.00  0.00     0.037 A 
ATOM     51  C   UNL A   1      41.177  30.229  34.534  1.00  0.00     0.049 A 
ATOM     52  C   UNL A   1      42.815  27.241  30.089  1.00  0.00     0.074 A 
ATOM     53  C   UNL A   1      41.938  30.103  35.683  1.00  0.00     0.029 A 
ATOM     54  N   UNL A   1      41.768  29.421  33.574  1.00  0.00    -0.354 N 
ATOM     55  N   UNL A   1      42.554  27.869  31.209  1.00  0.00    -0.248 NA
ATOM     56  C   UNL A   1      44.028  26.415  30.134  1.00  0.00     0.031 C 
ATOM     57  C   UNL A   1      43.023  29.265  35.400  1.00  0.00     0.029 A 
ATOM     58  C   UNL A   1      42.902  28.814  34.097  1.00  0.00     0.049 A 
ATOM     59  H   UNL A   1      41.434  29.296  32.657  1.00  0.00     0.167 HD
ATOM     60  C   UNL A   1      43.553  27.496  32.099  1.00  0.00     0.074 A 
ATOM     61  C   UNL A   1      44.406  26.561  31.394  1.00  0.00     0.031 C 
ATOM     62  C   UNL A   1      43.749  27.893  33.381  1.00  0.00     0.037 A 
BRANCH  49  63
ATOM     63  C   UNL A   1      39.526  31.917  35.440  1.00  0.00     0.064 A 
ATOM     64  C   UNL A   1      39.970  33.241  35.576  1.00  0.00     0.173 A 
ATOM     65  C   UNL A   1      38.585  31.444  36.368  1.00  0.00     0.173 A 
ATOM     66  F   UNL A   1      40.877  33.741  34.724  1.00  0.00    -0.203 F 
ATOM     67  C   UNL A   1      39.513  34.048  36.616  1.00  0.00     0.198 A 
ATOM     68  C   UNL A   1      38.105  32.265  37.385  1.00  0.00     0.198 A 
ATOM     69  F   UNL A   1      38.123  30.188  36.283  1.00  0.00    -0.203 F 
ATOM     70  F   UNL A   1      39.991  35.293  36.755  1.00  0.00    -0.200 F 
ATOM     71  C   UNL A   1      38.575  33.563  37.513  1.00  0.00     0.200 A 
ATOM     72  F   UNL A   1      37.187  31.798  38.244  1.00  0.00    -0.200 F 
ATOM     73  F   UNL A   1      38.129  34.343  38.508  1.00  0.00    -0.200 F 
ENDBRANCH  49  63
BRANCH  50  74
ATOM     74  C   UNL A   1      42.505  26.433  27.635  1.00  0.00     0.064 A 
ATOM     75  C   UNL A   1      41.983  25.155  27.392  1.00  0.00     0.173 A 
ATOM     76  C   UNL A   1      43.481  26.917  26.750  1.00  0.00     0.173 A 
ATOM     77  F   UNL A   1      41.061  24.639  28.218  1.00  0.00    -0.203 F 
ATOM     78  C   UNL A   1      42.438  24.382  26.325  1.00  0.00     0.198 A 
ATOM     79  C   UNL A   1      43.909  26.157  25.664  1.00  0.00     0.198 A 
ATOM     80  F   UNL A   1      44.007  28.136  26.932  1.00  0.00    -0.203 F 
ATOM     81  F   UNL A   1      41.961  23.141  26.149  1.00  0.00    -0.200 F 
ATOM     82  C   UNL A   1      43.396  24.886  25.459  1.00  0.00     0.200 A 
ATOM     83  F   UNL A   1      44.822  26.655  24.820  1.00  0.00    -0.200 F 
ATOM     84  F   UNL A   1      43.831  24.142  24.432  1.00  0.00    -0.200 F 
ENDBRANCH  50  74
BRANCH  62  85
ATOM     85  C   UNL A   1      44.918  27.289  34.109  1.00  0.00     0.064 A 
ATOM     86  C   UNL A   1      46.182  27.901  34.116  1.00  0.00     0.173 A 
ATOM     87  C   UNL A   1      44.776  26.076  34.800  1.00  0.00     0.173 A 
ATOM     88  F   UNL A   1      46.377  29.056  33.459  1.00  0.00    -0.203 F 
ATOM     89  C   UNL A   1      47.269  27.296  34.742  1.00  0.00     0.198 A 
ATOM     90  C   UNL A   1      45.855  25.494  35.459  1.00  0.00     0.198 A 
ATOM     91  F   UNL A   1      43.589  25.453  34.837  1.00  0.00    -0.203 F 
ATOM     92  F   UNL A   1      48.481  27.860  34.667  1.00  0.00    -0.200 F 
ATOM     93  C   UNL A   1      47.103  26.096  35.416  1.00  0.00     0.200 A 
ATOM     94  F   UNL A   1      45.689  24.344  36.126  1.00  0.00    -0.200 F 
ATOM     95  F   UNL A   1      48.151  25.511  36.013  1.00  0.00    -0.200 F 
ENDBRANCH  62  85
ENDBRANCH  36  37
ENDBRANCH  28  31
ENDBRANCH  26  27
ENDBRANCH  25  26
ENDBRANCH   1  25
TORSDOF 14
ENDMDL
MODEL 3
REMARK VINA RESULT:     -12.0      1.193      2.223
REMARK SMILES C#CCNC(=O)N[C@@]1(C(=O)NCCCCNC(=O)c2ccc(-c3c4nc(c(-c5c(F)c(F)c(F)c(F)c5F)c5ccc([nH]5)c(-c5c(F)c(F)c(F)c(F)c5F)c5nc(c(-c6c(F)c(F)c(F)c(F)c6F)c6ccc3[nH]6)C=C5)C=C4)cc2)CCc2ccccc21
REMARK SMILES IDX 13 1 12 2 11 3 9 4 10 5 8 7 82 8 89 9 83 10 84 11 88 12
REMARK SMILES IDX 85 13 87 14 86 15 7 16 4 17 5 18 6 20 3 22 2 23 1 24 14 25
REMARK SMILES IDX 15 26 16 27 17 28 18 30 19 31 20 32 81 33 21 34 80 35 22 36
REMARK SMILES IDX 23 37 24 38 74 39 25 40 79 41 73 42 75 43 26 44 78 45 72 46
REMARK SMILES IDX 71 47 27 49 59 50 39 51 58 52 40 53 43 54 57 55 76 56 41 57
REMARK SMILES IDX 42 58 56 60 77 61 44 62 28 63 29 64 37 65 30 66 31 67 35 68
REMARK SMILES IDX 38 69 32 70 33 71 36 72 34 73 60 74 61 75 69 76 62 77 63 78
REMARK SMILES IDX 67 79 70 80 64 81 65 82 68 83 66 84 45 85 46 86 54 87 47 88
REMARK SMILES IDX 48 89 52 90 55 91 49 92 50 93 53 94 51 95
REMARK H PARENT 11 6 4 19 7 21 16 29 75 48 43 59
REMARK Flexibility Score: inf
ROOT
ATOM      1  C   UNL A   1      34.338  26.573  25.810  1.00  0.00     0.023 C 
ENDROOT
BRANCH   1   2
ATOM      2  C   UNL A   1      34.125  25.105  25.418  1.00  0.00     0.116 C 
BRANCH   2   3
ATOM      3  N   UNL A   1      33.881  24.152  26.491  1.00  0.00    -0.354 N 
ATOM      4  C   UNL A   1      33.200  22.956  26.527  1.00  0.00     0.250 C 
ATOM      5  O   UNL A   1      33.409  22.221  27.501  1.00  0.00    -0.272 OA
ATOM      6  H   UNL A   1      34.280  24.412  27.354  1.00  0.00     0.163 HD
BRANCH   4   7
ATOM      7  C   UNL A   1      32.347  22.469  25.315  1.00  0.00     0.146 C 
ATOM      8  C   UNL A   1      32.968  22.713  23.902  1.00  0.00     0.048 C 
ATOM      9  C   UNL A   1      31.183  23.473  25.252  1.00  0.00    -0.010 A 
ATOM     10  C   UNL A   1      31.851  23.232  22.987  1.00  0.00     0.039 C 
ATOM     11  C   UNL A   1      31.044  24.007  23.968  1.00  0.00    -0.042 A 
ATOM     12  C   UNL A   1      30.561  24.106  26.330  1.00  0.00     0.007 A 
ATOM     13  C   UNL A   1      30.348  25.186  23.746  1.00  0.00     0.004 A 
ATOM     14  C   UNL A   1      29.902  25.317  26.126  1.00  0.00     0.000 A 
ATOM     15  C   UNL A   1      29.809  25.861  24.842  1.00  0.00     0.000 A 
BRANCH   7  16
ATOM     16  N   UNL A   1      31.984  21.067  25.420  1.00  0.00    -0.320 N 
ATOM     17  N   UNL A   1      34.082  19.930  25.368  1.00  0.00    -0.327 N 
ATOM     18  C   UNL A   1      32.737  19.955  25.351  1.00  0.00     0.316 C 
ATOM     19  H   UNL A   1      34.429  19.077  25.719  1.00  0.00     0.166 HD
ATOM     20  O   UNL A   1      32.153  18.869  25.375  1.00  0.00    -0.249 OA
ATOM     21  H   UNL A   1      31.025  20.903  25.566  1.00  0.00     0.166 HD
BRANCH  17  22
ATOM     22  C   UNL A   1      35.151  20.838  25.001  1.00  0.00     0.207 C 
BRANCH  22  23
ATOM     23  C   UNL A   1      36.562  20.275  25.001  1.00  0.00    -0.085 C 
ATOM     24  C   UNL A   1      37.773  19.792  25.001  1.00  0.00     0.006 C 
ENDBRANCH  22  23
ENDBRANCH  17  22
ENDBRANCH   7  16
ENDBRANCH   4   7
ENDBRANCH   2   3
ENDBRANCH   1   2
BRANCH   1  25
ATOM     25  C   UNL A   1      33.285  27.604  25.419  1.00  0.00     0.023 C 
BRANCH  25  26
ATOM     26  C   UNL A   1      33.795  28.976  25.016  1.00  0.00     0.116 C 
BRANCH  26  27
ATOM     27  N   UNL A   1      33.027  30.058  25.600  1.00  0.00    -0.352 N 
ATOM     28  C   UNL A   1      33.260  30.815  26.712  1.00  0.00     0.251 C 
ATOM     29  H   UNL A   1      32.201  30.284  25.114  1.00  0.00     0.163 HD
ATOM     30  O   UNL A   1      32.412  31.631  27.071  1.00  0.00    -0.269 OA
BRANCH  28  31
ATOM     31  C   UNL A   1      34.486  30.632  27.513  1.00  0.00     0.039 A 
ATOM     32  C   UNL A   1      34.640  29.418  28.187  1.00  0.00     0.014 A 
ATOM     33  C   UNL A   1      35.464  31.624  27.626  1.00  0.00     0.014 A 
ATOM     34  C   UNL A   1      35.791  29.183  28.934  1.00  0.00     0.010 A 
ATOM     35  C   UNL A   1      36.653  31.354  28.302  1.00  0.00     0.010 A 
ATOM     36  C   UNL A   1      36.824  30.135  28.971  1.00  0.00    -0.014 A 
BRANCH  36  37
ATOM     37  C   UNL A   1      38.080  29.831  29.700  1.00  0.00     0.031 A 
ATOM     38  C   UNL A   1      38.326  30.379  31.077  1.00  0.00     0.074 A 
ATOM     39  C   UNL A   1      39.005  29.049  29.109  1.00  0.00     0.049 A 
ATOM     40  N   UNL A   1      39.332  30.160  31.886  1.00  0.00    -0.248 NA
ATOM     41  C   UNL A   1      37.322  31.314  31.610  1.00  0.00     0.031 C 
ATOM     42  C   UNL A   1      38.908  28.507  27.753  1.00  0.00     0.029 A 
ATOM     43  N   UNL A   1      40.200  28.563  29.576  1.00  0.00    -0.354 N 
ATOM     44  C   UNL A   1      39.083  30.925  33.018  1.00  0.00     0.074 A 
ATOM     45  C   UNL A   1      37.865  31.665  32.767  1.00  0.00     0.031 C 
ATOM     46  C   UNL A   1      39.972  27.727  27.513  1.00  0.00     0.029 A 
ATOM     47  C   UNL A   1      40.843  27.741  28.684  1.00  0.00     0.049 A 
ATOM     48  H   UNL A   1      40.561  28.782  30.466  1.00  0.00     0.167 HD
ATOM     49  C   UNL A   1      39.792  30.985  34.171  1.00  0.00     0.037 A 
ATOM     50  C   UNL A   1      42.003  27.068  28.799  1.00  0.00     0.037 A 
ATOM     51  C   UNL A   1      41.002  30.241  34.417  1.00  0.00     0.049 A 
ATOM     52  C   UNL A   1      42.769  27.151  30.091  1.00  0.00     0.074 A 
ATOM     53  C   UNL A   1      41.766  30.192  35.569  1.00  0.00     0.029 A 
ATOM     54  N   UNL A   1      41.627  29.421  33.488  1.00  0.00    -0.354 N 
ATOM     55  N   UNL A   1      42.480  27.812  31.186  1.00  0.00    -0.248 NA
ATOM     56  C   UNL A   1      44.015  26.380  30.167  1.00  0.00     0.031 C 
ATOM     57  C   UNL A   1      42.886  29.391  35.318  1.00  0.00     0.029 A 
ATOM     58  C   UNL A   1      42.785  28.884  34.034  1.00  0.00     0.049 A 
ATOM     59  H   UNL A   1      41.299  29.245  32.577  1.00  0.00     0.167 HD
ATOM     60  C   UNL A   1      43.494  27.517  32.088  1.00  0.00     0.074 A 
ATOM     61  C   UNL A   1      44.386  26.593  31.420  1.00  0.00     0.031 C 
ATOM     62  C   UNL A   1      43.672  27.973  33.354  1.00  0.00     0.037 A 
BRANCH  49  63
ATOM     63  C   UNL A   1      39.279  31.890  35.257  1.00  0.00     0.064 A 
ATOM     64  C   UNL A   1      39.563  33.265  35.269  1.00  0.00     0.173 A 
ATOM     65  C   UNL A   1      38.461  31.383  36.278  1.00  0.00     0.173 A 
ATOM     66  F   UNL A   1      40.349  33.800  34.323  1.00  0.00    -0.203 F 
ATOM     67  C   UNL A   1      39.073  34.091  36.278  1.00  0.00     0.198 A 
ATOM     68  C   UNL A   1      37.944  32.218  37.265  1.00  0.00     0.198 A 
ATOM     69  F   UNL A   1      38.153  30.078  36.314  1.00  0.00    -0.203 F 
ATOM     70  F   UNL A   1      39.400  35.390  36.296  1.00  0.00    -0.200 F 
ATOM     71  C   UNL A   1      38.257  33.569  37.269  1.00  0.00     0.200 A 
ATOM     72  F   UNL A   1      37.144  31.715  38.216  1.00  0.00    -0.200 F 
ATOM     73  F   UNL A   1      37.778  34.367  38.234  1.00  0.00    -0.200 F 
ENDBRANCH  49  63
BRANCH  50  74
ATOM     74  C   UNL A   1      42.495  26.235  27.671  1.00  0.00     0.064 A 
ATOM     75  C   UNL A   1      42.041  24.921  27.489  1.00  0.00     0.173 A 
ATOM     76  C   UNL A   1      43.436  26.731  26.756  1.00  0.00     0.173 A 
ATOM     77  F   UNL A   1      41.155  24.394  28.347  1.00  0.00    -0.203 F 
ATOM     78  C   UNL A   1      42.530  24.127  26.454  1.00  0.00     0.198 A 
ATOM     79  C   UNL A   1      43.897  25.948  25.701  1.00  0.00     0.198 A 
ATOM     80  F   UNL A   1      43.897  27.984  26.880  1.00  0.00    -0.203 F 
ATOM     81  F   UNL A   1      42.120  22.856  26.336  1.00  0.00    -0.200 F 
ATOM     82  C   UNL A   1      43.452  24.643  25.557  1.00  0.00     0.200 A 
ATOM     83  F   UNL A   1      44.776  26.456  24.827  1.00  0.00    -0.200 F 
ATOM     84  F   UNL A   1      43.920  23.879  24.560  1.00  0.00    -0.200 F 
ENDBRANCH  50  74
BRANCH  62  85
ATOM     85  C   UNL A   1      44.865  27.449  34.104  1.00  0.00     0.064 A 
ATOM     86  C   UNL A   1      44.789  26.298  34.904  1.00  0.00     0.173 A 
ATOM     87  C   UNL A   1      46.099  28.113  34.030  1.00  0.00     0.173 A 
ATOM     88  F   UNL A   1      43.630  25.631  35.021  1.00  0.00    -0.203 F 
ATOM     89  C   UNL A   1      45.888  25.863  35.641  1.00  0.00     0.198 A 
ATOM     90  C   UNL A   1      47.206  27.653  34.737  1.00  0.00     0.198 A 
ATOM     91  F   UNL A   1      46.232  29.212  33.272  1.00  0.00    -0.203 F 
ATOM     92  F   UNL A   1      45.768  24.808  36.459  1.00  0.00    -0.200 F 
ATOM     93  C   UNL A   1      47.096  26.538  35.553  1.00  0.00     0.200 A 
ATOM     94  F   UNL A   1      48.377  28.296  34.637  1.00  0.00    -0.200 F 
ATOM     95  F   UNL A   1      48.150  26.123  36.269  1.00  0.00    -0.200 F 
ENDBRANCH  62  85
ENDBRANCH  36  37
ENDBRANCH  28  31
ENDBRANCH  26  27
ENDBRANCH  25  26
ENDBRANCH   1  25
TORSDOF 14
ENDMDL
