MODEL 1
REMARK VINA RESULT:     -12.4      0.000      0.000
REMARK SMILES COc1ccc(OC)c(-c2cc(C(=O)NCCCCNC(=O)c3ccc(-c4c5nc(c(-c6c(F)c(F)c(F)c(F)c6F)c6ccc([nH]6)c(-c6c(F)c(F)c(F)c(F)c6F)c6nc(c(-c7c(F)c(F)c(F)c(F)c7F)c7ccc4[nH]7)C=C6)C=C5)cc3)ccn2)c1
REMARK SMILES IDX 17 1 16 2 15 3 13 4 14 5 12 7 10 8 11 9 88 10 87 11 86 12
REMARK SMILES IDX 9 13 3 14 4 15 89 16 5 17 6 18 2 19 1 20 7 21 8 22 18 23
REMARK SMILES IDX 19 24 20 25 21 26 22 28 23 29 24 30 85 31 25 32 84 33 26 34
REMARK SMILES IDX 27 35 28 36 78 37 29 38 83 39 77 40 79 41 30 42 82 43 76 44
REMARK SMILES IDX 75 45 31 47 63 48 43 49 62 50 44 51 47 52 61 53 80 54 45 55
REMARK SMILES IDX 46 56 60 58 81 59 48 60 32 61 33 62 41 63 34 64 35 65 39 66
REMARK SMILES IDX 42 67 36 68 37 69 40 70 38 71 64 72 65 73 73 74 66 75 67 76
REMARK SMILES IDX 71 77 74 78 68 79 69 80 72 81 70 82 49 83 50 84 58 85 51 86
REMARK SMILES IDX 52 87 56 88 59 89 53 90 54 91 57 92 55 93
REMARK H PARENT 15 6 20 27 79 46 47 57
REMARK Flexibility Score: inf
ROOT
ATOM      1  C   UNL A   1      31.552  30.597  26.645  1.00  0.00     0.023 C 
ENDROOT
BRANCH   1   2
ATOM      2  C   UNL A   1      32.949  30.006  26.435  1.00  0.00     0.116 C 
BRANCH   2   3
ATOM      3  N   UNL A   1      33.286  29.981  25.024  1.00  0.00    -0.352 N 
ATOM      4  C   UNL A   1      33.101  29.028  24.052  1.00  0.00     0.251 C 
ATOM      5  O   UNL A   1      33.462  29.293  22.906  1.00  0.00    -0.269 OA
ATOM      6  H   UNL A   1      33.731  30.798  24.704  1.00  0.00     0.163 HD
BRANCH   4   7
ATOM      7  C   UNL A   1      32.428  27.730  24.310  1.00  0.00     0.043 A 
ATOM      8  C   UNL A   1      32.289  25.520  25.229  1.00  0.00     0.075 A 
ATOM      9  C   UNL A   1      33.048  26.638  24.905  1.00  0.00     0.043 A 
ATOM     10  N   UNL A   1      30.980  25.413  24.909  1.00  0.00    -0.256 NA
ATOM     11  C   UNL A   1      30.421  26.440  24.233  1.00  0.00     0.112 A 
ATOM     12  C   UNL A   1      31.092  27.609  23.926  1.00  0.00     0.034 A 
BRANCH   8  13
ATOM     13  C   UNL A   1      32.866  24.457  26.058  1.00  0.00     0.046 A 
ATOM     14  C   UNL A   1      34.853  23.040  26.398  1.00  0.00     0.119 A 
ATOM     15  C   UNL A   1      34.125  22.257  27.285  1.00  0.00     0.050 A 
ATOM     16  C   UNL A   1      34.229  24.137  25.804  1.00  0.00     0.060 A 
ATOM     17  C   UNL A   1      32.797  22.571  27.575  1.00  0.00     0.051 A 
ATOM     18  C   UNL A   1      32.152  23.660  26.969  1.00  0.00     0.128 A 
BRANCH  14  19
ATOM     19  O   UNL A   1      36.125  22.607  26.156  1.00  0.00    -0.497 OA
ATOM     20  C   UNL A   1      36.983  23.482  25.437  1.00  0.00     0.278 C 
ENDBRANCH  14  19
BRANCH  18  21
ATOM     21  O   UNL A   1      30.831  23.726  27.322  1.00  0.00    -0.496 OA
ATOM     22  C   UNL A   1      29.966  22.655  26.977  1.00  0.00     0.278 C 
ENDBRANCH  18  21
ENDBRANCH   8  13
ENDBRANCH   4   7
ENDBRANCH   2   3
ENDBRANCH   1   2
BRANCH   1  23
ATOM     23  C   UNL A   1      31.502  32.124  26.561  1.00  0.00     0.023 C 
BRANCH  23  24
ATOM     24  C   UNL A   1      32.658  32.837  27.255  1.00  0.00     0.116 C 
BRANCH  24  25
ATOM     25  N   UNL A   1      32.349  34.207  27.628  1.00  0.00    -0.352 N 
ATOM     26  C   UNL A   1      32.960  34.992  28.578  1.00  0.00     0.251 C 
ATOM     27  H   UNL A   1      31.606  34.628  27.137  1.00  0.00     0.163 HD
ATOM     28  O   UNL A   1      32.522  36.097  28.849  1.00  0.00    -0.269 OA
BRANCH  26  29
ATOM     29  C   UNL A   1      34.135  34.459  29.301  1.00  0.00     0.039 A 
ATOM     30  C   UNL A   1      33.927  33.783  30.506  1.00  0.00     0.014 A 
ATOM     31  C   UNL A   1      35.424  34.606  28.783  1.00  0.00     0.014 A 
ATOM     32  C   UNL A   1      35.012  33.205  31.166  1.00  0.00     0.010 A 
ATOM     33  C   UNL A   1      36.493  33.971  29.406  1.00  0.00     0.010 A 
ATOM     34  C   UNL A   1      36.298  33.271  30.607  1.00  0.00    -0.014 A 
BRANCH  34  35
ATOM     35  C   UNL A   1      37.460  32.634  31.275  1.00  0.00     0.031 A 
ATOM     36  C   UNL A   1      38.182  31.503  30.600  1.00  0.00     0.074 A 
ATOM     37  C   UNL A   1      37.823  33.033  32.509  1.00  0.00     0.049 A 
ATOM     38  N   UNL A   1      39.163  30.761  31.047  1.00  0.00    -0.248 NA
ATOM     39  C   UNL A   1      37.720  31.136  29.251  1.00  0.00     0.031 C 
ATOM     40  C   UNL A   1      37.168  34.086  33.286  1.00  0.00     0.029 A 
ATOM     41  N   UNL A   1      38.827  32.589  33.331  1.00  0.00    -0.354 N 
ATOM     42  C   UNL A   1      39.425  29.839  30.043  1.00  0.00     0.074 A 
ATOM     43  C   UNL A   1      38.464  30.073  28.989  1.00  0.00     0.031 C 
ATOM     44  C   UNL A   1      37.794  34.214  34.467  1.00  0.00     0.029 A 
ATOM     45  C   UNL A   1      38.873  33.235  34.542  1.00  0.00     0.049 A 
ATOM     46  H   UNL A   1      39.455  31.874  33.078  1.00  0.00     0.167 HD
ATOM     47  C   UNL A   1      40.400  28.899  29.993  1.00  0.00     0.037 A 
ATOM     48  C   UNL A   1      39.692  33.051  35.595  1.00  0.00     0.037 A 
ATOM     49  C   UNL A   1      41.370  28.684  31.035  1.00  0.00     0.049 A 
ATOM     50  C   UNL A   1      40.778  32.012  35.506  1.00  0.00     0.074 A 
ATOM     51  C   UNL A   1      42.413  27.776  31.070  1.00  0.00     0.029 A 
ATOM     52  N   UNL A   1      41.416  29.395  32.224  1.00  0.00    -0.354 N 
ATOM     53  N   UNL A   1      41.049  31.179  34.531  1.00  0.00    -0.248 NA
ATOM     54  C   UNL A   1      41.683  31.898  36.660  1.00  0.00     0.031 C 
ATOM     55  C   UNL A   1      43.075  27.918  32.293  1.00  0.00     0.029 A 
ATOM     56  C   UNL A   1      42.471  28.945  33.001  1.00  0.00     0.049 A 
ATOM     57  H   UNL A   1      40.793  30.114  32.479  1.00  0.00     0.167 HD
ATOM     58  C   UNL A   1      42.169  30.467  34.937  1.00  0.00     0.074 A 
ATOM     59  C   UNL A   1      42.536  30.975  36.242  1.00  0.00     0.031 C 
ATOM     60  C   UNL A   1      42.833  29.480  34.288  1.00  0.00     0.037 A 
BRANCH  47  61
ATOM     61  C   UNL A   1      40.475  28.046  28.761  1.00  0.00     0.064 A 
ATOM     62  C   UNL A   1      41.238  28.433  27.649  1.00  0.00     0.173 A 
ATOM     63  C   UNL A   1      39.804  26.815  28.700  1.00  0.00     0.173 A 
ATOM     64  F   UNL A   1      41.886  29.607  27.652  1.00  0.00    -0.203 F 
ATOM     65  C   UNL A   1      41.306  27.632  26.512  1.00  0.00     0.198 A 
ATOM     66  C   UNL A   1      39.898  26.003  27.572  1.00  0.00     0.198 A 
ATOM     67  F   UNL A   1      39.063  26.396  29.736  1.00  0.00    -0.203 F 
ATOM     68  F   UNL A   1      42.002  28.047  25.445  1.00  0.00    -0.200 F 
ATOM     69  C   UNL A   1      40.643  26.416  26.477  1.00  0.00     0.200 A 
ATOM     70  F   UNL A   1      39.266  24.823  27.544  1.00  0.00    -0.200 F 
ATOM     71  F   UNL A   1      40.714  25.643  25.385  1.00  0.00    -0.200 F 
ENDBRANCH  47  61
BRANCH  48  72
ATOM     72  C   UNL A   1      39.535  33.886  36.815  1.00  0.00     0.064 A 
ATOM     73  C   UNL A   1      38.794  33.426  37.913  1.00  0.00     0.173 A 
ATOM     74  C   UNL A   1      40.109  35.162  36.903  1.00  0.00     0.173 A 
ATOM     75  F   UNL A   1      38.209  32.220  37.868  1.00  0.00    -0.203 F 
ATOM     76  C   UNL A   1      38.608  34.223  39.041  1.00  0.00     0.198 A 
ATOM     77  C   UNL A   1      39.948  35.946  38.043  1.00  0.00     0.198 A 
ATOM     78  F   UNL A   1      40.835  35.645  35.883  1.00  0.00    -0.203 F 
ATOM     79  F   UNL A   1      37.852  33.780  40.054  1.00  0.00    -0.200 F 
ATOM     80  C   UNL A   1      39.189  35.481  39.107  1.00  0.00     0.200 A 
ATOM     81  F   UNL A   1      40.522  37.155  38.110  1.00  0.00    -0.200 F 
ATOM     82  F   UNL A   1      39.010  36.247  40.192  1.00  0.00    -0.200 F 
ENDBRANCH  48  72
BRANCH  60  83
ATOM     83  C   UNL A   1      44.055  28.920  34.955  1.00  0.00     0.064 A 
ATOM     84  C   UNL A   1      43.981  27.834  35.839  1.00  0.00     0.173 A 
ATOM     85  C   UNL A   1      45.322  29.454  34.672  1.00  0.00     0.173 A 
ATOM     86  F   UNL A   1      42.791  27.298  36.152  1.00  0.00    -0.203 F 
ATOM     87  C   UNL A   1      45.128  27.320  36.436  1.00  0.00     0.198 A 
ATOM     88  C   UNL A   1      46.469  28.918  35.249  1.00  0.00     0.198 A 
ATOM     89  F   UNL A   1      45.447  30.488  33.827  1.00  0.00    -0.203 F 
ATOM     90  F   UNL A   1      45.030  26.311  37.315  1.00  0.00    -0.200 F 
ATOM     91  C   UNL A   1      46.372  27.857  36.136  1.00  0.00     0.200 A 
ATOM     92  F   UNL A   1      47.671  29.431  34.947  1.00  0.00    -0.200 F 
ATOM     93  F   UNL A   1      47.475  27.355  36.707  1.00  0.00    -0.200 F 
ENDBRANCH  60  83
ENDBRANCH  34  35
ENDBRANCH  26  29
ENDBRANCH  24  25
ENDBRANCH  23  24
ENDBRANCH   1  23
TORSDOF 14
ENDMDL
MODEL 2
REMARK VINA RESULT:     -12.4      1.175      1.886
REMARK SMILES COc1ccc(OC)c(-c2cc(C(=O)NCCCCNC(=O)c3ccc(-c4c5nc(c(-c6c(F)c(F)c(F)c(F)c6F)c6ccc([nH]6)c(-c6c(F)c(F)c(F)c(F)c6F)c6nc(c(-c7c(F)c(F)c(F)c(F)c7F)c7ccc4[nH]7)C=C6)C=C5)cc3)ccn2)c1
REMARK SMILES IDX 17 1 16 2 15 3 13 4 14 5 12 7 10 8 11 9 88 10 87 11 86 12
REMARK SMILES IDX 9 13 3 14 4 15 89 16 5 17 6 18 2 19 1 20 7 21 8 22 18 23
REMARK SMILES IDX 19 24 20 25 21 26 22 28 23 29 24 30 85 31 25 32 84 33 26 34
REMARK SMILES IDX 27 35 28 36 78 37 29 38 83 39 77 40 79 41 30 42 82 43 76 44
REMARK SMILES IDX 75 45 31 47 63 48 43 49 62 50 44 51 47 52 61 53 80 54 45 55
REMARK SMILES IDX 46 56 60 58 81 59 48 60 32 61 33 62 41 63 34 64 35 65 39 66
REMARK SMILES IDX 42 67 36 68 37 69 40 70 38 71 64 72 65 73 73 74 66 75 67 76
REMARK SMILES IDX 71 77 74 78 68 79 69 80 72 81 70 82 49 83 50 84 58 85 51 86
REMARK SMILES IDX 52 87 56 88 59 89 53 90 54 91 57 92 55 93
REMARK H PARENT 15 6 20 27 79 46 47 57
REMARK Flexibility Score: inf
ROOT
ATOM      1  C   UNL A   1      31.676  30.749  26.149  1.00  0.00     0.023 C 
ENDROOT
BRANCH   1   2
ATOM      2  C   UNL A   1      31.840  29.607  27.156  1.00  0.00     0.116 C 
BRANCH   2   3
ATOM      3  N   UNL A   1      33.240  29.418  27.488  1.00  0.00    -0.352 N 
ATOM      4  C   UNL A   1      34.246  28.720  26.863  1.00  0.00     0.251 C 
ATOM      5  O   UNL A   1      35.372  28.760  27.359  1.00  0.00    -0.269 OA
ATOM      6  H   UNL A   1      33.522  29.873  28.313  1.00  0.00     0.163 HD
BRANCH   4   7
ATOM      7  C   UNL A   1      34.048  27.982  25.590  1.00  0.00     0.043 A 
ATOM      8  C   UNL A   1      33.604  26.022  24.282  1.00  0.00     0.075 A 
ATOM      9  C   UNL A   1      33.928  26.600  25.504  1.00  0.00     0.043 A 
ATOM     10  N   UNL A   1      33.484  26.745  23.146  1.00  0.00    -0.256 NA
ATOM     11  C   UNL A   1      33.711  28.073  23.229  1.00  0.00     0.112 A 
ATOM     12  C   UNL A   1      33.980  28.731  24.415  1.00  0.00     0.034 A 
BRANCH   8  13
ATOM     13  C   UNL A   1      33.250  24.601  24.214  1.00  0.00     0.046 A 
ATOM     14  C   UNL A   1      31.671  22.891  25.023  1.00  0.00     0.119 A 
ATOM     15  C   UNL A   1      32.496  21.903  24.501  1.00  0.00     0.050 A 
ATOM     16  C   UNL A   1      32.042  24.227  24.865  1.00  0.00     0.060 A 
ATOM     17  C   UNL A   1      33.669  22.248  23.829  1.00  0.00     0.051 A 
ATOM     18  C   UNL A   1      34.064  23.586  23.681  1.00  0.00     0.128 A 
BRANCH  14  19
ATOM     19  O   UNL A   1      30.579  22.432  25.701  1.00  0.00    -0.497 OA
ATOM     20  C   UNL A   1      30.246  23.088  26.917  1.00  0.00     0.278 C 
ENDBRANCH  14  19
BRANCH  18  21
ATOM     21  O   UNL A   1      35.288  23.689  23.078  1.00  0.00    -0.496 OA
ATOM     22  C   UNL A   1      36.315  22.776  23.432  1.00  0.00     0.278 C 
ENDBRANCH  18  21
ENDBRANCH   8  13
ENDBRANCH   4   7
ENDBRANCH   2   3
ENDBRANCH   1   2
BRANCH   1  23
ATOM     23  C   UNL A   1      31.372  32.106  26.789  1.00  0.00     0.023 C 
BRANCH  23  24
ATOM     24  C   UNL A   1      32.596  32.848  27.315  1.00  0.00     0.116 C 
BRANCH  24  25
ATOM     25  N   UNL A   1      32.328  34.237  27.648  1.00  0.00    -0.352 N 
ATOM     26  C   UNL A   1      32.974  35.036  28.563  1.00  0.00     0.251 C 
ATOM     27  H   UNL A   1      31.589  34.661  27.155  1.00  0.00     0.163 HD
ATOM     28  O   UNL A   1      32.569  36.160  28.805  1.00  0.00    -0.269 OA
BRANCH  26  29
ATOM     29  C   UNL A   1      34.146  34.496  29.284  1.00  0.00     0.039 A 
ATOM     30  C   UNL A   1      33.936  33.820  30.489  1.00  0.00     0.014 A 
ATOM     31  C   UNL A   1      35.436  34.637  28.767  1.00  0.00     0.014 A 
ATOM     32  C   UNL A   1      35.017  33.235  31.148  1.00  0.00     0.010 A 
ATOM     33  C   UNL A   1      36.502  33.996  29.389  1.00  0.00     0.010 A 
ATOM     34  C   UNL A   1      36.304  33.295  30.589  1.00  0.00    -0.014 A 
BRANCH  34  35
ATOM     35  C   UNL A   1      37.462  32.651  31.256  1.00  0.00     0.031 A 
ATOM     36  C   UNL A   1      38.173  31.511  30.583  1.00  0.00     0.074 A 
ATOM     37  C   UNL A   1      37.833  33.053  32.487  1.00  0.00     0.049 A 
ATOM     38  N   UNL A   1      39.149  30.764  31.031  1.00  0.00    -0.248 NA
ATOM     39  C   UNL A   1      37.704  31.143  29.238  1.00  0.00     0.031 C 
ATOM     40  C   UNL A   1      37.189  34.114  33.262  1.00  0.00     0.029 A 
ATOM     41  N   UNL A   1      38.836  32.603  33.308  1.00  0.00    -0.354 N 
ATOM     42  C   UNL A   1      39.400  29.835  30.030  1.00  0.00     0.074 A 
ATOM     43  C   UNL A   1      38.438  30.073  28.977  1.00  0.00     0.031 C 
ATOM     44  C   UNL A   1      37.819  34.242  34.440  1.00  0.00     0.029 A 
ATOM     45  C   UNL A   1      38.891  33.254  34.516  1.00  0.00     0.049 A 
ATOM     46  H   UNL A   1      39.457  31.882  33.056  1.00  0.00     0.167 HD
ATOM     47  C   UNL A   1      40.367  28.887  29.980  1.00  0.00     0.037 A 
ATOM     48  C   UNL A   1      39.711  33.068  35.568  1.00  0.00     0.037 A 
ATOM     49  C   UNL A   1      41.338  28.668  31.020  1.00  0.00     0.049 A 
ATOM     50  C   UNL A   1      40.788  32.019  35.480  1.00  0.00     0.074 A 
ATOM     51  C   UNL A   1      42.375  27.752  31.055  1.00  0.00     0.029 A 
ATOM     52  N   UNL A   1      41.395  29.384  32.206  1.00  0.00    -0.354 N 
ATOM     53  N   UNL A   1      41.049  31.180  34.507  1.00  0.00    -0.248 NA
ATOM     54  C   UNL A   1      41.695  31.903  36.631  1.00  0.00     0.031 C 
ATOM     55  C   UNL A   1      43.042  27.894  32.276  1.00  0.00     0.029 A 
ATOM     56  C   UNL A   1      42.448  28.928  32.982  1.00  0.00     0.049 A 
ATOM     57  H   UNL A   1      40.779  30.109  32.460  1.00  0.00     0.167 HD
ATOM     58  C   UNL A   1      42.165  30.460  34.912  1.00  0.00     0.074 A 
ATOM     59  C   UNL A   1      42.540  30.970  36.214  1.00  0.00     0.031 C 
ATOM     60  C   UNL A   1      42.818  29.465  34.266  1.00  0.00     0.037 A 
BRANCH  47  61
ATOM     61  C   UNL A   1      40.431  28.028  28.751  1.00  0.00     0.064 A 
ATOM     62  C   UNL A   1      41.178  28.414  27.628  1.00  0.00     0.173 A 
ATOM     63  C   UNL A   1      39.766  26.794  28.705  1.00  0.00     0.173 A 
ATOM     64  F   UNL A   1      41.820  29.591  27.617  1.00  0.00    -0.203 F 
ATOM     65  C   UNL A   1      41.236  27.608  26.494  1.00  0.00     0.198 A 
ATOM     66  C   UNL A   1      39.851  25.977  27.580  1.00  0.00     0.198 A 
ATOM     67  F   UNL A   1      39.040  26.376  29.753  1.00  0.00    -0.203 F 
ATOM     68  F   UNL A   1      41.916  28.021  25.416  1.00  0.00    -0.200 F 
ATOM     69  C   UNL A   1      40.579  26.388  26.474  1.00  0.00     0.200 A 
ATOM     70  F   UNL A   1      39.224  24.793  27.566  1.00  0.00    -0.200 F 
ATOM     71  F   UNL A   1      40.641  25.610  25.384  1.00  0.00    -0.200 F 
ENDBRANCH  47  61
BRANCH  48  72
ATOM     72  C   UNL A   1      39.565  33.909  36.784  1.00  0.00     0.064 A 
ATOM     73  C   UNL A   1      38.814  33.464  37.882  1.00  0.00     0.173 A 
ATOM     74  C   UNL A   1      40.159  35.176  36.870  1.00  0.00     0.173 A 
ATOM     75  F   UNL A   1      38.211  32.267  37.840  1.00  0.00    -0.203 F 
ATOM     76  C   UNL A   1      38.639  34.267  39.007  1.00  0.00     0.198 A 
ATOM     77  C   UNL A   1      40.007  35.966  38.007  1.00  0.00     0.198 A 
ATOM     78  F   UNL A   1      40.893  35.644  35.850  1.00  0.00    -0.203 F 
ATOM     79  F   UNL A   1      37.874  33.839  40.020  1.00  0.00    -0.200 F 
ATOM     80  C   UNL A   1      39.240  35.516  39.070  1.00  0.00     0.200 A 
ATOM     81  F   UNL A   1      40.600  37.166  38.071  1.00  0.00    -0.200 F 
ATOM     82  F   UNL A   1      39.071  36.288  40.152  1.00  0.00    -0.200 F 
ENDBRANCH  48  72
BRANCH  60  83
ATOM     83  C   UNL A   1      44.037  28.898  34.931  1.00  0.00     0.064 A 
ATOM     84  C   UNL A   1      43.966  27.777  35.770  1.00  0.00     0.173 A 
ATOM     85  C   UNL A   1      45.301  29.462  34.691  1.00  0.00     0.173 A 
ATOM     86  F   UNL A   1      42.780  27.211  36.041  1.00  0.00    -0.203 F 
ATOM     87  C   UNL A   1      45.112  27.257  36.366  1.00  0.00     0.198 A 
ATOM     88  C   UNL A   1      46.447  28.921  35.266  1.00  0.00     0.198 A 
ATOM     89  F   UNL A   1      45.423  30.530  33.890  1.00  0.00    -0.203 F 
ATOM     90  F   UNL A   1      45.015  26.212  37.202  1.00  0.00    -0.200 F 
ATOM     91  C   UNL A   1      46.351  27.825  36.109  1.00  0.00     0.200 A 
ATOM     92  F   UNL A   1      47.644  29.463  35.006  1.00  0.00    -0.200 F 
ATOM     93  F   UNL A   1      47.453  27.317  36.679  1.00  0.00    -0.200 F 
ENDBRANCH  60  83
ENDBRANCH  34  35
ENDBRANCH  26  29
ENDBRANCH  24  25
ENDBRANCH  23  24
ENDBRANCH   1  23
TORSDOF 14
ENDMDL
MODEL 3
REMARK VINA RESULT:     -12.4      0.486      2.012
REMARK SMILES COc1ccc(OC)c(-c2cc(C(=O)NCCCCNC(=O)c3ccc(-c4c5nc(c(-c6c(F)c(F)c(F)c(F)c6F)c6ccc([nH]6)c(-c6c(F)c(F)c(F)c(F)c6F)c6nc(c(-c7c(F)c(F)c(F)c(F)c7F)c7ccc4[nH]7)C=C6)C=C5)cc3)ccn2)c1
REMARK SMILES IDX 17 1 16 2 15 3 13 4 14 5 12 7 10 8 11 9 88 10 87 11 86 12
REMARK SMILES IDX 9 13 3 14 4 15 89 16 5 17 6 18 2 19 1 20 7 21 8 22 18 23
REMARK SMILES IDX 19 24 20 25 21 26 22 28 23 29 24 30 85 31 25 32 84 33 26 34
REMARK SMILES IDX 27 35 28 36 78 37 29 38 83 39 77 40 79 41 30 42 82 43 76 44
REMARK SMILES IDX 75 45 31 47 63 48 43 49 62 50 44 51 47 52 61 53 80 54 45 55
REMARK SMILES IDX 46 56 60 58 81 59 48 60 32 61 33 62 41 63 34 64 35 65 39 66
REMARK SMILES IDX 42 67 36 68 37 69 40 70 38 71 64 72 65 73 73 74 66 75 67 76
REMARK SMILES IDX 71 77 74 78 68 79 69 80 72 81 70 82 49 83 50 84 58 85 51 86
REMARK SMILES IDX 52 87 56 88 59 89 53 90 54 91 57 92 55 93
REMARK H PARENT 15 6 20 27 79 46 47 57
REMARK Flexibility Score: inf
ROOT
ATOM      1  C   UNL A   1      31.955  30.456  26.730  1.00  0.00     0.023 C 
ENDROOT
BRANCH   1   2
ATOM      2  C   UNL A   1      31.546  29.832  25.393  1.00  0.00     0.116 C 
BRANCH   2   3
ATOM      3  N   UNL A   1      32.694  29.715  24.512  1.00  0.00    -0.352 N 
ATOM      4  C   UNL A   1      33.259  28.636  23.878  1.00  0.00     0.251 C 
ATOM      5  O   UNL A   1      34.228  28.836  23.147  1.00  0.00    -0.269 OA
ATOM      6  H   UNL A   1      33.153  30.568  24.337  1.00  0.00     0.163 HD
BRANCH   4   7
ATOM      7  C   UNL A   1      32.711  27.259  23.982  1.00  0.00     0.043 A 
ATOM      8  C   UNL A   1      32.622  25.038  24.882  1.00  0.00     0.075 A 
ATOM      9  C   UNL A   1      33.291  26.248  24.740  1.00  0.00     0.043 A 
ATOM     10  N   UNL A   1      31.463  24.769  24.240  1.00  0.00    -0.256 NA
ATOM     11  C   UNL A   1      30.972  25.724  23.421  1.00  0.00     0.112 A 
ATOM     12  C   UNL A   1      31.545  26.973  23.271  1.00  0.00     0.034 A 
BRANCH   8  13
ATOM     13  C   UNL A   1      33.096  24.048  25.854  1.00  0.00     0.046 A 
ATOM     14  C   UNL A   1      34.877  22.417  26.342  1.00  0.00     0.119 A 
ATOM     15  C   UNL A   1      34.108  21.910  27.381  1.00  0.00     0.050 A 
ATOM     16  C   UNL A   1      34.377  23.486  25.597  1.00  0.00     0.060 A 
ATOM     17  C   UNL A   1      32.863  22.467  27.672  1.00  0.00     0.051 A 
ATOM     18  C   UNL A   1      32.340  23.529  26.919  1.00  0.00     0.128 A 
BRANCH  14  19
ATOM     19  O   UNL A   1      36.053  21.760  26.121  1.00  0.00    -0.497 OA
ATOM     20  C   UNL A   1      36.082  20.821  25.055  1.00  0.00     0.278 C 
ENDBRANCH  14  19
BRANCH  18  21
ATOM     21  O   UNL A   1      31.070  23.854  27.314  1.00  0.00    -0.496 OA
ATOM     22  C   UNL A   1      29.999  22.978  26.996  1.00  0.00     0.278 C 
ENDBRANCH  18  21
ENDBRANCH   8  13
ENDBRANCH   4   7
ENDBRANCH   2   3
ENDBRANCH   1   2
BRANCH   1  23
ATOM     23  C   UNL A   1      31.625  31.946  26.850  1.00  0.00     0.023 C 
BRANCH  23  24
ATOM     24  C   UNL A   1      32.818  32.837  27.175  1.00  0.00     0.116 C 
BRANCH  24  25
ATOM     25  N   UNL A   1      32.439  34.173  27.603  1.00  0.00    -0.352 N 
ATOM     26  C   UNL A   1      32.985  34.934  28.611  1.00  0.00     0.251 C 
ATOM     27  H   UNL A   1      31.695  34.587  27.108  1.00  0.00     0.163 HD
ATOM     28  O   UNL A   1      32.492  36.006  28.920  1.00  0.00    -0.269 OA
BRANCH  26  29
ATOM     29  C   UNL A   1      34.157  34.415  29.347  1.00  0.00     0.039 A 
ATOM     30  C   UNL A   1      33.942  33.715  30.537  1.00  0.00     0.014 A 
ATOM     31  C   UNL A   1      35.452  34.597  28.856  1.00  0.00     0.014 A 
ATOM     32  C   UNL A   1      35.026  33.149  31.209  1.00  0.00     0.010 A 
ATOM     33  C   UNL A   1      36.523  33.975  29.489  1.00  0.00     0.010 A 
ATOM     34  C   UNL A   1      36.321  33.251  30.675  1.00  0.00    -0.014 A 
BRANCH  34  35
ATOM     35  C   UNL A   1      37.484  32.628  31.355  1.00  0.00     0.031 A 
ATOM     36  C   UNL A   1      38.224  31.504  30.688  1.00  0.00     0.074 A 
ATOM     37  C   UNL A   1      37.832  33.034  32.590  1.00  0.00     0.049 A 
ATOM     38  N   UNL A   1      39.209  30.774  31.146  1.00  0.00    -0.248 NA
ATOM     39  C   UNL A   1      37.778  31.130  29.336  1.00  0.00     0.031 C 
ATOM     40  C   UNL A   1      37.158  34.081  33.360  1.00  0.00     0.029 A 
ATOM     41  N   UNL A   1      38.833  32.602  33.423  1.00  0.00    -0.354 N 
ATOM     42  C   UNL A   1      39.490  29.852  30.146  1.00  0.00     0.074 A 
ATOM     43  C   UNL A   1      38.536  30.074  29.082  1.00  0.00     0.031 C 
ATOM     44  C   UNL A   1      37.772  34.218  34.546  1.00  0.00     0.029 A 
ATOM     45  C   UNL A   1      38.861  33.251  34.633  1.00  0.00     0.049 A 
ATOM     46  H   UNL A   1      39.471  31.894  33.177  1.00  0.00     0.167 HD
ATOM     47  C   UNL A   1      40.475  28.923  30.106  1.00  0.00     0.037 A 
ATOM     48  C   UNL A   1      39.672  33.078  35.694  1.00  0.00     0.037 A 
ATOM     49  C   UNL A   1      41.438  28.721  31.157  1.00  0.00     0.049 A 
ATOM     50  C   UNL A   1      40.770  32.051  35.616  1.00  0.00     0.074 A 
ATOM     51  C   UNL A   1      42.491  27.824  31.203  1.00  0.00     0.029 A 
ATOM     52  N   UNL A   1      41.466  29.435  32.345  1.00  0.00    -0.354 N 
ATOM     53  N   UNL A   1      41.059  31.219  34.646  1.00  0.00    -0.248 NA
ATOM     54  C   UNL A   1      41.666  31.949  36.778  1.00  0.00     0.031 C 
ATOM     55  C   UNL A   1      43.141  27.976  32.433  1.00  0.00     0.029 A 
ATOM     56  C   UNL A   1      42.519  28.997  33.133  1.00  0.00     0.049 A 
ATOM     57  H   UNL A   1      40.833  30.147  32.593  1.00  0.00     0.167 HD
ATOM     58  C   UNL A   1      42.183  30.520  35.063  1.00  0.00     0.074 A 
ATOM     59  C   UNL A   1      42.533  31.034  36.370  1.00  0.00     0.031 C 
ATOM     60  C   UNL A   1      42.863  29.539  34.422  1.00  0.00     0.037 A 
BRANCH  47  61
ATOM     61  C   UNL A   1      40.570  28.069  28.877  1.00  0.00     0.064 A 
ATOM     62  C   UNL A   1      39.850  26.870  28.762  1.00  0.00     0.173 A 
ATOM     63  C   UNL A   1      41.363  28.464  27.789  1.00  0.00     0.173 A 
ATOM     64  F   UNL A   1      39.089  26.440  29.779  1.00  0.00    -0.203 F 
ATOM     65  C   UNL A   1      39.940  26.086  27.614  1.00  0.00     0.198 A 
ATOM     66  C   UNL A   1      41.427  27.692  26.631  1.00  0.00     0.198 A 
ATOM     67  F   UNL A   1      42.070  29.603  27.845  1.00  0.00    -0.203 F 
ATOM     68  F   UNL A   1      39.281  24.922  27.549  1.00  0.00    -0.200 F 
ATOM     69  C   UNL A   1      40.722  26.501  26.548  1.00  0.00     0.200 A 
ATOM     70  F   UNL A   1      42.175  28.100  25.597  1.00  0.00    -0.200 F 
ATOM     71  F   UNL A   1      40.803  25.749  25.442  1.00  0.00    -0.200 F 
ENDBRANCH  47  61
BRANCH  48  72
ATOM     72  C   UNL A   1      39.496  33.913  36.910  1.00  0.00     0.064 A 
ATOM     73  C   UNL A   1      40.043  35.203  36.985  1.00  0.00     0.173 A 
ATOM     74  C   UNL A   1      38.791  33.438  38.025  1.00  0.00     0.173 A 
ATOM     75  F   UNL A   1      40.742  35.694  35.952  1.00  0.00    -0.203 F 
ATOM     76  C   UNL A   1      39.916  35.972  38.139  1.00  0.00     0.198 A 
ATOM     77  C   UNL A   1      38.639  34.220  39.168  1.00  0.00     0.198 A 
ATOM     78  F   UNL A   1      38.241  32.214  38.000  1.00  0.00    -0.203 F 
ATOM     79  F   UNL A   1      40.493  37.180  38.204  1.00  0.00    -0.200 F 
ATOM     80  C   UNL A   1      39.210  35.482  39.229  1.00  0.00     0.200 A 
ATOM     81  F   UNL A   1      37.945  33.749  40.213  1.00  0.00    -0.200 F 
ATOM     82  F   UNL A   1      39.089  36.222  40.339  1.00  0.00    -0.200 F 
ENDBRANCH  48  72
BRANCH  60  83
ATOM     83  C   UNL A   1      44.085  28.993  35.101  1.00  0.00     0.064 A 
ATOM     84  C   UNL A   1      45.360  29.526  34.867  1.00  0.00     0.173 A 
ATOM     85  C   UNL A   1      43.968  27.947  36.031  1.00  0.00     0.173 A 
ATOM     86  F   UNL A   1      45.524  30.516  33.977  1.00  0.00    -0.203 F 
ATOM     87  C   UNL A   1      46.479  29.014  35.519  1.00  0.00     0.198 A 
ATOM     88  C   UNL A   1      45.085  27.458  36.702  1.00  0.00     0.198 A 
ATOM     89  F   UNL A   1      42.769  27.408  36.296  1.00  0.00    -0.203 F 
ATOM     90  F   UNL A   1      47.696  29.508  35.245  1.00  0.00    -0.200 F 
ATOM     91  C   UNL A   1      46.340  27.986  36.440  1.00  0.00     0.200 A 
ATOM     92  F   UNL A   1      44.947  26.474  37.601  1.00  0.00    -0.200 F 
ATOM     93  F   UNL A   1      47.418  27.501  37.072  1.00  0.00    -0.200 F 
ENDBRANCH  60  83
ENDBRANCH  34  35
ENDBRANCH  26  29
ENDBRANCH  24  25
ENDBRANCH  23  24
ENDBRANCH   1  23
TORSDOF 14
ENDMDL
