MODEL 1
REMARK VINA RESULT:     -11.8      0.000      0.000
REMARK SMILES CCOc1ccc(C(=O)NCC(=O)NCCCCNC(=O)c2ccc(-c3c4nc(c(-c5c(F)c(F)c(F)c(F)c5F)c5ccc([nH]5)c(-c5c(F)c(F)c(F)c(F)c5F)c5nc(c(-c6c(F)c(F)c(F)c(F)c6F)c6ccc3[nH]6)C=C5)C=C4)cc2)c2ccccc12
REMARK SMILES IDX 15 1 14 2 12 3 13 4 11 6 10 7 8 8 9 9 7 11 4 12 5 13 90 14
REMARK SMILES IDX 6 15 85 16 89 17 86 18 88 19 87 20 3 21 2 22 1 23 16 24
REMARK SMILES IDX 17 25 18 26 19 27 20 28 21 30 22 31 23 32 84 33 24 34 83 35
REMARK SMILES IDX 25 36 26 37 27 38 77 39 28 40 82 41 76 42 78 43 29 44 81 45
REMARK SMILES IDX 75 46 74 47 30 49 62 50 42 51 61 52 43 53 46 54 60 55 79 56
REMARK SMILES IDX 44 57 45 58 59 60 80 61 47 62 31 63 32 64 40 65 33 66 34 67
REMARK SMILES IDX 38 68 41 69 35 70 36 71 39 72 37 73 63 74 64 75 72 76 65 77
REMARK SMILES IDX 66 78 70 79 73 80 67 81 68 82 71 83 69 84 48 85 49 86 57 87
REMARK SMILES IDX 50 88 51 89 55 90 58 91 52 92 53 93 56 94 54 95
REMARK H PARENT 14 5 10 10 19 29 78 48 46 59
REMARK Flexibility Score: inf
ROOT
ATOM      1  C   UNL A   1      33.823  22.292  25.138  1.00  0.00     0.116 C 
ENDROOT
BRANCH   1   2
ATOM      2  N   UNL A   1      33.217  21.708  23.964  1.00  0.00    -0.355 N 
ATOM      3  C   UNL A   1      32.139  22.084  23.225  1.00  0.00     0.239 C 
ATOM      4  O   UNL A   1      31.975  21.484  22.156  1.00  0.00    -0.273 OA
ATOM      5  H   UNL A   1      33.665  20.894  23.640  1.00  0.00     0.163 HD
BRANCH   3   6
ATOM      6  C   UNL A   1      31.226  23.279  23.566  1.00  0.00     0.216 C 
BRANCH   6   7
ATOM      7  N   UNL A   1      30.744  23.468  24.926  1.00  0.00    -0.343 N 
ATOM      8  C   UNL A   1      30.603  24.498  25.823  1.00  0.00     0.252 C 
ATOM      9  O   UNL A   1      29.939  24.178  26.810  1.00  0.00    -0.269 OA
ATOM     10  H   UNL A   1      30.431  22.619  25.311  1.00  0.00     0.164 HD
BRANCH   8  11
ATOM     11  C   UNL A   1      31.212  25.885  25.703  1.00  0.00     0.047 A 
ATOM     12  C   UNL A   1      32.402  28.448  25.566  1.00  0.00     0.127 A 
ATOM     13  C   UNL A   1      32.850  27.515  26.484  1.00  0.00     0.048 A 
ATOM     14  C   UNL A   1      31.271  28.181  24.773  1.00  0.00     0.025 A 
ATOM     15  C   UNL A   1      32.289  26.249  26.521  1.00  0.00     0.018 A 
ATOM     16  C   UNL A   1      30.642  26.897  24.842  1.00  0.00    -0.002 A 
ATOM     17  C   UNL A   1      30.737  29.189  23.938  1.00  0.00     0.012 A 
ATOM     18  C   UNL A   1      29.457  26.752  24.065  1.00  0.00     0.010 A 
ATOM     19  C   UNL A   1      29.577  28.991  23.196  1.00  0.00     0.001 A 
ATOM     20  C   UNL A   1      28.930  27.772  23.268  1.00  0.00     0.001 A 
BRANCH  12  21
ATOM     21  O   UNL A   1      33.000  29.686  25.559  1.00  0.00    -0.493 OA
BRANCH  21  22
ATOM     22  C   UNL A   1      32.942  30.342  26.837  1.00  0.00     0.226 C 
ATOM     23  C   UNL A   1      34.323  30.623  27.418  1.00  0.00     0.049 C 
ENDBRANCH  21  22
ENDBRANCH  12  21
ENDBRANCH   8  11
ENDBRANCH   6   7
ENDBRANCH   3   6
ENDBRANCH   1   2
BRANCH   1  24
ATOM     24  C   UNL A   1      34.464  23.647  24.882  1.00  0.00     0.023 C 
BRANCH  24  25
ATOM     25  C   UNL A   1      35.748  23.885  25.674  1.00  0.00     0.023 C 
BRANCH  25  26
ATOM     26  C   UNL A   1      37.041  23.725  24.879  1.00  0.00     0.116 C 
BRANCH  26  27
ATOM     27  N   UNL A   1      37.914  22.685  25.398  1.00  0.00    -0.352 N 
ATOM     28  C   UNL A   1      39.015  22.806  26.214  1.00  0.00     0.251 C 
ATOM     29  H   UNL A   1      37.686  21.766  25.128  1.00  0.00     0.163 HD
ATOM     30  O   UNL A   1      39.715  21.830  26.452  1.00  0.00    -0.269 OA
BRANCH  28  31
ATOM     31  C   UNL A   1      39.374  24.126  26.778  1.00  0.00     0.039 A 
ATOM     32  C   UNL A   1      39.000  24.415  28.092  1.00  0.00     0.014 A 
ATOM     33  C   UNL A   1      40.073  25.075  26.026  1.00  0.00     0.014 A 
ATOM     34  C   UNL A   1      39.371  25.631  28.666  1.00  0.00     0.010 A 
ATOM     35  C   UNL A   1      40.519  26.248  26.628  1.00  0.00     0.010 A 
ATOM     36  C   UNL A   1      40.163  26.546  27.951  1.00  0.00    -0.014 A 
BRANCH  36  37
ATOM     37  C   UNL A   1      40.609  27.815  28.581  1.00  0.00     0.031 A 
ATOM     38  C   UNL A   1      42.051  28.012  28.962  1.00  0.00     0.074 A 
ATOM     39  C   UNL A   1      39.708  28.784  28.835  1.00  0.00     0.049 A 
ATOM     40  N   UNL A   1      42.629  29.057  29.502  1.00  0.00    -0.248 NA
ATOM     41  C   UNL A   1      42.961  26.879  28.732  1.00  0.00     0.031 C 
ATOM     42  C   UNL A   1      38.271  28.690  28.568  1.00  0.00     0.029 A 
ATOM     43  N   UNL A   1      39.864  30.038  29.368  1.00  0.00    -0.354 N 
ATOM     44  C   UNL A   1      43.961  28.705  29.677  1.00  0.00     0.074 A 
ATOM     45  C   UNL A   1      44.093  27.329  29.252  1.00  0.00     0.031 C 
ATOM     46  C   UNL A   1      37.685  29.851  28.900  1.00  0.00     0.029 A 
ATOM     47  C   UNL A   1      38.695  30.757  29.436  1.00  0.00     0.049 A 
ATOM     48  H   UNL A   1      40.732  30.389  29.674  1.00  0.00     0.167 HD
ATOM     49  C   UNL A   1      44.988  29.468  30.123  1.00  0.00     0.037 A 
ATOM     50  C   UNL A   1      38.466  32.009  29.878  1.00  0.00     0.037 A 
ATOM     51  C   UNL A   1      44.854  30.842  30.533  1.00  0.00     0.049 A 
ATOM     52  C   UNL A   1      39.624  32.836  30.370  1.00  0.00     0.074 A 
ATOM     53  C   UNL A   1      45.840  31.717  30.954  1.00  0.00     0.029 A 
ATOM     54  N   UNL A   1      43.656  31.540  30.578  1.00  0.00    -0.354 N 
ATOM     55  N   UNL A   1      40.892  32.518  30.456  1.00  0.00    -0.248 NA
ATOM     56  C   UNL A   1      39.317  34.203  30.813  1.00  0.00     0.031 C 
ATOM     57  C   UNL A   1      45.232  32.925  31.308  1.00  0.00     0.029 A 
ATOM     58  C   UNL A   1      43.876  32.829  31.041  1.00  0.00     0.049 A 
ATOM     59  H   UNL A   1      42.779  31.175  30.318  1.00  0.00     0.167 HD
ATOM     60  C   UNL A   1      41.540  33.654  30.924  1.00  0.00     0.074 A 
ATOM     61  C   UNL A   1      40.525  34.673  31.090  1.00  0.00     0.031 C 
ATOM     62  C   UNL A   1      42.857  33.837  31.190  1.00  0.00     0.037 A 
BRANCH  49  63
ATOM     63  C   UNL A   1      46.348  28.833  30.191  1.00  0.00     0.064 A 
ATOM     64  C   UNL A   1      46.802  28.182  31.350  1.00  0.00     0.173 A 
ATOM     65  C   UNL A   1      47.197  28.842  29.074  1.00  0.00     0.173 A 
ATOM     66  F   UNL A   1      46.037  28.152  32.452  1.00  0.00    -0.203 F 
ATOM     67  C   UNL A   1      48.064  27.595  31.396  1.00  0.00     0.198 A 
ATOM     68  C   UNL A   1      48.444  28.222  29.113  1.00  0.00     0.198 A 
ATOM     69  F   UNL A   1      46.813  29.443  27.937  1.00  0.00    -0.203 F 
ATOM     70  F   UNL A   1      48.496  27.030  32.532  1.00  0.00    -0.200 F 
ATOM     71  C   UNL A   1      48.880  27.608  30.276  1.00  0.00     0.200 A 
ATOM     72  F   UNL A   1      49.224  28.223  28.023  1.00  0.00    -0.200 F 
ATOM     73  F   UNL A   1      50.091  27.035  30.321  1.00  0.00    -0.200 F 
ENDBRANCH  49  63
BRANCH  50  74
ATOM     74  C   UNL A   1      37.090  32.571  29.838  1.00  0.00     0.064 A 
ATOM     75  C   UNL A   1      36.196  32.372  30.902  1.00  0.00     0.173 A 
ATOM     76  C   UNL A   1      36.635  33.309  28.736  1.00  0.00     0.173 A 
ATOM     77  F   UNL A   1      36.578  31.656  31.970  1.00  0.00    -0.203 F 
ATOM     78  C   UNL A   1      34.895  32.866  30.852  1.00  0.00     0.198 A 
ATOM     79  C   UNL A   1      35.343  33.832  28.703  1.00  0.00     0.198 A 
ATOM     80  F   UNL A   1      37.450  33.535  27.697  1.00  0.00    -0.203 F 
ATOM     81  F   UNL A   1      34.046  32.613  31.858  1.00  0.00    -0.200 F 
ATOM     82  C   UNL A   1      34.471  33.600  29.755  1.00  0.00     0.200 A 
ATOM     83  F   UNL A   1      34.943  34.555  27.649  1.00  0.00    -0.200 F 
ATOM     84  F   UNL A   1      33.219  34.079  29.709  1.00  0.00    -0.200 F 
ENDBRANCH  50  74
BRANCH  62  85
ATOM     85  C   UNL A   1      43.286  35.207  31.636  1.00  0.00     0.064 A 
ATOM     86  C   UNL A   1      43.746  36.174  30.730  1.00  0.00     0.173 A 
ATOM     87  C   UNL A   1      43.211  35.563  32.992  1.00  0.00     0.173 A 
ATOM     88  F   UNL A   1      43.848  35.882  29.425  1.00  0.00    -0.203 F 
ATOM     89  C   UNL A   1      44.153  37.431  31.170  1.00  0.00     0.198 A 
ATOM     90  C   UNL A   1      43.584  36.833  33.423  1.00  0.00     0.198 A 
ATOM     91  F   UNL A   1      42.770  34.680  33.900  1.00  0.00    -0.203 F 
ATOM     92  F   UNL A   1      44.649  38.316  30.295  1.00  0.00    -0.200 F 
ATOM     93  C   UNL A   1      44.066  37.761  32.514  1.00  0.00     0.200 A 
ATOM     94  F   UNL A   1      43.481  37.156  34.720  1.00  0.00    -0.200 F 
ATOM     95  F   UNL A   1      44.454  38.973  32.934  1.00  0.00    -0.200 F 
ENDBRANCH  62  85
ENDBRANCH  36  37
ENDBRANCH  28  31
ENDBRANCH  26  27
ENDBRANCH  25  26
ENDBRANCH  24  25
ENDBRANCH   1  24
TORSDOF 15
ENDMDL
MODEL 2
REMARK VINA RESULT:     -11.6      2.936      4.364
REMARK SMILES CCOc1ccc(C(=O)NCC(=O)NCCCCNC(=O)c2ccc(-c3c4nc(c(-c5c(F)c(F)c(F)c(F)c5F)c5ccc([nH]5)c(-c5c(F)c(F)c(F)c(F)c5F)c5nc(c(-c6c(F)c(F)c(F)c(F)c6F)c6ccc3[nH]6)C=C5)C=C4)cc2)c2ccccc12
REMARK SMILES IDX 15 1 14 2 12 3 13 4 11 6 10 7 8 8 9 9 7 11 4 12 5 13 90 14
REMARK SMILES IDX 6 15 85 16 89 17 86 18 88 19 87 20 3 21 2 22 1 23 16 24
REMARK SMILES IDX 17 25 18 26 19 27 20 28 21 30 22 31 23 32 84 33 24 34 83 35
REMARK SMILES IDX 25 36 26 37 27 38 77 39 28 40 82 41 76 42 78 43 29 44 81 45
REMARK SMILES IDX 75 46 74 47 30 49 62 50 42 51 61 52 43 53 46 54 60 55 79 56
REMARK SMILES IDX 44 57 45 58 59 60 80 61 47 62 31 63 32 64 40 65 33 66 34 67
REMARK SMILES IDX 38 68 41 69 35 70 36 71 39 72 37 73 63 74 64 75 72 76 65 77
REMARK SMILES IDX 66 78 70 79 73 80 67 81 68 82 71 83 69 84 48 85 49 86 57 87
REMARK SMILES IDX 50 88 51 89 55 90 58 91 52 92 53 93 56 94 54 95
REMARK H PARENT 14 5 10 10 19 29 78 48 46 59
REMARK Flexibility Score: inf
ROOT
ATOM      1  C   UNL A   1      35.781  20.917  25.201  1.00  0.00     0.116 C 
ENDROOT
BRANCH   1   2
ATOM      2  N   UNL A   1      35.445  21.679  26.382  1.00  0.00    -0.355 N 
ATOM      3  C   UNL A   1      34.259  22.166  26.833  1.00  0.00     0.239 C 
ATOM      4  O   UNL A   1      34.258  22.622  27.983  1.00  0.00    -0.273 OA
ATOM      5  H   UNL A   1      36.212  21.879  26.965  1.00  0.00     0.163 HD
BRANCH   3   6
ATOM      6  C   UNL A   1      32.925  22.050  26.068  1.00  0.00     0.216 C 
BRANCH   6   7
ATOM      7  N   UNL A   1      31.704  22.600  26.637  1.00  0.00    -0.343 N 
ATOM      8  C   UNL A   1      31.012  23.786  26.612  1.00  0.00     0.252 C 
ATOM      9  O   UNL A   1      29.891  23.689  27.114  1.00  0.00    -0.269 OA
ATOM     10  H   UNL A   1      31.245  21.934  27.198  1.00  0.00     0.164 HD
BRANCH   8  11
ATOM     11  C   UNL A   1      31.526  25.116  26.089  1.00  0.00     0.047 A 
ATOM     12  C   UNL A   1      32.558  27.592  25.189  1.00  0.00     0.127 A 
ATOM     13  C   UNL A   1      33.237  26.853  26.141  1.00  0.00     0.048 A 
ATOM     14  C   UNL A   1      31.287  27.184  24.745  1.00  0.00     0.025 A 
ATOM     15  C   UNL A   1      32.747  25.625  26.551  1.00  0.00     0.018 A 
ATOM     16  C   UNL A   1      30.737  25.945  25.204  1.00  0.00    -0.002 A 
ATOM     17  C   UNL A   1      30.539  28.013  23.878  1.00  0.00     0.012 A 
ATOM     18  C   UNL A   1      29.413  25.660  24.765  1.00  0.00     0.010 A 
ATOM     19  C   UNL A   1      29.248  27.683  23.476  1.00  0.00     0.001 A 
ATOM     20  C   UNL A   1      28.681  26.508  23.930  1.00  0.00     0.001 A 
BRANCH  12  21
ATOM     21  O   UNL A   1      33.092  28.799  24.804  1.00  0.00    -0.493 OA
BRANCH  21  22
ATOM     22  C   UNL A   1      33.282  29.702  25.907  1.00  0.00     0.226 C 
ATOM     23  C   UNL A   1      32.032  30.517  26.222  1.00  0.00     0.049 C 
ENDBRANCH  21  22
ENDBRANCH  12  21
ENDBRANCH   8  11
ENDBRANCH   6   7
ENDBRANCH   3   6
ENDBRANCH   1   2
BRANCH   1  24
ATOM     24  C   UNL A   1      37.209  21.133  24.724  1.00  0.00     0.023 C 
BRANCH  24  25
ATOM     25  C   UNL A   1      38.119  19.924  24.926  1.00  0.00     0.023 C 
BRANCH  25  26
ATOM     26  C   UNL A   1      39.165  20.076  26.027  1.00  0.00     0.116 C 
BRANCH  26  27
ATOM     27  N   UNL A   1      40.265  19.132  25.914  1.00  0.00    -0.352 N 
ATOM     28  C   UNL A   1      41.618  19.363  26.004  1.00  0.00     0.251 C 
ATOM     29  H   UNL A   1      40.005  18.197  25.751  1.00  0.00     0.163 HD
ATOM     30  O   UNL A   1      42.414  18.467  25.755  1.00  0.00    -0.269 OA
BRANCH  28  31
ATOM     31  C   UNL A   1      42.114  20.709  26.368  1.00  0.00     0.039 A 
ATOM     32  C   UNL A   1      42.333  21.638  25.349  1.00  0.00     0.014 A 
ATOM     33  C   UNL A   1      42.364  21.059  27.698  1.00  0.00     0.014 A 
ATOM     34  C   UNL A   1      42.751  22.930  25.668  1.00  0.00     0.010 A 
ATOM     35  C   UNL A   1      42.694  22.372  28.021  1.00  0.00     0.010 A 
ATOM     36  C   UNL A   1      42.904  23.320  27.010  1.00  0.00    -0.014 A 
BRANCH  36  37
ATOM     37  C   UNL A   1      43.291  24.712  27.354  1.00  0.00     0.031 A 
ATOM     38  C   UNL A   1      44.693  25.198  27.107  1.00  0.00     0.074 A 
ATOM     39  C   UNL A   1      42.383  25.534  27.915  1.00  0.00     0.049 A 
ATOM     40  N   UNL A   1      45.209  26.383  27.324  1.00  0.00    -0.248 NA
ATOM     41  C   UNL A   1      45.652  24.219  26.570  1.00  0.00     0.031 C 
ATOM     42  C   UNL A   1      41.009  25.164  28.261  1.00  0.00     0.029 A 
ATOM     43  N   UNL A   1      42.475  26.852  28.290  1.00  0.00    -0.354 N 
ATOM     44  C   UNL A   1      46.544  26.289  26.955  1.00  0.00     0.074 A 
ATOM     45  C   UNL A   1      46.779  24.916  26.566  1.00  0.00     0.031 C 
ATOM     46  C   UNL A   1      40.376  26.238  28.758  1.00  0.00     0.029 A 
ATOM     47  C   UNL A   1      41.306  27.361  28.801  1.00  0.00     0.049 A 
ATOM     48  H   UNL A   1      43.301  27.380  28.202  1.00  0.00     0.167 HD
ATOM     49  C   UNL A   1      47.483  27.264  26.914  1.00  0.00     0.037 A 
ATOM     50  C   UNL A   1      41.017  28.598  29.248  1.00  0.00     0.037 A 
ATOM     51  C   UNL A   1      47.242  28.633  27.290  1.00  0.00     0.049 A 
ATOM     52  C   UNL A   1      42.078  29.664  29.194  1.00  0.00     0.074 A 
ATOM     53  C   UNL A   1      48.112  29.709  27.239  1.00  0.00     0.029 A 
ATOM     54  N   UNL A   1      46.042  29.115  27.792  1.00  0.00    -0.354 N 
ATOM     55  N   UNL A   1      43.315  29.582  28.768  1.00  0.00    -0.248 NA
ATOM     56  C   UNL A   1      41.696  31.001  29.670  1.00  0.00     0.031 C 
ATOM     57  C   UNL A   1      47.457  30.827  27.763  1.00  0.00     0.029 A 
ATOM     58  C   UNL A   1      46.156  30.468  28.075  1.00  0.00     0.049 A 
ATOM     59  H   UNL A   1      45.229  28.577  27.926  1.00  0.00     0.167 HD
ATOM     60  C   UNL A   1      43.846  30.860  28.888  1.00  0.00     0.074 A 
ATOM     61  C   UNL A   1      42.792  31.701  29.414  1.00  0.00     0.031 C 
ATOM     62  C   UNL A   1      45.094  31.297  28.588  1.00  0.00     0.037 A 
BRANCH  49  63
ATOM     63  C   UNL A   1      48.861  26.885  26.447  1.00  0.00     0.064 A 
ATOM     64  C   UNL A   1      49.821  26.360  27.327  1.00  0.00     0.173 A 
ATOM     65  C   UNL A   1      49.217  27.014  25.095  1.00  0.00     0.173 A 
ATOM     66  F   UNL A   1      49.539  26.225  28.632  1.00  0.00    -0.203 F 
ATOM     67  C   UNL A   1      51.091  26.010  26.878  1.00  0.00     0.198 A 
ATOM     68  C   UNL A   1      50.476  26.629  24.644  1.00  0.00     0.198 A 
ATOM     69  F   UNL A   1      48.337  27.504  24.208  1.00  0.00    -0.203 F 
ATOM     70  F   UNL A   1      52.008  25.564  27.748  1.00  0.00    -0.200 F 
ATOM     71  C   UNL A   1      51.416  26.137  25.537  1.00  0.00     0.200 A 
ATOM     72  F   UNL A   1      50.782  26.738  23.343  1.00  0.00    -0.200 F 
ATOM     73  F   UNL A   1      52.637  25.792  25.105  1.00  0.00    -0.200 F 
ENDBRANCH  49  63
BRANCH  50  74
ATOM     74  C   UNL A   1      39.651  28.906  29.751  1.00  0.00     0.064 A 
ATOM     75  C   UNL A   1      39.303  28.669  31.090  1.00  0.00     0.173 A 
ATOM     76  C   UNL A   1      38.664  29.434  28.906  1.00  0.00     0.173 A 
ATOM     77  F   UNL A   1      40.206  28.148  31.934  1.00  0.00    -0.203 F 
ATOM     78  C   UNL A   1      38.014  28.923  31.555  1.00  0.00     0.198 A 
ATOM     79  C   UNL A   1      37.386  29.718  29.382  1.00  0.00     0.198 A 
ATOM     80  F   UNL A   1      38.946  29.686  27.621  1.00  0.00    -0.203 F 
ATOM     81  F   UNL A   1      37.695  28.635  32.824  1.00  0.00    -0.200 F 
ATOM     82  C   UNL A   1      37.059  29.453  30.702  1.00  0.00     0.200 A 
ATOM     83  F   UNL A   1      36.470  30.246  28.559  1.00  0.00    -0.200 F 
ATOM     84  F   UNL A   1      35.820  29.700  31.151  1.00  0.00    -0.200 F 
ENDBRANCH  50  74
BRANCH  62  85
ATOM     85  C   UNL A   1      45.373  32.763  28.767  1.00  0.00     0.064 A 
ATOM     86  C   UNL A   1      45.905  33.280  29.957  1.00  0.00     0.173 A 
ATOM     87  C   UNL A   1      45.123  33.661  27.717  1.00  0.00     0.173 A 
ATOM     88  F   UNL A   1      46.152  32.467  30.995  1.00  0.00    -0.203 F 
ATOM     89  C   UNL A   1      46.139  34.645  30.103  1.00  0.00     0.198 A 
ATOM     90  C   UNL A   1      45.392  35.020  27.855  1.00  0.00     0.198 A 
ATOM     91  F   UNL A   1      44.622  33.220  26.553  1.00  0.00    -0.203 F 
ATOM     92  F   UNL A   1      46.588  35.123  31.272  1.00  0.00    -0.200 F 
ATOM     93  C   UNL A   1      45.889  35.512  29.051  1.00  0.00     0.200 A 
ATOM     94  F   UNL A   1      45.167  35.853  26.829  1.00  0.00    -0.200 F 
ATOM     95  F   UNL A   1      46.119  36.824  29.193  1.00  0.00    -0.200 F 
ENDBRANCH  62  85
ENDBRANCH  36  37
ENDBRANCH  28  31
ENDBRANCH  26  27
ENDBRANCH  25  26
ENDBRANCH  24  25
ENDBRANCH   1  24
TORSDOF 15
ENDMDL
MODEL 3
REMARK VINA RESULT:     -11.6      3.941      9.100
REMARK SMILES CCOc1ccc(C(=O)NCC(=O)NCCCCNC(=O)c2ccc(-c3c4nc(c(-c5c(F)c(F)c(F)c(F)c5F)c5ccc([nH]5)c(-c5c(F)c(F)c(F)c(F)c5F)c5nc(c(-c6c(F)c(F)c(F)c(F)c6F)c6ccc3[nH]6)C=C5)C=C4)cc2)c2ccccc12
REMARK SMILES IDX 15 1 14 2 12 3 13 4 11 6 10 7 8 8 9 9 7 11 4 12 5 13 90 14
REMARK SMILES IDX 6 15 85 16 89 17 86 18 88 19 87 20 3 21 2 22 1 23 16 24
REMARK SMILES IDX 17 25 18 26 19 27 20 28 21 30 22 31 23 32 84 33 24 34 83 35
REMARK SMILES IDX 25 36 26 37 27 38 77 39 28 40 82 41 76 42 78 43 29 44 81 45
REMARK SMILES IDX 75 46 74 47 30 49 62 50 42 51 61 52 43 53 46 54 60 55 79 56
REMARK SMILES IDX 44 57 45 58 59 60 80 61 47 62 31 63 32 64 40 65 33 66 34 67
REMARK SMILES IDX 38 68 41 69 35 70 36 71 39 72 37 73 63 74 64 75 72 76 65 77
REMARK SMILES IDX 66 78 70 79 73 80 67 81 68 82 71 83 69 84 48 85 49 86 57 87
REMARK SMILES IDX 50 88 51 89 55 90 58 91 52 92 53 93 56 94 54 95
REMARK H PARENT 14 5 10 10 19 29 78 48 46 59
REMARK Flexibility Score: inf
ROOT
ATOM      1  C   UNL A   1      32.878  30.144  26.511  1.00  0.00     0.116 C 
ENDROOT
BRANCH   1   2
ATOM      2  N   UNL A   1      33.640  29.683  25.374  1.00  0.00    -0.355 N 
ATOM      3  C   UNL A   1      33.564  28.538  24.643  1.00  0.00     0.239 C 
ATOM      4  O   UNL A   1      34.233  28.511  23.603  1.00  0.00    -0.273 OA
ATOM      5  H   UNL A   1      34.337  30.309  25.074  1.00  0.00     0.163 HD
BRANCH   3   6
ATOM      6  C   UNL A   1      32.607  27.370  24.955  1.00  0.00     0.216 C 
BRANCH   6   7
ATOM      7  N   UNL A   1      32.219  26.442  23.904  1.00  0.00    -0.343 N 
ATOM      8  C   UNL A   1      32.478  25.142  23.547  1.00  0.00     0.252 C 
ATOM      9  O   UNL A   1      31.728  24.738  22.657  1.00  0.00    -0.269 OA
ATOM     10  H   UNL A   1      31.594  26.864  23.272  1.00  0.00     0.164 HD
BRANCH   8  11
ATOM     11  C   UNL A   1      33.581  24.258  24.105  1.00  0.00     0.047 A 
ATOM     12  C   UNL A   1      35.679  22.611  25.049  1.00  0.00     0.127 A 
ATOM     13  C   UNL A   1      35.726  23.145  23.774  1.00  0.00     0.048 A 
ATOM     14  C   UNL A   1      34.533  22.777  25.849  1.00  0.00     0.025 A 
ATOM     15  C   UNL A   1      34.715  23.981  23.331  1.00  0.00     0.018 A 
ATOM     16  C   UNL A   1      33.451  23.590  25.381  1.00  0.00    -0.002 A 
ATOM     17  C   UNL A   1      34.435  22.114  27.094  1.00  0.00     0.012 A 
ATOM     18  C   UNL A   1      32.304  23.630  26.224  1.00  0.00     0.010 A 
ATOM     19  C   UNL A   1      33.289  22.192  27.880  1.00  0.00     0.001 A 
ATOM     20  C   UNL A   1      32.218  22.944  27.438  1.00  0.00     0.001 A 
BRANCH  12  21
ATOM     21  O   UNL A   1      36.713  21.798  25.449  1.00  0.00    -0.493 OA
BRANCH  21  22
ATOM     22  C   UNL A   1      37.951  22.510  25.615  1.00  0.00     0.226 C 
ATOM     23  C   UNL A   1      39.104  21.599  26.018  1.00  0.00     0.049 C 
ENDBRANCH  21  22
ENDBRANCH  12  21
ENDBRANCH   8  11
ENDBRANCH   6   7
ENDBRANCH   3   6
ENDBRANCH   1   2
BRANCH   1  24
ATOM     24  C   UNL A   1      31.524  30.730  26.139  1.00  0.00     0.023 C 
BRANCH  24  25
ATOM     25  C   UNL A   1      31.372  32.209  26.490  1.00  0.00     0.023 C 
BRANCH  25  26
ATOM     26  C   UNL A   1      32.588  32.847  27.155  1.00  0.00     0.116 C 
BRANCH  26  27
ATOM     27  N   UNL A   1      32.343  34.197  27.634  1.00  0.00    -0.352 N 
ATOM     28  C   UNL A   1      32.997  34.899  28.620  1.00  0.00     0.251 C 
ATOM     29  H   UNL A   1      31.607  34.678  27.190  1.00  0.00     0.163 HD
ATOM     30  O   UNL A   1      32.574  35.988  28.985  1.00  0.00    -0.269 OA
BRANCH  28  31
ATOM     31  C   UNL A   1      34.196  34.320  29.266  1.00  0.00     0.039 A 
ATOM     32  C   UNL A   1      34.020  33.486  30.373  1.00  0.00     0.014 A 
ATOM     33  C   UNL A   1      35.483  34.591  28.793  1.00  0.00     0.014 A 
ATOM     34  C   UNL A   1      35.129  32.885  30.970  1.00  0.00     0.010 A 
ATOM     35  C   UNL A   1      36.578  33.921  29.332  1.00  0.00     0.010 A 
ATOM     36  C   UNL A   1      36.416  33.070  30.435  1.00  0.00    -0.014 A 
BRANCH  36  37
ATOM     37  C   UNL A   1      37.590  32.384  31.032  1.00  0.00     0.031 A 
ATOM     38  C   UNL A   1      38.069  32.751  32.410  1.00  0.00     0.074 A 
ATOM     39  C   UNL A   1      38.243  31.444  30.321  1.00  0.00     0.049 A 
ATOM     40  N   UNL A   1      39.061  32.247  33.103  1.00  0.00    -0.248 NA
ATOM     41  C   UNL A   1      37.359  33.843  33.093  1.00  0.00     0.031 C 
ATOM     42  C   UNL A   1      37.914  31.042  28.951  1.00  0.00     0.029 A 
ATOM     43  N   UNL A   1      39.315  30.653  30.649  1.00  0.00    -0.354 N 
ATOM     44  C   UNL A   1      39.094  32.962  34.292  1.00  0.00     0.074 A 
ATOM     45  C   UNL A   1      38.070  33.979  34.202  1.00  0.00     0.031 C 
ATOM     46  C   UNL A   1      38.738  30.053  28.573  1.00  0.00     0.029 A 
ATOM     47  C   UNL A   1      39.677  29.776  29.655  1.00  0.00     0.049 A 
ATOM     48  H   UNL A   1      39.781  30.710  31.514  1.00  0.00     0.167 HD
ATOM     49  C   UNL A   1      39.886  32.770  35.375  1.00  0.00     0.037 A 
ATOM     50  C   UNL A   1      40.653  28.848  29.624  1.00  0.00     0.037 A 
ATOM     51  C   UNL A   1      40.896  31.748  35.466  1.00  0.00     0.049 A 
ATOM     52  C   UNL A   1      41.520  28.655  30.839  1.00  0.00     0.074 A 
ATOM     53  C   UNL A   1      41.718  31.439  36.536  1.00  0.00     0.029 A 
ATOM     54  N   UNL A   1      41.226  30.871  34.443  1.00  0.00    -0.354 N 
ATOM     55  N   UNL A   1      41.488  29.285  31.988  1.00  0.00    -0.248 NA
ATOM     56  C   UNL A   1      42.550  27.611  30.757  1.00  0.00     0.031 C 
ATOM     57  C   UNL A   1      42.583  30.414  36.142  1.00  0.00     0.029 A 
ATOM     58  C   UNL A   1      42.255  30.035  34.850  1.00  0.00     0.049 A 
ATOM     59  H   UNL A   1      40.793  30.845  33.559  1.00  0.00     0.167 HD
ATOM     60  C   UNL A   1      42.464  28.689  32.777  1.00  0.00     0.074 A 
ATOM     61  C   UNL A   1      43.060  27.638  31.979  1.00  0.00     0.031 C 
ATOM     62  C   UNL A   1      42.831  28.984  34.049  1.00  0.00     0.037 A 
BRANCH  49  63
ATOM     63  C   UNL A   1      39.691  33.686  36.551  1.00  0.00     0.064 A 
ATOM     64  C   UNL A   1      40.304  34.948  36.614  1.00  0.00     0.173 A 
ATOM     65  C   UNL A   1      38.851  33.316  37.613  1.00  0.00     0.173 A 
ATOM     66  F   UNL A   1      41.126  35.349  35.632  1.00  0.00    -0.203 F 
ATOM     67  C   UNL A   1      40.111  35.786  37.709  1.00  0.00     0.198 A 
ATOM     68  C   UNL A   1      38.632  34.173  38.688  1.00  0.00     0.198 A 
ATOM     69  F   UNL A   1      38.233  32.124  37.603  1.00  0.00    -0.203 F 
ATOM     70  F   UNL A   1      40.753  36.961  37.771  1.00  0.00    -0.200 F 
ATOM     71  C   UNL A   1      39.269  35.402  38.741  1.00  0.00     0.200 A 
ATOM     72  F   UNL A   1      37.805  33.805  39.677  1.00  0.00    -0.200 F 
ATOM     73  F   UNL A   1      39.078  36.215  39.790  1.00  0.00    -0.200 F 
ENDBRANCH  49  63
BRANCH  50  74
ATOM     74  C   UNL A   1      40.837  28.004  28.414  1.00  0.00     0.064 A 
ATOM     75  C   UNL A   1      40.218  26.750  28.304  1.00  0.00     0.173 A 
ATOM     76  C   UNL A   1      41.643  28.427  27.346  1.00  0.00     0.173 A 
ATOM     77  F   UNL A   1      39.452  26.293  29.307  1.00  0.00    -0.203 F 
ATOM     78  C   UNL A   1      40.417  25.942  27.187  1.00  0.00     0.198 A 
ATOM     79  C   UNL A   1      41.815  27.631  26.215  1.00  0.00     0.198 A 
ATOM     80  F   UNL A   1      42.252  29.619  27.396  1.00  0.00    -0.203 F 
ATOM     81  F   UNL A   1      39.857  24.726  27.135  1.00  0.00    -0.200 F 
ATOM     82  C   UNL A   1      41.212  26.386  26.141  1.00  0.00     0.200 A 
ATOM     83  F   UNL A   1      42.569  28.071  25.198  1.00  0.00    -0.200 F 
ATOM     84  F   UNL A   1      41.401  25.609  25.065  1.00  0.00    -0.200 F 
ENDBRANCH  50  74
BRANCH  62  85
ATOM     85  C   UNL A   1      43.891  28.123  34.678  1.00  0.00     0.064 A 
ATOM     86  C   UNL A   1      45.247  28.481  34.662  1.00  0.00     0.173 A 
ATOM     87  C   UNL A   1      43.535  26.931  35.328  1.00  0.00     0.173 A 
ATOM     88  F   UNL A   1      45.642  29.604  34.044  1.00  0.00    -0.203 F 
ATOM     89  C   UNL A   1      46.211  27.657  35.238  1.00  0.00     0.198 A 
ATOM     90  C   UNL A   1      44.498  26.129  35.935  1.00  0.00     0.198 A 
ATOM     91  F   UNL A   1      42.251  26.545  35.382  1.00  0.00    -0.203 F 
ATOM     92  F   UNL A   1      47.507  27.988  35.154  1.00  0.00    -0.200 F 
ATOM     93  C   UNL A   1      45.835  26.487  35.879  1.00  0.00     0.200 A 
ATOM     94  F   UNL A   1      44.130  25.007  36.570  1.00  0.00    -0.200 F 
ATOM     95  F   UNL A   1      46.765  25.698  36.436  1.00  0.00    -0.200 F 
ENDBRANCH  62  85
ENDBRANCH  36  37
ENDBRANCH  28  31
ENDBRANCH  26  27
ENDBRANCH  25  26
ENDBRANCH  24  25
ENDBRANCH   1  24
TORSDOF 15
ENDMDL
