MODEL 1
REMARK VINA RESULT:     -12.7      0.000      0.000
REMARK SMILES CN(CC(N)=O)c1ccc(S(N)(=O)=O)cc1C(=O)NCCCCNC(=O)c1ccc(-c2c3nc(c(-c4c(F)c(F)c(F)c(F)c4F)c4ccc([nH]4)c(-c4c(F)c(F)c(F)c(F)c4F)c4nc(c(-c5c(F)c(F)c(F)c(F)c5F)c5ccc2[nH]5)C=C4)C=C3)cc1
REMARK SMILES IDX 21 1 20 2 19 3 17 4 18 5 16 7 7 8 8 9 9 10 15 11 10 12 2 13
REMARK SMILES IDX 1 14 3 15 4 16 5 17 6 18 11 21 13 22 14 23 12 24 22 27 23 28
REMARK SMILES IDX 24 29 25 30 26 32 27 33 28 34 89 35 29 36 88 37 30 38 31 39
REMARK SMILES IDX 32 40 82 41 33 42 87 43 81 44 83 45 34 46 86 47 80 48 79 49
REMARK SMILES IDX 35 51 67 52 47 53 66 54 48 55 51 56 65 57 84 58 49 59 50 60
REMARK SMILES IDX 64 62 85 63 52 64 36 65 37 66 45 67 38 68 39 69 43 70 46 71
REMARK SMILES IDX 40 72 41 73 44 74 42 75 68 76 69 77 77 78 70 79 71 80 75 81
REMARK SMILES IDX 78 82 72 83 73 84 76 85 74 86 53 87 54 88 62 89 55 90 56 91
REMARK SMILES IDX 60 92 63 93 57 94 58 95 61 96 59 97
REMARK H PARENT 19 6 5 19 5 20 12 25 12 26 24 31 83 50 51 61
REMARK Flexibility Score: inf
ROOT
ATOM      1  C   UNL A   1      31.489  30.866  25.929  1.00  0.00     0.023 C 
ENDROOT
BRANCH   1   2
ATOM      2  C   UNL A   1      32.749  30.021  26.040  1.00  0.00     0.116 C 
BRANCH   2   3
ATOM      3  N   UNL A   1      33.440  29.723  24.817  1.00  0.00    -0.352 N 
ATOM      4  C   UNL A   1      32.964  29.073  23.699  1.00  0.00     0.253 C 
ATOM      5  O   UNL A   1      33.718  29.026  22.724  1.00  0.00    -0.269 OA
ATOM      6  H   UNL A   1      34.376  30.023  24.769  1.00  0.00     0.163 HD
BRANCH   4   7
ATOM      7  C   UNL A   1      31.648  28.348  23.617  1.00  0.00     0.064 A 
ATOM      8  C   UNL A   1      31.362  27.021  24.036  1.00  0.00     0.050 A 
ATOM      9  C   UNL A   1      30.021  26.578  23.955  1.00  0.00     0.028 A 
ATOM     10  C   UNL A   1      28.990  27.389  23.484  1.00  0.00     0.024 A 
ATOM     11  C   UNL A   1      30.588  29.166  23.148  1.00  0.00     0.037 A 
ATOM     12  C   UNL A   1      29.278  28.685  23.086  1.00  0.00     0.083 A 
BRANCH   8  13
ATOM     13  N   UNL A   1      32.291  26.169  24.631  1.00  0.00    -0.365 N 
ATOM     14  C   UNL A   1      31.777  25.337  25.715  1.00  0.00     0.144 C 
BRANCH  13  15
ATOM     15  C   UNL A   1      33.466  25.685  23.878  1.00  0.00     0.215 C 
BRANCH  15  16
ATOM     16  C   UNL A   1      33.216  25.306  22.423  1.00  0.00     0.236 C 
ATOM     17  N   UNL A   1      32.407  24.215  22.238  1.00  0.00    -0.368 N 
ATOM     18  O   UNL A   1      33.687  25.907  21.463  1.00  0.00    -0.273 OA
ATOM     19  H   UNL A   1      32.036  23.741  23.017  1.00  0.00     0.159 HD
ATOM     20  H   UNL A   1      32.199  23.905  21.327  1.00  0.00     0.159 HD
ENDBRANCH  15  16
ENDBRANCH  13  15
ENDBRANCH   8  13
BRANCH  12  21
ATOM     21  S   UNL A   1      27.947  29.738  22.592  1.00  0.00     0.238 S 
ATOM     22  O   UNL A   1      27.822  30.807  23.562  1.00  0.00    -0.207 OA
ATOM     23  O   UNL A   1      28.006  29.971  21.176  1.00  0.00    -0.207 OA
BRANCH  21  24
ATOM     24  N   UNL A   1      26.605  28.750  22.829  1.00  0.00    -0.225 NA
ATOM     25  H   UNL A   1      26.852  27.988  23.462  1.00  0.00     0.137 HD
ATOM     26  H   UNL A   1      26.305  28.364  21.933  1.00  0.00     0.137 HD
ENDBRANCH  21  24
ENDBRANCH  12  21
ENDBRANCH   4   7
ENDBRANCH   2   3
ENDBRANCH   1   2
BRANCH   1  27
ATOM     27  C   UNL A   1      31.371  32.046  26.892  1.00  0.00     0.023 C 
BRANCH  27  28
ATOM     28  C   UNL A   1      32.637  32.857  27.163  1.00  0.00     0.116 C 
BRANCH  28  29
ATOM     29  N   UNL A   1      32.395  34.219  27.621  1.00  0.00    -0.352 N 
ATOM     30  C   UNL A   1      33.044  34.978  28.569  1.00  0.00     0.251 C 
ATOM     31  H   UNL A   1      31.642  34.673  27.177  1.00  0.00     0.163 HD
ATOM     32  O   UNL A   1      32.627  36.101  28.840  1.00  0.00    -0.269 OA
BRANCH  30  33
ATOM     33  C   UNL A   1      34.208  34.435  29.306  1.00  0.00     0.039 A 
ATOM     34  C   UNL A   1      33.986  33.740  30.499  1.00  0.00     0.014 A 
ATOM     35  C   UNL A   1      35.510  34.587  28.827  1.00  0.00     0.014 A 
ATOM     36  C   UNL A   1      35.051  33.101  31.143  1.00  0.00     0.010 A 
ATOM     37  C   UNL A   1      36.552  33.875  29.415  1.00  0.00     0.010 A 
ATOM     38  C   UNL A   1      36.334  33.112  30.573  1.00  0.00    -0.014 A 
BRANCH  38  39
ATOM     39  C   UNL A   1      37.458  32.335  31.161  1.00  0.00     0.031 A 
ATOM     40  C   UNL A   1      37.967  32.665  32.538  1.00  0.00     0.074 A 
ATOM     41  C   UNL A   1      38.074  31.383  30.430  1.00  0.00     0.049 A 
ATOM     42  N   UNL A   1      39.007  32.188  33.175  1.00  0.00    -0.248 NA
ATOM     43  C   UNL A   1      37.224  33.692  33.286  1.00  0.00     0.031 C 
ATOM     44  C   UNL A   1      37.713  30.993  29.065  1.00  0.00     0.029 A 
ATOM     45  N   UNL A   1      39.147  30.578  30.729  1.00  0.00    -0.354 N 
ATOM     46  C   UNL A   1      39.049  32.866  34.388  1.00  0.00     0.074 A 
ATOM     47  C   UNL A   1      37.969  33.828  34.373  1.00  0.00     0.031 C 
ATOM     48  C   UNL A   1      38.530  30.009  28.656  1.00  0.00     0.029 A 
ATOM     49  C   UNL A   1      39.499  29.725  29.709  1.00  0.00     0.049 A 
ATOM     50  H   UNL A   1      39.618  30.608  31.592  1.00  0.00     0.167 HD
ATOM     51  C   UNL A   1      39.892  32.683  35.432  1.00  0.00     0.037 A 
ATOM     52  C   UNL A   1      40.495  28.822  29.632  1.00  0.00     0.037 A 
ATOM     53  C   UNL A   1      40.951  31.708  35.462  1.00  0.00     0.049 A 
ATOM     54  C   UNL A   1      41.419  28.642  30.808  1.00  0.00     0.074 A 
ATOM     55  C   UNL A   1      41.848  31.437  36.481  1.00  0.00     0.029 A 
ATOM     56  N   UNL A   1      41.244  30.834  34.427  1.00  0.00    -0.354 N 
ATOM     57  N   UNL A   1      41.421  29.261  31.962  1.00  0.00    -0.248 NA
ATOM     58  C   UNL A   1      42.475  27.627  30.671  1.00  0.00     0.031 C 
ATOM     59  C   UNL A   1      42.700  30.413  36.053  1.00  0.00     0.029 A 
ATOM     60  C   UNL A   1      42.306  30.020  34.785  1.00  0.00     0.049 A 
ATOM     61  H   UNL A   1      40.769  30.798  33.566  1.00  0.00     0.167 HD
ATOM     62  C   UNL A   1      42.444  28.684  32.703  1.00  0.00     0.074 A 
ATOM     63  C   UNL A   1      43.037  27.659  31.870  1.00  0.00     0.031 C 
ATOM     64  C   UNL A   1      42.857  28.978  33.959  1.00  0.00     0.037 A 
BRANCH  51  65
ATOM     65  C   UNL A   1      39.685  33.542  36.644  1.00  0.00     0.064 A 
ATOM     66  C   UNL A   1      40.350  34.770  36.789  1.00  0.00     0.173 A 
ATOM     67  C   UNL A   1      38.790  33.159  37.653  1.00  0.00     0.173 A 
ATOM     68  F   UNL A   1      41.228  35.176  35.858  1.00  0.00    -0.203 F 
ATOM     69  C   UNL A   1      40.146  35.569  37.910  1.00  0.00     0.198 A 
ATOM     70  C   UNL A   1      38.565  33.975  38.760  1.00  0.00     0.198 A 
ATOM     71  F   UNL A   1      38.123  31.998  37.561  1.00  0.00    -0.203 F 
ATOM     72  F   UNL A   1      40.828  36.714  38.048  1.00  0.00    -0.200 F 
ATOM     73  C   UNL A   1      39.249  35.175  38.891  1.00  0.00     0.200 A 
ATOM     74  F   UNL A   1      37.688  33.599  39.701  1.00  0.00    -0.200 F 
ATOM     75  F   UNL A   1      39.047  35.948  39.966  1.00  0.00    -0.200 F 
ENDBRANCH  51  65
BRANCH  52  76
ATOM     76  C   UNL A   1      40.665  27.989  28.412  1.00  0.00     0.064 A 
ATOM     77  C   UNL A   1      40.076  26.718  28.325  1.00  0.00     0.173 A 
ATOM     78  C   UNL A   1      41.448  28.419  27.332  1.00  0.00     0.173 A 
ATOM     79  F   UNL A   1      39.336  26.254  29.342  1.00  0.00    -0.203 F 
ATOM     80  C   UNL A   1      40.294  25.897  27.221  1.00  0.00     0.198 A 
ATOM     81  C   UNL A   1      41.640  27.608  26.214  1.00  0.00     0.198 A 
ATOM     82  F   UNL A   1      42.030  29.627  27.362  1.00  0.00    -0.203 F 
ATOM     83  F   UNL A   1      39.769  24.664  27.193  1.00  0.00    -0.200 F 
ATOM     84  C   UNL A   1      41.074  26.343  26.165  1.00  0.00     0.200 A 
ATOM     85  F   UNL A   1      42.386  28.047  25.190  1.00  0.00    -0.200 F 
ATOM     86  F   UNL A   1      41.289  25.550  25.107  1.00  0.00    -0.200 F 
ENDBRANCH  52  76
BRANCH  64  87
ATOM     87  C   UNL A   1      43.955  28.135  34.538  1.00  0.00     0.064 A 
ATOM     88  C   UNL A   1      45.301  28.518  34.464  1.00  0.00     0.173 A 
ATOM     89  C   UNL A   1      43.646  26.941  35.209  1.00  0.00     0.173 A 
ATOM     90  F   UNL A   1      45.647  29.644  33.820  1.00  0.00    -0.203 F 
ATOM     91  C   UNL A   1      46.302  27.724  35.016  1.00  0.00     0.198 A 
ATOM     92  C   UNL A   1      44.647  26.164  35.784  1.00  0.00     0.198 A 
ATOM     93  F   UNL A   1      42.372  26.533  35.312  1.00  0.00    -0.203 F 
ATOM     94  F   UNL A   1      47.587  28.085  34.891  1.00  0.00    -0.200 F 
ATOM     95  C   UNL A   1      45.974  26.552  35.681  1.00  0.00     0.200 A 
ATOM     96  F   UNL A   1      44.326  25.037  36.436  1.00  0.00    -0.200 F 
ATOM     97  F   UNL A   1      46.939  25.790  36.216  1.00  0.00    -0.200 F 
ENDBRANCH  64  87
ENDBRANCH  38  39
ENDBRANCH  30  33
ENDBRANCH  28  29
ENDBRANCH  27  28
ENDBRANCH   1  27
TORSDOF 16
ENDMDL
MODEL 2
REMARK VINA RESULT:     -12.7      0.183      1.140
REMARK SMILES CN(CC(N)=O)c1ccc(S(N)(=O)=O)cc1C(=O)NCCCCNC(=O)c1ccc(-c2c3nc(c(-c4c(F)c(F)c(F)c(F)c4F)c4ccc([nH]4)c(-c4c(F)c(F)c(F)c(F)c4F)c4nc(c(-c5c(F)c(F)c(F)c(F)c5F)c5ccc2[nH]5)C=C4)C=C3)cc1
REMARK SMILES IDX 21 1 20 2 19 3 17 4 18 5 16 7 7 8 8 9 9 10 15 11 10 12 2 13
REMARK SMILES IDX 1 14 3 15 4 16 5 17 6 18 11 21 13 22 14 23 12 24 22 27 23 28
REMARK SMILES IDX 24 29 25 30 26 32 27 33 28 34 89 35 29 36 88 37 30 38 31 39
REMARK SMILES IDX 32 40 82 41 33 42 87 43 81 44 83 45 34 46 86 47 80 48 79 49
REMARK SMILES IDX 35 51 67 52 47 53 66 54 48 55 51 56 65 57 84 58 49 59 50 60
REMARK SMILES IDX 64 62 85 63 52 64 36 65 37 66 45 67 38 68 39 69 43 70 46 71
REMARK SMILES IDX 40 72 41 73 44 74 42 75 68 76 69 77 77 78 70 79 71 80 75 81
REMARK SMILES IDX 78 82 72 83 73 84 76 85 74 86 53 87 54 88 62 89 55 90 56 91
REMARK SMILES IDX 60 92 63 93 57 94 58 95 61 96 59 97
REMARK H PARENT 19 6 5 19 5 20 12 25 12 26 24 31 83 50 51 61
REMARK Flexibility Score: inf
ROOT
ATOM      1  C   UNL A   1      31.422  30.507  26.325  1.00  0.00     0.023 C 
ENDROOT
BRANCH   1   2
ATOM      2  C   UNL A   1      32.789  29.838  26.334  1.00  0.00     0.116 C 
BRANCH   2   3
ATOM      3  N   UNL A   1      33.457  29.709  25.069  1.00  0.00    -0.352 N 
ATOM      4  C   UNL A   1      32.972  29.176  23.894  1.00  0.00     0.253 C 
ATOM      5  O   UNL A   1      33.701  29.269  22.903  1.00  0.00    -0.269 OA
ATOM      6  H   UNL A   1      34.381  30.045  25.036  1.00  0.00     0.163 HD
BRANCH   4   7
ATOM      7  C   UNL A   1      31.679  28.419  23.757  1.00  0.00     0.064 A 
ATOM      8  C   UNL A   1      31.414  27.078  24.145  1.00  0.00     0.050 A 
ATOM      9  C   UNL A   1      30.089  26.603  24.013  1.00  0.00     0.028 A 
ATOM     10  C   UNL A   1      29.053  27.394  23.523  1.00  0.00     0.024 A 
ATOM     11  C   UNL A   1      30.614  29.217  23.267  1.00  0.00     0.037 A 
ATOM     12  C   UNL A   1      29.319  28.705  23.155  1.00  0.00     0.083 A 
BRANCH   8  13
ATOM     13  N   UNL A   1      32.346  26.240  24.756  1.00  0.00    -0.365 N 
ATOM     14  C   UNL A   1      31.847  25.467  25.889  1.00  0.00     0.144 C 
BRANCH  13  15
ATOM     15  C   UNL A   1      33.495  25.704  23.997  1.00  0.00     0.215 C 
BRANCH  15  16
ATOM     16  C   UNL A   1      33.248  25.426  22.519  1.00  0.00     0.236 C 
ATOM     17  N   UNL A   1      32.448  24.344  22.259  1.00  0.00    -0.368 N 
ATOM     18  O   UNL A   1      33.713  26.097  21.603  1.00  0.00    -0.273 OA
ATOM     19  H   UNL A   1      32.081  23.813  23.002  1.00  0.00     0.159 HD
ATOM     20  H   UNL A   1      32.242  24.096  21.328  1.00  0.00     0.159 HD
ENDBRANCH  15  16
ENDBRANCH  13  15
ENDBRANCH   8  13
BRANCH  12  21
ATOM     21  S   UNL A   1      27.978  29.731  22.636  1.00  0.00     0.238 S 
ATOM     22  O   UNL A   1      27.828  30.810  23.590  1.00  0.00    -0.207 OA
ATOM     23  O   UNL A   1      28.046  29.947  21.217  1.00  0.00    -0.207 OA
BRANCH  21  24
ATOM     24  N   UNL A   1      26.648  28.726  22.874  1.00  0.00    -0.225 NA
ATOM     25  H   UNL A   1      26.386  28.738  23.860  1.00  0.00     0.137 HD
ATOM     26  H   UNL A   1      26.888  27.775  22.596  1.00  0.00     0.137 HD
ENDBRANCH  21  24
ENDBRANCH  12  21
ENDBRANCH   4   7
ENDBRANCH   2   3
ENDBRANCH   1   2
BRANCH   1  27
ATOM     27  C   UNL A   1      31.405  32.027  26.478  1.00  0.00     0.023 C 
BRANCH  27  28
ATOM     28  C   UNL A   1      32.566  32.666  27.236  1.00  0.00     0.116 C 
BRANCH  28  29
ATOM     29  N   UNL A   1      32.341  34.052  27.628  1.00  0.00    -0.352 N 
ATOM     30  C   UNL A   1      33.005  34.851  28.531  1.00  0.00     0.251 C 
ATOM     31  H   UNL A   1      31.589  34.491  27.168  1.00  0.00     0.163 HD
ATOM     32  O   UNL A   1      32.600  35.990  28.749  1.00  0.00    -0.269 OA
BRANCH  30  33
ATOM     33  C   UNL A   1      34.170  34.335  29.285  1.00  0.00     0.039 A 
ATOM     34  C   UNL A   1      33.944  33.596  30.452  1.00  0.00     0.014 A 
ATOM     35  C   UNL A   1      35.477  34.553  28.848  1.00  0.00     0.014 A 
ATOM     36  C   UNL A   1      35.017  32.982  31.107  1.00  0.00     0.010 A 
ATOM     37  C   UNL A   1      36.531  33.866  29.445  1.00  0.00     0.010 A 
ATOM     38  C   UNL A   1      36.313  33.062  30.574  1.00  0.00    -0.014 A 
BRANCH  38  39
ATOM     39  C   UNL A   1      37.452  32.313  31.172  1.00  0.00     0.031 A 
ATOM     40  C   UNL A   1      37.972  32.689  32.533  1.00  0.00     0.074 A 
ATOM     41  C   UNL A   1      38.071  31.348  30.461  1.00  0.00     0.049 A 
ATOM     42  N   UNL A   1      39.024  32.242  33.172  1.00  0.00    -0.248 NA
ATOM     43  C   UNL A   1      37.227  33.728  33.260  1.00  0.00     0.031 C 
ATOM     44  C   UNL A   1      37.699  30.915  29.113  1.00  0.00     0.029 A 
ATOM     45  N   UNL A   1      39.155  30.563  30.771  1.00  0.00    -0.354 N 
ATOM     46  C   UNL A   1      39.072  32.954  34.364  1.00  0.00     0.074 A 
ATOM     47  C   UNL A   1      37.981  33.904  34.334  1.00  0.00     0.031 C 
ATOM     48  C   UNL A   1      38.522  29.929  28.722  1.00  0.00     0.029 A 
ATOM     49  C   UNL A   1      39.506  29.685  29.772  1.00  0.00     0.049 A 
ATOM     50  H   UNL A   1      39.635  30.622  31.627  1.00  0.00     0.167 HD
ATOM     51  C   UNL A   1      39.928  32.810  35.403  1.00  0.00     0.037 A 
ATOM     52  C   UNL A   1      40.511  28.791  29.710  1.00  0.00     0.037 A 
ATOM     53  C   UNL A   1      40.997  31.847  35.450  1.00  0.00     0.049 A 
ATOM     54  C   UNL A   1      41.449  28.654  30.880  1.00  0.00     0.074 A 
ATOM     55  C   UNL A   1      41.908  31.615  36.466  1.00  0.00     0.029 A 
ATOM     56  N   UNL A   1      41.290  30.947  34.437  1.00  0.00    -0.354 N 
ATOM     57  N   UNL A   1      41.457  29.307  32.016  1.00  0.00    -0.248 NA
ATOM     58  C   UNL A   1      42.514  27.648  30.761  1.00  0.00     0.031 C 
ATOM     59  C   UNL A   1      42.767  30.589  36.058  1.00  0.00     0.029 A 
ATOM     60  C   UNL A   1      42.364  30.155  34.806  1.00  0.00     0.049 A 
ATOM     61  H   UNL A   1      40.806  30.881  33.583  1.00  0.00     0.167 HD
ATOM     62  C   UNL A   1      42.494  28.761  32.762  1.00  0.00     0.074 A 
ATOM     63  C   UNL A   1      43.089  27.719  31.952  1.00  0.00     0.031 C 
ATOM     64  C   UNL A   1      42.918  29.095  34.004  1.00  0.00     0.037 A 
BRANCH  51  65
ATOM     65  C   UNL A   1      39.725  33.701  36.593  1.00  0.00     0.064 A 
ATOM     66  C   UNL A   1      40.335  34.963  36.671  1.00  0.00     0.173 A 
ATOM     67  C   UNL A   1      38.886  33.313  37.648  1.00  0.00     0.173 A 
ATOM     68  F   UNL A   1      41.158  35.375  35.694  1.00  0.00    -0.203 F 
ATOM     69  C   UNL A   1      40.135  35.791  37.771  1.00  0.00     0.198 A 
ATOM     70  C   UNL A   1      38.663  34.156  38.734  1.00  0.00     0.198 A 
ATOM     71  F   UNL A   1      38.272  32.120  37.621  1.00  0.00    -0.203 F 
ATOM     72  F   UNL A   1      40.766  36.971  37.844  1.00  0.00    -0.200 F 
ATOM     73  C   UNL A   1      39.294  35.391  38.798  1.00  0.00     0.200 A 
ATOM     74  F   UNL A   1      37.840  33.774  39.720  1.00  0.00    -0.200 F 
ATOM     75  F   UNL A   1      39.094  36.192  39.853  1.00  0.00    -0.200 F 
ENDBRANCH  51  65
BRANCH  52  76
ATOM     76  C   UNL A   1      40.676  27.925  28.512  1.00  0.00     0.064 A 
ATOM     77  C   UNL A   1      41.430  28.360  27.413  1.00  0.00     0.173 A 
ATOM     78  C   UNL A   1      40.053  26.672  28.420  1.00  0.00     0.173 A 
ATOM     79  F   UNL A   1      42.027  29.561  27.445  1.00  0.00    -0.203 F 
ATOM     80  C   UNL A   1      41.526  27.592  26.254  1.00  0.00     0.198 A 
ATOM     81  C   UNL A   1      40.174  25.891  27.272  1.00  0.00     0.198 A 
ATOM     82  F   UNL A   1      39.324  26.207  29.445  1.00  0.00    -0.203 F 
ATOM     83  F   UNL A   1      42.202  28.060  25.196  1.00  0.00    -0.200 F 
ATOM     84  C   UNL A   1      40.899  26.356  26.186  1.00  0.00     0.200 A 
ATOM     85  F   UNL A   1      39.577  24.692  27.213  1.00  0.00    -0.200 F 
ATOM     86  F   UNL A   1      40.985  25.621  25.069  1.00  0.00    -0.200 F 
ENDBRANCH  52  76
BRANCH  64  87
ATOM     87  C   UNL A   1      44.031  28.282  34.595  1.00  0.00     0.064 A 
ATOM     88  C   UNL A   1      45.365  28.706  34.547  1.00  0.00     0.173 A 
ATOM     89  C   UNL A   1      43.747  27.073  35.251  1.00  0.00     0.173 A 
ATOM     90  F   UNL A   1      45.688  29.847  33.918  1.00  0.00    -0.203 F 
ATOM     91  C   UNL A   1      46.380  27.938  35.109  1.00  0.00     0.198 A 
ATOM     92  C   UNL A   1      44.762  26.321  35.836  1.00  0.00     0.198 A 
ATOM     93  F   UNL A   1      42.484  26.626  35.329  1.00  0.00    -0.203 F 
ATOM     94  F   UNL A   1      47.656  28.339  35.009  1.00  0.00    -0.200 F 
ATOM     95  C   UNL A   1      46.077  26.750  35.758  1.00  0.00     0.200 A 
ATOM     96  F   UNL A   1      44.465  25.180  36.474  1.00  0.00    -0.200 F 
ATOM     97  F   UNL A   1      47.056  26.014  36.304  1.00  0.00    -0.200 F 
ENDBRANCH  64  87
ENDBRANCH  38  39
ENDBRANCH  30  33
ENDBRANCH  28  29
ENDBRANCH  27  28
ENDBRANCH   1  27
TORSDOF 16
ENDMDL
MODEL 3
REMARK VINA RESULT:     -12.6      0.582      7.327
REMARK SMILES CN(CC(N)=O)c1ccc(S(N)(=O)=O)cc1C(=O)NCCCCNC(=O)c1ccc(-c2c3nc(c(-c4c(F)c(F)c(F)c(F)c4F)c4ccc([nH]4)c(-c4c(F)c(F)c(F)c(F)c4F)c4nc(c(-c5c(F)c(F)c(F)c(F)c5F)c5ccc2[nH]5)C=C4)C=C3)cc1
REMARK SMILES IDX 21 1 20 2 19 3 17 4 18 5 16 7 7 8 8 9 9 10 15 11 10 12 2 13
REMARK SMILES IDX 1 14 3 15 4 16 5 17 6 18 11 21 13 22 14 23 12 24 22 27 23 28
REMARK SMILES IDX 24 29 25 30 26 32 27 33 28 34 89 35 29 36 88 37 30 38 31 39
REMARK SMILES IDX 32 40 82 41 33 42 87 43 81 44 83 45 34 46 86 47 80 48 79 49
REMARK SMILES IDX 35 51 67 52 47 53 66 54 48 55 51 56 65 57 84 58 49 59 50 60
REMARK SMILES IDX 64 62 85 63 52 64 36 65 37 66 45 67 38 68 39 69 43 70 46 71
REMARK SMILES IDX 40 72 41 73 44 74 42 75 68 76 69 77 77 78 70 79 71 80 75 81
REMARK SMILES IDX 78 82 72 83 73 84 76 85 74 86 53 87 54 88 62 89 55 90 56 91
REMARK SMILES IDX 60 92 63 93 57 94 58 95 61 96 59 97
REMARK H PARENT 19 6 5 19 5 20 12 25 12 26 24 31 83 50 51 61
REMARK Flexibility Score: inf
ROOT
ATOM      1  C   UNL A   1      31.678  30.106  26.593  1.00  0.00     0.023 C 
ENDROOT
BRANCH   1   2
ATOM      2  C   UNL A   1      32.997  29.375  26.391  1.00  0.00     0.116 C 
BRANCH   2   3
ATOM      3  N   UNL A   1      33.573  29.426  25.076  1.00  0.00    -0.352 N 
ATOM      4  C   UNL A   1      33.003  29.059  23.875  1.00  0.00     0.253 C 
ATOM      5  O   UNL A   1      33.661  29.293  22.858  1.00  0.00    -0.269 OA
ATOM      6  H   UNL A   1      34.494  29.769  25.024  1.00  0.00     0.163 HD
BRANCH   4   7
ATOM      7  C   UNL A   1      31.700  28.321  23.727  1.00  0.00     0.064 A 
ATOM      8  C   UNL A   1      31.421  26.975  24.085  1.00  0.00     0.050 A 
ATOM      9  C   UNL A   1      30.089  26.519  23.947  1.00  0.00     0.028 A 
ATOM     10  C   UNL A   1      29.060  27.335  23.482  1.00  0.00     0.024 A 
ATOM     11  C   UNL A   1      30.643  29.145  23.262  1.00  0.00     0.037 A 
ATOM     12  C   UNL A   1      29.341  28.651  23.144  1.00  0.00     0.083 A 
BRANCH   8  13
ATOM     13  N   UNL A   1      32.345  26.112  24.671  1.00  0.00    -0.365 N 
ATOM     14  C   UNL A   1      32.186  25.902  26.106  1.00  0.00     0.144 C 
BRANCH  13  15
ATOM     15  C   UNL A   1      32.996  25.048  23.879  1.00  0.00     0.215 C 
BRANCH  15  16
ATOM     16  C   UNL A   1      33.118  25.309  22.382  1.00  0.00     0.236 C 
ATOM     17  N   UNL A   1      32.255  24.590  21.596  1.00  0.00    -0.368 N 
ATOM     18  O   UNL A   1      33.917  26.093  21.882  1.00  0.00    -0.273 OA
ATOM     19  H   UNL A   1      31.619  23.963  22.009  1.00  0.00     0.159 HD
ATOM     20  H   UNL A   1      32.273  24.701  20.618  1.00  0.00     0.159 HD
ENDBRANCH  15  16
ENDBRANCH  13  15
ENDBRANCH   8  13
BRANCH  12  21
ATOM     21  S   UNL A   1      28.010  29.706  22.656  1.00  0.00     0.238 S 
ATOM     22  O   UNL A   1      27.898  30.780  23.621  1.00  0.00    -0.207 OA
ATOM     23  O   UNL A   1      28.057  29.931  21.238  1.00  0.00    -0.207 OA
BRANCH  21  24
ATOM     24  N   UNL A   1      26.667  28.724  22.910  1.00  0.00    -0.225 NA
ATOM     25  H   UNL A   1      26.830  27.810  22.488  1.00  0.00     0.137 HD
ATOM     26  H   UNL A   1      25.847  29.154  22.483  1.00  0.00     0.137 HD
ENDBRANCH  21  24
ENDBRANCH  12  21
ENDBRANCH   4   7
ENDBRANCH   2   3
ENDBRANCH   1   2
BRANCH   1  27
ATOM     27  C   UNL A   1      31.714  31.628  26.460  1.00  0.00     0.023 C 
BRANCH  27  28
ATOM     28  C   UNL A   1      32.774  32.375  27.266  1.00  0.00     0.116 C 
BRANCH  28  29
ATOM     29  N   UNL A   1      32.427  33.754  27.588  1.00  0.00    -0.352 N 
ATOM     30  C   UNL A   1      33.007  34.647  28.460  1.00  0.00     0.251 C 
ATOM     31  H   UNL A   1      31.648  34.105  27.099  1.00  0.00     0.163 HD
ATOM     32  O   UNL A   1      32.505  35.757  28.618  1.00  0.00    -0.269 OA
BRANCH  30  33
ATOM     33  C   UNL A   1      34.200  34.268  29.251  1.00  0.00     0.039 A 
ATOM     34  C   UNL A   1      34.017  33.658  30.496  1.00  0.00     0.014 A 
ATOM     35  C   UNL A   1      35.492  34.487  28.773  1.00  0.00     0.014 A 
ATOM     36  C   UNL A   1      35.120  33.167  31.202  1.00  0.00     0.010 A 
ATOM     37  C   UNL A   1      36.580  33.917  29.429  1.00  0.00     0.010 A 
ATOM     38  C   UNL A   1      36.407  33.238  30.645  1.00  0.00    -0.014 A 
BRANCH  38  39
ATOM     39  C   UNL A   1      37.582  32.609  31.307  1.00  0.00     0.031 A 
ATOM     40  C   UNL A   1      38.320  31.487  30.628  1.00  0.00     0.074 A 
ATOM     41  C   UNL A   1      37.940  32.991  32.550  1.00  0.00     0.049 A 
ATOM     42  N   UNL A   1      39.288  30.733  31.086  1.00  0.00    -0.248 NA
ATOM     43  C   UNL A   1      37.893  31.148  29.262  1.00  0.00     0.031 C 
ATOM     44  C   UNL A   1      37.283  34.034  33.340  1.00  0.00     0.029 A 
ATOM     45  N   UNL A   1      38.940  32.535  33.374  1.00  0.00    -0.354 N 
ATOM     46  C   UNL A   1      39.571  29.825  30.073  1.00  0.00     0.074 A 
ATOM     47  C   UNL A   1      38.635  30.083  29.001  1.00  0.00     0.031 C 
ATOM     48  C   UNL A   1      37.911  34.155  34.521  1.00  0.00     0.029 A 
ATOM     49  C   UNL A   1      38.989  33.173  34.591  1.00  0.00     0.049 A 
ATOM     50  H   UNL A   1      39.565  31.819  33.117  1.00  0.00     0.167 HD
ATOM     51  C   UNL A   1      40.542  28.883  30.027  1.00  0.00     0.037 A 
ATOM     52  C   UNL A   1      39.805  32.982  35.645  1.00  0.00     0.037 A 
ATOM     53  C   UNL A   1      41.494  28.642  31.080  1.00  0.00     0.049 A 
ATOM     54  C   UNL A   1      40.875  31.925  35.565  1.00  0.00     0.074 A 
ATOM     55  C   UNL A   1      42.525  27.719  31.119  1.00  0.00     0.029 A 
ATOM     56  N   UNL A   1      41.536  29.341  32.276  1.00  0.00    -0.354 N 
ATOM     57  N   UNL A   1      41.156  31.103  34.585  1.00  0.00    -0.248 NA
ATOM     58  C   UNL A   1      41.748  31.777  36.740  1.00  0.00     0.031 C 
ATOM     59  C   UNL A   1      43.178  27.845  32.350  1.00  0.00     0.029 A 
ATOM     60  C   UNL A   1      42.578  28.873  33.059  1.00  0.00     0.049 A 
ATOM     61  H   UNL A   1      40.917  30.062  32.532  1.00  0.00     0.167 HD
ATOM     62  C   UNL A   1      42.261  30.374  35.004  1.00  0.00     0.074 A 
ATOM     63  C   UNL A   1      42.604  30.855  36.326  1.00  0.00     0.031 C 
ATOM     64  C   UNL A   1      42.931  29.391  34.355  1.00  0.00     0.037 A 
BRANCH  51  65
ATOM     65  C   UNL A   1      40.642  28.056  28.779  1.00  0.00     0.064 A 
ATOM     66  C   UNL A   1      39.935  26.851  28.645  1.00  0.00     0.173 A 
ATOM     67  C   UNL A   1      41.418  28.484  27.692  1.00  0.00     0.173 A 
ATOM     68  F   UNL A   1      39.188  26.391  29.662  1.00  0.00    -0.203 F 
ATOM     69  C   UNL A   1      40.021  26.093  27.482  1.00  0.00     0.198 A 
ATOM     70  C   UNL A   1      41.480  27.738  26.517  1.00  0.00     0.198 A 
ATOM     71  F   UNL A   1      42.109  29.632  27.764  1.00  0.00    -0.203 F 
ATOM     72  F   UNL A   1      39.373  24.923  27.396  1.00  0.00    -0.200 F 
ATOM     73  C   UNL A   1      40.787  26.540  26.416  1.00  0.00     0.200 A 
ATOM     74  F   UNL A   1      42.210  28.178  25.483  1.00  0.00    -0.200 F 
ATOM     75  F   UNL A   1      40.863  25.814  25.292  1.00  0.00    -0.200 F 
ENDBRANCH  51  65
BRANCH  52  76
ATOM     76  C   UNL A   1      39.674  33.825  36.863  1.00  0.00     0.064 A 
ATOM     77  C   UNL A   1      38.884  33.405  37.943  1.00  0.00     0.173 A 
ATOM     78  C   UNL A   1      40.292  35.080  36.957  1.00  0.00     0.173 A 
ATOM     79  F   UNL A   1      38.255  32.222  37.890  1.00  0.00    -0.203 F 
ATOM     80  C   UNL A   1      38.690  34.222  39.055  1.00  0.00     0.198 A 
ATOM     81  C   UNL A   1      40.121  35.884  38.083  1.00  0.00     0.198 A 
ATOM     82  F   UNL A   1      41.062  35.528  35.955  1.00  0.00    -0.203 F 
ATOM     83  F   UNL A   1      37.880  33.820  40.044  1.00  0.00    -0.200 F 
ATOM     84  C   UNL A   1      39.310  35.460  39.125  1.00  0.00     0.200 A 
ATOM     85  F   UNL A   1      40.732  37.075  38.153  1.00  0.00    -0.200 F 
ATOM     86  F   UNL A   1      39.117  36.248  40.192  1.00  0.00    -0.200 F 
ENDBRANCH  52  76
BRANCH  64  87
ATOM     87  C   UNL A   1      44.143  28.821  35.029  1.00  0.00     0.064 A 
ATOM     88  C   UNL A   1      45.421  29.364  34.840  1.00  0.00     0.173 A 
ATOM     89  C   UNL A   1      44.013  27.732  35.905  1.00  0.00     0.173 A 
ATOM     90  F   UNL A   1      45.597  30.396  33.999  1.00  0.00    -0.203 F 
ATOM     91  C   UNL A   1      46.530  28.823  35.482  1.00  0.00     0.198 A 
ATOM     92  C   UNL A   1      45.121  27.211  36.568  1.00  0.00     0.198 A 
ATOM     93  F   UNL A   1      42.811  27.179  36.125  1.00  0.00    -0.203 F 
ATOM     94  F   UNL A   1      47.750  29.328  35.249  1.00  0.00    -0.200 F 
ATOM     95  C   UNL A   1      46.379  27.752  36.350  1.00  0.00     0.200 A 
ATOM     96  F   UNL A   1      44.971  26.183  37.415  1.00  0.00    -0.200 F 
ATOM     97  F   UNL A   1      47.448  27.234  36.971  1.00  0.00    -0.200 F 
ENDBRANCH  64  87
ENDBRANCH  38  39
ENDBRANCH  30  33
ENDBRANCH  28  29
ENDBRANCH  27  28
ENDBRANCH   1  27
TORSDOF 16
ENDMDL
