MODEL 1
REMARK VINA RESULT:     -13.9      0.000      0.000
REMARK SMILES CC1=CC[C@@H]2C(=O)N(c3ccc(Cl)c(C(=O)NCCCCNC(=O)c4ccc(-c5c6nc(c(-c7c(F)c(F)c(F)c(F)c7F)c7ccc([nH]7)c(-c7c(F)c(F)c(F)c(F)c7F)c7nc(c(-c8c(F)c(F)c(F)c(F)c8F)c8ccc5[nH]8)C=C7)C=C6)cc4)c3)C(=O)[C@H]2C1
REMARK SMILES IDX 20 1 19 2 18 3 17 4 15 5 16 6 14 8 9 9 10 10 88 11 11 12
REMARK SMILES IDX 12 13 13 14 8 15 1 16 2 17 3 18 92 19 4 20 91 21 5 22 89 23
REMARK SMILES IDX 6 24 90 25 7 26 21 27 22 28 23 29 24 31 25 32 26 33 87 34
REMARK SMILES IDX 27 35 86 36 28 37 29 38 30 39 80 40 31 41 85 42 79 43 81 44
REMARK SMILES IDX 32 45 84 46 78 47 77 48 33 50 65 51 45 52 64 53 46 54 49 55
REMARK SMILES IDX 63 56 82 57 47 58 48 59 62 61 83 62 50 63 34 64 35 65 43 66
REMARK SMILES IDX 36 67 37 68 41 69 44 70 38 71 39 72 42 73 40 74 66 75 67 76
REMARK SMILES IDX 75 77 68 78 69 79 73 80 76 81 70 82 71 83 74 84 72 85 51 86
REMARK SMILES IDX 52 87 60 88 53 89 54 90 58 91 61 92 55 93 56 94 59 95 57 96
REMARK H PARENT 17 7 22 30 81 49 49 60
REMARK Flexibility Score: inf
ROOT
ATOM      1  C   UNL A   1      36.306  20.750  25.000  1.00  0.00     0.023 C 
ENDROOT
BRANCH   1   2
ATOM      2  C   UNL A   1      35.139  21.208  25.874  1.00  0.00     0.023 C 
BRANCH   2   3
ATOM      3  C   UNL A   1      33.826  21.493  25.156  1.00  0.00     0.116 C 
BRANCH   3   4
ATOM      4  N   UNL A   1      33.971  21.961  23.790  1.00  0.00    -0.352 N 
ATOM      5  C   UNL A   1      33.917  23.237  23.278  1.00  0.00     0.252 C 
ATOM      6  O   UNL A   1      34.112  23.396  22.074  1.00  0.00    -0.269 OA
ATOM      7  H   UNL A   1      34.134  21.254  23.125  1.00  0.00     0.163 HD
BRANCH   5   8
ATOM      8  C   UNL A   1      33.566  24.425  24.101  1.00  0.00     0.060 A 
ATOM      9  C   UNL A   1      32.084  26.355  24.329  1.00  0.00     0.053 A 
ATOM     10  C   UNL A   1      32.815  26.753  25.453  1.00  0.00     0.028 A 
ATOM     11  C   UNL A   1      32.404  25.138  23.712  1.00  0.00     0.042 A 
ATOM     12  C   UNL A   1      33.951  26.057  25.848  1.00  0.00     0.023 A 
ATOM     13  C   UNL A   1      34.384  24.956  25.108  1.00  0.00     0.053 A 
ATOM     14  Cl  UNL A   1      36.018  24.473  25.396  1.00  0.00    -0.083 Cl
BRANCH   9  15
ATOM     15  N   UNL A   1      31.166  27.272  23.766  1.00  0.00    -0.250 N 
ATOM     16  C   UNL A   1      28.000  31.441  20.667  1.00  0.00     0.039 C 
ATOM     17  C   UNL A   1      28.391  30.387  21.663  1.00  0.00    -0.076 C 
ATOM     18  C   UNL A   1      27.462  29.743  22.405  1.00  0.00    -0.027 C 
ATOM     19  C   UNL A   1      29.889  30.079  21.769  1.00  0.00     0.044 C 
ATOM     20  C   UNL A   1      27.782  28.590  23.329  1.00  0.00     0.041 C 
ATOM     21  C   UNL A   1      30.154  29.212  22.991  1.00  0.00     0.096 C 
ATOM     22  C   UNL A   1      29.156  28.068  22.969  1.00  0.00     0.096 C 
ATOM     23  C   UNL A   1      31.465  28.481  23.161  1.00  0.00     0.238 C 
ATOM     24  C   UNL A   1      29.794  27.068  23.869  1.00  0.00     0.238 C 
ATOM     25  O   UNL A   1      32.560  28.928  22.856  1.00  0.00    -0.274 OA
ATOM     26  O   UNL A   1      29.186  26.234  24.509  1.00  0.00    -0.274 OA
ENDBRANCH   9  15
ENDBRANCH   5   8
ENDBRANCH   3   4
ENDBRANCH   2   3
ENDBRANCH   1   2
BRANCH   1  27
ATOM     27  C   UNL A   1      37.661  21.408  25.255  1.00  0.00     0.116 C 
BRANCH  27  28
ATOM     28  N   UNL A   1      38.685  20.497  25.746  1.00  0.00    -0.352 N 
ATOM     29  C   UNL A   1      39.837  20.748  26.455  1.00  0.00     0.251 C 
ATOM     30  H   UNL A   1      38.528  19.547  25.537  1.00  0.00     0.163 HD
ATOM     31  O   UNL A   1      40.608  19.830  26.719  1.00  0.00    -0.269 OA
BRANCH  29  32
ATOM     32  C   UNL A   1      40.182  22.129  26.861  1.00  0.00     0.039 A 
ATOM     33  C   UNL A   1      41.164  22.314  27.840  1.00  0.00     0.014 A 
ATOM     34  C   UNL A   1      39.566  23.234  26.274  1.00  0.00     0.014 A 
ATOM     35  C   UNL A   1      41.598  23.605  28.153  1.00  0.00     0.010 A 
ATOM     36  C   UNL A   1      40.058  24.514  26.523  1.00  0.00     0.010 A 
ATOM     37  C   UNL A   1      41.087  24.712  27.457  1.00  0.00    -0.014 A 
BRANCH  37  38
ATOM     38  C   UNL A   1      41.631  26.080  27.671  1.00  0.00     0.031 A 
ATOM     39  C   UNL A   1      43.005  26.437  27.177  1.00  0.00     0.074 A 
ATOM     40  C   UNL A   1      40.924  26.973  28.392  1.00  0.00     0.049 A 
ATOM     41  N   UNL A   1      43.687  27.542  27.347  1.00  0.00    -0.248 NA
ATOM     42  C   UNL A   1      43.723  25.400  26.419  1.00  0.00     0.031 C 
ATOM     43  C   UNL A   1      39.608  26.729  28.986  1.00  0.00     0.029 A 
ATOM     44  N   UNL A   1      41.222  28.261  28.765  1.00  0.00    -0.354 N 
ATOM     45  C   UNL A   1      44.917  27.324  26.742  1.00  0.00     0.074 A 
ATOM     46  C   UNL A   1      44.908  25.965  26.245  1.00  0.00     0.031 C 
ATOM     47  C   UNL A   1      39.206  27.835  29.634  1.00  0.00     0.029 A 
ATOM     48  C   UNL A   1      40.247  28.851  29.533  1.00  0.00     0.049 A 
ATOM     49  H   UNL A   1      42.055  28.718  28.507  1.00  0.00     0.167 HD
ATOM     50  C   UNL A   1      45.953  28.185  26.596  1.00  0.00     0.037 A 
ATOM     51  C   UNL A   1      40.202  30.072  30.100  1.00  0.00     0.037 A 
ATOM     52  C   UNL A   1      45.944  29.547  27.058  1.00  0.00     0.049 A 
ATOM     53  C   UNL A   1      41.352  31.021  29.899  1.00  0.00     0.074 A 
ATOM     54  C   UNL A   1      46.907  30.526  26.880  1.00  0.00     0.029 A 
ATOM     55  N   UNL A   1      44.919  30.125  27.795  1.00  0.00    -0.354 N 
ATOM     56  N   UNL A   1      42.475  30.832  29.250  1.00  0.00    -0.248 NA
ATOM     57  C   UNL A   1      41.224  32.356  30.501  1.00  0.00     0.031 C 
ATOM     58  C   UNL A   1      46.487  31.680  27.548  1.00  0.00     0.029 A 
ATOM     59  C   UNL A   1      45.239  31.439  28.100  1.00  0.00     0.049 A 
ATOM     60  H   UNL A   1      44.089  29.669  28.061  1.00  0.00     0.167 HD
ATOM     61  C   UNL A   1      43.176  32.028  29.345  1.00  0.00     0.074 A 
ATOM     62  C   UNL A   1      42.344  32.940  30.099  1.00  0.00     0.031 C 
ATOM     63  C   UNL A   1      44.399  32.338  28.850  1.00  0.00     0.037 A 
BRANCH  50  64
ATOM     64  C   UNL A   1      47.184  27.677  25.903  1.00  0.00     0.064 A 
ATOM     65  C   UNL A   1      47.311  27.713  24.505  1.00  0.00     0.173 A 
ATOM     66  C   UNL A   1      48.262  27.174  26.646  1.00  0.00     0.173 A 
ATOM     67  F   UNL A   1      46.306  28.175  23.746  1.00  0.00    -0.203 F 
ATOM     68  C   UNL A   1      48.458  27.232  23.878  1.00  0.00     0.198 A 
ATOM     69  C   UNL A   1      49.420  26.723  26.017  1.00  0.00     0.198 A 
ATOM     70  F   UNL A   1      48.196  27.125  27.985  1.00  0.00    -0.203 F 
ATOM     71  F   UNL A   1      48.533  27.225  22.540  1.00  0.00    -0.200 F 
ATOM     72  C   UNL A   1      49.513  26.744  24.633  1.00  0.00     0.200 A 
ATOM     73  F   UNL A   1      50.444  26.265  26.749  1.00  0.00    -0.200 F 
ATOM     74  F   UNL A   1      50.617  26.285  24.027  1.00  0.00    -0.200 F 
ENDBRANCH  50  64
BRANCH  51  75
ATOM     75  C   UNL A   1      39.011  30.475  30.894  1.00  0.00     0.064 A 
ATOM     76  C   UNL A   1      38.987  30.310  32.286  1.00  0.00     0.173 A 
ATOM     77  C   UNL A   1      37.881  31.037  30.283  1.00  0.00     0.173 A 
ATOM     78  F   UNL A   1      40.036  29.758  32.914  1.00  0.00    -0.203 F 
ATOM     79  C   UNL A   1      37.869  30.676  33.034  1.00  0.00     0.198 A 
ATOM     80  C   UNL A   1      36.776  31.428  31.035  1.00  0.00     0.198 A 
ATOM     81  F   UNL A   1      37.858  31.220  28.954  1.00  0.00    -0.203 F 
ATOM     82  F   UNL A   1      37.856  30.471  34.358  1.00  0.00    -0.200 F 
ATOM     83  C   UNL A   1      36.768  31.241  32.409  1.00  0.00     0.200 A 
ATOM     84  F   UNL A   1      35.719  31.986  30.429  1.00  0.00    -0.200 F 
ATOM     85  F   UNL A   1      35.697  31.599  33.130  1.00  0.00    -0.200 F 
ENDBRANCH  51  75
BRANCH  63  86
ATOM     86  C   UNL A   1      44.902  33.733  29.083  1.00  0.00     0.064 A 
ATOM     87  C   UNL A   1      45.702  34.050  30.190  1.00  0.00     0.173 A 
ATOM     88  C   UNL A   1      44.614  34.754  28.164  1.00  0.00     0.173 A 
ATOM     89  F   UNL A   1      45.993  33.113  31.104  1.00  0.00    -0.203 F 
ATOM     90  C   UNL A   1      46.177  35.346  30.381  1.00  0.00     0.198 A 
ATOM     91  C   UNL A   1      45.115  36.041  28.343  1.00  0.00     0.198 A 
ATOM     92  F   UNL A   1      43.858  34.500  27.086  1.00  0.00    -0.203 F 
ATOM     93  F   UNL A   1      46.904  35.637  31.468  1.00  0.00    -0.200 F 
ATOM     94  C   UNL A   1      45.891  36.337  29.454  1.00  0.00     0.200 A 
ATOM     95  F   UNL A   1      44.848  36.993  27.439  1.00  0.00    -0.200 F 
ATOM     96  F   UNL A   1      46.356  37.580  29.635  1.00  0.00    -0.200 F 
ENDBRANCH  63  86
ENDBRANCH  37  38
ENDBRANCH  29  32
ENDBRANCH  27  28
ENDBRANCH   1  27
TORSDOF 12
ENDMDL
MODEL 2
REMARK VINA RESULT:     -13.9      4.273     10.229
REMARK SMILES CC1=CC[C@@H]2C(=O)N(c3ccc(Cl)c(C(=O)NCCCCNC(=O)c4ccc(-c5c6nc(c(-c7c(F)c(F)c(F)c(F)c7F)c7ccc([nH]7)c(-c7c(F)c(F)c(F)c(F)c7F)c7nc(c(-c8c(F)c(F)c(F)c(F)c8F)c8ccc5[nH]8)C=C7)C=C6)cc4)c3)C(=O)[C@H]2C1
REMARK SMILES IDX 20 1 19 2 18 3 17 4 15 5 16 6 14 8 9 9 10 10 88 11 11 12
REMARK SMILES IDX 12 13 13 14 8 15 1 16 2 17 3 18 92 19 4 20 91 21 5 22 89 23
REMARK SMILES IDX 6 24 90 25 7 26 21 27 22 28 23 29 24 31 25 32 26 33 87 34
REMARK SMILES IDX 27 35 86 36 28 37 29 38 30 39 80 40 31 41 85 42 79 43 81 44
REMARK SMILES IDX 32 45 84 46 78 47 77 48 33 50 65 51 45 52 64 53 46 54 49 55
REMARK SMILES IDX 63 56 82 57 47 58 48 59 62 61 83 62 50 63 34 64 35 65 43 66
REMARK SMILES IDX 36 67 37 68 41 69 44 70 38 71 39 72 42 73 40 74 66 75 67 76
REMARK SMILES IDX 75 77 68 78 69 79 73 80 76 81 70 82 71 83 74 84 72 85 51 86
REMARK SMILES IDX 52 87 60 88 53 89 54 90 58 91 61 92 55 93 56 94 59 95 57 96
REMARK H PARENT 17 7 22 30 81 49 49 60
REMARK Flexibility Score: inf
ROOT
ATOM      1  C   UNL A   1      31.418  30.033  25.417  1.00  0.00     0.023 C 
ENDROOT
BRANCH   1   2
ATOM      2  C   UNL A   1      31.958  29.206  24.250  1.00  0.00     0.023 C 
BRANCH   2   3
ATOM      3  C   UNL A   1      31.177  27.948  23.894  1.00  0.00     0.116 C 
BRANCH   3   4
ATOM      4  N   UNL A   1      30.580  27.263  25.025  1.00  0.00    -0.352 N 
ATOM      5  C   UNL A   1      31.033  26.184  25.749  1.00  0.00     0.252 C 
ATOM      6  O   UNL A   1      30.365  25.797  26.707  1.00  0.00    -0.269 OA
ATOM      7  H   UNL A   1      29.715  27.628  25.321  1.00  0.00     0.163 HD
BRANCH   5   8
ATOM      8  C   UNL A   1      32.256  25.422  25.386  1.00  0.00     0.060 A 
ATOM      9  C   UNL A   1      33.167  23.234  24.784  1.00  0.00     0.053 A 
ATOM     10  C   UNL A   1      34.449  23.796  24.781  1.00  0.00     0.028 A 
ATOM     11  C   UNL A   1      32.064  24.073  24.993  1.00  0.00     0.042 A 
ATOM     12  C   UNL A   1      34.648  25.118  25.157  1.00  0.00     0.023 A 
ATOM     13  C   UNL A   1      33.564  25.898  25.560  1.00  0.00     0.053 A 
ATOM     14  Cl  UNL A   1      33.972  27.331  26.434  1.00  0.00    -0.083 Cl
BRANCH   9  15
ATOM     15  N   UNL A   1      33.052  21.825  24.740  1.00  0.00    -0.250 N 
ATOM     16  C   UNL A   1      32.425  15.836  25.602  1.00  0.00     0.039 C 
ATOM     17  C   UNL A   1      32.619  17.179  24.958  1.00  0.00    -0.076 C 
ATOM     18  C   UNL A   1      32.493  17.341  23.621  1.00  0.00    -0.027 C 
ATOM     19  C   UNL A   1      32.946  18.341  25.902  1.00  0.00     0.044 C 
ATOM     20  C   UNL A   1      32.552  18.685  22.933  1.00  0.00     0.041 C 
ATOM     21  C   UNL A   1      33.383  19.556  25.095  1.00  0.00     0.096 C 
ATOM     22  C   UNL A   1      32.370  19.759  23.983  1.00  0.00     0.096 C 
ATOM     23  C   UNL A   1      33.441  20.930  25.721  1.00  0.00     0.238 C 
ATOM     24  C   UNL A   1      32.599  21.178  23.596  1.00  0.00     0.238 C 
ATOM     25  O   UNL A   1      33.814  21.164  26.860  1.00  0.00    -0.274 OA
ATOM     26  O   UNL A   1      32.376  21.633  22.492  1.00  0.00    -0.274 OA
ENDBRANCH   9  15
ENDBRANCH   5   8
ENDBRANCH   3   4
ENDBRANCH   2   3
ENDBRANCH   1   2
BRANCH   1  27
ATOM     27  C   UNL A   1      32.408  30.398  26.521  1.00  0.00     0.116 C 
BRANCH  27  28
ATOM     28  N   UNL A   1      32.446  31.816  26.845  1.00  0.00    -0.352 N 
ATOM     29  C   UNL A   1      33.393  32.553  27.519  1.00  0.00     0.251 C 
ATOM     30  H   UNL A   1      31.668  32.333  26.531  1.00  0.00     0.163 HD
ATOM     31  O   UNL A   1      33.198  33.744  27.744  1.00  0.00    -0.269 OA
BRANCH  29  32
ATOM     32  C   UNL A   1      34.627  31.908  28.022  1.00  0.00     0.039 A 
ATOM     33  C   UNL A   1      35.781  32.687  28.162  1.00  0.00     0.014 A 
ATOM     34  C   UNL A   1      34.649  30.559  28.374  1.00  0.00     0.014 A 
ATOM     35  C   UNL A   1      36.922  32.136  28.751  1.00  0.00     0.010 A 
ATOM     36  C   UNL A   1      35.757  30.035  29.037  1.00  0.00     0.010 A 
ATOM     37  C   UNL A   1      36.902  30.822  29.243  1.00  0.00    -0.014 A 
BRANCH  37  38
ATOM     38  C   UNL A   1      38.054  30.259  29.997  1.00  0.00     0.031 A 
ATOM     39  C   UNL A   1      38.315  30.686  31.414  1.00  0.00     0.074 A 
ATOM     40  C   UNL A   1      38.918  29.434  29.374  1.00  0.00     0.049 A 
ATOM     41  N   UNL A   1      39.315  30.379  32.202  1.00  0.00    -0.248 NA
ATOM     42  C   UNL A   1      37.338  31.607  32.016  1.00  0.00     0.031 C 
ATOM     43  C   UNL A   1      38.817  28.997  27.981  1.00  0.00     0.029 A 
ATOM     44  N   UNL A   1      40.066  28.830  29.827  1.00  0.00    -0.354 N 
ATOM     45  C   UNL A   1      39.102  31.088  33.376  1.00  0.00     0.074 A 
ATOM     46  C   UNL A   1      37.906  31.878  33.182  1.00  0.00     0.031 C 
ATOM     47  C   UNL A   1      39.848  28.184  27.698  1.00  0.00     0.029 A 
ATOM     48  C   UNL A   1      40.702  28.071  28.875  1.00  0.00     0.049 A 
ATOM     49  H   UNL A   1      40.401  28.932  30.748  1.00  0.00     0.167 HD
ATOM     50  C   UNL A   1      39.826  31.066  34.522  1.00  0.00     0.037 A 
ATOM     51  C   UNL A   1      41.849  27.368  28.940  1.00  0.00     0.037 A 
ATOM     52  C   UNL A   1      40.994  30.250  34.725  1.00  0.00     0.049 A 
ATOM     53  C   UNL A   1      42.621  27.336  30.231  1.00  0.00     0.074 A 
ATOM     54  C   UNL A   1      41.745  30.090  35.877  1.00  0.00     0.029 A 
ATOM     55  N   UNL A   1      41.584  29.458  33.750  1.00  0.00    -0.354 N 
ATOM     56  N   UNL A   1      42.361  27.943  31.364  1.00  0.00    -0.248 NA
ATOM     57  C   UNL A   1      43.839  26.514  30.257  1.00  0.00     0.031 C 
ATOM     58  C   UNL A   1      42.815  29.237  35.586  1.00  0.00     0.029 A 
ATOM     59  C   UNL A   1      42.704  28.826  34.268  1.00  0.00     0.049 A 
ATOM     60  H   UNL A   1      41.256  29.360  32.827  1.00  0.00     0.167 HD
ATOM     61  C   UNL A   1      43.367  27.559  32.242  1.00  0.00     0.074 A 
ATOM     62  C   UNL A   1      44.232  26.654  31.515  1.00  0.00     0.031 C 
ATOM     63  C   UNL A   1      43.555  27.924  33.533  1.00  0.00     0.037 A 
BRANCH  50  64
ATOM     64  C   UNL A   1      39.372  31.951  35.646  1.00  0.00     0.064 A 
ATOM     65  C   UNL A   1      38.439  31.511  36.599  1.00  0.00     0.173 A 
ATOM     66  C   UNL A   1      39.896  33.244  35.789  1.00  0.00     0.173 A 
ATOM     67  F   UNL A   1      37.899  30.287  36.502  1.00  0.00    -0.203 F 
ATOM     68  C   UNL A   1      38.024  32.347  37.633  1.00  0.00     0.198 A 
ATOM     69  C   UNL A   1      39.502  34.065  36.843  1.00  0.00     0.198 A 
ATOM     70  F   UNL A   1      40.797  33.711  34.912  1.00  0.00    -0.203 F 
ATOM     71  F   UNL A   1      37.091  31.926  38.498  1.00  0.00    -0.200 F 
ATOM     72  C   UNL A   1      38.560  33.620  37.758  1.00  0.00     0.200 A 
ATOM     73  F   UNL A   1      40.032  35.290  36.971  1.00  0.00    -0.200 F 
ATOM     74  F   UNL A   1      38.161  34.421  38.756  1.00  0.00    -0.200 F 
ENDBRANCH  50  64
BRANCH  51  75
ATOM     75  C   UNL A   1      42.326  26.618  27.749  1.00  0.00     0.064 A 
ATOM     76  C   UNL A   1      41.848  25.329  27.472  1.00  0.00     0.173 A 
ATOM     77  C   UNL A   1      43.259  27.172  26.861  1.00  0.00     0.173 A 
ATOM     78  F   UNL A   1      40.970  24.748  28.303  1.00  0.00    -0.203 F 
ATOM     79  C   UNL A   1      42.299  24.617  26.363  1.00  0.00     0.198 A 
ATOM     80  C   UNL A   1      43.689  26.470  25.737  1.00  0.00     0.198 A 
ATOM     81  F   UNL A   1      43.743  28.404  27.079  1.00  0.00    -0.203 F 
ATOM     82  F   UNL A   1      41.857  23.371  26.144  1.00  0.00    -0.200 F 
ATOM     83  C   UNL A   1      43.214  25.191  25.492  1.00  0.00     0.200 A 
ATOM     84  F   UNL A   1      44.562  27.033  24.891  1.00  0.00    -0.200 F 
ATOM     85  F   UNL A   1      43.643  24.508  24.423  1.00  0.00    -0.200 F 
ENDBRANCH  51  75
BRANCH  63  86
ATOM     86  C   UNL A   1      44.725  27.324  34.255  1.00  0.00     0.064 A 
ATOM     87  C   UNL A   1      45.968  27.972  34.308  1.00  0.00     0.173 A 
ATOM     88  C   UNL A   1      44.588  26.106  34.939  1.00  0.00     0.173 A 
ATOM     89  F   UNL A   1      46.154  29.130  33.658  1.00  0.00    -0.203 F 
ATOM     90  C   UNL A   1      47.038  27.410  34.999  1.00  0.00     0.198 A 
ATOM     91  C   UNL A   1      45.652  25.562  35.655  1.00  0.00     0.198 A 
ATOM     92  F   UNL A   1      43.418  25.450  34.925  1.00  0.00    -0.203 F 
ATOM     93  F   UNL A   1      48.229  28.024  35.000  1.00  0.00    -0.200 F 
ATOM     94  C   UNL A   1      46.877  26.211  35.678  1.00  0.00     0.200 A 
ATOM     95  F   UNL A   1      45.490  24.411  36.320  1.00  0.00    -0.200 F 
ATOM     96  F   UNL A   1      47.906  25.677  36.351  1.00  0.00    -0.200 F 
ENDBRANCH  63  86
ENDBRANCH  37  38
ENDBRANCH  29  32
ENDBRANCH  27  28
ENDBRANCH   1  27
TORSDOF 12
ENDMDL
MODEL 3
REMARK VINA RESULT:     -13.8      4.429     10.109
REMARK SMILES CC1=CC[C@@H]2C(=O)N(c3ccc(Cl)c(C(=O)NCCCCNC(=O)c4ccc(-c5c6nc(c(-c7c(F)c(F)c(F)c(F)c7F)c7ccc([nH]7)c(-c7c(F)c(F)c(F)c(F)c7F)c7nc(c(-c8c(F)c(F)c(F)c(F)c8F)c8ccc5[nH]8)C=C7)C=C6)cc4)c3)C(=O)[C@H]2C1
REMARK SMILES IDX 20 1 19 2 18 3 17 4 15 5 16 6 14 8 9 9 10 10 88 11 11 12
REMARK SMILES IDX 12 13 13 14 8 15 1 16 2 17 3 18 92 19 4 20 91 21 5 22 89 23
REMARK SMILES IDX 6 24 90 25 7 26 21 27 22 28 23 29 24 31 25 32 26 33 87 34
REMARK SMILES IDX 27 35 86 36 28 37 29 38 30 39 80 40 31 41 85 42 79 43 81 44
REMARK SMILES IDX 32 45 84 46 78 47 77 48 33 50 65 51 45 52 64 53 46 54 49 55
REMARK SMILES IDX 63 56 82 57 47 58 48 59 62 61 83 62 50 63 34 64 35 65 43 66
REMARK SMILES IDX 36 67 37 68 41 69 44 70 38 71 39 72 42 73 40 74 66 75 67 76
REMARK SMILES IDX 75 77 68 78 69 79 73 80 76 81 70 82 71 83 74 84 72 85 51 86
REMARK SMILES IDX 52 87 60 88 53 89 54 90 58 91 61 92 55 93 56 94 59 95 57 96
REMARK H PARENT 17 7 22 30 81 49 49 60
REMARK Flexibility Score: inf
ROOT
ATOM      1  C   UNL A   1      31.874  28.687  26.600  1.00  0.00     0.023 C 
ENDROOT
BRANCH   1   2
ATOM      2  C   UNL A   1      32.413  27.257  26.596  1.00  0.00     0.023 C 
BRANCH   2   3
ATOM      3  C   UNL A   1      31.378  26.145  26.490  1.00  0.00     0.116 C 
BRANCH   3   4
ATOM      4  N   UNL A   1      30.296  26.408  25.559  1.00  0.00    -0.352 N 
ATOM      5  C   UNL A   1      30.134  26.011  24.251  1.00  0.00     0.252 C 
ATOM      6  O   UNL A   1      29.099  26.327  23.666  1.00  0.00    -0.269 OA
ATOM      7  H   UNL A   1      29.563  26.956  25.920  1.00  0.00     0.163 HD
BRANCH   5   8
ATOM      8  C   UNL A   1      31.181  25.280  23.492  1.00  0.00     0.060 A 
ATOM      9  C   UNL A   1      32.166  23.096  23.004  1.00  0.00     0.053 A 
ATOM     10  C   UNL A   1      33.138  23.735  22.226  1.00  0.00     0.028 A 
ATOM     11  C   UNL A   1      31.133  23.864  23.557  1.00  0.00     0.042 A 
ATOM     12  C   UNL A   1      33.191  25.121  22.149  1.00  0.00     0.023 A 
ATOM     13  C   UNL A   1      32.276  25.893  22.866  1.00  0.00     0.053 A 
ATOM     14  Cl  UNL A   1      32.715  27.551  23.074  1.00  0.00    -0.083 Cl
BRANCH   9  15
ATOM     15  N   UNL A   1      32.360  21.734  23.334  1.00  0.00    -0.250 N 
ATOM     16  C   UNL A   1      33.034  16.192  25.750  1.00  0.00     0.039 C 
ATOM     17  C   UNL A   1      32.942  17.328  24.771  1.00  0.00    -0.076 C 
ATOM     18  C   UNL A   1      32.806  17.101  23.445  1.00  0.00    -0.027 C 
ATOM     19  C   UNL A   1      32.994  18.740  25.366  1.00  0.00     0.044 C 
ATOM     20  C   UNL A   1      32.583  18.198  22.428  1.00  0.00     0.041 C 
ATOM     21  C   UNL A   1      33.170  19.763  24.253  1.00  0.00     0.096 C 
ATOM     22  C   UNL A   1      32.155  19.445  23.170  1.00  0.00     0.096 C 
ATOM     23  C   UNL A   1      32.919  21.233  24.496  1.00  0.00     0.238 C 
ATOM     24  C   UNL A   1      32.078  20.727  22.417  1.00  0.00     0.238 C 
ATOM     25  O   UNL A   1      33.214  21.833  25.519  1.00  0.00    -0.274 OA
ATOM     26  O   UNL A   1      31.779  20.817  21.243  1.00  0.00    -0.274 OA
ENDBRANCH   9  15
ENDBRANCH   5   8
ENDBRANCH   3   4
ENDBRANCH   2   3
ENDBRANCH   1   2
BRANCH   1  27
ATOM     27  C   UNL A   1      32.719  29.746  25.894  1.00  0.00     0.116 C 
BRANCH  27  28
ATOM     28  N   UNL A   1      32.536  31.096  26.407  1.00  0.00    -0.352 N 
ATOM     29  C   UNL A   1      33.312  31.838  27.268  1.00  0.00     0.251 C 
ATOM     30  H   UNL A   1      31.724  31.554  26.086  1.00  0.00     0.163 HD
ATOM     31  O   UNL A   1      32.939  32.950  27.628  1.00  0.00    -0.269 OA
BRANCH  29  32
ATOM     32  C   UNL A   1      34.575  31.283  27.805  1.00  0.00     0.039 A 
ATOM     33  C   UNL A   1      35.656  32.149  28.006  1.00  0.00     0.014 A 
ATOM     34  C   UNL A   1      34.695  29.932  28.129  1.00  0.00     0.014 A 
ATOM     35  C   UNL A   1      36.816  31.679  28.627  1.00  0.00     0.010 A 
ATOM     36  C   UNL A   1      35.816  29.484  28.824  1.00  0.00     0.010 A 
ATOM     37  C   UNL A   1      36.885  30.355  29.091  1.00  0.00    -0.014 A 
BRANCH  37  38
ATOM     38  C   UNL A   1      38.050  29.870  29.878  1.00  0.00     0.031 A 
ATOM     39  C   UNL A   1      38.279  30.364  31.278  1.00  0.00     0.074 A 
ATOM     40  C   UNL A   1      38.953  29.056  29.297  1.00  0.00     0.049 A 
ATOM     41  N   UNL A   1      39.282  30.129  32.087  1.00  0.00    -0.248 NA
ATOM     42  C   UNL A   1      37.261  31.269  31.833  1.00  0.00     0.031 C 
ATOM     43  C   UNL A   1      38.884  28.558  27.921  1.00  0.00     0.029 A 
ATOM     44  N   UNL A   1      40.119  28.516  29.784  1.00  0.00    -0.354 N 
ATOM     45  C   UNL A   1      39.029  30.876  33.230  1.00  0.00     0.074 A 
ATOM     46  C   UNL A   1      37.805  31.610  32.992  1.00  0.00     0.031 C 
ATOM     47  C   UNL A   1      39.949  27.777  27.681  1.00  0.00     0.029 A 
ATOM     48  C   UNL A   1      40.794  27.745  28.869  1.00  0.00     0.049 A 
ATOM     49  H   UNL A   1      40.440  28.669  30.703  1.00  0.00     0.167 HD
ATOM     50  C   UNL A   1      39.741  30.929  34.381  1.00  0.00     0.037 A 
ATOM     51  C   UNL A   1      41.967  27.092  28.974  1.00  0.00     0.037 A 
ATOM     52  C   UNL A   1      40.938  30.170  34.628  1.00  0.00     0.049 A 
ATOM     53  C   UNL A   1      42.726  27.143  30.272  1.00  0.00     0.074 A 
ATOM     54  C   UNL A   1      41.682  30.086  35.793  1.00  0.00     0.029 A 
ATOM     55  N   UNL A   1      41.569  29.362  33.691  1.00  0.00    -0.354 N 
ATOM     56  N   UNL A   1      42.431  27.784  31.377  1.00  0.00    -0.248 NA
ATOM     57  C   UNL A   1      43.975  26.372  30.342  1.00  0.00     0.031 C 
ATOM     58  C   UNL A   1      42.788  29.266  35.546  1.00  0.00     0.029 A 
ATOM     59  C   UNL A   1      42.707  28.797  34.245  1.00  0.00     0.049 A 
ATOM     60  H   UNL A   1      41.255  29.215  32.771  1.00  0.00     0.167 HD
ATOM     61  C   UNL A   1      43.441  27.476  32.278  1.00  0.00     0.074 A 
ATOM     62  C   UNL A   1      44.349  26.578  31.597  1.00  0.00     0.031 C 
ATOM     63  C   UNL A   1      43.601  27.901  33.556  1.00  0.00     0.037 A 
BRANCH  50  64
ATOM     64  C   UNL A   1      39.241  31.840  35.465  1.00  0.00     0.064 A 
ATOM     65  C   UNL A   1      39.601  33.196  35.513  1.00  0.00     0.173 A 
ATOM     66  C   UNL A   1      38.369  31.358  36.452  1.00  0.00     0.173 A 
ATOM     67  F   UNL A   1      40.441  33.705  34.599  1.00  0.00    -0.203 F 
ATOM     68  C   UNL A   1      39.133  34.026  36.529  1.00  0.00     0.198 A 
ATOM     69  C   UNL A   1      37.877  32.199  37.448  1.00  0.00     0.198 A 
ATOM     70  F   UNL A   1      37.985  30.072  36.448  1.00  0.00    -0.203 F 
ATOM     71  F   UNL A   1      39.535  35.303  36.586  1.00  0.00    -0.200 F 
ATOM     72  C   UNL A   1      38.267  33.529  37.491  1.00  0.00     0.200 A 
ATOM     73  F   UNL A   1      37.029  31.720  38.368  1.00  0.00    -0.200 F 
ATOM     74  F   UNL A   1      37.815  34.330  38.465  1.00  0.00    -0.200 F 
ENDBRANCH  50  64
BRANCH  51  75
ATOM     75  C   UNL A   1      42.486  26.314  27.818  1.00  0.00     0.064 A 
ATOM     76  C   UNL A   1      43.427  26.870  26.941  1.00  0.00     0.173 A 
ATOM     77  C   UNL A   1      42.059  25.001  27.572  1.00  0.00     0.173 A 
ATOM     78  F   UNL A   1      43.850  28.130  27.124  1.00  0.00    -0.203 F 
ATOM     79  C   UNL A   1      43.909  26.148  25.850  1.00  0.00     0.198 A 
ATOM     80  C   UNL A   1      42.562  24.270  26.497  1.00  0.00     0.198 A 
ATOM     81  F   UNL A   1      41.164  24.421  28.385  1.00  0.00    -0.203 F 
ATOM     82  F   UNL A   1      44.777  26.718  25.004  1.00  0.00    -0.200 F 
ATOM     83  C   UNL A   1      43.481  24.847  25.633  1.00  0.00     0.200 A 
ATOM     84  F   UNL A   1      42.157  23.008  26.299  1.00  0.00    -0.200 F 
ATOM     85  F   UNL A   1      43.949  24.152  24.589  1.00  0.00    -0.200 F 
ENDBRANCH  51  75
BRANCH  63  86
ATOM     86  C   UNL A   1      44.786  27.378  34.312  1.00  0.00     0.064 A 
ATOM     87  C   UNL A   1      44.732  26.169  35.019  1.00  0.00     0.173 A 
ATOM     88  C   UNL A   1      46.005  28.076  34.293  1.00  0.00     0.173 A 
ATOM     89  F   UNL A   1      43.588  25.472  35.080  1.00  0.00    -0.203 F 
ATOM     90  C   UNL A   1      45.848  25.688  35.700  1.00  0.00     0.198 A 
ATOM     91  C   UNL A   1      47.126  27.577  34.950  1.00  0.00     0.198 A 
ATOM     92  F   UNL A   1      46.110  29.235  33.626  1.00  0.00    -0.203 F 
ATOM     93  F   UNL A   1      45.762  24.552  36.405  1.00  0.00    -0.200 F 
ATOM     94  C   UNL A   1      47.045  26.387  35.658  1.00  0.00     0.200 A 
ATOM     95  F   UNL A   1      48.285  28.247  34.897  1.00  0.00    -0.200 F 
ATOM     96  F   UNL A   1      48.120  25.918  36.305  1.00  0.00    -0.200 F 
ENDBRANCH  63  86
ENDBRANCH  37  38
ENDBRANCH  29  32
ENDBRANCH  27  28
ENDBRANCH   1  27
TORSDOF 12
ENDMDL
