MODEL 1
REMARK VINA RESULT:     -11.6      0.000      0.000
REMARK SMILES CCC[NH2+][C@]1(C(=O)NCCCCNC(=O)c2ccc(-c3c4nc(c(-c5c(F)c(F)c(F)c(F)c5F)c5ccc([nH]5)c(-c5c(F)c(F)c(F)c(F)c5F)c5nc(c(-c6c(F)c(F)c(F)c(F)c6F)c6ccc3[nH]6)C=C5)C=C4)cc2)CCC[C@@H]([N@@H+](C)[C@@H](C)C2CC2)C1
REMARK SMILES IDX 10 1 9 2 8 3 6 4 7 5 5 7 79 8 90 9 80 10 82 11 81 12 4 13
REMARK SMILES IDX 3 16 2 17 1 18 83 19 84 20 85 22 86 23 87 24 88 25 89 26
REMARK SMILES IDX 11 27 12 28 13 29 14 30 15 32 16 33 17 34 78 35 18 36 77 37
REMARK SMILES IDX 19 38 20 39 21 40 71 41 22 42 76 43 70 44 72 45 23 46 75 47
REMARK SMILES IDX 69 48 68 49 24 51 56 52 36 53 55 54 37 55 40 56 54 57 73 58
REMARK SMILES IDX 38 59 39 60 53 62 74 63 41 64 25 65 26 66 34 67 27 68 28 69
REMARK SMILES IDX 32 70 35 71 29 72 30 73 33 74 31 75 57 76 58 77 66 78 59 79
REMARK SMILES IDX 60 80 64 81 67 82 61 83 62 84 65 85 63 86 42 87 43 88 51 89
REMARK SMILES IDX 44 90 45 91 49 92 52 93 46 94 47 95 50 96 48 97
REMARK H PARENT 8 6 4 14 4 15 83 21 13 31 72 50 40 61
REMARK Flexibility Score: inf
ROOT
ATOM      1  C   UNL A   1      31.811  30.494  26.879  1.00  0.00     0.023 C 
ENDROOT
BRANCH   1   2
ATOM      2  C   UNL A   1      33.162  29.913  26.456  1.00  0.00     0.116 C 
BRANCH   2   3
ATOM      3  N   UNL A   1      33.285  29.925  25.018  1.00  0.00    -0.351 N 
ATOM      4  C   UNL A   1      33.112  28.927  24.111  1.00  0.00     0.281 C 
ATOM      5  O   UNL A   1      33.535  29.189  22.977  1.00  0.00    -0.268 OA
ATOM      6  H   UNL A   1      33.533  30.796  24.632  1.00  0.00     0.163 HD
BRANCH   4   7
ATOM      7  C   UNL A   1      32.306  27.607  24.398  1.00  0.00     0.181 C 
ATOM      8  C   UNL A   1      30.803  27.991  24.393  1.00  0.00     0.079 C 
ATOM      9  C   UNL A   1      32.556  26.666  23.199  1.00  0.00     0.144 C 
ATOM     10  C   UNL A   1      29.866  26.777  24.350  1.00  0.00     0.013 C 
ATOM     11  C   UNL A   1      31.657  25.438  23.116  1.00  0.00     0.190 C 
ATOM     12  C   UNL A   1      30.173  25.842  23.174  1.00  0.00     0.065 C 
BRANCH   7  13
ATOM     13  N   UNL A   1      32.623  27.004  25.720  1.00  0.00    -0.333 N 
ATOM     14  H   UNL A   1      32.712  27.769  26.390  1.00  0.00     0.347 HD
ATOM     15  H   UNL A   1      31.857  26.354  25.900  1.00  0.00     0.347 HD
BRANCH  13  16
ATOM     16  C   UNL A   1      33.832  26.192  25.820  1.00  0.00     0.261 C 
BRANCH  16  17
ATOM     17  C   UNL A   1      33.475  24.721  26.081  1.00  0.00     0.058 C 
ATOM     18  C   UNL A   1      32.059  24.513  26.608  1.00  0.00     0.010 C 
ENDBRANCH  16  17
ENDBRANCH  13  16
ENDBRANCH   7  13
BRANCH  11  19
ATOM     19  N   UNL A   1      32.123  24.508  22.054  1.00  0.00    -0.332 N 
ATOM     20  C   UNL A   1      32.803  25.278  20.997  1.00  0.00     0.333 C 
ATOM     21  H   UNL A   1      31.230  24.088  21.797  1.00  0.00     0.348 HD
BRANCH  19  22
ATOM     22  C   UNL A   1      32.873  23.260  22.338  1.00  0.00     0.184 C 
ATOM     23  C   UNL A   1      34.316  23.386  22.840  1.00  0.00     0.075 C 
BRANCH  22  24
ATOM     24  C   UNL A   1      32.184  22.084  23.012  1.00  0.00     0.047 C 
ATOM     25  C   UNL A   1      31.963  20.757  22.316  1.00  0.00     0.010 C 
ATOM     26  C   UNL A   1      32.799  20.821  23.565  1.00  0.00     0.010 C 
ENDBRANCH  22  24
ENDBRANCH  19  22
ENDBRANCH  11  19
ENDBRANCH   4   7
ENDBRANCH   2   3
ENDBRANCH   1   2
BRANCH   1  27
ATOM     27  C   UNL A   1      31.690  32.012  26.741  1.00  0.00     0.023 C 
BRANCH  27  28
ATOM     28  C   UNL A   1      32.842  32.798  27.346  1.00  0.00     0.116 C 
BRANCH  28  29
ATOM     29  N   UNL A   1      32.489  34.170  27.674  1.00  0.00    -0.352 N 
ATOM     30  C   UNL A   1      33.039  34.995  28.623  1.00  0.00     0.251 C 
ATOM     31  H   UNL A   1      31.756  34.560  27.143  1.00  0.00     0.163 HD
ATOM     32  O   UNL A   1      32.559  36.095  28.853  1.00  0.00    -0.269 OA
BRANCH  30  33
ATOM     33  C   UNL A   1      34.199  34.512  29.396  1.00  0.00     0.039 A 
ATOM     34  C   UNL A   1      33.975  33.899  30.630  1.00  0.00     0.014 A 
ATOM     35  C   UNL A   1      35.493  34.623  28.879  1.00  0.00     0.014 A 
ATOM     36  C   UNL A   1      35.048  33.337  31.319  1.00  0.00     0.010 A 
ATOM     37  C   UNL A   1      36.548  33.999  29.530  1.00  0.00     0.010 A 
ATOM     38  C   UNL A   1      36.335  33.352  30.757  1.00  0.00    -0.014 A 
BRANCH  38  39
ATOM     39  C   UNL A   1      37.477  32.701  31.439  1.00  0.00     0.031 A 
ATOM     40  C   UNL A   1      38.180  31.546  30.785  1.00  0.00     0.074 A 
ATOM     41  C   UNL A   1      37.831  33.103  32.675  1.00  0.00     0.049 A 
ATOM     42  N   UNL A   1      39.146  30.796  31.248  1.00  0.00    -0.248 NA
ATOM     43  C   UNL A   1      37.712  31.166  29.443  1.00  0.00     0.031 C 
ATOM     44  C   UNL A   1      37.184  34.177  33.433  1.00  0.00     0.029 A 
ATOM     45  N   UNL A   1      38.812  32.647  33.516  1.00  0.00    -0.354 N 
ATOM     46  C   UNL A   1      39.387  29.846  30.264  1.00  0.00     0.074 A 
ATOM     47  C   UNL A   1      38.433  30.081  29.203  1.00  0.00     0.031 C 
ATOM     48  C   UNL A   1      37.801  34.310  34.618  1.00  0.00     0.029 A 
ATOM     49  C   UNL A   1      38.860  33.311  34.718  1.00  0.00     0.049 A 
ATOM     50  H   UNL A   1      39.424  31.912  33.282  1.00  0.00     0.167 HD
ATOM     51  C   UNL A   1      40.337  28.882  30.239  1.00  0.00     0.037 A 
ATOM     52  C   UNL A   1      39.669  33.129  35.778  1.00  0.00     0.037 A 
ATOM     53  C   UNL A   1      41.304  28.675  31.284  1.00  0.00     0.049 A 
ATOM     54  C   UNL A   1      40.723  32.058  35.720  1.00  0.00     0.074 A 
ATOM     55  C   UNL A   1      42.348  27.770  31.327  1.00  0.00     0.029 A 
ATOM     56  N   UNL A   1      41.342  29.388  32.474  1.00  0.00    -0.354 N 
ATOM     57  N   UNL A   1      40.990  31.213  34.755  1.00  0.00    -0.248 NA
ATOM     58  C   UNL A   1      41.594  31.922  36.895  1.00  0.00     0.031 C 
ATOM     59  C   UNL A   1      42.996  27.908  32.559  1.00  0.00     0.029 A 
ATOM     60  C   UNL A   1      42.383  28.931  33.266  1.00  0.00     0.049 A 
ATOM     61  H   UNL A   1      40.722  30.112  32.719  1.00  0.00     0.167 HD
ATOM     62  C   UNL A   1      42.074  30.463  35.193  1.00  0.00     0.074 A 
ATOM     63  C   UNL A   1      42.423  30.965  36.506  1.00  0.00     0.031 C 
ATOM     64  C   UNL A   1      42.720  29.450  34.565  1.00  0.00     0.037 A 
BRANCH  51  65
ATOM     65  C   UNL A   1      40.379  27.984  29.038  1.00  0.00     0.064 A 
ATOM     66  C   UNL A   1      39.666  26.776  28.999  1.00  0.00     0.173 A 
ATOM     67  C   UNL A   1      41.119  28.347  27.903  1.00  0.00     0.173 A 
ATOM     68  F   UNL A   1      38.956  26.377  30.064  1.00  0.00    -0.203 F 
ATOM     69  C   UNL A   1      39.715  25.952  27.878  1.00  0.00     0.198 A 
ATOM     70  C   UNL A   1      41.141  27.534  26.772  1.00  0.00     0.198 A 
ATOM     71  F   UNL A   1      41.816  29.493  27.886  1.00  0.00    -0.203 F 
ATOM     72  F   UNL A   1      39.066  24.779  27.883  1.00  0.00    -0.200 F 
ATOM     73  C   UNL A   1      40.446  26.334  26.764  1.00  0.00     0.200 A 
ATOM     74  F   UNL A   1      41.839  27.910  25.692  1.00  0.00    -0.200 F 
ATOM     75  F   UNL A   1      40.488  25.542  25.683  1.00  0.00    -0.200 F 
ENDBRANCH  51  65
BRANCH  52  76
ATOM     76  C   UNL A   1      39.531  34.002  36.973  1.00  0.00     0.064 A 
ATOM     77  C   UNL A   1      38.771  33.591  38.077  1.00  0.00     0.173 A 
ATOM     78  C   UNL A   1      40.152  35.256  37.039  1.00  0.00     0.173 A 
ATOM     79  F   UNL A   1      38.142  32.407  38.052  1.00  0.00    -0.203 F 
ATOM     80  C   UNL A   1      38.620  34.411  39.192  1.00  0.00     0.198 A 
ATOM     81  C   UNL A   1      40.023  36.065  38.165  1.00  0.00     0.198 A 
ATOM     82  F   UNL A   1      40.896  35.692  36.011  1.00  0.00    -0.203 F 
ATOM     83  F   UNL A   1      37.852  34.013  40.215  1.00  0.00    -0.200 F 
ATOM     84  C   UNL A   1      39.251  35.646  39.238  1.00  0.00     0.200 A 
ATOM     85  F   UNL A   1      40.644  37.251  38.212  1.00  0.00    -0.200 F 
ATOM     86  F   UNL A   1      39.107  36.432  40.312  1.00  0.00    -0.200 F 
ENDBRANCH  52  76
BRANCH  64  87
ATOM     87  C   UNL A   1      43.892  28.841  35.275  1.00  0.00     0.064 A 
ATOM     88  C   UNL A   1      45.193  29.337  35.105  1.00  0.00     0.173 A 
ATOM     89  C   UNL A   1      43.704  27.777  36.169  1.00  0.00     0.173 A 
ATOM     90  F   UNL A   1      45.425  30.343  34.248  1.00  0.00    -0.203 F 
ATOM     91  C   UNL A   1      46.267  28.773  35.788  1.00  0.00     0.198 A 
ATOM     92  C   UNL A   1      44.776  27.235  36.872  1.00  0.00     0.198 A 
ATOM     93  F   UNL A   1      42.478  27.272  36.372  1.00  0.00    -0.203 F 
ATOM     94  F   UNL A   1      47.508  29.233  35.576  1.00  0.00    -0.200 F 
ATOM     95  C   UNL A   1      46.057  27.728  36.676  1.00  0.00     0.200 A 
ATOM     96  F   UNL A   1      44.570  26.234  37.739  1.00  0.00    -0.200 F 
ATOM     97  F   UNL A   1      47.091  27.192  37.337  1.00  0.00    -0.200 F 
ENDBRANCH  64  87
ENDBRANCH  38  39
ENDBRANCH  30  33
ENDBRANCH  28  29
ENDBRANCH  27  28
ENDBRANCH   1  27
TORSDOF 17
ENDMDL
MODEL 2
REMARK VINA RESULT:     -11.6      0.656      7.299
REMARK SMILES CCC[NH2+][C@]1(C(=O)NCCCCNC(=O)c2ccc(-c3c4nc(c(-c5c(F)c(F)c(F)c(F)c5F)c5ccc([nH]5)c(-c5c(F)c(F)c(F)c(F)c5F)c5nc(c(-c6c(F)c(F)c(F)c(F)c6F)c6ccc3[nH]6)C=C5)C=C4)cc2)CCC[C@@H]([N@@H+](C)[C@@H](C)C2CC2)C1
REMARK SMILES IDX 10 1 9 2 8 3 6 4 7 5 5 7 79 8 90 9 80 10 82 11 81 12 4 13
REMARK SMILES IDX 3 16 2 17 1 18 83 19 84 20 85 22 86 23 87 24 88 25 89 26
REMARK SMILES IDX 11 27 12 28 13 29 14 30 15 32 16 33 17 34 78 35 18 36 77 37
REMARK SMILES IDX 19 38 20 39 21 40 71 41 22 42 76 43 70 44 72 45 23 46 75 47
REMARK SMILES IDX 69 48 68 49 24 51 56 52 36 53 55 54 37 55 40 56 54 57 73 58
REMARK SMILES IDX 38 59 39 60 53 62 74 63 41 64 25 65 26 66 34 67 27 68 28 69
REMARK SMILES IDX 32 70 35 71 29 72 30 73 33 74 31 75 57 76 58 77 66 78 59 79
REMARK SMILES IDX 60 80 64 81 67 82 61 83 62 84 65 85 63 86 42 87 43 88 51 89
REMARK SMILES IDX 44 90 45 91 49 92 52 93 46 94 47 95 50 96 48 97
REMARK H PARENT 8 6 4 14 4 15 83 21 13 31 72 50 40 61
REMARK Flexibility Score: inf
ROOT
ATOM      1  C   UNL A   1      31.487  30.646  26.605  1.00  0.00     0.023 C 
ENDROOT
BRANCH   1   2
ATOM      2  C   UNL A   1      32.843  30.011  26.293  1.00  0.00     0.116 C 
BRANCH   2   3
ATOM      3  N   UNL A   1      33.056  29.958  24.867  1.00  0.00    -0.351 N 
ATOM      4  C   UNL A   1      32.986  28.910  24.005  1.00  0.00     0.281 C 
ATOM      5  O   UNL A   1      33.468  29.135  22.887  1.00  0.00    -0.268 OA
ATOM      6  H   UNL A   1      33.290  30.820  24.452  1.00  0.00     0.163 HD
BRANCH   4   7
ATOM      7  C   UNL A   1      32.223  27.568  24.310  1.00  0.00     0.181 C 
ATOM      8  C   UNL A   1      30.708  27.900  24.283  1.00  0.00     0.079 C 
ATOM      9  C   UNL A   1      32.518  26.613  23.133  1.00  0.00     0.144 C 
ATOM     10  C   UNL A   1      29.813  26.654  24.256  1.00  0.00     0.013 C 
ATOM     11  C   UNL A   1      31.663  25.354  23.066  1.00  0.00     0.190 C 
ATOM     12  C   UNL A   1      30.165  25.707  23.102  1.00  0.00     0.065 C 
BRANCH   7  13
ATOM     13  N   UNL A   1      32.547  27.004  25.647  1.00  0.00    -0.333 N 
ATOM     14  H   UNL A   1      32.603  27.784  26.302  1.00  0.00     0.347 HD
ATOM     15  H   UNL A   1      31.802  26.331  25.833  1.00  0.00     0.347 HD
BRANCH  13  16
ATOM     16  C   UNL A   1      33.781  26.235  25.776  1.00  0.00     0.261 C 
BRANCH  16  17
ATOM     17  C   UNL A   1      33.474  24.772  26.126  1.00  0.00     0.058 C 
ATOM     18  C   UNL A   1      32.017  24.518  26.495  1.00  0.00     0.010 C 
ENDBRANCH  16  17
ENDBRANCH  13  16
ENDBRANCH   7  13
BRANCH  11  19
ATOM     19  N   UNL A   1      32.171  24.419  22.028  1.00  0.00    -0.332 N 
ATOM     20  C   UNL A   1      32.889  25.185  20.993  1.00  0.00     0.333 C 
ATOM     21  H   UNL A   1      31.289  23.996  21.739  1.00  0.00     0.348 HD
BRANCH  19  22
ATOM     22  C   UNL A   1      32.912  23.175  22.347  1.00  0.00     0.184 C 
ATOM     23  C   UNL A   1      34.380  23.299  22.770  1.00  0.00     0.075 C 
BRANCH  22  24
ATOM     24  C   UNL A   1      32.236  22.053  23.121  1.00  0.00     0.047 C 
ATOM     25  C   UNL A   1      32.153  20.634  22.598  1.00  0.00     0.010 C 
ATOM     26  C   UNL A   1      32.873  20.919  23.887  1.00  0.00     0.010 C 
ENDBRANCH  22  24
ENDBRANCH  19  22
ENDBRANCH  11  19
ENDBRANCH   4   7
ENDBRANCH   2   3
ENDBRANCH   1   2
BRANCH   1  27
ATOM     27  C   UNL A   1      31.462  32.175  26.552  1.00  0.00     0.023 C 
BRANCH  27  28
ATOM     28  C   UNL A   1      32.659  32.850  27.200  1.00  0.00     0.116 C 
BRANCH  28  29
ATOM     29  N   UNL A   1      32.385  34.214  27.626  1.00  0.00    -0.352 N 
ATOM     30  C   UNL A   1      32.995  34.943  28.616  1.00  0.00     0.251 C 
ATOM     31  H   UNL A   1      31.665  34.676  27.138  1.00  0.00     0.163 HD
ATOM     32  O   UNL A   1      32.579  36.048  28.929  1.00  0.00    -0.269 OA
BRANCH  30  33
ATOM     33  C   UNL A   1      34.141  34.349  29.330  1.00  0.00     0.039 A 
ATOM     34  C   UNL A   1      33.896  33.553  30.450  1.00  0.00     0.014 A 
ATOM     35  C   UNL A   1      35.445  34.542  28.865  1.00  0.00     0.014 A 
ATOM     36  C   UNL A   1      34.957  32.893  31.067  1.00  0.00     0.010 A 
ATOM     37  C   UNL A   1      36.490  33.828  29.435  1.00  0.00     0.010 A 
ATOM     38  C   UNL A   1      36.255  32.998  30.543  1.00  0.00    -0.014 A 
BRANCH  38  39
ATOM     39  C   UNL A   1      37.387  32.253  31.141  1.00  0.00     0.031 A 
ATOM     40  C   UNL A   1      37.877  32.613  32.514  1.00  0.00     0.074 A 
ATOM     41  C   UNL A   1      38.016  31.307  30.418  1.00  0.00     0.049 A 
ATOM     42  N   UNL A   1      38.896  32.136  33.179  1.00  0.00    -0.248 NA
ATOM     43  C   UNL A   1      37.139  33.673  33.219  1.00  0.00     0.031 C 
ATOM     44  C   UNL A   1      37.664  30.912  29.052  1.00  0.00     0.029 A 
ATOM     45  N   UNL A   1      39.091  30.515  30.727  1.00  0.00    -0.354 N 
ATOM     46  C   UNL A   1      38.933  32.849  34.371  1.00  0.00     0.074 A 
ATOM     47  C   UNL A   1      37.868  33.825  34.315  1.00  0.00     0.031 C 
ATOM     48  C   UNL A   1      38.495  29.937  28.650  1.00  0.00     0.029 A 
ATOM     49  C   UNL A   1      39.457  29.663  29.713  1.00  0.00     0.049 A 
ATOM     50  H   UNL A   1      39.557  30.552  31.593  1.00  0.00     0.167 HD
ATOM     51  C   UNL A   1      39.765  32.684  35.426  1.00  0.00     0.037 A 
ATOM     52  C   UNL A   1      40.459  28.766  29.652  1.00  0.00     0.037 A 
ATOM     53  C   UNL A   1      40.802  31.689  35.487  1.00  0.00     0.049 A 
ATOM     54  C   UNL A   1      41.362  28.595  30.842  1.00  0.00     0.074 A 
ATOM     55  C   UNL A   1      41.657  31.396  36.534  1.00  0.00     0.029 A 
ATOM     56  N   UNL A   1      41.124  30.822  34.452  1.00  0.00    -0.354 N 
ATOM     57  N   UNL A   1      41.342  29.223  31.992  1.00  0.00    -0.248 NA
ATOM     58  C   UNL A   1      42.421  27.583  30.729  1.00  0.00     0.031 C 
ATOM     59  C   UNL A   1      42.521  30.377  36.121  1.00  0.00     0.029 A 
ATOM     60  C   UNL A   1      42.176  30.004  34.831  1.00  0.00     0.049 A 
ATOM     61  H   UNL A   1      40.671  30.792  33.579  1.00  0.00     0.167 HD
ATOM     62  C   UNL A   1      42.366  28.668  32.748  1.00  0.00     0.074 A 
ATOM     63  C   UNL A   1      42.977  27.640  31.930  1.00  0.00     0.031 C 
ATOM     64  C   UNL A   1      42.764  28.981  34.005  1.00  0.00     0.037 A 
BRANCH  51  65
ATOM     65  C   UNL A   1      39.581  33.597  36.601  1.00  0.00     0.064 A 
ATOM     66  C   UNL A   1      38.760  33.245  37.684  1.00  0.00     0.173 A 
ATOM     67  C   UNL A   1      40.253  34.827  36.660  1.00  0.00     0.173 A 
ATOM     68  F   UNL A   1      38.085  32.086  37.670  1.00  0.00    -0.203 F 
ATOM     69  C   UNL A   1      38.597  34.102  38.768  1.00  0.00     0.198 A 
ATOM     70  C   UNL A   1      40.111  35.670  37.760  1.00  0.00     0.198 A 
ATOM     71  F   UNL A   1      41.052  35.211  35.654  1.00  0.00    -0.203 F 
ATOM     72  F   UNL A   1      37.769  33.766  39.767  1.00  0.00    -0.200 F 
ATOM     73  C   UNL A   1      39.277  35.310  38.808  1.00  0.00     0.200 A 
ATOM     74  F   UNL A   1      40.776  36.831  37.803  1.00  0.00    -0.200 F 
ATOM     75  F   UNL A   1      39.123  36.133  39.856  1.00  0.00    -0.200 F 
ENDBRANCH  51  65
BRANCH  52  76
ATOM     76  C   UNL A   1      40.640  27.940  28.430  1.00  0.00     0.064 A 
ATOM     77  C   UNL A   1      40.024  26.686  28.315  1.00  0.00     0.173 A 
ATOM     78  C   UNL A   1      41.426  28.382  27.357  1.00  0.00     0.173 A 
ATOM     79  F   UNL A   1      39.277  26.212  29.324  1.00  0.00    -0.203 F 
ATOM     80  C   UNL A   1      40.205  25.896  27.182  1.00  0.00     0.198 A 
ATOM     81  C   UNL A   1      41.586  27.603  26.214  1.00  0.00     0.198 A 
ATOM     82  F   UNL A   1      42.032  29.577  27.416  1.00  0.00    -0.203 F 
ATOM     83  F   UNL A   1      39.640  24.683  27.117  1.00  0.00    -0.200 F 
ATOM     84  C   UNL A   1      40.982  26.358  26.130  1.00  0.00     0.200 A 
ATOM     85  F   UNL A   1      42.326  28.057  25.193  1.00  0.00    -0.200 F 
ATOM     86  F   UNL A   1      41.153  25.599  25.040  1.00  0.00    -0.200 F 
ENDBRANCH  52  76
BRANCH  64  87
ATOM     87  C   UNL A   1      43.891  28.180  34.587  1.00  0.00     0.064 A 
ATOM     88  C   UNL A   1      43.662  26.973  35.262  1.00  0.00     0.173 A 
ATOM     89  C   UNL A   1      45.218  28.605  34.428  1.00  0.00     0.173 A 
ATOM     90  F   UNL A   1      42.408  26.533  35.453  1.00  0.00    -0.203 F 
ATOM     91  C   UNL A   1      44.721  26.231  35.777  1.00  0.00     0.198 A 
ATOM     92  C   UNL A   1      46.276  27.846  34.919  1.00  0.00     0.198 A 
ATOM     93  F   UNL A   1      45.489  29.750  33.783  1.00  0.00    -0.203 F 
ATOM     94  F   UNL A   1      44.477  25.103  36.458  1.00  0.00    -0.200 F 
ATOM     95  C   UNL A   1      46.027  26.665  35.599  1.00  0.00     0.200 A 
ATOM     96  F   UNL A   1      47.537  28.260  34.735  1.00  0.00    -0.200 F 
ATOM     97  F   UNL A   1      47.045  25.945  36.089  1.00  0.00    -0.200 F 
ENDBRANCH  64  87
ENDBRANCH  38  39
ENDBRANCH  30  33
ENDBRANCH  28  29
ENDBRANCH  27  28
ENDBRANCH   1  27
TORSDOF 17
ENDMDL
MODEL 3
REMARK VINA RESULT:     -11.4      0.955      2.439
REMARK SMILES CCC[NH2+][C@]1(C(=O)NCCCCNC(=O)c2ccc(-c3c4nc(c(-c5c(F)c(F)c(F)c(F)c5F)c5ccc([nH]5)c(-c5c(F)c(F)c(F)c(F)c5F)c5nc(c(-c6c(F)c(F)c(F)c(F)c6F)c6ccc3[nH]6)C=C5)C=C4)cc2)CCC[C@@H]([N@@H+](C)[C@@H](C)C2CC2)C1
REMARK SMILES IDX 10 1 9 2 8 3 6 4 7 5 5 7 79 8 90 9 80 10 82 11 81 12 4 13
REMARK SMILES IDX 3 16 2 17 1 18 83 19 84 20 85 22 86 23 87 24 88 25 89 26
REMARK SMILES IDX 11 27 12 28 13 29 14 30 15 32 16 33 17 34 78 35 18 36 77 37
REMARK SMILES IDX 19 38 20 39 21 40 71 41 22 42 76 43 70 44 72 45 23 46 75 47
REMARK SMILES IDX 69 48 68 49 24 51 56 52 36 53 55 54 37 55 40 56 54 57 73 58
REMARK SMILES IDX 38 59 39 60 53 62 74 63 41 64 25 65 26 66 34 67 27 68 28 69
REMARK SMILES IDX 32 70 35 71 29 72 30 73 33 74 31 75 57 76 58 77 66 78 59 79
REMARK SMILES IDX 60 80 64 81 67 82 61 83 62 84 65 85 63 86 42 87 43 88 51 89
REMARK SMILES IDX 44 90 45 91 49 92 52 93 46 94 47 95 50 96 48 97
REMARK H PARENT 8 6 4 14 4 15 83 21 13 31 72 50 40 61
REMARK Flexibility Score: inf
ROOT
ATOM      1  C   UNL A   1      31.800  30.182  26.807  1.00  0.00     0.023 C 
ENDROOT
BRANCH   1   2
ATOM      2  C   UNL A   1      33.088  29.510  26.328  1.00  0.00     0.116 C 
BRANCH   2   3
ATOM      3  N   UNL A   1      33.289  29.757  24.920  1.00  0.00    -0.351 N 
ATOM      4  C   UNL A   1      33.150  28.928  23.852  1.00  0.00     0.281 C 
ATOM      5  O   UNL A   1      33.637  29.364  22.800  1.00  0.00    -0.268 OA
ATOM      6  H   UNL A   1      33.571  30.674  24.698  1.00  0.00     0.163 HD
BRANCH   4   7
ATOM      7  C   UNL A   1      32.309  27.598  23.873  1.00  0.00     0.181 C 
ATOM      8  C   UNL A   1      32.271  27.070  22.416  1.00  0.00     0.079 C 
ATOM      9  C   UNL A   1      33.107  26.583  24.722  1.00  0.00     0.144 C 
ATOM     10  C   UNL A   1      31.757  25.629  22.305  1.00  0.00     0.013 C 
ATOM     11  C   UNL A   1      32.629  25.138  24.655  1.00  0.00     0.190 C 
ATOM     12  C   UNL A   1      32.542  24.658  23.194  1.00  0.00     0.065 C 
BRANCH   7  13
ATOM     13  N   UNL A   1      30.907  27.801  24.327  1.00  0.00    -0.333 N 
ATOM     14  H   UNL A   1      30.424  26.907  24.232  1.00  0.00     0.347 HD
ATOM     15  H   UNL A   1      30.991  28.153  25.281  1.00  0.00     0.347 HD
BRANCH  13  16
ATOM     16  C   UNL A   1      30.109  28.804  23.629  1.00  0.00     0.261 C 
BRANCH  16  17
ATOM     17  C   UNL A   1      28.895  28.154  22.950  1.00  0.00     0.058 C 
ATOM     18  C   UNL A   1      27.617  28.980  23.045  1.00  0.00     0.010 C 
ENDBRANCH  16  17
ENDBRANCH  13  16
ENDBRANCH   7  13
BRANCH  11  19
ATOM     19  N   UNL A   1      33.330  24.298  25.662  1.00  0.00    -0.332 N 
ATOM     20  C   UNL A   1      32.334  23.651  26.535  1.00  0.00     0.333 C 
ATOM     21  H   UNL A   1      33.911  25.014  26.100  1.00  0.00     0.348 HD
BRANCH  19  22
ATOM     22  C   UNL A   1      34.403  23.336  25.312  1.00  0.00     0.184 C 
ATOM     23  C   UNL A   1      33.990  21.958  24.782  1.00  0.00     0.075 C 
BRANCH  22  24
ATOM     24  C   UNL A   1      35.666  23.811  24.609  1.00  0.00     0.047 C 
ATOM     25  C   UNL A   1      37.041  23.700  25.233  1.00  0.00     0.010 C 
ATOM     26  C   UNL A   1      36.741  22.988  23.943  1.00  0.00     0.010 C 
ENDBRANCH  22  24
ENDBRANCH  19  22
ENDBRANCH  11  19
ENDBRANCH   4   7
ENDBRANCH   2   3
ENDBRANCH   1   2
BRANCH   1  27
ATOM     27  C   UNL A   1      31.741  31.694  26.588  1.00  0.00     0.023 C 
BRANCH  27  28
ATOM     28  C   UNL A   1      32.865  32.475  27.250  1.00  0.00     0.116 C 
BRANCH  28  29
ATOM     29  N   UNL A   1      32.501  33.848  27.564  1.00  0.00    -0.352 N 
ATOM     30  C   UNL A   1      33.047  34.688  28.501  1.00  0.00     0.251 C 
ATOM     31  H   UNL A   1      31.762  34.224  27.032  1.00  0.00     0.163 HD
ATOM     32  O   UNL A   1      32.558  35.786  28.721  1.00  0.00    -0.269 OA
BRANCH  30  33
ATOM     33  C   UNL A   1      34.215  34.224  29.274  1.00  0.00     0.039 A 
ATOM     34  C   UNL A   1      33.999  33.466  30.427  1.00  0.00     0.014 A 
ATOM     35  C   UNL A   1      35.512  34.499  28.834  1.00  0.00     0.014 A 
ATOM     36  C   UNL A   1      35.090  32.926  31.105  1.00  0.00     0.010 A 
ATOM     37  C   UNL A   1      36.593  33.900  29.467  1.00  0.00     0.010 A 
ATOM     38  C   UNL A   1      36.391  33.109  30.609  1.00  0.00    -0.014 A 
BRANCH  38  39
ATOM     39  C   UNL A   1      37.560  32.488  31.274  1.00  0.00     0.031 A 
ATOM     40  C   UNL A   1      38.272  31.341  30.616  1.00  0.00     0.074 A 
ATOM     41  C   UNL A   1      37.930  32.909  32.499  1.00  0.00     0.049 A 
ATOM     42  N   UNL A   1      39.261  30.614  31.066  1.00  0.00    -0.248 NA
ATOM     43  C   UNL A   1      37.784  30.939  29.287  1.00  0.00     0.031 C 
ATOM     44  C   UNL A   1      37.277  33.977  33.259  1.00  0.00     0.029 A 
ATOM     45  N   UNL A   1      38.936  32.480  33.324  1.00  0.00    -0.354 N 
ATOM     46  C   UNL A   1      39.502  29.660  30.086  1.00  0.00     0.074 A 
ATOM     47  C   UNL A   1      38.522  29.866  29.043  1.00  0.00     0.031 C 
ATOM     48  C   UNL A   1      37.915  34.133  34.430  1.00  0.00     0.029 A 
ATOM     49  C   UNL A   1      38.996  33.157  34.518  1.00  0.00     0.049 A 
ATOM     50  H   UNL A   1      39.558  31.756  33.084  1.00  0.00     0.167 HD
ATOM     51  C   UNL A   1      40.471  28.715  30.051  1.00  0.00     0.037 A 
ATOM     52  C   UNL A   1      39.828  33.001  35.564  1.00  0.00     0.037 A 
ATOM     53  C   UNL A   1      41.462  28.537  31.078  1.00  0.00     0.049 A 
ATOM     54  C   UNL A   1      40.903  31.951  35.494  1.00  0.00     0.074 A 
ATOM     55  C   UNL A   1      42.525  27.653  31.108  1.00  0.00     0.029 A 
ATOM     56  N   UNL A   1      41.510  29.262  32.260  1.00  0.00    -0.354 N 
ATOM     57  N   UNL A   1      41.167  31.101  34.531  1.00  0.00    -0.248 NA
ATOM     58  C   UNL A   1      41.800  31.843  36.652  1.00  0.00     0.031 C 
ATOM     59  C   UNL A   1      43.194  27.816  32.326  1.00  0.00     0.029 A 
ATOM     60  C   UNL A   1      42.575  28.833  33.035  1.00  0.00     0.049 A 
ATOM     61  H   UNL A   1      40.880  29.975  32.511  1.00  0.00     0.167 HD
ATOM     62  C   UNL A   1      42.274  30.378  34.955  1.00  0.00     0.074 A 
ATOM     63  C   UNL A   1      42.640  30.898  36.256  1.00  0.00     0.031 C 
ATOM     64  C   UNL A   1      42.928  29.371  34.323  1.00  0.00     0.037 A 
BRANCH  51  65
ATOM     65  C   UNL A   1      40.506  27.806  28.858  1.00  0.00     0.064 A 
ATOM     66  C   UNL A   1      39.789  26.600  28.830  1.00  0.00     0.173 A 
ATOM     67  C   UNL A   1      41.245  28.157  27.718  1.00  0.00     0.173 A 
ATOM     68  F   UNL A   1      39.079  26.214  29.901  1.00  0.00    -0.203 F 
ATOM     69  C   UNL A   1      39.832  25.766  27.717  1.00  0.00     0.198 A 
ATOM     70  C   UNL A   1      41.261  27.334  26.594  1.00  0.00     0.198 A 
ATOM     71  F   UNL A   1      41.946  29.299  27.690  1.00  0.00    -0.203 F 
ATOM     72  F   UNL A   1      39.179  24.596  27.734  1.00  0.00    -0.200 F 
ATOM     73  C   UNL A   1      40.562  26.136  26.598  1.00  0.00     0.200 A 
ATOM     74  F   UNL A   1      41.958  27.697  25.510  1.00  0.00    -0.200 F 
ATOM     75  F   UNL A   1      40.598  25.335  25.524  1.00  0.00    -0.200 F 
ENDBRANCH  51  65
BRANCH  52  76
ATOM     76  C   UNL A   1      39.698  33.882  36.753  1.00  0.00     0.064 A 
ATOM     77  C   UNL A   1      40.359  35.116  36.806  1.00  0.00     0.173 A 
ATOM     78  C   UNL A   1      38.915  33.513  37.855  1.00  0.00     0.173 A 
ATOM     79  F   UNL A   1      41.135  35.504  35.783  1.00  0.00    -0.203 F 
ATOM     80  C   UNL A   1      40.258  35.940  37.925  1.00  0.00     0.198 A 
ATOM     81  C   UNL A   1      38.793  34.348  38.963  1.00  0.00     0.198 A 
ATOM     82  F   UNL A   1      38.257  32.344  37.850  1.00  0.00    -0.203 F 
ATOM     83  F   UNL A   1      40.935  37.095  37.967  1.00  0.00    -0.200 F 
ATOM     84  C   UNL A   1      39.471  35.557  39.001  1.00  0.00     0.200 A 
ATOM     85  F   UNL A   1      38.022  33.982  39.995  1.00  0.00    -0.200 F 
ATOM     86  F   UNL A   1      39.372  36.350  40.075  1.00  0.00    -0.200 F 
ENDBRANCH  52  76
BRANCH  64  87
ATOM     87  C   UNL A   1      44.126  28.792  35.015  1.00  0.00     0.064 A 
ATOM     88  C   UNL A   1      44.012  27.707  35.895  1.00  0.00     0.173 A 
ATOM     89  C   UNL A   1      45.407  29.303  34.760  1.00  0.00     0.173 A 
ATOM     90  F   UNL A   1      42.806  27.193  36.182  1.00  0.00    -0.203 F 
ATOM     91  C   UNL A   1      45.138  27.168  36.512  1.00  0.00     0.198 A 
ATOM     92  C   UNL A   1      46.533  28.743  35.357  1.00  0.00     0.198 A 
ATOM     93  F   UNL A   1      45.568  30.337  33.920  1.00  0.00    -0.203 F 
ATOM     94  F   UNL A   1      45.002  26.159  37.384  1.00  0.00    -0.200 F 
ATOM     95  C   UNL A   1      46.397  27.682  36.237  1.00  0.00     0.200 A 
ATOM     96  F   UNL A   1      47.749  29.233  35.080  1.00  0.00    -0.200 F 
ATOM     97  F   UNL A   1      47.479  27.156  36.827  1.00  0.00    -0.200 F 
ENDBRANCH  64  87
ENDBRANCH  38  39
ENDBRANCH  30  33
ENDBRANCH  28  29
ENDBRANCH  27  28
ENDBRANCH   1  27
TORSDOF 17
ENDMDL
