MODEL 1
REMARK VINA RESULT:     -13.6      0.000      0.000
REMARK SMILES CC1(C)[C@@]2(C(=O)NCCCCNC(=O)c3ccc(-c4c5nc(c(-c6c(F)c(F)c(F)c(F)c6F)c6ccc([nH]6)c(-c6c(F)c(F)c(F)c(F)c6F)c6nc(c(-c7c(F)c(F)c(F)c(F)c7F)c7ccc4[nH]7)C=C6)C=C5)cc3)CC[C@]1(C)/C(=N/NC(=O)c1ccc(Cl)cc1)C2
REMARK SMILES IDX 9 1 8 2 7 3 5 4 6 5 4 7 1 8 2 9 3 10 80 11 78 12 94 13 79 14
REMARK SMILES IDX 81 15 82 16 83 17 84 18 85 19 86 21 87 22 88 23 93 24 89 25
REMARK SMILES IDX 92 26 90 27 91 28 10 29 11 30 12 31 13 32 14 34 15 35 16 36
REMARK SMILES IDX 77 37 17 38 76 39 18 40 19 41 20 42 70 43 21 44 75 45 69 46
REMARK SMILES IDX 71 47 22 48 74 49 68 50 67 51 23 53 55 54 35 55 54 56 36 57
REMARK SMILES IDX 39 58 53 59 72 60 37 61 38 62 52 64 73 65 40 66 24 67 25 68
REMARK SMILES IDX 33 69 26 70 27 71 31 72 34 73 28 74 29 75 32 76 30 77 56 78
REMARK SMILES IDX 57 79 65 80 58 81 59 82 63 83 66 84 60 85 61 86 64 87 62 88
REMARK SMILES IDX 41 89 42 90 50 91 43 92 44 93 48 94 51 95 45 96 46 97 49 98
REMARK SMILES IDX 47 99
REMARK H PARENT 7 6 84 20 12 33 71 52 39 63
REMARK Flexibility Score: inf
ROOT
ATOM      1  C   UNL A   1      39.955  21.245  26.168  1.00  0.00     0.023 C 
ENDROOT
BRANCH   1   2
ATOM      2  C   UNL A   1      38.538  21.309  25.592  1.00  0.00     0.116 C 
BRANCH   2   3
ATOM      3  N   UNL A   1      38.028  22.666  25.458  1.00  0.00    -0.356 N 
ATOM      4  C   UNL A   1      36.787  23.220  25.430  1.00  0.00     0.227 C 
ATOM      5  O   UNL A   1      36.760  24.396  25.811  1.00  0.00    -0.274 OA
ATOM      6  H   UNL A   1      38.746  23.335  25.367  1.00  0.00     0.163 HD
BRANCH   4   7
ATOM      7  C   UNL A   1      35.501  22.542  24.913  1.00  0.00     0.060 C 
ATOM      8  C   UNL A   1      34.441  22.086  27.290  1.00  0.00     0.013 C 
ATOM      9  C   UNL A   1      34.259  22.720  25.889  1.00  0.00    -0.010 C 
ATOM     10  C   UNL A   1      33.776  24.174  26.115  1.00  0.00     0.013 C 
ATOM     11  C   UNL A   1      33.303  21.910  24.964  1.00  0.00     0.014 C 
ATOM     12  C   UNL A   1      35.529  20.993  24.727  1.00  0.00     0.019 C 
ATOM     13  C   UNL A   1      34.955  23.163  23.592  1.00  0.00     0.071 C 
ATOM     14  C   UNL A   1      34.035  20.570  24.788  1.00  0.00     0.014 C 
ATOM     15  C   UNL A   1      31.846  21.824  25.386  1.00  0.00     0.018 C 
ATOM     16  C   UNL A   1      33.528  22.648  23.634  1.00  0.00     0.046 C 
ATOM     17  N   UNL A   1      32.545  22.766  22.796  1.00  0.00    -0.181 NA
BRANCH  17  18
ATOM     18  N   UNL A   1      32.617  23.564  21.698  1.00  0.00    -0.243 N 
ATOM     19  C   UNL A   1      32.846  24.924  21.658  1.00  0.00     0.271 C 
ATOM     20  H   UNL A   1      32.490  23.119  20.829  1.00  0.00     0.194 HD
ATOM     21  O   UNL A   1      33.248  25.484  20.641  1.00  0.00    -0.267 OA
BRANCH  19  22
ATOM     22  C   UNL A   1      32.477  25.742  22.813  1.00  0.00     0.041 A 
ATOM     23  C   UNL A   1      33.493  26.519  23.369  1.00  0.00     0.015 A 
ATOM     24  C   UNL A   1      31.174  25.788  23.310  1.00  0.00     0.015 A 
ATOM     25  C   UNL A   1      33.172  27.437  24.359  1.00  0.00     0.021 A 
ATOM     26  C   UNL A   1      30.857  26.733  24.289  1.00  0.00     0.021 A 
ATOM     27  C   UNL A   1      31.849  27.589  24.769  1.00  0.00     0.041 A 
ATOM     28  Cl  UNL A   1      31.434  28.892  25.814  1.00  0.00    -0.084 Cl
ENDBRANCH  19  22
ENDBRANCH  17  18
ENDBRANCH   4   7
ENDBRANCH   2   3
ENDBRANCH   1   2
BRANCH   1  29
ATOM     29  C   UNL A   1      40.715  19.915  26.120  1.00  0.00     0.023 C 
BRANCH  29  30
ATOM     30  C   UNL A   1      42.236  20.012  26.269  1.00  0.00     0.116 C 
BRANCH  30  31
ATOM     31  N   UNL A   1      43.019  19.170  25.363  1.00  0.00    -0.352 N 
ATOM     32  C   UNL A   1      44.169  19.502  24.668  1.00  0.00     0.251 C 
ATOM     33  H   UNL A   1      42.688  18.252  25.233  1.00  0.00     0.163 HD
ATOM     34  O   UNL A   1      44.726  18.698  23.929  1.00  0.00    -0.269 OA
BRANCH  32  35
ATOM     35  C   UNL A   1      44.680  20.883  24.785  1.00  0.00     0.039 A 
ATOM     36  C   UNL A   1      44.170  21.877  23.945  1.00  0.00     0.014 A 
ATOM     37  C   UNL A   1      45.523  21.209  25.846  1.00  0.00     0.014 A 
ATOM     38  C   UNL A   1      44.394  23.218  24.263  1.00  0.00     0.010 A 
ATOM     39  C   UNL A   1      45.648  22.538  26.222  1.00  0.00     0.010 A 
ATOM     40  C   UNL A   1      45.070  23.557  25.446  1.00  0.00    -0.014 A 
BRANCH  40  41
ATOM     41  C   UNL A   1      45.198  24.965  25.906  1.00  0.00     0.031 A 
ATOM     42  C   UNL A   1      46.539  25.643  25.837  1.00  0.00     0.074 A 
ATOM     43  C   UNL A   1      44.147  25.596  26.469  1.00  0.00     0.049 A 
ATOM     44  N   UNL A   1      46.908  26.805  26.313  1.00  0.00    -0.248 NA
ATOM     45  C   UNL A   1      47.626  24.890  25.189  1.00  0.00     0.031 C 
ATOM     46  C   UNL A   1      42.810  25.027  26.657  1.00  0.00     0.029 A 
ATOM     47  N   UNL A   1      44.043  26.858  27.002  1.00  0.00    -0.354 N 
ATOM     48  C   UNL A   1      48.265  26.906  26.041  1.00  0.00     0.074 A 
ATOM     49  C   UNL A   1      48.674  25.659  25.435  1.00  0.00     0.031 C 
ATOM     50  C   UNL A   1      42.014  25.948  27.228  1.00  0.00     0.029 A 
ATOM     51  C   UNL A   1      42.790  27.157  27.482  1.00  0.00     0.049 A 
ATOM     52  H   UNL A   1      44.797  27.490  27.037  1.00  0.00     0.167 HD
ATOM     53  C   UNL A   1      49.092  27.958  26.240  1.00  0.00     0.037 A 
ATOM     54  C   UNL A   1      42.325  28.281  28.060  1.00  0.00     0.037 A 
ATOM     55  C   UNL A   1      48.674  29.217  26.792  1.00  0.00     0.049 A 
ATOM     56  C   UNL A   1      43.263  29.447  28.247  1.00  0.00     0.074 A 
ATOM     57  C   UNL A   1      49.422  30.362  26.996  1.00  0.00     0.029 A 
ATOM     58  N   UNL A   1      47.382  29.498  27.211  1.00  0.00    -0.354 N 
ATOM     59  N   UNL A   1      44.532  29.549  27.934  1.00  0.00    -0.248 NA
ATOM     60  C   UNL A   1      42.699  30.660  28.859  1.00  0.00     0.031 C 
ATOM     61  C   UNL A   1      48.587  31.333  27.559  1.00  0.00     0.029 A 
ATOM     62  C   UNL A   1      47.311  30.803  27.669  1.00  0.00     0.049 A 
ATOM     63  H   UNL A   1      46.628  28.865  27.186  1.00  0.00     0.167 HD
ATOM     64  C   UNL A   1      44.905  30.843  28.272  1.00  0.00     0.074 A 
ATOM     65  C   UNL A   1      43.727  31.495  28.803  1.00  0.00     0.031 C 
ATOM     66  C   UNL A   1      46.116  31.440  28.157  1.00  0.00     0.037 A 
BRANCH  53  67
ATOM     67  C   UNL A   1      50.522  27.801  25.816  1.00  0.00     0.064 A 
ATOM     68  C   UNL A   1      50.907  27.973  24.477  1.00  0.00     0.173 A 
ATOM     69  C   UNL A   1      51.520  27.500  26.753  1.00  0.00     0.173 A 
ATOM     70  F   UNL A   1      49.987  28.244  23.539  1.00  0.00    -0.203 F 
ATOM     71  C   UNL A   1      52.234  27.818  24.088  1.00  0.00     0.198 A 
ATOM     72  C   UNL A   1      52.852  27.378  26.366  1.00  0.00     0.198 A 
ATOM     73  F   UNL A   1      51.205  27.327  28.045  1.00  0.00    -0.203 F 
ATOM     74  F   UNL A   1      52.569  27.934  22.794  1.00  0.00    -0.200 F 
ATOM     75  C   UNL A   1      53.207  27.530  25.032  1.00  0.00     0.200 A 
ATOM     76  F   UNL A   1      53.792  27.109  27.281  1.00  0.00    -0.200 F 
ATOM     77  F   UNL A   1      54.485  27.388  24.658  1.00  0.00    -0.200 F 
ENDBRANCH  53  67
BRANCH  54  78
ATOM     78  C   UNL A   1      40.899  28.392  28.473  1.00  0.00     0.064 A 
ATOM     79  C   UNL A   1      39.942  28.936  27.602  1.00  0.00     0.173 A 
ATOM     80  C   UNL A   1      40.471  28.010  29.753  1.00  0.00     0.173 A 
ATOM     81  F   UNL A   1      40.306  29.337  26.375  1.00  0.00    -0.203 F 
ATOM     82  C   UNL A   1      38.623  29.128  28.007  1.00  0.00     0.198 A 
ATOM     83  C   UNL A   1      39.142  28.175  30.146  1.00  0.00     0.198 A 
ATOM     84  F   UNL A   1      41.342  27.480  30.623  1.00  0.00    -0.203 F 
ATOM     85  F   UNL A   1      37.747  29.710  27.176  1.00  0.00    -0.200 F 
ATOM     86  C   UNL A   1      38.224  28.746  29.279  1.00  0.00     0.200 A 
ATOM     87  F   UNL A   1      38.758  27.795  31.372  1.00  0.00    -0.200 F 
ATOM     88  F   UNL A   1      36.957  28.941  29.673  1.00  0.00    -0.200 F 
ENDBRANCH  54  78
BRANCH  66  89
ATOM     89  C   UNL A   1      46.215  32.883  28.550  1.00  0.00     0.064 A 
ATOM     90  C   UNL A   1      45.981  33.915  27.630  1.00  0.00     0.173 A 
ATOM     91  C   UNL A   1      46.494  33.235  29.879  1.00  0.00     0.173 A 
ATOM     92  F   UNL A   1      45.724  33.627  26.345  1.00  0.00    -0.203 F 
ATOM     93  C   UNL A   1      46.046  35.249  28.022  1.00  0.00     0.198 A 
ATOM     94  C   UNL A   1      46.529  34.568  30.274  1.00  0.00     0.198 A 
ATOM     95  F   UNL A   1      46.716  32.283  30.798  1.00  0.00    -0.203 F 
ATOM     96  F   UNL A   1      45.862  36.220  27.117  1.00  0.00    -0.200 F 
ATOM     97  C   UNL A   1      46.312  35.574  29.344  1.00  0.00     0.200 A 
ATOM     98  F   UNL A   1      46.772  34.881  31.554  1.00  0.00    -0.200 F 
ATOM     99  F   UNL A   1      46.363  36.858  29.722  1.00  0.00    -0.200 F 
ENDBRANCH  66  89
ENDBRANCH  40  41
ENDBRANCH  32  35
ENDBRANCH  30  31
ENDBRANCH  29  30
ENDBRANCH   1  29
TORSDOF 13
ENDMDL
MODEL 2
REMARK VINA RESULT:     -13.4      5.140     10.706
REMARK SMILES CC1(C)[C@@]2(C(=O)NCCCCNC(=O)c3ccc(-c4c5nc(c(-c6c(F)c(F)c(F)c(F)c6F)c6ccc([nH]6)c(-c6c(F)c(F)c(F)c(F)c6F)c6nc(c(-c7c(F)c(F)c(F)c(F)c7F)c7ccc4[nH]7)C=C6)C=C5)cc3)CC[C@]1(C)/C(=N/NC(=O)c1ccc(Cl)cc1)C2
REMARK SMILES IDX 9 1 8 2 7 3 5 4 6 5 4 7 1 8 2 9 3 10 80 11 78 12 94 13 79 14
REMARK SMILES IDX 81 15 82 16 83 17 84 18 85 19 86 21 87 22 88 23 93 24 89 25
REMARK SMILES IDX 92 26 90 27 91 28 10 29 11 30 12 31 13 32 14 34 15 35 16 36
REMARK SMILES IDX 77 37 17 38 76 39 18 40 19 41 20 42 70 43 21 44 75 45 69 46
REMARK SMILES IDX 71 47 22 48 74 49 68 50 67 51 23 53 55 54 35 55 54 56 36 57
REMARK SMILES IDX 39 58 53 59 72 60 37 61 38 62 52 64 73 65 40 66 24 67 25 68
REMARK SMILES IDX 33 69 26 70 27 71 31 72 34 73 28 74 29 75 32 76 30 77 56 78
REMARK SMILES IDX 57 79 65 80 58 81 59 82 63 83 66 84 60 85 61 86 64 87 62 88
REMARK SMILES IDX 41 89 42 90 50 91 43 92 44 93 48 94 51 95 45 96 46 97 49 98
REMARK SMILES IDX 47 99
REMARK H PARENT 7 6 84 20 12 33 71 52 39 63
REMARK Flexibility Score: inf
ROOT
ATOM      1  C   UNL A   1      32.647  29.331  24.244  1.00  0.00     0.023 C 
ENDROOT
BRANCH   1   2
ATOM      2  C   UNL A   1      32.092  28.275  23.284  1.00  0.00     0.116 C 
BRANCH   2   3
ATOM      3  N   UNL A   1      33.118  27.403  22.728  1.00  0.00    -0.356 N 
ATOM      4  C   UNL A   1      33.477  26.108  22.925  1.00  0.00     0.227 C 
ATOM      5  O   UNL A   1      34.027  25.591  21.945  1.00  0.00    -0.274 OA
ATOM      6  H   UNL A   1      33.678  27.856  22.056  1.00  0.00     0.163 HD
BRANCH   4   7
ATOM      7  C   UNL A   1      33.322  25.310  24.238  1.00  0.00     0.060 C 
ATOM      8  C   UNL A   1      30.769  24.713  23.912  1.00  0.00     0.013 C 
ATOM      9  C   UNL A   1      32.203  24.185  24.162  1.00  0.00    -0.010 C 
ATOM     10  C   UNL A   1      32.448  23.051  23.137  1.00  0.00     0.013 C 
ATOM     11  C   UNL A   1      32.444  23.724  25.631  1.00  0.00     0.014 C 
ATOM     12  C   UNL A   1      32.883  26.099  25.510  1.00  0.00     0.019 C 
ATOM     13  C   UNL A   1      34.584  24.477  24.615  1.00  0.00     0.071 C 
ATOM     14  C   UNL A   1      32.266  25.019  26.440  1.00  0.00     0.014 C 
ATOM     15  C   UNL A   1      31.650  22.521  26.115  1.00  0.00     0.018 C 
ATOM     16  C   UNL A   1      33.963  23.499  25.596  1.00  0.00     0.046 C 
ATOM     17  N   UNL A   1      34.486  22.556  26.318  1.00  0.00    -0.181 NA
BRANCH  17  18
ATOM     18  N   UNL A   1      35.785  22.178  26.191  1.00  0.00    -0.243 N 
ATOM     19  C   UNL A   1      36.303  21.204  25.361  1.00  0.00     0.271 C 
ATOM     20  H   UNL A   1      36.433  22.655  26.758  1.00  0.00     0.194 HD
ATOM     21  O   UNL A   1      37.491  21.182  25.052  1.00  0.00    -0.267 OA
BRANCH  19  22
ATOM     22  C   UNL A   1      35.446  20.095  24.945  1.00  0.00     0.041 A 
ATOM     23  C   UNL A   1      36.074  18.862  24.769  1.00  0.00     0.015 A 
ATOM     24  C   UNL A   1      34.068  20.237  24.776  1.00  0.00     0.015 A 
ATOM     25  C   UNL A   1      35.295  17.738  24.534  1.00  0.00     0.021 A 
ATOM     26  C   UNL A   1      33.291  19.095  24.566  1.00  0.00     0.021 A 
ATOM     27  C   UNL A   1      33.906  17.844  24.500  1.00  0.00     0.041 A 
ATOM     28  Cl  UNL A   1      32.952  16.414  24.453  1.00  0.00    -0.084 Cl
ENDBRANCH  19  22
ENDBRANCH  17  18
ENDBRANCH   4   7
ENDBRANCH   2   3
ENDBRANCH   1   2
BRANCH   1  29
ATOM     29  C   UNL A   1      31.785  29.782  25.428  1.00  0.00     0.023 C 
BRANCH  29  30
ATOM     30  C   UNL A   1      32.548  30.182  26.693  1.00  0.00     0.116 C 
BRANCH  30  31
ATOM     31  N   UNL A   1      32.469  31.597  27.064  1.00  0.00    -0.352 N 
ATOM     32  C   UNL A   1      33.469  32.400  27.582  1.00  0.00     0.251 C 
ATOM     33  H   UNL A   1      31.596  32.031  26.927  1.00  0.00     0.163 HD
ATOM     34  O   UNL A   1      33.267  33.578  27.860  1.00  0.00    -0.269 OA
BRANCH  32  35
ATOM     35  C   UNL A   1      34.785  31.788  27.857  1.00  0.00     0.039 A 
ATOM     36  C   UNL A   1      35.904  32.609  28.015  1.00  0.00     0.014 A 
ATOM     37  C   UNL A   1      34.855  30.424  28.136  1.00  0.00     0.014 A 
ATOM     38  C   UNL A   1      37.061  32.081  28.593  1.00  0.00     0.010 A 
ATOM     39  C   UNL A   1      35.962  29.933  28.812  1.00  0.00     0.010 A 
ATOM     40  C   UNL A   1      37.070  30.759  29.066  1.00  0.00    -0.014 A 
BRANCH  40  41
ATOM     41  C   UNL A   1      38.220  30.201  29.825  1.00  0.00     0.031 A 
ATOM     42  C   UNL A   1      38.451  30.649  31.243  1.00  0.00     0.074 A 
ATOM     43  C   UNL A   1      39.102  29.381  29.220  1.00  0.00     0.049 A 
ATOM     44  N   UNL A   1      39.464  30.406  32.035  1.00  0.00    -0.248 NA
ATOM     45  C   UNL A   1      37.429  31.529  31.831  1.00  0.00     0.031 C 
ATOM     46  C   UNL A   1      39.030  28.923  27.830  1.00  0.00     0.029 A 
ATOM     47  N   UNL A   1      40.247  28.791  29.698  1.00  0.00    -0.354 N 
ATOM     48  C   UNL A   1      39.209  31.120  33.197  1.00  0.00     0.074 A 
ATOM     49  C   UNL A   1      37.991  31.869  32.980  1.00  0.00     0.031 C 
ATOM     50  C   UNL A   1      40.062  28.099  27.580  1.00  0.00     0.029 A 
ATOM     51  C   UNL A   1      40.891  27.998  28.777  1.00  0.00     0.049 A 
ATOM     52  H   UNL A   1      40.578  28.924  30.616  1.00  0.00     0.167 HD
ATOM     53  C   UNL A   1      39.901  31.123  34.359  1.00  0.00     0.037 A 
ATOM     54  C   UNL A   1      42.020  27.273  28.891  1.00  0.00     0.037 A 
ATOM     55  C   UNL A   1      41.081  30.337  34.594  1.00  0.00     0.049 A 
ATOM     56  C   UNL A   1      42.759  27.275  30.205  1.00  0.00     0.074 A 
ATOM     57  C   UNL A   1      41.835  30.233  35.749  1.00  0.00     0.029 A 
ATOM     58  N   UNL A   1      41.665  29.502  33.654  1.00  0.00    -0.354 N 
ATOM     59  N   UNL A   1      42.475  27.912  31.315  1.00  0.00    -0.248 NA
ATOM     60  C   UNL A   1      43.972  26.447  30.285  1.00  0.00     0.031 C 
ATOM     61  C   UNL A   1      42.890  29.349  35.502  1.00  0.00     0.029 A 
ATOM     62  C   UNL A   1      42.769  28.874  34.205  1.00  0.00     0.049 A 
ATOM     63  H   UNL A   1      41.344  29.373  32.732  1.00  0.00     0.167 HD
ATOM     64  C   UNL A   1      43.445  27.531  32.233  1.00  0.00     0.074 A 
ATOM     65  C   UNL A   1      44.320  26.598  31.555  1.00  0.00     0.031 C 
ATOM     66  C   UNL A   1      43.602  27.920  33.521  1.00  0.00     0.037 A 
BRANCH  53  67
ATOM     67  C   UNL A   1      39.372  31.972  35.476  1.00  0.00     0.064 A 
ATOM     68  C   UNL A   1      39.742  33.320  35.604  1.00  0.00     0.173 A 
ATOM     69  C   UNL A   1      38.472  31.446  36.413  1.00  0.00     0.173 A 
ATOM     70  F   UNL A   1      40.616  33.865  34.744  1.00  0.00    -0.203 F 
ATOM     71  C   UNL A   1      39.255  34.101  36.648  1.00  0.00     0.198 A 
ATOM     72  C   UNL A   1      37.961  32.239  37.437  1.00  0.00     0.198 A 
ATOM     73  F   UNL A   1      38.085  30.164  36.336  1.00  0.00    -0.203 F 
ATOM     74  F   UNL A   1      39.666  35.370  36.780  1.00  0.00    -0.200 F 
ATOM     75  C   UNL A   1      38.358  33.564  37.558  1.00  0.00     0.200 A 
ATOM     76  F   UNL A   1      37.086  31.722  38.311  1.00  0.00    -0.200 F 
ATOM     77  F   UNL A   1      37.883  34.319  38.558  1.00  0.00    -0.200 F 
ENDBRANCH  53  67
BRANCH  54  78
ATOM     78  C   UNL A   1      42.515  26.449  27.754  1.00  0.00     0.064 A 
ATOM     79  C   UNL A   1      43.469  26.961  26.860  1.00  0.00     0.173 A 
ATOM     80  C   UNL A   1      42.013  25.164  27.503  1.00  0.00     0.173 A 
ATOM     81  F   UNL A   1      43.963  28.194  27.044  1.00  0.00    -0.203 F 
ATOM     82  C   UNL A   1      43.874  26.236  25.742  1.00  0.00     0.198 A 
ATOM     83  C   UNL A   1      42.442  24.426  26.399  1.00  0.00     0.198 A 
ATOM     84  F   UNL A   1      41.104  24.624  28.327  1.00  0.00    -0.203 F 
ATOM     85  F   UNL A   1      44.737  26.777  24.872  1.00  0.00    -0.200 F 
ATOM     86  C   UNL A   1      43.361  24.968  25.513  1.00  0.00     0.200 A 
ATOM     87  F   UNL A   1      41.953  23.198  26.187  1.00  0.00    -0.200 F 
ATOM     88  F   UNL A   1      43.742  24.274  24.432  1.00  0.00    -0.200 F 
ENDBRANCH  54  78
BRANCH  66  89
ATOM     89  C   UNL A   1      44.718  27.293  34.301  1.00  0.00     0.064 A 
ATOM     90  C   UNL A   1      44.545  26.085  34.992  1.00  0.00     0.173 A 
ATOM     91  C   UNL A   1      45.990  27.883  34.310  1.00  0.00     0.173 A 
ATOM     92  F   UNL A   1      43.343  25.491  35.023  1.00  0.00    -0.203 F 
ATOM     93  C   UNL A   1      45.603  25.502  35.684  1.00  0.00     0.198 A 
ATOM     94  C   UNL A   1      47.053  27.282  34.979  1.00  0.00     0.198 A 
ATOM     95  F   UNL A   1      46.207  29.034  33.657  1.00  0.00    -0.203 F 
ATOM     96  F   UNL A   1      45.406  24.370  36.374  1.00  0.00    -0.200 F 
ATOM     97  C   UNL A   1      46.856  26.096  35.670  1.00  0.00     0.200 A 
ATOM     98  F   UNL A   1      48.266  27.850  34.953  1.00  0.00    -0.200 F 
ATOM     99  F   UNL A   1      47.876  25.528  36.328  1.00  0.00    -0.200 F 
ENDBRANCH  66  89
ENDBRANCH  40  41
ENDBRANCH  32  35
ENDBRANCH  30  31
ENDBRANCH  29  30
ENDBRANCH   1  29
TORSDOF 13
ENDMDL
MODEL 3
REMARK VINA RESULT:     -13.4      6.040     11.438
REMARK SMILES CC1(C)[C@@]2(C(=O)NCCCCNC(=O)c3ccc(-c4c5nc(c(-c6c(F)c(F)c(F)c(F)c6F)c6ccc([nH]6)c(-c6c(F)c(F)c(F)c(F)c6F)c6nc(c(-c7c(F)c(F)c(F)c(F)c7F)c7ccc4[nH]7)C=C6)C=C5)cc3)CC[C@]1(C)/C(=N/NC(=O)c1ccc(Cl)cc1)C2
REMARK SMILES IDX 9 1 8 2 7 3 5 4 6 5 4 7 1 8 2 9 3 10 80 11 78 12 94 13 79 14
REMARK SMILES IDX 81 15 82 16 83 17 84 18 85 19 86 21 87 22 88 23 93 24 89 25
REMARK SMILES IDX 92 26 90 27 91 28 10 29 11 30 12 31 13 32 14 34 15 35 16 36
REMARK SMILES IDX 77 37 17 38 76 39 18 40 19 41 20 42 70 43 21 44 75 45 69 46
REMARK SMILES IDX 71 47 22 48 74 49 68 50 67 51 23 53 55 54 35 55 54 56 36 57
REMARK SMILES IDX 39 58 53 59 72 60 37 61 38 62 52 64 73 65 40 66 24 67 25 68
REMARK SMILES IDX 33 69 26 70 27 71 31 72 34 73 28 74 29 75 32 76 30 77 56 78
REMARK SMILES IDX 57 79 65 80 58 81 59 82 63 83 66 84 60 85 61 86 64 87 62 88
REMARK SMILES IDX 41 89 42 90 50 91 43 92 44 93 48 94 51 95 45 96 46 97 49 98
REMARK SMILES IDX 47 99
REMARK H PARENT 7 6 84 20 12 33 71 52 39 63
REMARK Flexibility Score: inf
ROOT
ATOM      1  C   UNL A   1      32.369  30.192  27.205  1.00  0.00     0.023 C 
ENDROOT
BRANCH   1   2
ATOM      2  C   UNL A   1      33.748  29.633  26.846  1.00  0.00     0.116 C 
BRANCH   2   3
ATOM      3  N   UNL A   1      33.919  29.387  25.420  1.00  0.00    -0.356 N 
ATOM      4  C   UNL A   1      33.212  28.706  24.480  1.00  0.00     0.227 C 
ATOM      5  O   UNL A   1      33.375  29.134  23.331  1.00  0.00    -0.274 OA
ATOM      6  H   UNL A   1      34.730  29.810  25.056  1.00  0.00     0.163 HD
BRANCH   4   7
ATOM      7  C   UNL A   1      32.334  27.461  24.726  1.00  0.00     0.060 C 
ATOM      8  C   UNL A   1      31.071  27.536  22.407  1.00  0.00     0.013 C 
ATOM      9  C   UNL A   1      31.928  26.702  23.391  1.00  0.00    -0.010 C 
ATOM     10  C   UNL A   1      33.096  26.101  22.570  1.00  0.00     0.013 C 
ATOM     11  C   UNL A   1      31.112  25.615  24.153  1.00  0.00     0.014 C 
ATOM     12  C   UNL A   1      30.940  27.685  25.391  1.00  0.00     0.019 C 
ATOM     13  C   UNL A   1      33.058  26.334  25.523  1.00  0.00     0.071 C 
ATOM     14  C   UNL A   1      30.110  26.439  24.976  1.00  0.00     0.014 C 
ATOM     15  C   UNL A   1      30.524  24.487  23.320  1.00  0.00     0.018 C 
ATOM     16  C   UNL A   1      32.165  25.157  25.175  1.00  0.00     0.046 C 
ATOM     17  N   UNL A   1      32.186  23.917  25.556  1.00  0.00    -0.181 NA
BRANCH  17  18
ATOM     18  N   UNL A   1      33.199  23.403  26.302  1.00  0.00    -0.243 N 
ATOM     19  C   UNL A   1      33.937  22.264  26.053  1.00  0.00     0.271 C 
ATOM     20  H   UNL A   1      33.434  23.903  27.118  1.00  0.00     0.194 HD
ATOM     21  O   UNL A   1      35.039  22.081  26.565  1.00  0.00    -0.267 OA
BRANCH  19  22
ATOM     22  C   UNL A   1      33.339  21.187  25.266  1.00  0.00     0.041 A 
ATOM     23  C   UNL A   1      32.923  21.522  23.977  1.00  0.00     0.015 A 
ATOM     24  C   UNL A   1      33.228  19.882  25.748  1.00  0.00     0.015 A 
ATOM     25  C   UNL A   1      32.499  20.513  23.124  1.00  0.00     0.021 A 
ATOM     26  C   UNL A   1      32.824  18.871  24.873  1.00  0.00     0.021 A 
ATOM     27  C   UNL A   1      32.513  19.186  23.550  1.00  0.00     0.041 A 
ATOM     28  Cl  UNL A   1      32.220  17.931  22.409  1.00  0.00    -0.084 Cl
ENDBRANCH  19  22
ENDBRANCH  17  18
ENDBRANCH   4   7
ENDBRANCH   2   3
ENDBRANCH   1   2
BRANCH   1  29
ATOM     29  C   UNL A   1      32.052  31.654  26.870  1.00  0.00     0.023 C 
BRANCH  29  30
ATOM     30  C   UNL A   1      33.050  32.689  27.398  1.00  0.00     0.116 C 
BRANCH  30  31
ATOM     31  N   UNL A   1      32.496  34.010  27.701  1.00  0.00    -0.352 N 
ATOM     32  C   UNL A   1      32.969  34.947  28.602  1.00  0.00     0.251 C 
ATOM     33  H   UNL A   1      31.687  34.264  27.200  1.00  0.00     0.163 HD
ATOM     34  O   UNL A   1      32.401  36.021  28.767  1.00  0.00    -0.269 OA
BRANCH  32  35
ATOM     35  C   UNL A   1      34.148  34.597  29.419  1.00  0.00     0.039 A 
ATOM     36  C   UNL A   1      33.964  34.039  30.686  1.00  0.00     0.014 A 
ATOM     37  C   UNL A   1      35.416  34.657  28.843  1.00  0.00     0.014 A 
ATOM     38  C   UNL A   1      35.039  33.409  31.316  1.00  0.00     0.010 A 
ATOM     39  C   UNL A   1      36.451  33.933  29.418  1.00  0.00     0.010 A 
ATOM     40  C   UNL A   1      36.270  33.285  30.652  1.00  0.00    -0.014 A 
BRANCH  40  41
ATOM     41  C   UNL A   1      37.394  32.491  31.214  1.00  0.00     0.031 A 
ATOM     42  C   UNL A   1      37.928  32.835  32.578  1.00  0.00     0.074 A 
ATOM     43  C   UNL A   1      37.993  31.539  30.471  1.00  0.00     0.049 A 
ATOM     44  N   UNL A   1      38.985  32.374  33.196  1.00  0.00    -0.248 NA
ATOM     45  C   UNL A   1      37.202  33.874  33.327  1.00  0.00     0.031 C 
ATOM     46  C   UNL A   1      37.615  31.154  29.109  1.00  0.00     0.029 A 
ATOM     47  N   UNL A   1      39.062  30.723  30.756  1.00  0.00    -0.354 N 
ATOM     48  C   UNL A   1      39.059  33.083  34.387  1.00  0.00     0.074 A 
ATOM     49  C   UNL A   1      37.993  34.058  34.372  1.00  0.00     0.031 C 
ATOM     50  C   UNL A   1      38.415  30.156  28.693  1.00  0.00     0.029 A 
ATOM     51  C   UNL A   1      39.385  29.855  29.740  1.00  0.00     0.049 A 
ATOM     52  H   UNL A   1      39.551  30.758  31.610  1.00  0.00     0.167 HD
ATOM     53  C   UNL A   1      39.913  32.910  35.423  1.00  0.00     0.037 A 
ATOM     54  C   UNL A   1      40.355  28.924  29.668  1.00  0.00     0.037 A 
ATOM     55  C   UNL A   1      40.938  31.905  35.461  1.00  0.00     0.049 A 
ATOM     56  C   UNL A   1      41.277  28.736  30.846  1.00  0.00     0.074 A 
ATOM     57  C   UNL A   1      41.829  31.617  36.480  1.00  0.00     0.029 A 
ATOM     58  N   UNL A   1      41.194  31.007  34.436  1.00  0.00    -0.354 N 
ATOM     59  N   UNL A   1      41.300  29.376  31.990  1.00  0.00    -0.248 NA
ATOM     60  C   UNL A   1      42.302  27.688  30.726  1.00  0.00     0.031 C 
ATOM     61  C   UNL A   1      42.639  30.556  36.062  1.00  0.00     0.029 A 
ATOM     62  C   UNL A   1      42.227  30.160  34.800  1.00  0.00     0.049 A 
ATOM     63  H   UNL A   1      40.712  30.976  33.577  1.00  0.00     0.167 HD
ATOM     64  C   UNL A   1      42.309  28.783  32.738  1.00  0.00     0.074 A 
ATOM     65  C   UNL A   1      42.868  27.725  31.924  1.00  0.00     0.031 C 
ATOM     66  C   UNL A   1      42.739  29.089  33.987  1.00  0.00     0.037 A 
BRANCH  53  67
ATOM     67  C   UNL A   1      39.741  33.805  36.614  1.00  0.00     0.064 A 
ATOM     68  C   UNL A   1      40.371  35.057  36.681  1.00  0.00     0.173 A 
ATOM     69  C   UNL A   1      38.925  33.422  37.688  1.00  0.00     0.173 A 
ATOM     70  F   UNL A   1      41.177  35.462  35.687  1.00  0.00    -0.203 F 
ATOM     71  C   UNL A   1      40.216  35.880  37.793  1.00  0.00     0.198 A 
ATOM     72  C   UNL A   1      38.746  34.261  38.784  1.00  0.00     0.198 A 
ATOM     73  F   UNL A   1      38.299  32.236  37.674  1.00  0.00    -0.203 F 
ATOM     74  F   UNL A   1      40.871  37.047  37.857  1.00  0.00    -0.200 F 
ATOM     75  C   UNL A   1      39.397  35.486  38.839  1.00  0.00     0.200 A 
ATOM     76  F   UNL A   1      37.946  33.884  39.791  1.00  0.00    -0.200 F 
ATOM     77  F   UNL A   1      39.241  36.282  39.906  1.00  0.00    -0.200 F 
ENDBRANCH  53  67
BRANCH  54  78
ATOM     78  C   UNL A   1      40.495  28.061  28.462  1.00  0.00     0.064 A 
ATOM     79  C   UNL A   1      39.880  26.801  28.409  1.00  0.00     0.173 A 
ATOM     80  C   UNL A   1      41.281  28.448  27.367  1.00  0.00     0.173 A 
ATOM     81  F   UNL A   1      39.135  26.376  29.440  1.00  0.00    -0.203 F 
ATOM     82  C   UNL A   1      40.074  25.947  27.325  1.00  0.00     0.198 A 
ATOM     83  C   UNL A   1      41.451  27.603  26.269  1.00  0.00     0.198 A 
ATOM     84  F   UNL A   1      41.888  29.643  27.364  1.00  0.00    -0.203 F 
ATOM     85  F   UNL A   1      39.527  24.724  27.332  1.00  0.00    -0.200 F 
ATOM     86  C   UNL A   1      40.859  26.349  26.256  1.00  0.00     0.200 A 
ATOM     87  F   UNL A   1      42.201  28.000  25.233  1.00  0.00    -0.200 F 
ATOM     88  F   UNL A   1      41.056  25.524  25.218  1.00  0.00    -0.200 F 
ENDBRANCH  54  78
BRANCH  66  89
ATOM     89  C   UNL A   1      43.820  28.232  34.574  1.00  0.00     0.064 A 
ATOM     90  C   UNL A   1      45.172  28.593  34.492  1.00  0.00     0.173 A 
ATOM     91  C   UNL A   1      43.489  27.063  35.274  1.00  0.00     0.173 A 
ATOM     92  F   UNL A   1      45.537  29.695  33.820  1.00  0.00    -0.203 F 
ATOM     93  C   UNL A   1      46.158  27.799  35.071  1.00  0.00     0.198 A 
ATOM     94  C   UNL A   1      44.475  26.287  35.877  1.00  0.00     0.198 A 
ATOM     95  F   UNL A   1      42.209  26.681  35.388  1.00  0.00    -0.203 F 
ATOM     96  F   UNL A   1      47.448  28.139  34.943  1.00  0.00    -0.200 F 
ATOM     97  C   UNL A   1      45.808  26.652  35.769  1.00  0.00     0.200 A 
ATOM     98  F   UNL A   1      44.135  25.187  36.563  1.00  0.00    -0.200 F 
ATOM     99  F   UNL A   1      46.758  25.896  36.335  1.00  0.00    -0.200 F 
ENDBRANCH  66  89
ENDBRANCH  40  41
ENDBRANCH  32  35
ENDBRANCH  30  31
ENDBRANCH  29  30
ENDBRANCH   1  29
TORSDOF 13
ENDMDL
