MODEL 1
REMARK VINA RESULT:     -14.1      0.000      0.000
REMARK SMILES O=C(Nc1cccc(C(=O)NCCCCNC(=O)c2ccc(-c3c4nc(c(-c5c(F)c(F)c(F)c(F)c5F)c5ccc([nH]5)c(-c5c(F)c(F)c(F)c(F)c5F)c5nc(c(-c6c(F)c(F)c(F)c(F)c6F)c6ccc3[nH]6)C=C5)C=C4)cc2)c1)Nc1cc(Cl)c(Cl)cc1Cl
REMARK SMILES IDX 13 1 12 2 11 3 9 4 10 5 8 7 4 8 5 9 82 10 6 11 7 12 3 13
REMARK SMILES IDX 1 14 2 15 83 16 84 19 85 20 91 21 86 22 90 23 92 24 87 25
REMARK SMILES IDX 88 26 89 27 14 28 15 29 16 30 17 31 18 33 19 34 20 35 81 36
REMARK SMILES IDX 21 37 80 38 22 39 23 40 24 41 74 42 25 43 79 44 73 45 75 46
REMARK SMILES IDX 26 47 78 48 72 49 71 50 27 52 59 53 39 54 58 55 40 56 43 57
REMARK SMILES IDX 57 58 76 59 41 60 42 61 56 63 77 64 44 65 28 66 29 67 37 68
REMARK SMILES IDX 30 69 31 70 35 71 38 72 32 73 33 74 36 75 34 76 60 77 61 78
REMARK SMILES IDX 69 79 62 80 63 81 67 82 70 83 64 84 65 85 68 86 66 87 45 88
REMARK SMILES IDX 46 89 54 90 47 91 48 92 52 93 55 94 49 95 50 96 53 97 51 98
REMARK H PARENT 11 6 3 17 83 18 16 32 75 51 43 62
REMARK Flexibility Score: inf
ROOT
ATOM      1  C   UNL A   1      31.738  30.483  26.874  1.00  0.00     0.023 C 
ENDROOT
BRANCH   1   2
ATOM      2  C   UNL A   1      33.120  29.862  26.657  1.00  0.00     0.116 C 
BRANCH   2   3
ATOM      3  N   UNL A   1      33.419  29.736  25.246  1.00  0.00    -0.352 N 
ATOM      4  C   UNL A   1      32.871  28.996  24.229  1.00  0.00     0.251 C 
ATOM      5  O   UNL A   1      33.378  29.138  23.115  1.00  0.00    -0.269 OA
ATOM      6  H   UNL A   1      34.171  30.301  24.955  1.00  0.00     0.163 HD
BRANCH   4   7
ATOM      7  C   UNL A   1      31.701  28.072  24.374  1.00  0.00     0.041 A 
ATOM      8  C   UNL A   1      30.437  26.255  25.402  1.00  0.00     0.043 A 
ATOM      9  C   UNL A   1      29.416  26.414  24.469  1.00  0.00     0.026 A 
ATOM     10  C   UNL A   1      31.594  27.039  25.306  1.00  0.00     0.040 A 
ATOM     11  C   UNL A   1      29.511  27.422  23.512  1.00  0.00     0.003 A 
ATOM     12  C   UNL A   1      30.635  28.253  23.477  1.00  0.00     0.014 A 
BRANCH   8  13
ATOM     13  N   UNL A   1      30.283  25.287  26.410  1.00  0.00    -0.308 N 
ATOM     14  O   UNL A   1      30.323  23.222  27.306  1.00  0.00    -0.248 OA
ATOM     15  C   UNL A   1      30.748  23.991  26.450  1.00  0.00     0.323 C 
ATOM     16  N   UNL A   1      31.813  23.733  25.617  1.00  0.00    -0.306 N 
ATOM     17  H   UNL A   1      29.770  25.576  27.199  1.00  0.00     0.171 HD
ATOM     18  H   UNL A   1      32.167  24.492  25.101  1.00  0.00     0.171 HD
BRANCH  16  19
ATOM     19  C   UNL A   1      32.447  22.485  25.431  1.00  0.00     0.063 A 
ATOM     20  C   UNL A   1      32.050  21.767  24.292  1.00  0.00     0.049 A 
ATOM     21  C   UNL A   1      33.394  21.910  26.296  1.00  0.00     0.066 A 
ATOM     22  C   UNL A   1      32.644  20.542  23.971  1.00  0.00     0.061 A 
ATOM     23  C   UNL A   1      33.984  20.680  25.975  1.00  0.00     0.044 A 
ATOM     24  Cl  UNL A   1      33.744  22.542  27.867  1.00  0.00    -0.082 Cl
ATOM     25  Cl  UNL A   1      32.116  19.752  22.527  1.00  0.00    -0.083 Cl
ATOM     26  C   UNL A   1      33.626  20.005  24.806  1.00  0.00     0.061 A 
ATOM     27  Cl  UNL A   1      34.403  18.501  24.467  1.00  0.00    -0.083 Cl
ENDBRANCH  16  19
ENDBRANCH   8  13
ENDBRANCH   4   7
ENDBRANCH   2   3
ENDBRANCH   1   2
BRANCH   1  28
ATOM     28  C   UNL A   1      31.676  31.990  26.613  1.00  0.00     0.023 C 
BRANCH  28  29
ATOM     29  C   UNL A   1      32.776  32.802  27.289  1.00  0.00     0.116 C 
BRANCH  29  30
ATOM     30  N   UNL A   1      32.379  34.157  27.636  1.00  0.00    -0.352 N 
ATOM     31  C   UNL A   1      32.953  34.993  28.565  1.00  0.00     0.251 C 
ATOM     32  H   UNL A   1      31.607  34.521  27.146  1.00  0.00     0.163 HD
ATOM     33  O   UNL A   1      32.475  36.095  28.798  1.00  0.00    -0.269 OA
BRANCH  31  34
ATOM     34  C   UNL A   1      34.133  34.516  29.320  1.00  0.00     0.039 A 
ATOM     35  C   UNL A   1      33.935  33.904  30.560  1.00  0.00     0.014 A 
ATOM     36  C   UNL A   1      35.416  34.629  28.781  1.00  0.00     0.014 A 
ATOM     37  C   UNL A   1      35.022  33.342  31.233  1.00  0.00     0.010 A 
ATOM     38  C   UNL A   1      36.487  34.015  29.423  1.00  0.00     0.010 A 
ATOM     39  C   UNL A   1      36.301  33.365  30.652  1.00  0.00    -0.014 A 
BRANCH  39  40
ATOM     40  C   UNL A   1      37.459  32.716  31.317  1.00  0.00     0.031 A 
ATOM     41  C   UNL A   1      38.169  31.577  30.641  1.00  0.00     0.074 A 
ATOM     42  C   UNL A   1      37.825  33.104  32.553  1.00  0.00     0.049 A 
ATOM     43  N   UNL A   1      39.138  30.820  31.091  1.00  0.00    -0.248 NA
ATOM     44  C   UNL A   1      37.709  31.222  29.289  1.00  0.00     0.031 C 
ATOM     45  C   UNL A   1      37.184  34.163  33.333  1.00  0.00     0.029 A 
ATOM     46  N   UNL A   1      38.819  32.638  33.379  1.00  0.00    -0.354 N 
ATOM     47  C   UNL A   1      39.390  29.894  30.089  1.00  0.00     0.074 A 
ATOM     48  C   UNL A   1      38.441  30.150  29.026  1.00  0.00     0.031 C 
ATOM     49  C   UNL A   1      37.809  34.276  34.518  1.00  0.00     0.029 A 
ATOM     50  C   UNL A   1      38.871  33.278  34.593  1.00  0.00     0.049 A 
ATOM     51  H   UNL A   1      39.435  31.913  33.125  1.00  0.00     0.167 HD
ATOM     52  C   UNL A   1      40.341  28.931  30.048  1.00  0.00     0.037 A 
ATOM     53  C   UNL A   1      39.683  33.077  35.649  1.00  0.00     0.037 A 
ATOM     54  C   UNL A   1      41.305  28.699  31.090  1.00  0.00     0.049 A 
ATOM     55  C   UNL A   1      40.743  32.012  35.570  1.00  0.00     0.074 A 
ATOM     56  C   UNL A   1      42.341  27.782  31.120  1.00  0.00     0.029 A 
ATOM     57  N   UNL A   1      41.353  29.397  32.288  1.00  0.00    -0.354 N 
ATOM     58  N   UNL A   1      41.008  31.180  34.592  1.00  0.00    -0.248 NA
ATOM     59  C   UNL A   1      41.622  31.863  36.738  1.00  0.00     0.031 C 
ATOM     60  C   UNL A   1      42.999  27.905  32.348  1.00  0.00     0.029 A 
ATOM     61  C   UNL A   1      42.396  28.924  33.067  1.00  0.00     0.049 A 
ATOM     62  H   UNL A   1      40.737  30.120  32.545  1.00  0.00     0.167 HD
ATOM     63  C   UNL A   1      42.098  30.431  35.015  1.00  0.00     0.074 A 
ATOM     64  C   UNL A   1      42.454  30.915  36.332  1.00  0.00     0.031 C 
ATOM     65  C   UNL A   1      42.745  29.430  34.370  1.00  0.00     0.037 A 
BRANCH  52  66
ATOM     66  C   UNL A   1      40.394  28.062  28.827  1.00  0.00     0.064 A 
ATOM     67  C   UNL A   1      41.150  28.425  27.703  1.00  0.00     0.173 A 
ATOM     68  C   UNL A   1      39.714  26.836  28.793  1.00  0.00     0.173 A 
ATOM     69  F   UNL A   1      41.808  29.595  27.682  1.00  0.00    -0.203 F 
ATOM     70  C   UNL A   1      41.204  27.605  26.580  1.00  0.00     0.198 A 
ATOM     71  C   UNL A   1      39.792  26.004  27.679  1.00  0.00     0.198 A 
ATOM     72  F   UNL A   1      38.979  26.439  29.844  1.00  0.00    -0.203 F 
ATOM     73  F   UNL A   1      41.898  27.993  25.500  1.00  0.00    -0.200 F 
ATOM     74  C   UNL A   1      40.531  26.392  26.571  1.00  0.00     0.200 A 
ATOM     75  F   UNL A   1      39.150  24.828  27.676  1.00  0.00    -0.200 F 
ATOM     76  F   UNL A   1      40.591  25.600  25.492  1.00  0.00    -0.200 F 
ENDBRANCH  52  66
BRANCH  53  77
ATOM     77  C   UNL A   1      39.544  33.919  36.865  1.00  0.00     0.064 A 
ATOM     78  C   UNL A   1      38.774  33.487  37.953  1.00  0.00     0.173 A 
ATOM     79  C   UNL A   1      40.164  35.173  36.961  1.00  0.00     0.173 A 
ATOM     80  F   UNL A   1      38.144  32.304  37.900  1.00  0.00    -0.203 F 
ATOM     81  C   UNL A   1      38.609  34.287  39.081  1.00  0.00     0.198 A 
ATOM     82  C   UNL A   1      40.020  35.962  38.100  1.00  0.00     0.198 A 
ATOM     83  F   UNL A   1      40.915  35.629  35.948  1.00  0.00    -0.203 F 
ATOM     84  F   UNL A   1      37.828  33.869  40.088  1.00  0.00    -0.200 F 
ATOM     85  C   UNL A   1      39.235  35.522  39.156  1.00  0.00     0.200 A 
ATOM     86  F   UNL A   1      40.636  37.149  38.173  1.00  0.00    -0.200 F 
ATOM     87  F   UNL A   1      39.076  36.292  40.241  1.00  0.00    -0.200 F 
ENDBRANCH  53  77
BRANCH  65  88
ATOM     88  C   UNL A   1      43.927  28.817  35.060  1.00  0.00     0.064 A 
ATOM     89  C   UNL A   1      43.789  27.704  35.901  1.00  0.00     0.173 A 
ATOM     90  C   UNL A   1      45.217  29.325  34.843  1.00  0.00     0.173 A 
ATOM     91  F   UNL A   1      42.574  27.193  36.151  1.00  0.00    -0.203 F 
ATOM     92  C   UNL A   1      44.899  27.132  36.517  1.00  0.00     0.198 A 
ATOM     93  C   UNL A   1      46.327  28.734  35.439  1.00  0.00     0.198 A 
ATOM     94  F   UNL A   1      45.399  30.386  34.043  1.00  0.00    -0.203 F 
ATOM     95  F   UNL A   1      44.741  26.093  37.349  1.00  0.00    -0.200 F 
ATOM     96  C   UNL A   1      46.167  27.643  36.280  1.00  0.00     0.200 A 
ATOM     97  F   UNL A   1      47.553  29.223  35.201  1.00  0.00    -0.200 F 
ATOM     98  F   UNL A   1      47.235  27.087  36.867  1.00  0.00    -0.200 F 
ENDBRANCH  65  88
ENDBRANCH  39  40
ENDBRANCH  31  34
ENDBRANCH  29  30
ENDBRANCH  28  29
ENDBRANCH   1  28
TORSDOF 13
ENDMDL
MODEL 2
REMARK VINA RESULT:     -14.1      0.901      1.657
REMARK SMILES O=C(Nc1cccc(C(=O)NCCCCNC(=O)c2ccc(-c3c4nc(c(-c5c(F)c(F)c(F)c(F)c5F)c5ccc([nH]5)c(-c5c(F)c(F)c(F)c(F)c5F)c5nc(c(-c6c(F)c(F)c(F)c(F)c6F)c6ccc3[nH]6)C=C5)C=C4)cc2)c1)Nc1cc(Cl)c(Cl)cc1Cl
REMARK SMILES IDX 13 1 12 2 11 3 9 4 10 5 8 7 4 8 5 9 82 10 6 11 7 12 3 13
REMARK SMILES IDX 1 14 2 15 83 16 84 19 85 20 91 21 86 22 90 23 92 24 87 25
REMARK SMILES IDX 88 26 89 27 14 28 15 29 16 30 17 31 18 33 19 34 20 35 81 36
REMARK SMILES IDX 21 37 80 38 22 39 23 40 24 41 74 42 25 43 79 44 73 45 75 46
REMARK SMILES IDX 26 47 78 48 72 49 71 50 27 52 59 53 39 54 58 55 40 56 43 57
REMARK SMILES IDX 57 58 76 59 41 60 42 61 56 63 77 64 44 65 28 66 29 67 37 68
REMARK SMILES IDX 30 69 31 70 35 71 38 72 32 73 33 74 36 75 34 76 60 77 61 78
REMARK SMILES IDX 69 79 62 80 63 81 67 82 70 83 64 84 65 85 68 86 66 87 45 88
REMARK SMILES IDX 46 89 54 90 47 91 48 92 52 93 55 94 49 95 50 96 53 97 51 98
REMARK H PARENT 11 6 3 17 83 18 16 32 75 51 43 62
REMARK Flexibility Score: inf
ROOT
ATOM      1  C   UNL A   1      31.835  30.424  26.784  1.00  0.00     0.023 C 
ENDROOT
BRANCH   1   2
ATOM      2  C   UNL A   1      33.186  29.934  26.257  1.00  0.00     0.116 C 
BRANCH   2   3
ATOM      3  N   UNL A   1      33.158  29.777  24.817  1.00  0.00    -0.352 N 
ATOM      4  C   UNL A   1      32.545  28.880  23.979  1.00  0.00     0.251 C 
ATOM      5  O   UNL A   1      32.732  29.045  22.772  1.00  0.00    -0.269 OA
ATOM      6  H   UNL A   1      33.688  30.457  24.341  1.00  0.00     0.163 HD
BRANCH   4   7
ATOM      7  C   UNL A   1      31.657  27.759  24.422  1.00  0.00     0.041 A 
ATOM      8  C   UNL A   1      31.066  25.812  25.770  1.00  0.00     0.043 A 
ATOM      9  C   UNL A   1      29.849  25.699  25.103  1.00  0.00     0.026 A 
ATOM     10  C   UNL A   1      31.982  26.797  25.380  1.00  0.00     0.040 A 
ATOM     11  C   UNL A   1      29.513  26.631  24.124  1.00  0.00     0.003 A 
ATOM     12  C   UNL A   1      30.401  27.660  23.801  1.00  0.00     0.014 A 
BRANCH   8  13
ATOM     13  N   UNL A   1      31.349  24.911  26.811  1.00  0.00    -0.308 N 
ATOM     14  O   UNL A   1      32.107  23.001  27.734  1.00  0.00    -0.248 OA
ATOM     15  C   UNL A   1      32.159  23.796  26.801  1.00  0.00     0.323 C 
ATOM     16  N   UNL A   1      33.108  23.781  25.804  1.00  0.00    -0.306 N 
ATOM     17  H   UNL A   1      30.907  25.103  27.669  1.00  0.00     0.171 HD
ATOM     18  H   UNL A   1      33.150  24.570  25.218  1.00  0.00     0.171 HD
BRANCH  16  19
ATOM     19  C   UNL A   1      34.029  22.742  25.541  1.00  0.00     0.063 A 
ATOM     20  C   UNL A   1      35.382  23.077  25.701  1.00  0.00     0.049 A 
ATOM     21  C   UNL A   1      33.699  21.446  25.109  1.00  0.00     0.066 A 
ATOM     22  C   UNL A   1      36.386  22.120  25.521  1.00  0.00     0.061 A 
ATOM     23  C   UNL A   1      34.707  20.490  24.925  1.00  0.00     0.044 A 
ATOM     24  Cl  UNL A   1      32.112  20.998  24.590  1.00  0.00    -0.082 Cl
ATOM     25  Cl  UNL A   1      38.021  22.618  25.778  1.00  0.00    -0.083 Cl
ATOM     26  C   UNL A   1      36.047  20.818  25.147  1.00  0.00     0.061 A 
ATOM     27  Cl  UNL A   1      37.234  19.586  24.913  1.00  0.00    -0.083 Cl
ENDBRANCH  16  19
ENDBRANCH   8  13
ENDBRANCH   4   7
ENDBRANCH   2   3
ENDBRANCH   1   2
BRANCH   1  28
ATOM     28  C   UNL A   1      31.640  31.941  26.703  1.00  0.00     0.023 C 
BRANCH  28  29
ATOM     29  C   UNL A   1      32.756  32.764  27.337  1.00  0.00     0.116 C 
BRANCH  29  30
ATOM     30  N   UNL A   1      32.370  34.128  27.661  1.00  0.00    -0.352 N 
ATOM     31  C   UNL A   1      32.949  34.973  28.579  1.00  0.00     0.251 C 
ATOM     32  H   UNL A   1      31.602  34.491  27.164  1.00  0.00     0.163 HD
ATOM     33  O   UNL A   1      32.480  36.083  28.793  1.00  0.00    -0.269 OA
BRANCH  31  34
ATOM     34  C   UNL A   1      34.122  34.498  29.344  1.00  0.00     0.039 A 
ATOM     35  C   UNL A   1      33.913  33.870  30.573  1.00  0.00     0.014 A 
ATOM     36  C   UNL A   1      35.412  34.629  28.824  1.00  0.00     0.014 A 
ATOM     37  C   UNL A   1      34.996  33.310  31.255  1.00  0.00     0.010 A 
ATOM     38  C   UNL A   1      36.480  34.018  29.473  1.00  0.00     0.010 A 
ATOM     39  C   UNL A   1      36.283  33.351  30.693  1.00  0.00    -0.014 A 
BRANCH  39  40
ATOM     40  C   UNL A   1      37.438  32.705  31.365  1.00  0.00     0.031 A 
ATOM     41  C   UNL A   1      38.144  31.555  30.703  1.00  0.00     0.074 A 
ATOM     42  C   UNL A   1      37.805  33.105  32.598  1.00  0.00     0.049 A 
ATOM     43  N   UNL A   1      39.109  30.799  31.163  1.00  0.00    -0.248 NA
ATOM     44  C   UNL A   1      37.682  31.187  29.355  1.00  0.00     0.031 C 
ATOM     45  C   UNL A   1      37.168  34.175  33.365  1.00  0.00     0.029 A 
ATOM     46  N   UNL A   1      38.796  32.644  33.429  1.00  0.00    -0.354 N 
ATOM     47  C   UNL A   1      39.357  29.861  30.171  1.00  0.00     0.074 A 
ATOM     48  C   UNL A   1      38.411  30.109  29.104  1.00  0.00     0.031 C 
ATOM     49  C   UNL A   1      37.792  34.299  34.548  1.00  0.00     0.029 A 
ATOM     50  C   UNL A   1      38.850  33.298  34.635  1.00  0.00     0.049 A 
ATOM     51  H   UNL A   1      39.409  31.914  33.184  1.00  0.00     0.167 HD
ATOM     52  C   UNL A   1      40.304  28.893  30.142  1.00  0.00     0.037 A 
ATOM     53  C   UNL A   1      39.660  33.106  35.694  1.00  0.00     0.037 A 
ATOM     54  C   UNL A   1      41.266  28.669  31.187  1.00  0.00     0.049 A 
ATOM     55  C   UNL A   1      40.715  32.035  35.629  1.00  0.00     0.074 A 
ATOM     56  C   UNL A   1      42.299  27.748  31.228  1.00  0.00     0.029 A 
ATOM     57  N   UNL A   1      41.317  29.380  32.377  1.00  0.00    -0.354 N 
ATOM     58  N   UNL A   1      40.978  31.191  34.661  1.00  0.00    -0.248 NA
ATOM     59  C   UNL A   1      41.593  31.896  36.799  1.00  0.00     0.031 C 
ATOM     60  C   UNL A   1      42.957  27.882  32.456  1.00  0.00     0.029 A 
ATOM     61  C   UNL A   1      42.357  28.912  33.163  1.00  0.00     0.049 A 
ATOM     62  H   UNL A   1      40.704  30.109  32.626  1.00  0.00     0.167 HD
ATOM     63  C   UNL A   1      42.064  30.442  35.092  1.00  0.00     0.074 A 
ATOM     64  C   UNL A   1      42.421  30.940  36.404  1.00  0.00     0.031 C 
ATOM     65  C   UNL A   1      42.708  29.431  34.459  1.00  0.00     0.037 A 
BRANCH  52  66
ATOM     66  C   UNL A   1      40.355  28.010  28.930  1.00  0.00     0.064 A 
ATOM     67  C   UNL A   1      41.112  28.358  27.802  1.00  0.00     0.173 A 
ATOM     68  C   UNL A   1      39.670  26.786  28.910  1.00  0.00     0.173 A 
ATOM     69  F   UNL A   1      41.774  29.525  27.768  1.00  0.00    -0.203 F 
ATOM     70  C   UNL A   1      41.163  27.525  26.689  1.00  0.00     0.198 A 
ATOM     71  C   UNL A   1      39.746  25.942  27.806  1.00  0.00     0.198 A 
ATOM     72  F   UNL A   1      38.935  26.404  29.966  1.00  0.00    -0.203 F 
ATOM     73  F   UNL A   1      41.859  27.898  25.605  1.00  0.00    -0.200 F 
ATOM     74  C   UNL A   1      40.486  26.314  26.694  1.00  0.00     0.200 A 
ATOM     75  F   UNL A   1      39.100  24.768  27.816  1.00  0.00    -0.200 F 
ATOM     76  F   UNL A   1      40.544  25.509  25.624  1.00  0.00    -0.200 F 
ENDBRANCH  52  66
BRANCH  53  77
ATOM     77  C   UNL A   1      39.524  33.962  36.901  1.00  0.00     0.064 A 
ATOM     78  C   UNL A   1      38.774  33.533  38.005  1.00  0.00     0.173 A 
ATOM     79  C   UNL A   1      40.126  35.226  36.972  1.00  0.00     0.173 A 
ATOM     80  F   UNL A   1      38.162  32.340  37.975  1.00  0.00    -0.203 F 
ATOM     81  C   UNL A   1      38.612  34.346  39.124  1.00  0.00     0.198 A 
ATOM     82  C   UNL A   1      39.984  36.028  38.102  1.00  0.00     0.198 A 
ATOM     83  F   UNL A   1      40.857  35.680  35.943  1.00  0.00    -0.203 F 
ATOM     84  F   UNL A   1      37.850  33.930  40.146  1.00  0.00    -0.200 F 
ATOM     85  C   UNL A   1      39.220  35.591  39.174  1.00  0.00     0.200 A 
ATOM     86  F   UNL A   1      40.583  37.226  38.151  1.00  0.00    -0.200 F 
ATOM     87  F   UNL A   1      39.063  36.373  40.251  1.00  0.00    -0.200 F 
ENDBRANCH  53  77
BRANCH  65  88
ATOM     88  C   UNL A   1      43.886  28.821  35.158  1.00  0.00     0.064 A 
ATOM     89  C   UNL A   1      45.191  29.277  34.928  1.00  0.00     0.173 A 
ATOM     90  C   UNL A   1      43.700  27.798  36.099  1.00  0.00     0.173 A 
ATOM     91  F   UNL A   1      45.420  30.243  34.026  1.00  0.00    -0.203 F 
ATOM     92  C   UNL A   1      46.273  28.716  35.602  1.00  0.00     0.198 A 
ATOM     93  C   UNL A   1      44.781  27.257  36.790  1.00  0.00     0.198 A 
ATOM     94  F   UNL A   1      42.469  27.331  36.356  1.00  0.00    -0.203 F 
ATOM     95  F   UNL A   1      47.517  29.138  35.339  1.00  0.00    -0.200 F 
ATOM     96  C   UNL A   1      46.066  27.712  36.537  1.00  0.00     0.200 A 
ATOM     97  F   UNL A   1      44.578  26.294  37.700  1.00  0.00    -0.200 F 
ATOM     98  F   UNL A   1      47.107  27.178  37.190  1.00  0.00    -0.200 F 
ENDBRANCH  65  88
ENDBRANCH  39  40
ENDBRANCH  31  34
ENDBRANCH  29  30
ENDBRANCH  28  29
ENDBRANCH   1  28
TORSDOF 13
ENDMDL
MODEL 3
REMARK VINA RESULT:     -14.1      0.124      1.571
REMARK SMILES O=C(Nc1cccc(C(=O)NCCCCNC(=O)c2ccc(-c3c4nc(c(-c5c(F)c(F)c(F)c(F)c5F)c5ccc([nH]5)c(-c5c(F)c(F)c(F)c(F)c5F)c5nc(c(-c6c(F)c(F)c(F)c(F)c6F)c6ccc3[nH]6)C=C5)C=C4)cc2)c1)Nc1cc(Cl)c(Cl)cc1Cl
REMARK SMILES IDX 13 1 12 2 11 3 9 4 10 5 8 7 4 8 5 9 82 10 6 11 7 12 3 13
REMARK SMILES IDX 1 14 2 15 83 16 84 19 85 20 91 21 86 22 90 23 92 24 87 25
REMARK SMILES IDX 88 26 89 27 14 28 15 29 16 30 17 31 18 33 19 34 20 35 81 36
REMARK SMILES IDX 21 37 80 38 22 39 23 40 24 41 74 42 25 43 79 44 73 45 75 46
REMARK SMILES IDX 26 47 78 48 72 49 71 50 27 52 59 53 39 54 58 55 40 56 43 57
REMARK SMILES IDX 57 58 76 59 41 60 42 61 56 63 77 64 44 65 28 66 29 67 37 68
REMARK SMILES IDX 30 69 31 70 35 71 38 72 32 73 33 74 36 75 34 76 60 77 61 78
REMARK SMILES IDX 69 79 62 80 63 81 67 82 70 83 64 84 65 85 68 86 66 87 45 88
REMARK SMILES IDX 46 89 54 90 47 91 48 92 52 93 55 94 49 95 50 96 53 97 51 98
REMARK H PARENT 11 6 3 17 83 18 16 32 75 51 43 62
REMARK Flexibility Score: inf
ROOT
ATOM      1  C   UNL A   1      31.798  30.435  26.896  1.00  0.00     0.023 C 
ENDROOT
BRANCH   1   2
ATOM      2  C   UNL A   1      33.203  29.876  26.655  1.00  0.00     0.116 C 
BRANCH   2   3
ATOM      3  N   UNL A   1      33.477  29.747  25.238  1.00  0.00    -0.352 N 
ATOM      4  C   UNL A   1      32.918  28.996  24.235  1.00  0.00     0.251 C 
ATOM      5  O   UNL A   1      33.402  29.139  23.111  1.00  0.00    -0.269 OA
ATOM      6  H   UNL A   1      34.217  30.319  24.931  1.00  0.00     0.163 HD
BRANCH   4   7
ATOM      7  C   UNL A   1      31.762  28.060  24.406  1.00  0.00     0.041 A 
ATOM      8  C   UNL A   1      30.538  26.233  25.466  1.00  0.00     0.043 A 
ATOM      9  C   UNL A   1      29.498  26.376  24.552  1.00  0.00     0.026 A 
ATOM     10  C   UNL A   1      31.685  27.029  25.345  1.00  0.00     0.040 A 
ATOM     11  C   UNL A   1      29.564  27.380  23.588  1.00  0.00     0.003 A 
ATOM     12  C   UNL A   1      30.677  28.223  23.529  1.00  0.00     0.014 A 
BRANCH   8  13
ATOM     13  N   UNL A   1      30.414  25.268  26.482  1.00  0.00    -0.308 N 
ATOM     14  O   UNL A   1      30.480  23.206  27.383  1.00  0.00    -0.248 OA
ATOM     15  C   UNL A   1      30.879  23.972  26.511  1.00  0.00     0.323 C 
ATOM     16  N   UNL A   1      31.917  23.710  25.646  1.00  0.00    -0.306 N 
ATOM     17  H   UNL A   1      29.927  25.561  27.286  1.00  0.00     0.171 HD
ATOM     18  H   UNL A   1      32.256  24.467  25.117  1.00  0.00     0.171 HD
BRANCH  16  19
ATOM     19  C   UNL A   1      32.543  22.460  25.444  1.00  0.00     0.063 A 
ATOM     20  C   UNL A   1      32.105  21.736  24.325  1.00  0.00     0.049 A 
ATOM     21  C   UNL A   1      33.521  21.890  26.278  1.00  0.00     0.066 A 
ATOM     22  C   UNL A   1      32.686  20.509  23.989  1.00  0.00     0.061 A 
ATOM     23  C   UNL A   1      34.098  20.658  25.943  1.00  0.00     0.044 A 
ATOM     24  Cl  UNL A   1      33.927  22.530  27.832  1.00  0.00    -0.082 Cl
ATOM     25  Cl  UNL A   1      32.107  19.711  22.570  1.00  0.00    -0.083 Cl
ATOM     26  C   UNL A   1      33.698  19.976  24.791  1.00  0.00     0.061 A 
ATOM     27  Cl  UNL A   1      34.461  18.469  24.433  1.00  0.00    -0.083 Cl
ENDBRANCH  16  19
ENDBRANCH   8  13
ENDBRANCH   4   7
ENDBRANCH   2   3
ENDBRANCH   1   2
BRANCH   1  28
ATOM     28  C   UNL A   1      31.678  31.948  26.690  1.00  0.00     0.023 C 
BRANCH  28  29
ATOM     29  C   UNL A   1      32.785  32.771  27.340  1.00  0.00     0.116 C 
BRANCH  29  30
ATOM     30  N   UNL A   1      32.392  34.133  27.664  1.00  0.00    -0.352 N 
ATOM     31  C   UNL A   1      32.965  34.981  28.584  1.00  0.00     0.251 C 
ATOM     32  H   UNL A   1      31.623  34.493  27.165  1.00  0.00     0.163 HD
ATOM     33  O   UNL A   1      32.490  36.088  28.798  1.00  0.00    -0.269 OA
BRANCH  31  34
ATOM     34  C   UNL A   1      34.139  34.511  29.351  1.00  0.00     0.039 A 
ATOM     35  C   UNL A   1      33.933  33.915  30.597  1.00  0.00     0.014 A 
ATOM     36  C   UNL A   1      35.425  34.614  28.818  1.00  0.00     0.014 A 
ATOM     37  C   UNL A   1      35.014  33.359  31.283  1.00  0.00     0.010 A 
ATOM     38  C   UNL A   1      36.492  34.006  29.474  1.00  0.00     0.010 A 
ATOM     39  C   UNL A   1      36.297  33.371  30.710  1.00  0.00    -0.014 A 
BRANCH  39  40
ATOM     40  C   UNL A   1      37.450  32.729  31.389  1.00  0.00     0.031 A 
ATOM     41  C   UNL A   1      38.171  31.590  30.725  1.00  0.00     0.074 A 
ATOM     42  C   UNL A   1      37.801  33.121  32.629  1.00  0.00     0.049 A 
ATOM     43  N   UNL A   1      39.137  30.838  31.188  1.00  0.00    -0.248 NA
ATOM     44  C   UNL A   1      37.727  31.229  29.369  1.00  0.00     0.031 C 
ATOM     45  C   UNL A   1      37.148  34.180  33.398  1.00  0.00     0.029 A 
ATOM     46  N   UNL A   1      38.787  32.661  33.466  1.00  0.00    -0.354 N 
ATOM     47  C   UNL A   1      39.403  29.909  30.191  1.00  0.00     0.074 A 
ATOM     48  C   UNL A   1      38.466  30.159  29.117  1.00  0.00     0.031 C 
ATOM     49  C   UNL A   1      37.759  34.299  34.589  1.00  0.00     0.029 A 
ATOM     50  C   UNL A   1      38.824  33.305  34.679  1.00  0.00     0.049 A 
ATOM     51  H   UNL A   1      39.408  31.938  33.222  1.00  0.00     0.167 HD
ATOM     52  C   UNL A   1      40.358  28.949  30.164  1.00  0.00     0.037 A 
ATOM     53  C   UNL A   1      39.624  33.110  35.745  1.00  0.00     0.037 A 
ATOM     54  C   UNL A   1      41.311  28.723  31.217  1.00  0.00     0.049 A 
ATOM     55  C   UNL A   1      40.688  32.048  35.681  1.00  0.00     0.074 A 
ATOM     56  C   UNL A   1      42.350  27.811  31.261  1.00  0.00     0.029 A 
ATOM     57  N   UNL A   1      41.344  29.425  32.414  1.00  0.00    -0.354 N 
ATOM     58  N   UNL A   1      40.968  31.214  34.709  1.00  0.00    -0.248 NA
ATOM     59  C   UNL A   1      41.555  31.906  36.859  1.00  0.00     0.031 C 
ATOM     60  C   UNL A   1      42.994  27.939  32.497  1.00  0.00     0.029 A 
ATOM     61  C   UNL A   1      42.380  28.958  33.206  1.00  0.00     0.049 A 
ATOM     62  H   UNL A   1      40.723  30.148  32.662  1.00  0.00     0.167 HD
ATOM     63  C   UNL A   1      42.055  30.470  35.145  1.00  0.00     0.074 A 
ATOM     64  C   UNL A   1      42.395  30.960  36.465  1.00  0.00     0.031 C 
ATOM     65  C   UNL A   1      42.712  29.469  34.511  1.00  0.00     0.037 A 
BRANCH  52  66
ATOM     66  C   UNL A   1      40.427  28.077  28.946  1.00  0.00     0.064 A 
ATOM     67  C   UNL A   1      39.718  26.869  28.870  1.00  0.00     0.173 A 
ATOM     68  C   UNL A   1      41.179  28.469  27.829  1.00  0.00     0.173 A 
ATOM     69  F   UNL A   1      38.995  26.444  29.918  1.00  0.00    -0.203 F 
ATOM     70  C   UNL A   1      39.779  26.074  27.730  1.00  0.00     0.198 A 
ATOM     71  C   UNL A   1      41.215  27.685  26.679  1.00  0.00     0.198 A 
ATOM     72  F   UNL A   1      41.872  29.618  27.848  1.00  0.00    -0.203 F 
ATOM     73  F   UNL A   1      39.127  24.902  27.696  1.00  0.00    -0.200 F 
ATOM     74  C   UNL A   1      40.520  26.485  26.633  1.00  0.00     0.200 A 
ATOM     75  F   UNL A   1      41.923  28.089  25.616  1.00  0.00    -0.200 F 
ATOM     76  F   UNL A   1      40.570  25.721  25.532  1.00  0.00    -0.200 F 
ENDBRANCH  52  66
BRANCH  53  77
ATOM     77  C   UNL A   1      39.469  33.955  36.957  1.00  0.00     0.064 A 
ATOM     78  C   UNL A   1      40.082  35.213  37.038  1.00  0.00     0.173 A 
ATOM     79  C   UNL A   1      38.722  33.520  38.061  1.00  0.00     0.173 A 
ATOM     80  F   UNL A   1      40.825  35.663  36.016  1.00  0.00    -0.203 F 
ATOM     81  C   UNL A   1      39.972  35.994  38.187  1.00  0.00     0.198 A 
ATOM     82  C   UNL A   1      38.592  34.312  39.199  1.00  0.00     0.198 A 
ATOM     83  F   UNL A   1      38.114  32.325  38.030  1.00  0.00    -0.203 F 
ATOM     84  F   UNL A   1      40.607  37.173  38.256  1.00  0.00    -0.200 F 
ATOM     85  C   UNL A   1      39.224  35.545  39.264  1.00  0.00     0.200 A 
ATOM     86  F   UNL A   1      37.859  33.880  40.234  1.00  0.00    -0.200 F 
ATOM     87  F   UNL A   1      39.120  36.296  40.369  1.00  0.00    -0.200 F 
ENDBRANCH  53  77
BRANCH  65  88
ATOM     88  C   UNL A   1      43.888  28.862  35.216  1.00  0.00     0.064 A 
ATOM     89  C   UNL A   1      43.736  27.793  36.109  1.00  0.00     0.173 A 
ATOM     90  C   UNL A   1      45.186  29.330  34.962  1.00  0.00     0.173 A 
ATOM     91  F   UNL A   1      42.513  27.321  36.395  1.00  0.00    -0.203 F 
ATOM     92  C   UNL A   1      44.840  27.225  36.738  1.00  0.00     0.198 A 
ATOM     93  C   UNL A   1      46.291  28.743  35.573  1.00  0.00     0.198 A 
ATOM     94  F   UNL A   1      45.383  30.349  34.112  1.00  0.00    -0.203 F 
ATOM     95  F   UNL A   1      44.670  26.229  37.619  1.00  0.00    -0.200 F 
ATOM     96  C   UNL A   1      46.116  27.696  36.464  1.00  0.00     0.200 A 
ATOM     97  F   UNL A   1      47.523  29.193  35.300  1.00  0.00    -0.200 F 
ATOM     98  F   UNL A   1      47.179  27.143  37.065  1.00  0.00    -0.200 F 
ENDBRANCH  65  88
ENDBRANCH  39  40
ENDBRANCH  31  34
ENDBRANCH  29  30
ENDBRANCH  28  29
ENDBRANCH   1  28
TORSDOF 13
ENDMDL
