MODEL 1
REMARK VINA RESULT:     -11.2      0.000      0.000
REMARK SMILES Cc1ccoc1C(=O)N1CCO[C@H](CC(=O)NCCCCNC(=O)c2ccc(-c3c4nc(c(-c5c(F)c(F)c(F)c(F)c5F)c5ccc([nH]5)c(-c5c(F)c(F)c(F)c(F)c5F)c5nc(c(-c6c(F)c(F)c(F)c(F)c6F)c6ccc3[nH]6)C=C5)C=C4)cc2)C1
REMARK SMILES IDX 19 1 18 2 17 3 15 4 16 5 14 7 13 8 9 9 10 10 88 11 11 12
REMARK SMILES IDX 12 13 7 14 8 15 6 16 1 17 2 18 3 19 4 20 5 21 20 22 21 23
REMARK SMILES IDX 22 24 23 25 24 27 25 28 26 29 87 30 27 31 86 32 28 33 29 34
REMARK SMILES IDX 30 35 80 36 31 37 85 38 79 39 81 40 32 41 84 42 78 43 77 44
REMARK SMILES IDX 33 46 65 47 45 48 64 49 46 50 49 51 63 52 82 53 47 54 48 55
REMARK SMILES IDX 62 57 83 58 50 59 34 60 35 61 43 62 36 63 37 64 41 65 44 66
REMARK SMILES IDX 38 67 39 68 42 69 40 70 66 71 67 72 75 73 68 74 69 75 73 76
REMARK SMILES IDX 76 77 70 78 71 79 74 80 72 81 51 82 52 83 60 84 53 85 54 86
REMARK SMILES IDX 58 87 61 88 55 89 56 90 59 91 57 92
REMARK H PARENT 17 6 22 26 81 45 49 56
REMARK Flexibility Score: inf
ROOT
ATOM      1  C   UNL A   1      34.185  35.575  28.737  1.00  0.00     0.023 C 
ENDROOT
BRANCH   1   2
ATOM      2  C   UNL A   1      33.069  35.116  29.670  1.00  0.00     0.116 C 
BRANCH   2   3
ATOM      3  N   UNL A   1      32.663  36.199  30.540  1.00  0.00    -0.356 N 
ATOM      4  C   UNL A   1      33.114  36.477  31.793  1.00  0.00     0.222 C 
ATOM      5  O   UNL A   1      32.498  37.287  32.486  1.00  0.00    -0.275 OA
ATOM      6  H   UNL A   1      31.978  36.809  30.181  1.00  0.00     0.163 HD
BRANCH   4   7
ATOM      7  C   UNL A   1      34.394  35.844  32.269  1.00  0.00     0.133 C 
BRANCH   7   8
ATOM      8  C   UNL A   1      34.224  34.870  33.445  1.00  0.00     0.147 C 
ATOM      9  N   UNL A   1      36.439  33.986  33.079  1.00  0.00    -0.331 N 
ATOM     10  C   UNL A   1      35.955  32.687  32.642  1.00  0.00     0.148 C 
ATOM     11  C   UNL A   1      35.590  34.608  34.091  1.00  0.00     0.152 C 
ATOM     12  C   UNL A   1      34.458  32.729  32.276  1.00  0.00     0.182 C 
ATOM     13  O   UNL A   1      33.637  33.597  33.081  1.00  0.00    -0.374 OA
BRANCH   9  14
ATOM     14  C   UNL A   1      37.746  34.436  32.952  1.00  0.00     0.289 C 
ATOM     15  O   UNL A   1      38.284  34.948  33.939  1.00  0.00    -0.265 OA
BRANCH  14  16
ATOM     16  C   UNL A   1      38.388  34.454  31.634  1.00  0.00     0.194 A 
ATOM     17  C   UNL A   1      41.015  34.477  31.743  1.00  0.00     0.049 C 
ATOM     18  C   UNL A   1      39.682  34.429  31.103  1.00  0.00     0.000 A 
ATOM     19  C   UNL A   1      39.536  34.274  29.689  1.00  0.00     0.046 A 
ATOM     20  C   UNL A   1      38.195  34.226  29.433  1.00  0.00     0.196 A 
ATOM     21  O   UNL A   1      37.500  34.353  30.582  1.00  0.00    -0.459 OA
ENDBRANCH  14  16
ENDBRANCH   9  14
ENDBRANCH   7   8
ENDBRANCH   4   7
ENDBRANCH   2   3
ENDBRANCH   1   2
BRANCH   1  22
ATOM     22  C   UNL A   1      34.806  34.435  27.928  1.00  0.00     0.023 C 
BRANCH  22  23
ATOM     23  C   UNL A   1      34.754  33.074  28.612  1.00  0.00     0.116 C 
BRANCH  23  24
ATOM     24  N   UNL A   1      33.983  32.097  27.859  1.00  0.00    -0.352 N 
ATOM     25  C   UNL A   1      34.320  30.806  27.538  1.00  0.00     0.251 C 
ATOM     26  H   UNL A   1      33.103  32.402  27.538  1.00  0.00     0.163 HD
ATOM     27  O   UNL A   1      33.622  30.153  26.768  1.00  0.00    -0.269 OA
BRANCH  25  28
ATOM     28  C   UNL A   1      35.553  30.221  28.101  1.00  0.00     0.039 A 
ATOM     29  C   UNL A   1      36.725  30.263  27.343  1.00  0.00     0.014 A 
ATOM     30  C   UNL A   1      35.559  29.666  29.383  1.00  0.00     0.014 A 
ATOM     31  C   UNL A   1      37.919  29.802  27.898  1.00  0.00     0.010 A 
ATOM     32  C   UNL A   1      36.763  29.279  29.962  1.00  0.00     0.010 A 
ATOM     33  C   UNL A   1      37.954  29.341  29.225  1.00  0.00    -0.014 A 
BRANCH  33  34
ATOM     34  C   UNL A   1      39.233  28.923  29.854  1.00  0.00     0.031 A 
ATOM     35  C   UNL A   1      39.735  29.625  31.085  1.00  0.00     0.074 A 
ATOM     36  C   UNL A   1      39.965  27.946  29.286  1.00  0.00     0.049 A 
ATOM     37  N   UNL A   1      40.844  29.432  31.754  1.00  0.00    -0.248 NA
ATOM     38  C   UNL A   1      38.893  30.705  31.621  1.00  0.00     0.031 C 
ATOM     39  C   UNL A   1      39.610  27.225  28.063  1.00  0.00     0.029 A 
ATOM     40  N   UNL A   1      41.166  27.395  29.658  1.00  0.00    -0.354 N 
ATOM     41  C   UNL A   1      40.834  30.366  32.780  1.00  0.00     0.074 A 
ATOM     42  C   UNL A   1      39.644  31.169  32.610  1.00  0.00     0.031 C 
ATOM     43  C   UNL A   1      40.553  26.307  27.803  1.00  0.00     0.029 A 
ATOM     44  C   UNL A   1      41.600  26.400  28.816  1.00  0.00     0.049 A 
ATOM     45  H   UNL A   1      41.668  27.684  30.454  1.00  0.00     0.167 HD
ATOM     46  C   UNL A   1      41.725  30.524  33.788  1.00  0.00     0.037 A 
ATOM     47  C   UNL A   1      42.718  25.652  28.856  1.00  0.00     0.037 A 
ATOM     48  C   UNL A   1      42.902  29.713  33.962  1.00  0.00     0.049 A 
ATOM     49  C   UNL A   1      43.700  25.859  29.978  1.00  0.00     0.074 A 
ATOM     50  C   UNL A   1      43.839  29.759  34.979  1.00  0.00     0.029 A 
ATOM     51  N   UNL A   1      43.306  28.710  33.093  1.00  0.00    -0.354 N 
ATOM     52  N   UNL A   1      43.644  26.697  30.984  1.00  0.00    -0.248 NA
ATOM     53  C   UNL A   1      44.898  25.007  29.974  1.00  0.00     0.031 C 
ATOM     54  C   UNL A   1      44.837  28.820  34.698  1.00  0.00     0.029 A 
ATOM     55  C   UNL A   1      44.492  28.147  33.538  1.00  0.00     0.049 A 
ATOM     56  H   UNL A   1      42.822  28.438  32.280  1.00  0.00     0.167 HD
ATOM     57  C   UNL A   1      44.778  26.455  31.747  1.00  0.00     0.074 A 
ATOM     58  C   UNL A   1      45.495  25.377  31.097  1.00  0.00     0.031 C 
ATOM     59  C   UNL A   1      45.190  27.069  32.883  1.00  0.00     0.037 A 
BRANCH  46  60
ATOM     60  C   UNL A   1      41.457  31.615  34.786  1.00  0.00     0.064 A 
ATOM     61  C   UNL A   1      42.122  32.849  34.724  1.00  0.00     0.173 A 
ATOM     62  C   UNL A   1      40.498  31.438  35.794  1.00  0.00     0.173 A 
ATOM     63  F   UNL A   1      43.058  33.066  33.786  1.00  0.00    -0.203 F 
ATOM     64  C   UNL A   1      41.860  33.854  35.652  1.00  0.00     0.198 A 
ATOM     65  C   UNL A   1      40.214  32.458  36.700  1.00  0.00     0.198 A 
ATOM     66  F   UNL A   1      39.828  30.281  35.897  1.00  0.00    -0.203 F 
ATOM     67  F   UNL A   1      42.547  35.003  35.605  1.00  0.00    -0.200 F 
ATOM     68  C   UNL A   1      40.900  33.660  36.634  1.00  0.00     0.200 A 
ATOM     69  F   UNL A   1      39.276  32.274  37.639  1.00  0.00    -0.200 F 
ATOM     70  F   UNL A   1      40.644  34.630  37.522  1.00  0.00    -0.200 F 
ENDBRANCH  46  60
BRANCH  47  71
ATOM     71  C   UNL A   1      42.959  24.616  27.816  1.00  0.00     0.064 A 
ATOM     72  C   UNL A   1      42.588  23.281  28.030  1.00  0.00     0.173 A 
ATOM     73  C   UNL A   1      43.573  24.934  26.596  1.00  0.00     0.173 A 
ATOM     74  F   UNL A   1      42.016  22.924  29.189  1.00  0.00    -0.203 F 
ATOM     75  C   UNL A   1      42.845  22.299  27.075  1.00  0.00     0.198 A 
ATOM     76  C   UNL A   1      43.801  23.958  25.629  1.00  0.00     0.198 A 
ATOM     77  F   UNL A   1      43.943  26.197  26.338  1.00  0.00    -0.203 F 
ATOM     78  F   UNL A   1      42.527  21.023  27.329  1.00  0.00    -0.200 F 
ATOM     79  C   UNL A   1      43.446  22.639  25.873  1.00  0.00     0.200 A 
ATOM     80  F   UNL A   1      44.368  24.292  24.462  1.00  0.00    -0.200 F 
ATOM     81  F   UNL A   1      43.690  21.696  24.954  1.00  0.00    -0.200 F 
ENDBRANCH  47  71
BRANCH  59  82
ATOM     82  C   UNL A   1      46.454  26.565  33.519  1.00  0.00     0.064 A 
ATOM     83  C   UNL A   1      46.447  25.513  34.448  1.00  0.00     0.173 A 
ATOM     84  C   UNL A   1      47.694  27.123  33.171  1.00  0.00     0.173 A 
ATOM     85  F   UNL A   1      45.286  24.954  34.825  1.00  0.00    -0.203 F 
ATOM     86  C   UNL A   1      47.629  25.061  35.027  1.00  0.00     0.198 A 
ATOM     87  C   UNL A   1      48.877  26.644  33.726  1.00  0.00     0.198 A 
ATOM     88  F   UNL A   1      47.759  28.126  32.282  1.00  0.00    -0.203 F 
ATOM     89  F   UNL A   1      47.591  24.093  35.953  1.00  0.00    -0.200 F 
ATOM     90  C   UNL A   1      48.844  25.621  34.661  1.00  0.00     0.200 A 
ATOM     91  F   UNL A   1      50.052  27.177  33.358  1.00  0.00    -0.200 F 
ATOM     92  F   UNL A   1      49.981  25.180  35.215  1.00  0.00    -0.200 F 
ENDBRANCH  59  82
ENDBRANCH  33  34
ENDBRANCH  25  28
ENDBRANCH  23  24
ENDBRANCH  22  23
ENDBRANCH   1  22
TORSDOF 14
ENDMDL
MODEL 2
REMARK VINA RESULT:     -11.2      3.446      6.865
REMARK SMILES Cc1ccoc1C(=O)N1CCO[C@H](CC(=O)NCCCCNC(=O)c2ccc(-c3c4nc(c(-c5c(F)c(F)c(F)c(F)c5F)c5ccc([nH]5)c(-c5c(F)c(F)c(F)c(F)c5F)c5nc(c(-c6c(F)c(F)c(F)c(F)c6F)c6ccc3[nH]6)C=C5)C=C4)cc2)C1
REMARK SMILES IDX 19 1 18 2 17 3 15 4 16 5 14 7 13 8 9 9 10 10 88 11 11 12
REMARK SMILES IDX 12 13 7 14 8 15 6 16 1 17 2 18 3 19 4 20 5 21 20 22 21 23
REMARK SMILES IDX 22 24 23 25 24 27 25 28 26 29 87 30 27 31 86 32 28 33 29 34
REMARK SMILES IDX 30 35 80 36 31 37 85 38 79 39 81 40 32 41 84 42 78 43 77 44
REMARK SMILES IDX 33 46 65 47 45 48 64 49 46 50 49 51 63 52 82 53 47 54 48 55
REMARK SMILES IDX 62 57 83 58 50 59 34 60 35 61 43 62 36 63 37 64 41 65 44 66
REMARK SMILES IDX 38 67 39 68 42 69 40 70 66 71 67 72 75 73 68 74 69 75 73 76
REMARK SMILES IDX 76 77 70 78 71 79 74 80 72 81 51 82 52 83 60 84 53 85 54 86
REMARK SMILES IDX 58 87 61 88 55 89 56 90 59 91 57 92
REMARK H PARENT 17 6 22 26 81 45 49 56
REMARK Flexibility Score: inf
ROOT
ATOM      1  C   UNL A   1      31.548  31.113  26.139  1.00  0.00     0.023 C 
ENDROOT
BRANCH   1   2
ATOM      2  C   UNL A   1      32.823  30.479  26.685  1.00  0.00     0.116 C 
BRANCH   2   3
ATOM      3  N   UNL A   1      32.499  29.406  27.601  1.00  0.00    -0.356 N 
ATOM      4  C   UNL A   1      31.985  28.181  27.304  1.00  0.00     0.222 C 
ATOM      5  O   UNL A   1      31.547  27.478  28.214  1.00  0.00    -0.275 OA
ATOM      6  H   UNL A   1      32.674  29.583  28.554  1.00  0.00     0.163 HD
BRANCH   4   7
ATOM      7  C   UNL A   1      32.035  27.690  25.882  1.00  0.00     0.133 C 
BRANCH   7   8
ATOM      8  C   UNL A   1      33.319  26.928  25.517  1.00  0.00     0.147 C 
ATOM      9  N   UNL A   1      32.259  26.013  23.552  1.00  0.00    -0.331 N 
ATOM     10  C   UNL A   1      32.251  24.655  24.070  1.00  0.00     0.148 C 
ATOM     11  C   UNL A   1      33.413  26.791  23.993  1.00  0.00     0.152 C 
ATOM     12  C   UNL A   1      32.495  24.622  25.592  1.00  0.00     0.182 C 
ATOM     13  O   UNL A   1      33.413  25.608  26.103  1.00  0.00    -0.374 OA
BRANCH   9  14
ATOM     14  C   UNL A   1      31.565  26.445  22.430  1.00  0.00     0.289 C 
ATOM     15  O   UNL A   1      31.980  26.097  21.321  1.00  0.00    -0.265 OA
BRANCH  14  16
ATOM     16  C   UNL A   1      30.484  27.424  22.572  1.00  0.00     0.194 A 
ATOM     17  C   UNL A   1      28.476  26.570  24.039  1.00  0.00     0.049 C 
ATOM     18  C   UNL A   1      29.257  27.535  23.235  1.00  0.00     0.000 A 
ATOM     19  C   UNL A   1      28.826  28.887  23.063  1.00  0.00     0.046 A 
ATOM     20  C   UNL A   1      29.779  29.515  22.313  1.00  0.00     0.196 A 
ATOM     21  O   UNL A   1      30.763  28.648  21.997  1.00  0.00    -0.459 OA
ENDBRANCH  14  16
ENDBRANCH   9  14
ENDBRANCH   7   8
ENDBRANCH   4   7
ENDBRANCH   2   3
ENDBRANCH   1   2
BRANCH   1  22
ATOM     22  C   UNL A   1      31.393  32.586  26.520  1.00  0.00     0.023 C 
BRANCH  22  23
ATOM     23  C   UNL A   1      32.529  33.143  27.367  1.00  0.00     0.116 C 
BRANCH  23  24
ATOM     24  N   UNL A   1      32.294  34.515  27.790  1.00  0.00    -0.352 N 
ATOM     25  C   UNL A   1      32.941  35.231  28.765  1.00  0.00     0.251 C 
ATOM     26  H   UNL A   1      31.575  34.992  27.315  1.00  0.00     0.163 HD
ATOM     27  O   UNL A   1      32.526  36.335  29.107  1.00  0.00    -0.269 OA
BRANCH  25  28
ATOM     28  C   UNL A   1      34.124  34.645  29.427  1.00  0.00     0.039 A 
ATOM     29  C   UNL A   1      33.974  34.079  30.694  1.00  0.00     0.014 A 
ATOM     30  C   UNL A   1      35.364  34.624  28.784  1.00  0.00     0.014 A 
ATOM     31  C   UNL A   1      35.058  33.436  31.291  1.00  0.00     0.010 A 
ATOM     32  C   UNL A   1      36.420  33.916  29.346  1.00  0.00     0.010 A 
ATOM     33  C   UNL A   1      36.280  33.317  30.606  1.00  0.00    -0.014 A 
BRANCH  33  34
ATOM     34  C   UNL A   1      37.416  32.565  31.196  1.00  0.00     0.031 A 
ATOM     35  C   UNL A   1      37.931  32.922  32.562  1.00  0.00     0.074 A 
ATOM     36  C   UNL A   1      38.017  31.596  30.477  1.00  0.00     0.049 A 
ATOM     37  N   UNL A   1      38.936  32.410  33.227  1.00  0.00    -0.248 NA
ATOM     38  C   UNL A   1      37.243  34.016  33.264  1.00  0.00     0.031 C 
ATOM     39  C   UNL A   1      37.642  31.193  29.121  1.00  0.00     0.029 A 
ATOM     40  N   UNL A   1      39.075  30.779  30.786  1.00  0.00    -0.354 N 
ATOM     41  C   UNL A   1      39.004  33.121  34.417  1.00  0.00     0.074 A 
ATOM     42  C   UNL A   1      37.981  34.143  34.358  1.00  0.00     0.031 C 
ATOM     43  C   UNL A   1      38.435  30.186  28.727  1.00  0.00     0.029 A 
ATOM     44  C   UNL A   1      39.400  29.898  29.783  1.00  0.00     0.049 A 
ATOM     45  H   UNL A   1      39.554  30.818  31.645  1.00  0.00     0.167 HD
ATOM     46  C   UNL A   1      39.827  32.925  35.475  1.00  0.00     0.037 A 
ATOM     47  C   UNL A   1      40.370  28.966  29.723  1.00  0.00     0.037 A 
ATOM     48  C   UNL A   1      40.833  31.897  35.536  1.00  0.00     0.049 A 
ATOM     49  C   UNL A   1      41.282  28.779  30.906  1.00  0.00     0.074 A 
ATOM     50  C   UNL A   1      41.682  31.582  36.583  1.00  0.00     0.029 A 
ATOM     51  N   UNL A   1      41.130  31.019  34.504  1.00  0.00    -0.354 N 
ATOM     52  N   UNL A   1      41.289  29.410  32.054  1.00  0.00    -0.248 NA
ATOM     53  C   UNL A   1      42.316  27.742  30.785  1.00  0.00     0.031 C 
ATOM     54  C   UNL A   1      42.527  30.549  36.165  1.00  0.00     0.029 A 
ATOM     55  C   UNL A   1      42.166  30.179  34.880  1.00  0.00     0.049 A 
ATOM     56  H   UNL A   1      40.672  30.996  33.632  1.00  0.00     0.167 HD
ATOM     57  C   UNL A   1      42.303  28.829  32.803  1.00  0.00     0.074 A 
ATOM     58  C   UNL A   1      42.877  27.781  31.985  1.00  0.00     0.031 C 
ATOM     59  C   UNL A   1      42.722  29.135  34.056  1.00  0.00     0.037 A 
BRANCH  46  60
ATOM     60  C   UNL A   1      39.668  33.839  36.657  1.00  0.00     0.064 A 
ATOM     61  C   UNL A   1      40.301  35.091  36.709  1.00  0.00     0.173 A 
ATOM     62  C   UNL A   1      38.845  33.476  37.733  1.00  0.00     0.173 A 
ATOM     63  F   UNL A   1      41.109  35.482  35.711  1.00  0.00    -0.203 F 
ATOM     64  C   UNL A   1      40.141  35.931  37.808  1.00  0.00     0.198 A 
ATOM     65  C   UNL A   1      38.660  34.334  38.815  1.00  0.00     0.198 A 
ATOM     66  F   UNL A   1      38.211  32.294  37.733  1.00  0.00    -0.203 F 
ATOM     67  F   UNL A   1      40.799  37.097  37.859  1.00  0.00    -0.200 F 
ATOM     68  C   UNL A   1      39.315  35.555  38.856  1.00  0.00     0.200 A 
ATOM     69  F   UNL A   1      37.850  33.975  39.820  1.00  0.00    -0.200 F 
ATOM     70  F   UNL A   1      39.156  36.368  39.909  1.00  0.00    -0.200 F 
ENDBRANCH  46  60
BRANCH  47  71
ATOM     71  C   UNL A   1      40.514  28.118  28.510  1.00  0.00     0.064 A 
ATOM     72  C   UNL A   1      39.895  26.862  28.431  1.00  0.00     0.173 A 
ATOM     73  C   UNL A   1      41.280  28.536  27.412  1.00  0.00     0.173 A 
ATOM     74  F   UNL A   1      39.168  26.410  29.463  1.00  0.00    -0.203 F 
ATOM     75  C   UNL A   1      40.057  26.047  27.313  1.00  0.00     0.198 A 
ATOM     76  C   UNL A   1      41.416  27.734  26.281  1.00  0.00     0.198 A 
ATOM     77  F   UNL A   1      41.890  29.731  27.433  1.00  0.00    -0.203 F 
ATOM     78  F   UNL A   1      39.496  24.831  27.288  1.00  0.00    -0.200 F 
ATOM     79  C   UNL A   1      40.813  26.486  26.236  1.00  0.00     0.200 A 
ATOM     80  F   UNL A   1      42.135  28.167  25.237  1.00  0.00    -0.200 F 
ATOM     81  F   UNL A   1      40.966  25.703  25.160  1.00  0.00    -0.200 F 
ENDBRANCH  47  71
BRANCH  59  82
ATOM     82  C   UNL A   1      43.830  28.301  34.635  1.00  0.00     0.064 A 
ATOM     83  C   UNL A   1      45.177  28.675  34.517  1.00  0.00     0.173 A 
ATOM     84  C   UNL A   1      43.535  27.125  35.343  1.00  0.00     0.173 A 
ATOM     85  F   UNL A   1      45.513  29.783  33.838  1.00  0.00    -0.203 F 
ATOM     86  C   UNL A   1      46.188  27.888  35.060  1.00  0.00     0.198 A 
ATOM     87  C   UNL A   1      44.548  26.359  35.914  1.00  0.00     0.198 A 
ATOM     88  F   UNL A   1      42.263  26.725  35.491  1.00  0.00    -0.203 F 
ATOM     89  F   UNL A   1      47.471  28.236  34.887  1.00  0.00    -0.200 F 
ATOM     90  C   UNL A   1      45.873  26.735  35.763  1.00  0.00     0.200 A 
ATOM     91  F   UNL A   1      44.239  25.254  36.607  1.00  0.00    -0.200 F 
ATOM     92  F   UNL A   1      46.849  25.982  36.289  1.00  0.00    -0.200 F 
ENDBRANCH  59  82
ENDBRANCH  33  34
ENDBRANCH  25  28
ENDBRANCH  23  24
ENDBRANCH  22  23
ENDBRANCH   1  22
TORSDOF 14
ENDMDL
MODEL 3
REMARK VINA RESULT:     -11.2      3.681     10.054
REMARK SMILES Cc1ccoc1C(=O)N1CCO[C@H](CC(=O)NCCCCNC(=O)c2ccc(-c3c4nc(c(-c5c(F)c(F)c(F)c(F)c5F)c5ccc([nH]5)c(-c5c(F)c(F)c(F)c(F)c5F)c5nc(c(-c6c(F)c(F)c(F)c(F)c6F)c6ccc3[nH]6)C=C5)C=C4)cc2)C1
REMARK SMILES IDX 19 1 18 2 17 3 15 4 16 5 14 7 13 8 9 9 10 10 88 11 11 12
REMARK SMILES IDX 12 13 7 14 8 15 6 16 1 17 2 18 3 19 4 20 5 21 20 22 21 23
REMARK SMILES IDX 22 24 23 25 24 27 25 28 26 29 87 30 27 31 86 32 28 33 29 34
REMARK SMILES IDX 30 35 80 36 31 37 85 38 79 39 81 40 32 41 84 42 78 43 77 44
REMARK SMILES IDX 33 46 65 47 45 48 64 49 46 50 49 51 63 52 82 53 47 54 48 55
REMARK SMILES IDX 62 57 83 58 50 59 34 60 35 61 43 62 36 63 37 64 41 65 44 66
REMARK SMILES IDX 38 67 39 68 42 69 40 70 66 71 67 72 75 73 68 74 69 75 73 76
REMARK SMILES IDX 76 77 70 78 71 79 74 80 72 81 51 82 52 83 60 84 53 85 54 86
REMARK SMILES IDX 58 87 61 88 55 89 56 90 59 91 57 92
REMARK H PARENT 17 6 22 26 81 45 49 56
REMARK Flexibility Score: inf
ROOT
ATOM      1  C   UNL A   1      31.627  30.895  26.024  1.00  0.00     0.023 C 
ENDROOT
BRANCH   1   2
ATOM      2  C   UNL A   1      32.782  29.953  26.349  1.00  0.00     0.116 C 
BRANCH   2   3
ATOM      3  N   UNL A   1      33.344  29.407  25.133  1.00  0.00    -0.356 N 
ATOM      4  C   UNL A   1      33.368  28.106  24.734  1.00  0.00     0.222 C 
ATOM      5  O   UNL A   1      34.091  27.781  23.792  1.00  0.00    -0.275 OA
ATOM      6  H   UNL A   1      33.759  30.056  24.519  1.00  0.00     0.163 HD
BRANCH   4   7
ATOM      7  C   UNL A   1      32.454  27.117  25.405  1.00  0.00     0.133 C 
BRANCH   7   8
ATOM      8  C   UNL A   1      30.999  27.159  24.911  1.00  0.00     0.147 C 
ATOM      9  N   UNL A   1      30.744  24.800  25.353  1.00  0.00    -0.331 N 
ATOM     10  C   UNL A   1      30.638  24.449  23.946  1.00  0.00     0.148 C 
ATOM     11  C   UNL A   1      30.175  26.107  25.666  1.00  0.00     0.152 C 
ATOM     12  C   UNL A   1      31.129  25.590  23.034  1.00  0.00     0.182 C 
ATOM     13  O   UNL A   1      30.847  26.927  23.491  1.00  0.00    -0.374 OA
BRANCH   9  14
ATOM     14  C   UNL A   1      30.923  23.896  26.391  1.00  0.00     0.289 C 
ATOM     15  O   UNL A   1      29.971  23.684  27.148  1.00  0.00    -0.265 OA
BRANCH  14  16
ATOM     16  C   UNL A   1      32.257  23.356  26.667  1.00  0.00     0.194 A 
ATOM     17  C   UNL A   1      34.058  24.030  24.874  1.00  0.00     0.049 C 
ATOM     18  C   UNL A   1      33.542  23.416  26.116  1.00  0.00     0.000 A 
ATOM     19  C   UNL A   1      34.414  22.778  27.053  1.00  0.00     0.046 A 
ATOM     20  C   UNL A   1      33.636  22.359  28.095  1.00  0.00     0.196 A 
ATOM     21  O   UNL A   1      32.346  22.679  27.868  1.00  0.00    -0.459 OA
ENDBRANCH  14  16
ENDBRANCH   9  14
ENDBRANCH   7   8
ENDBRANCH   4   7
ENDBRANCH   2   3
ENDBRANCH   1   2
BRANCH   1  22
ATOM     22  C   UNL A   1      31.457  32.020  27.045  1.00  0.00     0.023 C 
BRANCH  22  23
ATOM     23  C   UNL A   1      32.717  32.839  27.299  1.00  0.00     0.116 C 
BRANCH  23  24
ATOM     24  N   UNL A   1      32.428  34.230  27.614  1.00  0.00    -0.352 N 
ATOM     25  C   UNL A   1      33.007  35.027  28.569  1.00  0.00     0.251 C 
ATOM     26  H   UNL A   1      31.725  34.654  27.071  1.00  0.00     0.163 HD
ATOM     27  O   UNL A   1      32.550  36.141  28.812  1.00  0.00    -0.269 OA
BRANCH  25  28
ATOM     28  C   UNL A   1      34.166  34.519  29.329  1.00  0.00     0.039 A 
ATOM     29  C   UNL A   1      33.945  33.911  30.567  1.00  0.00     0.014 A 
ATOM     30  C   UNL A   1      35.458  34.610  28.805  1.00  0.00     0.014 A 
ATOM     31  C   UNL A   1      35.017  33.340  31.252  1.00  0.00     0.010 A 
ATOM     32  C   UNL A   1      36.511  33.972  29.453  1.00  0.00     0.010 A 
ATOM     33  C   UNL A   1      36.302  33.333  30.683  1.00  0.00    -0.014 A 
BRANCH  33  34
ATOM     34  C   UNL A   1      37.435  32.657  31.364  1.00  0.00     0.031 A 
ATOM     35  C   UNL A   1      38.147  31.515  30.697  1.00  0.00     0.074 A 
ATOM     36  C   UNL A   1      37.788  33.041  32.607  1.00  0.00     0.049 A 
ATOM     37  N   UNL A   1      39.130  30.775  31.146  1.00  0.00    -0.248 NA
ATOM     38  C   UNL A   1      37.677  31.135  29.356  1.00  0.00     0.031 C 
ATOM     39  C   UNL A   1      37.141  34.102  33.380  1.00  0.00     0.029 A 
ATOM     40  N   UNL A   1      38.774  32.577  33.441  1.00  0.00    -0.354 N 
ATOM     41  C   UNL A   1      39.388  29.843  30.151  1.00  0.00     0.074 A 
ATOM     42  C   UNL A   1      38.420  30.067  29.100  1.00  0.00     0.031 C 
ATOM     43  C   UNL A   1      37.765  34.229  34.561  1.00  0.00     0.029 A 
ATOM     44  C   UNL A   1      38.830  33.234  34.646  1.00  0.00     0.049 A 
ATOM     45  H   UNL A   1      39.385  31.844  33.199  1.00  0.00     0.167 HD
ATOM     46  C   UNL A   1      40.362  28.902  30.104  1.00  0.00     0.037 A 
ATOM     47  C   UNL A   1      39.645  33.051  35.701  1.00  0.00     0.037 A 
ATOM     48  C   UNL A   1      41.333  28.693  31.145  1.00  0.00     0.049 A 
ATOM     49  C   UNL A   1      40.708  31.987  35.631  1.00  0.00     0.074 A 
ATOM     50  C   UNL A   1      42.391  27.801  31.171  1.00  0.00     0.029 A 
ATOM     51  N   UNL A   1      41.363  29.382  32.350  1.00  0.00    -0.354 N 
ATOM     52  N   UNL A   1      40.989  31.159  34.654  1.00  0.00    -0.248 NA
ATOM     53  C   UNL A   1      41.573  31.838  36.810  1.00  0.00     0.031 C 
ATOM     54  C   UNL A   1      43.029  27.914  32.411  1.00  0.00     0.029 A 
ATOM     55  C   UNL A   1      42.406  28.917  33.135  1.00  0.00     0.049 A 
ATOM     56  H   UNL A   1      40.736  30.096  32.608  1.00  0.00     0.167 HD
ATOM     57  C   UNL A   1      42.078  30.415  35.085  1.00  0.00     0.074 A 
ATOM     58  C   UNL A   1      42.420  30.903  36.406  1.00  0.00     0.031 C 
ATOM     59  C   UNL A   1      42.738  29.418  34.446  1.00  0.00     0.037 A 
BRANCH  46  60
ATOM     60  C   UNL A   1      40.426  28.030  28.883  1.00  0.00     0.064 A 
ATOM     61  C   UNL A   1      39.728  26.814  28.809  1.00  0.00     0.173 A 
ATOM     62  C   UNL A   1      41.164  28.430  27.759  1.00  0.00     0.173 A 
ATOM     63  F   UNL A   1      39.016  26.378  29.860  1.00  0.00    -0.203 F 
ATOM     64  C   UNL A   1      39.792  26.018  27.668  1.00  0.00     0.198 A 
ATOM     65  C   UNL A   1      41.198  27.648  26.607  1.00  0.00     0.198 A 
ATOM     66  F   UNL A   1      41.845  29.586  27.772  1.00  0.00    -0.203 F 
ATOM     67  F   UNL A   1      39.161  24.836  27.642  1.00  0.00    -0.200 F 
ATOM     68  C   UNL A   1      40.519  26.439  26.566  1.00  0.00     0.200 A 
ATOM     69  F   UNL A   1      41.890  28.064  25.538  1.00  0.00    -0.200 F 
ATOM     70  F   UNL A   1      40.574  25.676  25.466  1.00  0.00    -0.200 F 
ENDBRANCH  46  60
BRANCH  47  71
ATOM     71  C   UNL A   1      39.509  33.911  36.907  1.00  0.00     0.064 A 
ATOM     72  C   UNL A   1      38.767  33.483  38.017  1.00  0.00     0.173 A 
ATOM     73  C   UNL A   1      40.105  35.179  36.972  1.00  0.00     0.173 A 
ATOM     74  F   UNL A   1      38.162  32.287  37.995  1.00  0.00    -0.203 F 
ATOM     75  C   UNL A   1      38.605  34.300  39.134  1.00  0.00     0.198 A 
ATOM     76  C   UNL A   1      39.969  35.982  38.102  1.00  0.00     0.198 A 
ATOM     77  F   UNL A   1      40.830  35.634  35.940  1.00  0.00    -0.203 F 
ATOM     78  F   UNL A   1      37.847  33.886  40.159  1.00  0.00    -0.200 F 
ATOM     79  C   UNL A   1      39.211  35.546  39.178  1.00  0.00     0.200 A 
ATOM     80  F   UNL A   1      40.568  37.179  38.147  1.00  0.00    -0.200 F 
ATOM     81  F   UNL A   1      39.057  36.330  40.254  1.00  0.00    -0.200 F 
ENDBRANCH  47  71
BRANCH  59  82
ATOM     82  C   UNL A   1      43.920  28.813  35.148  1.00  0.00     0.064 A 
ATOM     83  C   UNL A   1      43.788  27.706  36.000  1.00  0.00     0.173 A 
ATOM     84  C   UNL A   1      45.208  29.331  34.941  1.00  0.00     0.173 A 
ATOM     85  F   UNL A   1      42.576  27.181  36.241  1.00  0.00    -0.203 F 
ATOM     86  C   UNL A   1      44.896  27.161  36.642  1.00  0.00     0.198 A 
ATOM     87  C   UNL A   1      46.318  28.761  35.559  1.00  0.00     0.198 A 
ATOM     88  F   UNL A   1      45.392  30.384  34.131  1.00  0.00    -0.203 F 
ATOM     89  F   UNL A   1      44.737  26.138  37.494  1.00  0.00    -0.200 F 
ATOM     90  C   UNL A   1      46.160  27.683  36.416  1.00  0.00     0.200 A 
ATOM     91  F   UNL A   1      47.541  29.259  35.325  1.00  0.00    -0.200 F 
ATOM     92  F   UNL A   1      47.226  27.153  37.031  1.00  0.00    -0.200 F 
ENDBRANCH  59  82
ENDBRANCH  33  34
ENDBRANCH  25  28
ENDBRANCH  23  24
ENDBRANCH  22  23
ENDBRANCH   1  22
TORSDOF 14
ENDMDL
