MODEL 1
REMARK VINA RESULT:     -12.0      0.000      0.000
REMARK SMILES COc1ccccc1S(=O)(=O)[C@@H](C)[C@H](C)C(=O)NCCCCNC(=O)c1ccc(-c2c3nc(c(-c4c(F)c(F)c(F)c(F)c4F)c4ccc([nH]4)c(-c4c(F)c(F)c(F)c(F)c4F)c4nc(c(-c5c(F)c(F)c(F)c(F)c5F)c5ccc2[nH]5)C=C4)C=C3)cc1
REMARK SMILES IDX 19 1 18 2 16 3 17 4 14 6 15 7 12 8 13 9 9 10 10 11 11 12
REMARK SMILES IDX 8 13 3 14 4 15 5 16 7 17 6 18 2 19 1 20 20 21 21 22 22 23
REMARK SMILES IDX 23 24 24 25 25 27 26 28 27 29 88 30 28 31 87 32 29 33 30 34
REMARK SMILES IDX 31 35 81 36 32 37 86 38 80 39 82 40 33 41 85 42 79 43 78 44
REMARK SMILES IDX 34 46 66 47 46 48 65 49 47 50 50 51 64 52 83 53 48 54 49 55
REMARK SMILES IDX 63 57 84 58 51 59 35 60 36 61 44 62 37 63 38 64 42 65 45 66
REMARK SMILES IDX 39 67 40 68 43 69 41 70 67 71 68 72 76 73 69 74 70 75 74 76
REMARK SMILES IDX 77 77 71 78 72 79 75 80 73 81 52 82 53 83 61 84 54 85 55 86
REMARK SMILES IDX 59 87 62 88 56 89 57 90 60 91 58 92
REMARK H PARENT 18 5 23 26 82 45 50 56
REMARK Flexibility Score: inf
ROOT
ATOM      1  C   UNL A   1      32.874  30.098  26.244  1.00  0.00     0.116 C 
ENDROOT
BRANCH   1   2
ATOM      2  N   UNL A   1      33.205  29.875  24.853  1.00  0.00    -0.356 N 
ATOM      3  C   UNL A   1      32.654  29.026  23.942  1.00  0.00     0.224 C 
ATOM      4  O   UNL A   1      33.133  29.018  22.808  1.00  0.00    -0.275 OA
ATOM      5  H   UNL A   1      33.947  30.425  24.512  1.00  0.00     0.163 HD
BRANCH   3   6
ATOM      6  C   UNL A   1      31.482  28.114  24.314  1.00  0.00     0.093 C 
ATOM      7  C   UNL A   1      30.285  28.467  23.425  1.00  0.00     0.019 C 
BRANCH   6   8
ATOM      8  C   UNL A   1      31.981  26.646  24.463  1.00  0.00     0.122 C 
ATOM      9  C   UNL A   1      31.141  25.461  23.969  1.00  0.00     0.026 C 
BRANCH   8  10
ATOM     10  S   UNL A   1      32.762  26.292  26.033  1.00  0.00     0.185 S 
ATOM     11  O   UNL A   1      31.795  26.603  27.072  1.00  0.00    -0.223 OA
ATOM     12  O   UNL A   1      34.037  26.992  26.032  1.00  0.00    -0.223 OA
BRANCH  10  13
ATOM     13  C   UNL A   1      33.179  24.584  26.272  1.00  0.00     0.109 A 
ATOM     14  C   UNL A   1      32.363  23.615  26.848  1.00  0.00     0.137 A 
ATOM     15  C   UNL A   1      32.885  22.334  27.085  1.00  0.00     0.048 A 
ATOM     16  C   UNL A   1      34.166  21.991  26.653  1.00  0.00     0.004 A 
ATOM     17  C   UNL A   1      34.462  24.225  25.817  1.00  0.00     0.024 A 
ATOM     18  C   UNL A   1      34.946  22.931  25.993  1.00  0.00     0.002 A 
BRANCH  14  19
ATOM     19  O   UNL A   1      31.092  23.909  27.230  1.00  0.00    -0.495 OA
ATOM     20  C   UNL A   1      30.127  22.923  26.851  1.00  0.00     0.278 C 
ENDBRANCH  14  19
ENDBRANCH  10  13
ENDBRANCH   8  10
ENDBRANCH   6   8
ENDBRANCH   3   6
ENDBRANCH   1   2
BRANCH   1  21
ATOM     21  C   UNL A   1      31.468  30.654  26.440  1.00  0.00     0.023 C 
BRANCH  21  22
ATOM     22  C   UNL A   1      31.399  32.174  26.540  1.00  0.00     0.023 C 
BRANCH  22  23
ATOM     23  C   UNL A   1      32.568  32.820  27.269  1.00  0.00     0.116 C 
BRANCH  23  24
ATOM     24  N   UNL A   1      32.327  34.208  27.637  1.00  0.00    -0.352 N 
ATOM     25  C   UNL A   1      33.000  34.974  28.561  1.00  0.00     0.251 C 
ATOM     26  H   UNL A   1      31.588  34.655  27.164  1.00  0.00     0.163 HD
ATOM     27  O   UNL A   1      32.619  36.100  28.836  1.00  0.00    -0.269 OA
BRANCH  25  28
ATOM     28  C   UNL A   1      34.170  34.389  29.248  1.00  0.00     0.039 A 
ATOM     29  C   UNL A   1      33.957  33.567  30.356  1.00  0.00     0.014 A 
ATOM     30  C   UNL A   1      35.460  34.608  28.760  1.00  0.00     0.014 A 
ATOM     31  C   UNL A   1      35.042  32.913  30.939  1.00  0.00     0.010 A 
ATOM     32  C   UNL A   1      36.525  33.886  29.285  1.00  0.00     0.010 A 
ATOM     33  C   UNL A   1      36.328  33.041  30.388  1.00  0.00    -0.014 A 
BRANCH  33  34
ATOM     34  C   UNL A   1      37.485  32.321  30.972  1.00  0.00     0.031 A 
ATOM     35  C   UNL A   1      37.969  32.678  32.350  1.00  0.00     0.074 A 
ATOM     36  C   UNL A   1      38.128  31.386  30.247  1.00  0.00     0.049 A 
ATOM     37  N   UNL A   1      38.981  32.194  33.025  1.00  0.00    -0.248 NA
ATOM     38  C   UNL A   1      37.238  33.745  33.052  1.00  0.00     0.031 C 
ATOM     39  C   UNL A   1      37.790  30.995  28.877  1.00  0.00     0.029 A 
ATOM     40  N   UNL A   1      39.204  30.595  30.562  1.00  0.00    -0.354 N 
ATOM     41  C   UNL A   1      39.012  32.904  34.217  1.00  0.00     0.074 A 
ATOM     42  C   UNL A   1      37.964  33.897  34.148  1.00  0.00     0.031 C 
ATOM     43  C   UNL A   1      38.620  30.016  28.481  1.00  0.00     0.029 A 
ATOM     44  C   UNL A   1      39.566  29.732  29.556  1.00  0.00     0.049 A 
ATOM     45  H   UNL A   1      39.672  30.642  31.426  1.00  0.00     0.167 HD
ATOM     46  C   UNL A   1      39.819  32.722  35.289  1.00  0.00     0.037 A 
ATOM     47  C   UNL A   1      40.549  28.812  29.513  1.00  0.00     0.037 A 
ATOM     48  C   UNL A   1      40.844  31.715  35.364  1.00  0.00     0.049 A 
ATOM     49  C   UNL A   1      41.424  28.621  30.723  1.00  0.00     0.074 A 
ATOM     50  C   UNL A   1      41.687  31.416  36.420  1.00  0.00     0.029 A 
ATOM     51  N   UNL A   1      41.160  30.837  34.337  1.00  0.00    -0.354 N 
ATOM     52  N   UNL A   1      41.397  29.250  31.873  1.00  0.00    -0.248 NA
ATOM     53  C   UNL A   1      42.457  27.581  30.632  1.00  0.00     0.031 C 
ATOM     54  C   UNL A   1      42.539  30.382  36.019  1.00  0.00     0.029 A 
ATOM     55  C   UNL A   1      42.194  30.003  34.731  1.00  0.00     0.049 A 
ATOM     56  H   UNL A   1      40.717  30.811  33.459  1.00  0.00     0.167 HD
ATOM     57  C   UNL A   1      42.382  28.658  32.654  1.00  0.00     0.074 A 
ATOM     58  C   UNL A   1      42.977  27.611  31.849  1.00  0.00     0.031 C 
ATOM     59  C   UNL A   1      42.761  28.955  33.922  1.00  0.00     0.037 A 
BRANCH  46  60
ATOM     60  C   UNL A   1      39.613  33.627  36.469  1.00  0.00     0.064 A 
ATOM     61  C   UNL A   1      38.798  33.253  37.549  1.00  0.00     0.173 A 
ATOM     62  C   UNL A   1      40.253  34.874  36.533  1.00  0.00     0.173 A 
ATOM     63  F   UNL A   1      38.151  32.077  37.530  1.00  0.00    -0.203 F 
ATOM     64  C   UNL A   1      38.603  34.106  38.631  1.00  0.00     0.198 A 
ATOM     65  C   UNL A   1      40.082  35.711  37.634  1.00  0.00     0.198 A 
ATOM     66  F   UNL A   1      41.046  35.281  35.531  1.00  0.00    -0.203 F 
ATOM     67  F   UNL A   1      37.774  33.749  39.621  1.00  0.00    -0.200 F 
ATOM     68  C   UNL A   1      39.250  35.331  38.676  1.00  0.00     0.200 A 
ATOM     69  F   UNL A   1      40.718  36.890  37.682  1.00  0.00    -0.200 F 
ATOM     70  F   UNL A   1      39.067  36.149  39.722  1.00  0.00    -0.200 F 
ENDBRANCH  46  60
BRANCH  47  71
ATOM     71  C   UNL A   1      40.729  27.969  28.303  1.00  0.00     0.064 A 
ATOM     72  C   UNL A   1      40.121  26.708  28.209  1.00  0.00     0.173 A 
ATOM     73  C   UNL A   1      41.523  28.391  27.227  1.00  0.00     0.173 A 
ATOM     74  F   UNL A   1      39.367  26.253  29.220  1.00  0.00    -0.203 F 
ATOM     75  C   UNL A   1      40.321  25.893  27.097  1.00  0.00     0.198 A 
ATOM     76  C   UNL A   1      41.699  27.586  26.104  1.00  0.00     0.198 A 
ATOM     77  F   UNL A   1      42.122  29.591  27.264  1.00  0.00    -0.203 F 
ATOM     78  F   UNL A   1      39.769  24.673  27.058  1.00  0.00    -0.200 F 
ATOM     79  C   UNL A   1      41.107  26.334  26.043  1.00  0.00     0.200 A 
ATOM     80  F   UNL A   1      42.448  28.022  25.081  1.00  0.00    -0.200 F 
ATOM     81  F   UNL A   1      41.301  25.549  24.975  1.00  0.00    -0.200 F 
ENDBRANCH  47  71
BRANCH  59  82
ATOM     82  C   UNL A   1      43.834  28.102  34.533  1.00  0.00     0.064 A 
ATOM     83  C   UNL A   1      45.188  28.463  34.476  1.00  0.00     0.173 A 
ATOM     84  C   UNL A   1      43.497  26.916  35.204  1.00  0.00     0.173 A 
ATOM     85  F   UNL A   1      45.563  29.579  33.834  1.00  0.00    -0.203 F 
ATOM     86  C   UNL A   1      46.168  27.649  35.039  1.00  0.00     0.198 A 
ATOM     87  C   UNL A   1      44.476  26.123  35.794  1.00  0.00     0.198 A 
ATOM     88  F   UNL A   1      42.215  26.530  35.293  1.00  0.00    -0.203 F 
ATOM     89  F   UNL A   1      47.461  27.985  34.923  1.00  0.00    -0.200 F 
ATOM     90  C   UNL A   1      45.812  26.485  35.702  1.00  0.00     0.200 A 
ATOM     91  F   UNL A   1      44.128  25.005  36.445  1.00  0.00    -0.200 F 
ATOM     92  F   UNL A   1      46.756  25.705  36.243  1.00  0.00    -0.200 F 
ENDBRANCH  59  82
ENDBRANCH  33  34
ENDBRANCH  25  28
ENDBRANCH  23  24
ENDBRANCH  22  23
ENDBRANCH  21  22
ENDBRANCH   1  21
TORSDOF 15
ENDMDL
MODEL 2
REMARK VINA RESULT:     -11.8      5.363     10.984
REMARK SMILES COc1ccccc1S(=O)(=O)[C@@H](C)[C@H](C)C(=O)NCCCCNC(=O)c1ccc(-c2c3nc(c(-c4c(F)c(F)c(F)c(F)c4F)c4ccc([nH]4)c(-c4c(F)c(F)c(F)c(F)c4F)c4nc(c(-c5c(F)c(F)c(F)c(F)c5F)c5ccc2[nH]5)C=C4)C=C3)cc1
REMARK SMILES IDX 19 1 18 2 16 3 17 4 14 6 15 7 12 8 13 9 9 10 10 11 11 12
REMARK SMILES IDX 8 13 3 14 4 15 5 16 7 17 6 18 2 19 1 20 20 21 21 22 22 23
REMARK SMILES IDX 23 24 24 25 25 27 26 28 27 29 88 30 28 31 87 32 29 33 30 34
REMARK SMILES IDX 31 35 81 36 32 37 86 38 80 39 82 40 33 41 85 42 79 43 78 44
REMARK SMILES IDX 34 46 66 47 46 48 65 49 47 50 50 51 64 52 83 53 48 54 49 55
REMARK SMILES IDX 63 57 84 58 51 59 35 60 36 61 44 62 37 63 38 64 42 65 45 66
REMARK SMILES IDX 39 67 40 68 43 69 41 70 67 71 68 72 76 73 69 74 70 75 74 76
REMARK SMILES IDX 77 77 71 78 72 79 75 80 73 81 52 82 53 83 61 84 54 85 55 86
REMARK SMILES IDX 59 87 62 88 56 89 57 90 60 91 58 92
REMARK H PARENT 18 5 23 26 82 45 50 56
REMARK Flexibility Score: inf
ROOT
ATOM      1  C   UNL A   1      36.815  21.884  25.665  1.00  0.00     0.116 C 
ENDROOT
BRANCH   1   2
ATOM      2  N   UNL A   1      35.677  21.539  26.489  1.00  0.00    -0.356 N 
ATOM      3  C   UNL A   1      34.352  21.480  26.181  1.00  0.00     0.224 C 
ATOM      4  O   UNL A   1      33.571  21.166  27.079  1.00  0.00    -0.275 OA
ATOM      5  H   UNL A   1      35.896  21.311  27.421  1.00  0.00     0.163 HD
BRANCH   3   6
ATOM      6  C   UNL A   1      33.851  21.793  24.768  1.00  0.00     0.093 C 
ATOM      7  C   UNL A   1      33.055  20.589  24.252  1.00  0.00     0.019 C 
BRANCH   6   8
ATOM      8  C   UNL A   1      33.264  23.236  24.723  1.00  0.00     0.122 C 
ATOM      9  C   UNL A   1      31.915  23.531  24.055  1.00  0.00     0.026 C 
BRANCH   8  10
ATOM     10  S   UNL A   1      34.471  24.507  24.364  1.00  0.00     0.185 S 
ATOM     11  O   UNL A   1      35.165  24.108  23.152  1.00  0.00    -0.223 OA
ATOM     12  O   UNL A   1      35.244  24.705  25.580  1.00  0.00    -0.223 OA
BRANCH  10  13
ATOM     13  C   UNL A   1      33.770  26.097  24.004  1.00  0.00     0.109 A 
ATOM     14  C   UNL A   1      33.507  26.608  22.737  1.00  0.00     0.137 A 
ATOM     15  C   UNL A   1      33.070  27.936  22.613  1.00  0.00     0.048 A 
ATOM     16  C   UNL A   1      32.794  28.709  23.740  1.00  0.00     0.004 A 
ATOM     17  C   UNL A   1      33.467  26.873  25.139  1.00  0.00     0.024 A 
ATOM     18  C   UNL A   1      32.966  28.166  25.007  1.00  0.00     0.002 A 
BRANCH  14  19
ATOM     19  O   UNL A   1      33.719  25.858  21.623  1.00  0.00    -0.495 OA
ATOM     20  C   UNL A   1      32.561  25.702  20.798  1.00  0.00     0.278 C 
ENDBRANCH  14  19
ENDBRANCH  10  13
ENDBRANCH   8  10
ENDBRANCH   6   8
ENDBRANCH   3   6
ENDBRANCH   1   2
BRANCH   1  21
ATOM     21  C   UNL A   1      37.083  20.864  24.563  1.00  0.00     0.023 C 
BRANCH  21  22
ATOM     22  C   UNL A   1      38.000  19.718  24.974  1.00  0.00     0.023 C 
BRANCH  22  23
ATOM     23  C   UNL A   1      39.230  20.137  25.767  1.00  0.00     0.116 C 
BRANCH  23  24
ATOM     24  N   UNL A   1      40.251  19.101  25.845  1.00  0.00    -0.352 N 
ATOM     25  C   UNL A   1      41.594  19.247  26.104  1.00  0.00     0.251 C 
ATOM     26  H   UNL A   1      39.939  18.179  25.693  1.00  0.00     0.163 HD
ATOM     27  O   UNL A   1      42.351  18.292  26.038  1.00  0.00    -0.269 OA
BRANCH  25  28
ATOM     28  C   UNL A   1      42.112  20.594  26.419  1.00  0.00     0.039 A 
ATOM     29  C   UNL A   1      42.357  21.482  25.371  1.00  0.00     0.014 A 
ATOM     30  C   UNL A   1      42.296  20.989  27.747  1.00  0.00     0.014 A 
ATOM     31  C   UNL A   1      42.731  22.795  25.662  1.00  0.00     0.010 A 
ATOM     32  C   UNL A   1      42.580  22.318  28.034  1.00  0.00     0.010 A 
ATOM     33  C   UNL A   1      42.812  23.231  26.994  1.00  0.00    -0.014 A 
BRANCH  33  34
ATOM     34  C   UNL A   1      43.170  24.633  27.320  1.00  0.00     0.031 A 
ATOM     35  C   UNL A   1      44.568  25.125  27.067  1.00  0.00     0.074 A 
ATOM     36  C   UNL A   1      42.255  25.444  27.885  1.00  0.00     0.049 A 
ATOM     37  N   UNL A   1      45.090  26.301  27.313  1.00  0.00    -0.248 NA
ATOM     38  C   UNL A   1      45.516  24.158  26.492  1.00  0.00     0.031 C 
ATOM     39  C   UNL A   1      40.884  25.063  28.232  1.00  0.00     0.029 A 
ATOM     40  N   UNL A   1      42.342  26.758  28.269  1.00  0.00    -0.354 N 
ATOM     41  C   UNL A   1      46.422  26.206  26.935  1.00  0.00     0.074 A 
ATOM     42  C   UNL A   1      46.648  24.844  26.508  1.00  0.00     0.031 C 
ATOM     43  C   UNL A   1      40.249  26.129  28.748  1.00  0.00     0.029 A 
ATOM     44  C   UNL A   1      41.175  27.257  28.795  1.00  0.00     0.049 A 
ATOM     45  H   UNL A   1      43.163  27.293  28.176  1.00  0.00     0.167 HD
ATOM     46  C   UNL A   1      47.365  27.177  26.912  1.00  0.00     0.037 A 
ATOM     47  C   UNL A   1      40.887  28.489  29.256  1.00  0.00     0.037 A 
ATOM     48  C   UNL A   1      47.129  28.539  27.312  1.00  0.00     0.049 A 
ATOM     49  C   UNL A   1      41.950  29.554  29.208  1.00  0.00     0.074 A 
ATOM     50  C   UNL A   1      48.003  29.612  27.285  1.00  0.00     0.029 A 
ATOM     51  N   UNL A   1      45.925  29.015  27.810  1.00  0.00    -0.354 N 
ATOM     52  N   UNL A   1      43.187  29.472  28.781  1.00  0.00    -0.248 NA
ATOM     53  C   UNL A   1      41.570  30.887  29.693  1.00  0.00     0.031 C 
ATOM     54  C   UNL A   1      47.338  30.729  27.801  1.00  0.00     0.029 A 
ATOM     55  C   UNL A   1      46.035  30.365  28.103  1.00  0.00     0.049 A 
ATOM     56  H   UNL A   1      45.112  28.474  27.935  1.00  0.00     0.167 HD
ATOM     57  C   UNL A   1      43.720  30.748  28.911  1.00  0.00     0.074 A 
ATOM     58  C   UNL A   1      42.666  31.586  29.444  1.00  0.00     0.031 C 
ATOM     59  C   UNL A   1      44.970  31.186  28.617  1.00  0.00     0.037 A 
BRANCH  46  60
ATOM     60  C   UNL A   1      48.734  26.798  26.426  1.00  0.00     0.064 A 
ATOM     61  C   UNL A   1      49.699  26.262  27.294  1.00  0.00     0.173 A 
ATOM     62  C   UNL A   1      49.081  26.951  25.076  1.00  0.00     0.173 A 
ATOM     63  F   UNL A   1      49.423  26.109  28.598  1.00  0.00    -0.203 F 
ATOM     64  C   UNL A   1      50.970  25.927  26.835  1.00  0.00     0.198 A 
ATOM     65  C   UNL A   1      50.343  26.583  24.614  1.00  0.00     0.198 A 
ATOM     66  F   UNL A   1      48.197  27.455  24.202  1.00  0.00    -0.203 F 
ATOM     67  F   UNL A   1      51.891  25.471  27.694  1.00  0.00    -0.200 F 
ATOM     68  C   UNL A   1      51.288  26.081  25.494  1.00  0.00     0.200 A 
ATOM     69  F   UNL A   1      50.646  26.721  23.315  1.00  0.00    -0.200 F 
ATOM     70  F   UNL A   1      52.510  25.752  25.053  1.00  0.00    -0.200 F 
ENDBRANCH  46  60
BRANCH  47  71
ATOM     71  C   UNL A   1      39.524  28.797  29.761  1.00  0.00     0.064 A 
ATOM     72  C   UNL A   1      38.552  29.348  28.912  1.00  0.00     0.173 A 
ATOM     73  C   UNL A   1      39.168  28.568  31.097  1.00  0.00     0.173 A 
ATOM     74  F   UNL A   1      38.851  29.602  27.630  1.00  0.00    -0.203 F 
ATOM     75  C   UNL A   1      37.286  29.681  29.388  1.00  0.00     0.198 A 
ATOM     76  C   UNL A   1      37.892  28.875  31.564  1.00  0.00     0.198 A 
ATOM     77  F   UNL A   1      40.058  28.036  31.948  1.00  0.00    -0.203 F 
ATOM     78  F   UNL A   1      36.395  30.254  28.567  1.00  0.00    -0.200 F 
ATOM     79  C   UNL A   1      36.955  29.441  30.713  1.00  0.00     0.200 A 
ATOM     80  F   UNL A   1      37.571  28.628  32.842  1.00  0.00    -0.200 F 
ATOM     81  F   UNL A   1      35.737  29.763  31.170  1.00  0.00    -0.200 F 
ENDBRANCH  47  71
BRANCH  59  82
ATOM     82  C   UNL A   1      45.247  32.647  28.818  1.00  0.00     0.064 A 
ATOM     83  C   UNL A   1      45.806  33.138  30.006  1.00  0.00     0.173 A 
ATOM     84  C   UNL A   1      44.968  33.566  27.793  1.00  0.00     0.173 A 
ATOM     85  F   UNL A   1      46.078  32.303  31.020  1.00  0.00    -0.203 F 
ATOM     86  C   UNL A   1      46.043  34.500  30.175  1.00  0.00     0.198 A 
ATOM     87  C   UNL A   1      45.237  34.921  27.954  1.00  0.00     0.198 A 
ATOM     88  F   UNL A   1      44.440  33.146  26.633  1.00  0.00    -0.203 F 
ATOM     89  F   UNL A   1      46.524  34.954  31.341  1.00  0.00    -0.200 F 
ATOM     90  C   UNL A   1      45.764  35.389  29.147  1.00  0.00     0.200 A 
ATOM     91  F   UNL A   1      44.980  35.776  26.955  1.00  0.00    -0.200 F 
ATOM     92  F   UNL A   1      45.994  36.698  29.312  1.00  0.00    -0.200 F 
ENDBRANCH  59  82
ENDBRANCH  33  34
ENDBRANCH  25  28
ENDBRANCH  23  24
ENDBRANCH  22  23
ENDBRANCH  21  22
ENDBRANCH   1  21
TORSDOF 15
ENDMDL
MODEL 3
REMARK VINA RESULT:     -11.6      0.685      1.573
REMARK SMILES COc1ccccc1S(=O)(=O)[C@@H](C)[C@H](C)C(=O)NCCCCNC(=O)c1ccc(-c2c3nc(c(-c4c(F)c(F)c(F)c(F)c4F)c4ccc([nH]4)c(-c4c(F)c(F)c(F)c(F)c4F)c4nc(c(-c5c(F)c(F)c(F)c(F)c5F)c5ccc2[nH]5)C=C4)C=C3)cc1
REMARK SMILES IDX 19 1 18 2 16 3 17 4 14 6 15 7 12 8 13 9 9 10 10 11 11 12
REMARK SMILES IDX 8 13 3 14 4 15 5 16 7 17 6 18 2 19 1 20 20 21 21 22 22 23
REMARK SMILES IDX 23 24 24 25 25 27 26 28 27 29 88 30 28 31 87 32 29 33 30 34
REMARK SMILES IDX 31 35 81 36 32 37 86 38 80 39 82 40 33 41 85 42 79 43 78 44
REMARK SMILES IDX 34 46 66 47 46 48 65 49 47 50 50 51 64 52 83 53 48 54 49 55
REMARK SMILES IDX 63 57 84 58 51 59 35 60 36 61 44 62 37 63 38 64 42 65 45 66
REMARK SMILES IDX 39 67 40 68 43 69 41 70 67 71 68 72 76 73 69 74 70 75 74 76
REMARK SMILES IDX 77 77 71 78 72 79 75 80 73 81 52 82 53 83 61 84 54 85 55 86
REMARK SMILES IDX 59 87 62 88 56 89 57 90 60 91 58 92
REMARK H PARENT 18 5 23 26 82 45 50 56
REMARK Flexibility Score: inf
ROOT
ATOM      1  C   UNL A   1      32.901  29.856  26.749  1.00  0.00     0.116 C 
ENDROOT
BRANCH   1   2
ATOM      2  N   UNL A   1      33.361  29.782  25.378  1.00  0.00    -0.356 N 
ATOM      3  C   UNL A   1      32.773  29.230  24.281  1.00  0.00     0.224 C 
ATOM      4  O   UNL A   1      33.386  29.291  23.215  1.00  0.00    -0.275 OA
ATOM      5  H   UNL A   1      34.237  30.198  25.214  1.00  0.00     0.163 HD
BRANCH   3   6
ATOM      6  C   UNL A   1      31.401  28.557  24.369  1.00  0.00     0.093 C 
ATOM      7  C   UNL A   1      30.415  29.335  23.490  1.00  0.00     0.019 C 
BRANCH   6   8
ATOM      8  C   UNL A   1      31.561  27.012  24.242  1.00  0.00     0.122 C 
ATOM      9  C   UNL A   1      30.614  26.178  23.369  1.00  0.00     0.026 C 
BRANCH   8  10
ATOM     10  S   UNL A   1      31.937  26.185  25.784  1.00  0.00     0.185 S 
ATOM     11  O   UNL A   1      30.867  26.502  26.713  1.00  0.00    -0.223 OA
ATOM     12  O   UNL A   1      33.300  26.554  26.133  1.00  0.00    -0.223 OA
BRANCH  10  13
ATOM     13  C   UNL A   1      31.958  24.414  25.674  1.00  0.00     0.109 A 
ATOM     14  C   UNL A   1      32.951  23.643  25.076  1.00  0.00     0.137 A 
ATOM     15  C   UNL A   1      32.760  22.258  24.956  1.00  0.00     0.048 A 
ATOM     16  C   UNL A   1      31.646  21.635  25.519  1.00  0.00     0.004 A 
ATOM     17  C   UNL A   1      30.849  23.778  26.261  1.00  0.00     0.024 A 
ATOM     18  C   UNL A   1      30.702  22.394  26.197  1.00  0.00     0.002 A 
BRANCH  14  19
ATOM     19  O   UNL A   1      34.070  24.219  24.565  1.00  0.00    -0.495 OA
ATOM     20  C   UNL A   1      34.055  24.360  23.142  1.00  0.00     0.278 C 
ENDBRANCH  14  19
ENDBRANCH  10  13
ENDBRANCH   8  10
ENDBRANCH   6   8
ENDBRANCH   3   6
ENDBRANCH   1   2
BRANCH   1  21
ATOM     21  C   UNL A   1      31.544  30.536  26.886  1.00  0.00     0.023 C 
BRANCH  21  22
ATOM     22  C   UNL A   1      31.561  32.037  26.618  1.00  0.00     0.023 C 
BRANCH  22  23
ATOM     23  C   UNL A   1      32.747  32.779  27.217  1.00  0.00     0.116 C 
BRANCH  23  24
ATOM     24  N   UNL A   1      32.424  34.128  27.660  1.00  0.00    -0.352 N 
ATOM     25  C   UNL A   1      33.031  34.869  28.648  1.00  0.00     0.251 C 
ATOM     26  H   UNL A   1      31.676  34.566  27.193  1.00  0.00     0.163 HD
ATOM     27  O   UNL A   1      32.585  35.955  28.979  1.00  0.00    -0.269 OA
BRANCH  25  28
ATOM     28  C   UNL A   1      34.211  34.302  29.333  1.00  0.00     0.039 A 
ATOM     29  C   UNL A   1      34.011  33.436  30.410  1.00  0.00     0.014 A 
ATOM     30  C   UNL A   1      35.500  34.582  28.873  1.00  0.00     0.014 A 
ATOM     31  C   UNL A   1      35.110  32.800  30.988  1.00  0.00     0.010 A 
ATOM     32  C   UNL A   1      36.582  33.880  29.391  1.00  0.00     0.010 A 
ATOM     33  C   UNL A   1      36.399  32.992  30.462  1.00  0.00    -0.014 A 
BRANCH  33  34
ATOM     34  C   UNL A   1      37.573  32.294  31.039  1.00  0.00     0.031 A 
ATOM     35  C   UNL A   1      38.068  32.672  32.408  1.00  0.00     0.074 A 
ATOM     36  C   UNL A   1      38.219  31.358  30.317  1.00  0.00     0.049 A 
ATOM     37  N   UNL A   1      39.095  32.208  33.075  1.00  0.00    -0.248 NA
ATOM     38  C   UNL A   1      37.331  33.737  33.107  1.00  0.00     0.031 C 
ATOM     39  C   UNL A   1      37.869  30.948  28.956  1.00  0.00     0.029 A 
ATOM     40  N   UNL A   1      39.308  30.585  30.627  1.00  0.00    -0.354 N 
ATOM     41  C   UNL A   1      39.130  32.932  34.259  1.00  0.00     0.074 A 
ATOM     42  C   UNL A   1      38.069  33.910  34.192  1.00  0.00     0.031 C 
ATOM     43  C   UNL A   1      38.707  29.976  28.561  1.00  0.00     0.029 A 
ATOM     44  C   UNL A   1      39.670  29.716  29.627  1.00  0.00     0.049 A 
ATOM     45  H   UNL A   1      39.786  30.648  31.486  1.00  0.00     0.167 HD
ATOM     46  C   UNL A   1      39.952  32.773  35.323  1.00  0.00     0.037 A 
ATOM     47  C   UNL A   1      40.663  28.808  29.582  1.00  0.00     0.037 A 
ATOM     48  C   UNL A   1      40.991  31.779  35.397  1.00  0.00     0.049 A 
ATOM     49  C   UNL A   1      41.556  28.642  30.783  1.00  0.00     0.074 A 
ATOM     50  C   UNL A   1      41.850  31.503  36.446  1.00  0.00     0.029 A 
ATOM     51  N   UNL A   1      41.307  30.895  34.376  1.00  0.00    -0.354 N 
ATOM     52  N   UNL A   1      41.535  29.283  31.927  1.00  0.00    -0.248 NA
ATOM     53  C   UNL A   1      42.600  27.614  30.691  1.00  0.00     0.031 C 
ATOM     54  C   UNL A   1      42.711  30.476  36.046  1.00  0.00     0.029 A 
ATOM     55  C   UNL A   1      42.356  30.078  34.767  1.00  0.00     0.049 A 
ATOM     56  H   UNL A   1      40.853  30.853  33.504  1.00  0.00     0.167 HD
ATOM     57  C   UNL A   1      42.536  28.713  32.702  1.00  0.00     0.074 A 
ATOM     58  C   UNL A   1      43.135  27.665  31.902  1.00  0.00     0.031 C 
ATOM     59  C   UNL A   1      42.926  29.029  33.962  1.00  0.00     0.037 A 
BRANCH  46  60
ATOM     60  C   UNL A   1      39.749  33.688  36.495  1.00  0.00     0.064 A 
ATOM     61  C   UNL A   1      40.380  34.940  36.568  1.00  0.00     0.173 A 
ATOM     62  C   UNL A   1      38.899  33.322  37.549  1.00  0.00     0.173 A 
ATOM     63  F   UNL A   1      41.215  35.332  35.593  1.00  0.00    -0.203 F 
ATOM     64  C   UNL A   1      40.195  35.775  37.666  1.00  0.00     0.198 A 
ATOM     65  C   UNL A   1      38.690  34.175  38.631  1.00  0.00     0.198 A 
ATOM     66  F   UNL A   1      38.268  32.139  37.530  1.00  0.00    -0.203 F 
ATOM     67  F   UNL A   1      40.854  36.940  37.738  1.00  0.00    -0.200 F 
ATOM     68  C   UNL A   1      39.345  35.395  38.693  1.00  0.00     0.200 A 
ATOM     69  F   UNL A   1      37.859  33.812  39.617  1.00  0.00    -0.200 F 
ATOM     70  F   UNL A   1      39.163  36.203  39.747  1.00  0.00    -0.200 F 
ENDBRANCH  46  60
BRANCH  47  71
ATOM     71  C   UNL A   1      40.841  27.954  28.380  1.00  0.00     0.064 A 
ATOM     72  C   UNL A   1      40.230  26.694  28.298  1.00  0.00     0.173 A 
ATOM     73  C   UNL A   1      41.633  28.365  27.299  1.00  0.00     0.173 A 
ATOM     74  F   UNL A   1      39.477  26.248  29.314  1.00  0.00    -0.203 F 
ATOM     75  C   UNL A   1      40.427  25.868  27.193  1.00  0.00     0.198 A 
ATOM     76  C   UNL A   1      41.806  27.550  26.182  1.00  0.00     0.198 A 
ATOM     77  F   UNL A   1      42.233  29.564  27.324  1.00  0.00    -0.203 F 
ATOM     78  F   UNL A   1      39.873  24.648  27.165  1.00  0.00    -0.200 F 
ATOM     79  C   UNL A   1      41.211  26.298  26.134  1.00  0.00     0.200 A 
ATOM     80  F   UNL A   1      42.553  27.976  25.154  1.00  0.00    -0.200 F 
ATOM     81  F   UNL A   1      41.402  25.503  25.072  1.00  0.00    -0.200 F 
ENDBRANCH  47  71
BRANCH  59  82
ATOM     82  C   UNL A   1      44.018  28.196  34.569  1.00  0.00     0.064 A 
ATOM     83  C   UNL A   1      45.367  28.565  34.477  1.00  0.00     0.173 A 
ATOM     84  C   UNL A   1      43.703  27.023  35.272  1.00  0.00     0.173 A 
ATOM     85  F   UNL A   1      45.722  29.670  33.804  1.00  0.00    -0.203 F 
ATOM     86  C   UNL A   1      46.365  27.770  35.038  1.00  0.00     0.198 A 
ATOM     87  C   UNL A   1      44.700  26.250  35.859  1.00  0.00     0.198 A 
ATOM     88  F   UNL A   1      42.425  26.630  35.396  1.00  0.00    -0.203 F 
ATOM     89  F   UNL A   1      47.652  28.113  34.888  1.00  0.00    -0.200 F 
ATOM     90  C   UNL A   1      46.030  26.618  35.732  1.00  0.00     0.200 A 
ATOM     91  F   UNL A   1      44.373  25.144  36.541  1.00  0.00    -0.200 F 
ATOM     92  F   UNL A   1      46.991  25.856  36.271  1.00  0.00    -0.200 F 
ENDBRANCH  59  82
ENDBRANCH  33  34
ENDBRANCH  25  28
ENDBRANCH  23  24
ENDBRANCH  22  23
ENDBRANCH  21  22
ENDBRANCH   1  21
TORSDOF 15
ENDMDL
