MODEL 1
REMARK VINA RESULT:     -13.5      0.000      0.000
REMARK SMILES COc1cc(OC)c(-c2cc(C(=O)NCCCCNC(=O)c3ccc(-c4c5nc(c(-c6c(F)c(F)c(F)c(F)c6F)c6ccc([nH]6)c(-c6c(F)c(F)c(F)c(F)c6F)c6nc(c(-c7c(F)c(F)c(F)c(F)c7F)c7ccc4[nH]7)C=C6)C=C5)cc3)c3c(-c4ccc(Cl)cc4)[nH]nc3n2)cc1OC
REMARK SMILES IDX 16 1 15 2 14 3 12 4 13 5 11 7 9 8 10 9 97 10 96 11 85 12
REMARK SMILES IDX 95 13 86 14 94 15 8 17 3 18 4 19 99 20 5 21 98 22 2 23 1 24
REMARK SMILES IDX 100 25 101 26 6 27 7 28 87 29 88 30 93 31 89 32 92 33 90 34
REMARK SMILES IDX 91 35 17 36 18 37 19 38 20 39 21 41 22 42 23 43 84 44 24 45
REMARK SMILES IDX 83 46 25 47 26 48 27 49 77 50 28 51 82 52 76 53 78 54 29 55
REMARK SMILES IDX 81 56 75 57 74 58 30 60 62 61 42 62 61 63 43 64 46 65 60 66
REMARK SMILES IDX 79 67 44 68 45 69 59 71 80 72 47 73 31 74 32 75 40 76 33 77
REMARK SMILES IDX 34 78 38 79 41 80 35 81 36 82 39 83 37 84 63 85 64 86 72 87
REMARK SMILES IDX 65 88 66 89 70 90 73 91 67 92 68 93 71 94 69 95 48 96 49 97
REMARK SMILES IDX 57 98 50 99 51 100 55 101 58 102 52 103 53 104 56 105 54 106
REMARK H PARENT 14 6 94 16 19 40 78 59 46 70
REMARK Flexibility Score: inf
ROOT
ATOM      1  C   UNL A   1      32.239  29.204  26.840  1.00  0.00     0.023 C 
ENDROOT
BRANCH   1   2
ATOM      2  C   UNL A   1      31.987  27.855  27.510  1.00  0.00     0.116 C 
BRANCH   2   3
ATOM      3  N   UNL A   1      30.958  27.083  26.842  1.00  0.00    -0.352 N 
ATOM      4  C   UNL A   1      30.930  26.151  25.837  1.00  0.00     0.252 C 
ATOM      5  O   UNL A   1      29.881  25.515  25.784  1.00  0.00    -0.269 OA
ATOM      6  H   UNL A   1      30.060  27.274  27.197  1.00  0.00     0.163 HD
BRANCH   4   7
ATOM      7  C   UNL A   1      32.055  25.845  24.920  1.00  0.00     0.055 A 
ATOM      8  C   UNL A   1      34.078  24.509  24.346  1.00  0.00     0.077 A 
ATOM      9  C   UNL A   1      33.138  25.036  25.269  1.00  0.00     0.043 A 
ATOM     10  N   UNL A   1      34.132  24.803  23.026  1.00  0.00    -0.226 NA
ATOM     11  C   UNL A   1      33.205  25.728  22.663  1.00  0.00     0.182 A 
ATOM     12  C   UNL A   1      32.202  26.239  23.574  1.00  0.00     0.059 A 
ATOM     13  N   UNL A   1      33.110  26.283  21.457  1.00  0.00    -0.154 NA
ATOM     14  C   UNL A   1      31.519  27.193  22.833  1.00  0.00     0.075 A 
ATOM     15  N   UNL A   1      32.106  27.158  21.588  1.00  0.00    -0.275 N 
ATOM     16  H   UNL A   1      31.808  27.734  20.848  1.00  0.00     0.190 HD
BRANCH   8  17
ATOM     17  C   UNL A   1      35.039  23.528  24.881  1.00  0.00     0.046 A 
ATOM     18  C   UNL A   1      37.206  21.854  25.625  1.00  0.00     0.164 A 
ATOM     19  C   UNL A   1      35.968  21.315  25.238  1.00  0.00     0.097 A 
ATOM     20  C   UNL A   1      37.379  23.235  25.654  1.00  0.00     0.161 A 
ATOM     21  C   UNL A   1      34.895  22.135  24.833  1.00  0.00     0.132 A 
ATOM     22  C   UNL A   1      36.283  24.043  25.323  1.00  0.00     0.064 A 
BRANCH  18  23
ATOM     23  O   UNL A   1      38.245  20.977  25.784  1.00  0.00    -0.493 OA
ATOM     24  C   UNL A   1      38.091  19.800  24.990  1.00  0.00     0.278 C 
ENDBRANCH  18  23
BRANCH  20  25
ATOM     25  O   UNL A   1      38.505  23.971  25.888  1.00  0.00    -0.493 OA
ATOM     26  C   UNL A   1      38.875  24.279  27.221  1.00  0.00     0.278 C 
ENDBRANCH  20  25
BRANCH  21  27
ATOM     27  O   UNL A   1      33.804  21.422  24.407  1.00  0.00    -0.496 OA
ATOM     28  C   UNL A   1      33.805  20.018  24.634  1.00  0.00     0.278 C 
ENDBRANCH  21  27
ENDBRANCH   8  17
BRANCH  14  29
ATOM     29  C   UNL A   1      30.465  28.162  23.116  1.00  0.00     0.000 A 
ATOM     30  C   UNL A   1      30.800  29.459  23.529  1.00  0.00     0.012 A 
ATOM     31  C   UNL A   1      29.116  27.828  22.929  1.00  0.00     0.012 A 
ATOM     32  C   UNL A   1      29.804  30.428  23.686  1.00  0.00     0.021 A 
ATOM     33  C   UNL A   1      28.123  28.801  23.074  1.00  0.00     0.021 A 
ATOM     34  C   UNL A   1      28.473  30.099  23.437  1.00  0.00     0.041 A 
ATOM     35  Cl  UNL A   1      27.257  31.312  23.556  1.00  0.00    -0.084 Cl
ENDBRANCH  14  29
ENDBRANCH   4   7
ENDBRANCH   2   3
ENDBRANCH   1   2
BRANCH   1  36
ATOM     36  C   UNL A   1      33.539  29.272  26.020  1.00  0.00     0.023 C 
BRANCH  36  37
ATOM     37  C   UNL A   1      34.766  29.777  26.781  1.00  0.00     0.116 C 
BRANCH  37  38
ATOM     38  N   UNL A   1      34.540  31.055  27.448  1.00  0.00    -0.352 N 
ATOM     39  C   UNL A   1      35.049  31.483  28.660  1.00  0.00     0.251 C 
ATOM     40  H   UNL A   1      33.954  31.690  26.976  1.00  0.00     0.163 HD
ATOM     41  O   UNL A   1      34.471  32.338  29.311  1.00  0.00    -0.269 OA
BRANCH  39  42
ATOM     42  C   UNL A   1      36.310  30.900  29.156  1.00  0.00     0.039 A 
ATOM     43  C   UNL A   1      36.341  29.607  29.672  1.00  0.00     0.014 A 
ATOM     44  C   UNL A   1      37.473  31.667  29.105  1.00  0.00     0.014 A 
ATOM     45  C   UNL A   1      37.570  29.065  30.040  1.00  0.00     0.010 A 
ATOM     46  C   UNL A   1      38.704  31.099  29.365  1.00  0.00     0.010 A 
ATOM     47  C   UNL A   1      38.759  29.799  29.846  1.00  0.00    -0.014 A 
BRANCH  47  48
ATOM     48  C   UNL A   1      40.047  29.102  29.914  1.00  0.00     0.031 A 
ATOM     49  C   UNL A   1      40.519  28.967  31.317  1.00  0.00     0.074 A 
ATOM     50  C   UNL A   1      40.675  28.474  28.891  1.00  0.00     0.049 A 
ATOM     51  N   UNL A   1      41.475  29.632  31.873  1.00  0.00    -0.248 NA
ATOM     52  C   UNL A   1      39.730  28.164  32.270  1.00  0.00     0.031 C 
ATOM     53  C   UNL A   1      40.146  28.241  27.544  1.00  0.00     0.029 A 
ATOM     54  N   UNL A   1      41.887  27.826  28.849  1.00  0.00    -0.354 N 
ATOM     55  C   UNL A   1      41.606  29.091  33.148  1.00  0.00     0.074 A 
ATOM     56  C   UNL A   1      40.378  28.396  33.416  1.00  0.00     0.031 C 
ATOM     57  C   UNL A   1      40.903  27.321  26.905  1.00  0.00     0.029 A 
ATOM     58  C   UNL A   1      42.070  27.027  27.718  1.00  0.00     0.049 A 
ATOM     59  H   UNL A   1      42.567  27.917  29.555  1.00  0.00     0.167 HD
ATOM     60  C   UNL A   1      42.859  28.927  33.656  1.00  0.00     0.037 A 
ATOM     61  C   UNL A   1      43.107  26.191  27.446  1.00  0.00     0.037 A 
ATOM     62  C   UNL A   1      43.802  29.724  32.909  1.00  0.00     0.049 A 
ATOM     63  C   UNL A   1      44.263  26.630  28.254  1.00  0.00     0.074 A 
ATOM     64  C   UNL A   1      44.166  31.048  32.804  1.00  0.00     0.029 A 
ATOM     65  N   UNL A   1      44.236  29.101  31.773  1.00  0.00    -0.354 N 
ATOM     66  N   UNL A   1      44.909  27.739  28.030  1.00  0.00    -0.248 NA
ATOM     67  C   UNL A   1      44.523  25.993  29.540  1.00  0.00     0.031 C 
ATOM     68  C   UNL A   1      44.815  31.195  31.537  1.00  0.00     0.029 A 
ATOM     69  C   UNL A   1      44.883  29.950  30.924  1.00  0.00     0.049 A 
ATOM     70  H   UNL A   1      44.097  28.144  31.588  1.00  0.00     0.167 HD
ATOM     71  C   UNL A   1      45.276  28.160  29.288  1.00  0.00     0.074 A 
ATOM     72  C   UNL A   1      45.189  26.982  30.141  1.00  0.00     0.031 C 
ATOM     73  C   UNL A   1      45.233  29.483  29.607  1.00  0.00     0.037 A 
BRANCH  60  74
ATOM     74  C   UNL A   1      43.342  27.665  34.361  1.00  0.00     0.064 A 
ATOM     75  C   UNL A   1      43.927  27.797  35.640  1.00  0.00     0.173 A 
ATOM     76  C   UNL A   1      43.571  26.424  33.725  1.00  0.00     0.173 A 
ATOM     77  F   UNL A   1      43.797  28.937  36.336  1.00  0.00    -0.203 F 
ATOM     78  C   UNL A   1      44.741  26.802  36.193  1.00  0.00     0.198 A 
ATOM     79  C   UNL A   1      44.347  25.417  34.301  1.00  0.00     0.198 A 
ATOM     80  F   UNL A   1      43.159  26.163  32.482  1.00  0.00    -0.203 F 
ATOM     81  F   UNL A   1      45.373  27.027  37.354  1.00  0.00    -0.200 F 
ATOM     82  C   UNL A   1      44.957  25.616  35.520  1.00  0.00     0.200 A 
ATOM     83  F   UNL A   1      44.566  24.285  33.616  1.00  0.00    -0.200 F 
ATOM     84  F   UNL A   1      45.783  24.686  36.016  1.00  0.00    -0.200 F 
ENDBRANCH  60  74
BRANCH  61  85
ATOM     85  C   UNL A   1      43.169  24.935  26.658  1.00  0.00     0.064 A 
ATOM     86  C   UNL A   1      43.946  24.841  25.488  1.00  0.00     0.173 A 
ATOM     87  C   UNL A   1      42.728  23.722  27.214  1.00  0.00     0.173 A 
ATOM     88  F   UNL A   1      44.436  25.947  24.910  1.00  0.00    -0.203 F 
ATOM     89  C   UNL A   1      44.301  23.604  24.937  1.00  0.00     0.198 A 
ATOM     90  C   UNL A   1      43.083  22.487  26.662  1.00  0.00     0.198 A 
ATOM     91  F   UNL A   1      42.035  23.711  28.361  1.00  0.00    -0.203 F 
ATOM     92  F   UNL A   1      45.105  23.555  23.864  1.00  0.00    -0.200 F 
ATOM     93  C   UNL A   1      43.884  22.428  25.535  1.00  0.00     0.200 A 
ATOM     94  F   UNL A   1      42.706  21.354  27.270  1.00  0.00    -0.200 F 
ATOM     95  F   UNL A   1      44.287  21.243  25.054  1.00  0.00    -0.200 F 
ENDBRANCH  61  85
BRANCH  73  96
ATOM     96  C   UNL A   1      45.441  30.469  28.507  1.00  0.00     0.064 A 
ATOM     97  C   UNL A   1      44.423  31.026  27.718  1.00  0.00     0.173 A 
ATOM     98  C   UNL A   1      46.757  30.889  28.270  1.00  0.00     0.173 A 
ATOM     99  F   UNL A   1      43.135  30.720  27.932  1.00  0.00    -0.203 F 
ATOM    100  C   UNL A   1      44.725  31.938  26.707  1.00  0.00     0.198 A 
ATOM    101  C   UNL A   1      47.050  31.823  27.286  1.00  0.00     0.198 A 
ATOM    102  F   UNL A   1      47.761  30.403  29.016  1.00  0.00    -0.203 F 
ATOM    103  F   UNL A   1      43.746  32.445  25.943  1.00  0.00    -0.200 F 
ATOM    104  C   UNL A   1      46.036  32.340  26.496  1.00  0.00     0.200 A 
ATOM    105  F   UNL A   1      48.315  32.231  27.113  1.00  0.00    -0.200 F 
ATOM    106  F   UNL A   1      46.324  33.235  25.542  1.00  0.00    -0.200 F 
ENDBRANCH  73  96
ENDBRANCH  47  48
ENDBRANCH  39  42
ENDBRANCH  37  38
ENDBRANCH  36  37
ENDBRANCH   1  36
TORSDOF 16
ENDMDL
MODEL 2
REMARK VINA RESULT:     -12.7      1.446      2.006
REMARK SMILES COc1cc(OC)c(-c2cc(C(=O)NCCCCNC(=O)c3ccc(-c4c5nc(c(-c6c(F)c(F)c(F)c(F)c6F)c6ccc([nH]6)c(-c6c(F)c(F)c(F)c(F)c6F)c6nc(c(-c7c(F)c(F)c(F)c(F)c7F)c7ccc4[nH]7)C=C6)C=C5)cc3)c3c(-c4ccc(Cl)cc4)[nH]nc3n2)cc1OC
REMARK SMILES IDX 16 1 15 2 14 3 12 4 13 5 11 7 9 8 10 9 97 10 96 11 85 12
REMARK SMILES IDX 95 13 86 14 94 15 8 17 3 18 4 19 99 20 5 21 98 22 2 23 1 24
REMARK SMILES IDX 100 25 101 26 6 27 7 28 87 29 88 30 93 31 89 32 92 33 90 34
REMARK SMILES IDX 91 35 17 36 18 37 19 38 20 39 21 41 22 42 23 43 84 44 24 45
REMARK SMILES IDX 83 46 25 47 26 48 27 49 77 50 28 51 82 52 76 53 78 54 29 55
REMARK SMILES IDX 81 56 75 57 74 58 30 60 62 61 42 62 61 63 43 64 46 65 60 66
REMARK SMILES IDX 79 67 44 68 45 69 59 71 80 72 47 73 31 74 32 75 40 76 33 77
REMARK SMILES IDX 34 78 38 79 41 80 35 81 36 82 39 83 37 84 63 85 64 86 72 87
REMARK SMILES IDX 65 88 66 89 70 90 73 91 67 92 68 93 71 94 69 95 48 96 49 97
REMARK SMILES IDX 57 98 50 99 51 100 55 101 58 102 52 103 53 104 56 105 54 106
REMARK H PARENT 14 6 94 16 19 40 78 59 46 70
REMARK Flexibility Score: inf
ROOT
ATOM      1  C   UNL A   1      33.675  30.569  27.249  1.00  0.00     0.023 C 
ENDROOT
BRANCH   1   2
ATOM      2  C   UNL A   1      33.007  29.509  26.376  1.00  0.00     0.116 C 
BRANCH   2   3
ATOM      3  N   UNL A   1      33.574  29.447  25.042  1.00  0.00    -0.352 N 
ATOM      4  C   UNL A   1      33.548  28.547  24.008  1.00  0.00     0.252 C 
ATOM      5  O   UNL A   1      33.906  29.021  22.933  1.00  0.00    -0.269 OA
ATOM      6  H   UNL A   1      34.105  30.246  24.826  1.00  0.00     0.163 HD
BRANCH   4   7
ATOM      7  C   UNL A   1      33.072  27.145  24.103  1.00  0.00     0.055 A 
ATOM      8  C   UNL A   1      33.509  24.738  24.577  1.00  0.00     0.077 A 
ATOM      9  C   UNL A   1      33.926  26.046  24.216  1.00  0.00     0.043 A 
ATOM     10  N   UNL A   1      32.226  24.343  24.748  1.00  0.00    -0.226 NA
ATOM     11  C   UNL A   1      31.338  25.335  24.477  1.00  0.00     0.182 A 
ATOM     12  C   UNL A   1      31.739  26.689  24.160  1.00  0.00     0.059 A 
ATOM     13  N   UNL A   1      30.015  25.190  24.452  1.00  0.00    -0.154 NA
ATOM     14  C   UNL A   1      30.548  27.347  23.888  1.00  0.00     0.075 A 
ATOM     15  N   UNL A   1      29.569  26.399  24.089  1.00  0.00    -0.275 N 
ATOM     16  H   UNL A   1      28.612  26.596  23.976  1.00  0.00     0.190 HD
BRANCH   8  17
ATOM     17  C   UNL A   1      34.580  23.757  24.824  1.00  0.00     0.046 A 
ATOM     18  C   UNL A   1      36.924  22.178  25.074  1.00  0.00     0.164 A 
ATOM     19  C   UNL A   1      35.728  21.634  24.577  1.00  0.00     0.097 A 
ATOM     20  C   UNL A   1      36.966  23.515  25.460  1.00  0.00     0.161 A 
ATOM     21  C   UNL A   1      34.567  22.416  24.415  1.00  0.00     0.132 A 
ATOM     22  C   UNL A   1      35.785  24.265  25.368  1.00  0.00     0.064 A 
BRANCH  18  23
ATOM     23  O   UNL A   1      38.048  21.402  24.984  1.00  0.00    -0.493 OA
ATOM     24  C   UNL A   1      37.742  20.010  24.890  1.00  0.00     0.278 C 
ENDBRANCH  18  23
BRANCH  20  25
ATOM     25  O   UNL A   1      38.026  24.277  25.864  1.00  0.00    -0.493 OA
ATOM     26  C   UNL A   1      38.773  23.889  27.003  1.00  0.00     0.278 C 
ENDBRANCH  20  25
BRANCH  21  27
ATOM     27  O   UNL A   1      33.533  21.730  23.833  1.00  0.00    -0.496 OA
ATOM     28  C   UNL A   1      32.735  20.905  24.674  1.00  0.00     0.278 C 
ENDBRANCH  21  27
ENDBRANCH   8  17
BRANCH  14  29
ATOM     29  C   UNL A   1      30.187  28.679  23.416  1.00  0.00     0.000 A 
ATOM     30  C   UNL A   1      29.907  28.888  22.058  1.00  0.00     0.012 A 
ATOM     31  C   UNL A   1      30.064  29.748  24.314  1.00  0.00     0.012 A 
ATOM     32  C   UNL A   1      29.444  30.131  21.618  1.00  0.00     0.021 A 
ATOM     33  C   UNL A   1      29.589  30.987  23.875  1.00  0.00     0.021 A 
ATOM     34  C   UNL A   1      29.268  31.169  22.532  1.00  0.00     0.041 A 
ATOM     35  Cl  UNL A   1      28.626  32.675  22.000  1.00  0.00    -0.084 Cl
ENDBRANCH  14  29
ENDBRANCH   4   7
ENDBRANCH   2   3
ENDBRANCH   1   2
BRANCH   1  36
ATOM     36  C   UNL A   1      35.130  30.250  27.634  1.00  0.00     0.023 C 
BRANCH  36  37
ATOM     37  C   UNL A   1      35.994  31.461  27.987  1.00  0.00     0.116 C 
BRANCH  37  38
ATOM     38  N   UNL A   1      35.568  32.130  29.212  1.00  0.00    -0.352 N 
ATOM     39  C   UNL A   1      35.823  31.755  30.518  1.00  0.00     0.251 C 
ATOM     40  H   UNL A   1      35.034  32.949  29.093  1.00  0.00     0.163 HD
ATOM     41  O   UNL A   1      35.083  32.105  31.423  1.00  0.00    -0.269 OA
BRANCH  39  42
ATOM     42  C   UNL A   1      37.011  30.931  30.811  1.00  0.00     0.039 A 
ATOM     43  C   UNL A   1      36.903  29.548  30.941  1.00  0.00     0.014 A 
ATOM     44  C   UNL A   1      38.247  31.559  30.959  1.00  0.00     0.014 A 
ATOM     45  C   UNL A   1      38.065  28.802  31.122  1.00  0.00     0.010 A 
ATOM     46  C   UNL A   1      39.410  30.818  31.029  1.00  0.00     0.010 A 
ATOM     47  C   UNL A   1      39.325  29.437  31.124  1.00  0.00    -0.014 A 
BRANCH  47  48
ATOM     48  C   UNL A   1      40.535  28.622  30.972  1.00  0.00     0.031 A 
ATOM     49  C   UNL A   1      41.205  28.396  32.280  1.00  0.00     0.074 A 
ATOM     50  C   UNL A   1      40.931  27.974  29.851  1.00  0.00     0.049 A 
ATOM     51  N   UNL A   1      42.296  28.950  32.689  1.00  0.00    -0.248 NA
ATOM     52  C   UNL A   1      40.501  27.638  33.331  1.00  0.00     0.031 C 
ATOM     53  C   UNL A   1      40.177  27.837  28.601  1.00  0.00     0.029 A 
ATOM     54  N   UNL A   1      42.053  27.219  29.604  1.00  0.00    -0.354 N 
ATOM     55  C   UNL A   1      42.573  28.357  33.916  1.00  0.00     0.074 A 
ATOM     56  C   UNL A   1      41.341  27.770  34.363  1.00  0.00     0.031 C 
ATOM     57  C   UNL A   1      40.732  26.873  27.832  1.00  0.00     0.029 A 
ATOM     58  C   UNL A   1      41.978  26.445  28.443  1.00  0.00     0.049 A 
ATOM     59  H   UNL A   1      42.841  27.222  30.194  1.00  0.00     0.167 HD
ATOM     60  C   UNL A   1      43.868  28.061  34.215  1.00  0.00     0.037 A 
ATOM     61  C   UNL A   1      42.875  25.526  27.994  1.00  0.00     0.037 A 
ATOM     62  C   UNL A   1      44.755  28.792  33.342  1.00  0.00     0.049 A 
ATOM     63  C   UNL A   1      44.180  25.829  28.615  1.00  0.00     0.074 A 
ATOM     64  C   UNL A   1      45.224  30.080  33.206  1.00  0.00     0.029 A 
ATOM     65  N   UNL A   1      44.944  28.171  32.141  1.00  0.00    -0.354 N 
ATOM     66  N   UNL A   1      44.887  26.880  28.313  1.00  0.00    -0.248 NA
ATOM     67  C   UNL A   1      44.576  25.127  29.832  1.00  0.00     0.031 C 
ATOM     68  C   UNL A   1      45.678  30.209  31.855  1.00  0.00     0.029 A 
ATOM     69  C   UNL A   1      45.528  28.985  31.215  1.00  0.00     0.049 A 
ATOM     70  H   UNL A   1      44.686  27.238  31.962  1.00  0.00     0.167 HD
ATOM     71  C   UNL A   1      45.485  27.222  29.503  1.00  0.00     0.074 A 
ATOM     72  C   UNL A   1      45.420  26.029  30.337  1.00  0.00     0.031 C 
ATOM     73  C   UNL A   1      45.621  28.532  29.850  1.00  0.00     0.037 A 
BRANCH  60  74
ATOM     74  C   UNL A   1      44.331  26.736  34.810  1.00  0.00     0.064 A 
ATOM     75  C   UNL A   1      45.175  26.771  35.942  1.00  0.00     0.173 A 
ATOM     76  C   UNL A   1      44.278  25.491  34.144  1.00  0.00     0.173 A 
ATOM     77  F   UNL A   1      45.326  27.904  36.646  1.00  0.00    -0.203 F 
ATOM     78  C   UNL A   1      45.961  25.677  36.320  1.00  0.00     0.198 A 
ATOM     79  C   UNL A   1      45.030  24.388  34.552  1.00  0.00     0.198 A 
ATOM     80  F   UNL A   1      43.594  25.306  33.012  1.00  0.00    -0.203 F 
ATOM     81  F   UNL A   1      46.838  25.802  37.326  1.00  0.00    -0.200 F 
ATOM     82  C   UNL A   1      45.894  24.488  35.620  1.00  0.00     0.200 A 
ATOM     83  F   UNL A   1      44.970  23.253  33.840  1.00  0.00    -0.200 F 
ATOM     84  F   UNL A   1      46.687  23.458  35.940  1.00  0.00    -0.200 F 
ENDBRANCH  60  74
BRANCH  61  85
ATOM     85  C   UNL A   1      42.691  24.298  27.182  1.00  0.00     0.064 A 
ATOM     86  C   UNL A   1      43.139  24.225  25.850  1.00  0.00     0.173 A 
ATOM     87  C   UNL A   1      42.366  23.077  27.800  1.00  0.00     0.173 A 
ATOM     88  F   UNL A   1      43.503  25.337  25.196  1.00  0.00    -0.203 F 
ATOM     89  C   UNL A   1      43.300  22.999  25.193  1.00  0.00     0.198 A 
ATOM     90  C   UNL A   1      42.525  21.854  27.141  1.00  0.00     0.198 A 
ATOM     91  F   UNL A   1      41.987  23.045  29.085  1.00  0.00    -0.203 F 
ATOM     92  F   UNL A   1      43.801  22.967  23.949  1.00  0.00    -0.200 F 
ATOM     93  C   UNL A   1      43.009  21.814  25.845  1.00  0.00     0.200 A 
ATOM     94  F   UNL A   1      42.277  20.710  27.795  1.00  0.00    -0.200 F 
ATOM     95  F   UNL A   1      43.236  20.637  25.245  1.00  0.00    -0.200 F 
ENDBRANCH  61  85
BRANCH  73  96
ATOM     96  C   UNL A   1      45.748  29.532  28.751  1.00  0.00     0.064 A 
ATOM     97  C   UNL A   1      46.945  29.877  28.106  1.00  0.00     0.173 A 
ATOM     98  C   UNL A   1      44.567  30.148  28.313  1.00  0.00     0.173 A 
ATOM     99  F   UNL A   1      48.102  29.279  28.428  1.00  0.00    -0.203 F 
ATOM    100  C   UNL A   1      46.957  30.832  27.090  1.00  0.00     0.198 A 
ATOM    101  C   UNL A   1      44.578  31.073  27.277  1.00  0.00     0.198 A 
ATOM    102  F   UNL A   1      43.394  29.832  28.882  1.00  0.00    -0.203 F 
ATOM    103  F   UNL A   1      48.112  31.171  26.498  1.00  0.00    -0.200 F 
ATOM    104  C   UNL A   1      45.773  31.424  26.673  1.00  0.00     0.200 A 
ATOM    105  F   UNL A   1      43.425  31.613  26.858  1.00  0.00    -0.200 F 
ATOM    106  F   UNL A   1      45.781  32.323  25.679  1.00  0.00    -0.200 F 
ENDBRANCH  73  96
ENDBRANCH  47  48
ENDBRANCH  39  42
ENDBRANCH  37  38
ENDBRANCH  36  37
ENDBRANCH   1  36
TORSDOF 16
ENDMDL
MODEL 3
REMARK VINA RESULT:     -12.4      1.900      6.668
REMARK SMILES COc1cc(OC)c(-c2cc(C(=O)NCCCCNC(=O)c3ccc(-c4c5nc(c(-c6c(F)c(F)c(F)c(F)c6F)c6ccc([nH]6)c(-c6c(F)c(F)c(F)c(F)c6F)c6nc(c(-c7c(F)c(F)c(F)c(F)c7F)c7ccc4[nH]7)C=C6)C=C5)cc3)c3c(-c4ccc(Cl)cc4)[nH]nc3n2)cc1OC
REMARK SMILES IDX 16 1 15 2 14 3 12 4 13 5 11 7 9 8 10 9 97 10 96 11 85 12
REMARK SMILES IDX 95 13 86 14 94 15 8 17 3 18 4 19 99 20 5 21 98 22 2 23 1 24
REMARK SMILES IDX 100 25 101 26 6 27 7 28 87 29 88 30 93 31 89 32 92 33 90 34
REMARK SMILES IDX 91 35 17 36 18 37 19 38 20 39 21 41 22 42 23 43 84 44 24 45
REMARK SMILES IDX 83 46 25 47 26 48 27 49 77 50 28 51 82 52 76 53 78 54 29 55
REMARK SMILES IDX 81 56 75 57 74 58 30 60 62 61 42 62 61 63 43 64 46 65 60 66
REMARK SMILES IDX 79 67 44 68 45 69 59 71 80 72 47 73 31 74 32 75 40 76 33 77
REMARK SMILES IDX 34 78 38 79 41 80 35 81 36 82 39 83 37 84 63 85 64 86 72 87
REMARK SMILES IDX 65 88 66 89 70 90 73 91 67 92 68 93 71 94 69 95 48 96 49 97
REMARK SMILES IDX 57 98 50 99 51 100 55 101 58 102 52 103 53 104 56 105 54 106
REMARK H PARENT 14 6 94 16 19 40 78 59 46 70
REMARK Flexibility Score: inf
ROOT
ATOM      1  C   UNL A   1      34.400  28.182  26.138  1.00  0.00     0.023 C 
ENDROOT
BRANCH   1   2
ATOM      2  C   UNL A   1      33.906  29.027  24.966  1.00  0.00     0.116 C 
BRANCH   2   3
ATOM      3  N   UNL A   1      33.938  28.307  23.707  1.00  0.00    -0.352 N 
ATOM      4  C   UNL A   1      33.565  27.057  23.284  1.00  0.00     0.252 C 
ATOM      5  O   UNL A   1      33.479  26.956  22.063  1.00  0.00    -0.269 OA
ATOM      6  H   UNL A   1      34.320  28.848  22.979  1.00  0.00     0.163 HD
BRANCH   4   7
ATOM      7  C   UNL A   1      33.214  25.921  24.170  1.00  0.00     0.055 A 
ATOM      8  C   UNL A   1      33.832  23.793  25.310  1.00  0.00     0.077 A 
ATOM      9  C   UNL A   1      33.989  24.765  24.288  1.00  0.00     0.043 A 
ATOM     10  N   UNL A   1      32.848  23.782  26.239  1.00  0.00    -0.226 NA
ATOM     11  C   UNL A   1      31.958  24.794  26.062  1.00  0.00     0.182 A 
ATOM     12  C   UNL A   1      32.126  25.827  25.062  1.00  0.00     0.059 A 
ATOM     13  N   UNL A   1      30.835  24.954  26.758  1.00  0.00    -0.154 NA
ATOM     14  C   UNL A   1      30.981  26.603  25.173  1.00  0.00     0.075 A 
ATOM     15  N   UNL A   1      30.267  26.031  26.202  1.00  0.00    -0.275 N 
ATOM     16  H   UNL A   1      29.403  26.389  26.508  1.00  0.00     0.190 HD
BRANCH   8  17
ATOM     17  C   UNL A   1      34.861  22.741  25.373  1.00  0.00     0.046 A 
ATOM     18  C   UNL A   1      37.102  21.006  25.220  1.00  0.00     0.164 A 
ATOM     19  C   UNL A   1      35.803  20.545  24.950  1.00  0.00     0.097 A 
ATOM     20  C   UNL A   1      37.301  22.337  25.578  1.00  0.00     0.161 A 
ATOM     21  C   UNL A   1      34.687  21.404  24.989  1.00  0.00     0.132 A 
ATOM     22  C   UNL A   1      36.176  23.165  25.689  1.00  0.00     0.064 A 
BRANCH  18  23
ATOM     23  O   UNL A   1      38.137  20.156  24.941  1.00  0.00    -0.493 OA
ATOM     24  C   UNL A   1      37.815  18.794  25.225  1.00  0.00     0.278 C 
ENDBRANCH  18  23
BRANCH  20  25
ATOM     25  O   UNL A   1      38.465  23.025  25.777  1.00  0.00    -0.493 OA
ATOM     26  C   UNL A   1      39.390  22.569  26.748  1.00  0.00     0.278 C 
ENDBRANCH  20  25
BRANCH  21  27
ATOM     27  O   UNL A   1      33.522  20.790  24.608  1.00  0.00    -0.496 OA
ATOM     28  C   UNL A   1      33.561  19.386  24.382  1.00  0.00     0.278 C 
ENDBRANCH  21  27
ENDBRANCH   8  17
BRANCH  14  29
ATOM     29  C   UNL A   1      30.425  27.736  24.441  1.00  0.00     0.000 A 
ATOM     30  C   UNL A   1      30.746  29.045  24.827  1.00  0.00     0.012 A 
ATOM     31  C   UNL A   1      29.612  27.532  23.316  1.00  0.00     0.012 A 
ATOM     32  C   UNL A   1      30.316  30.131  24.060  1.00  0.00     0.021 A 
ATOM     33  C   UNL A   1      29.194  28.619  22.542  1.00  0.00     0.021 A 
ATOM     34  C   UNL A   1      29.560  29.912  22.910  1.00  0.00     0.041 A 
ATOM     35  Cl  UNL A   1      29.097  31.245  21.925  1.00  0.00    -0.084 Cl
ENDBRANCH  14  29
ENDBRANCH   4   7
ENDBRANCH   2   3
ENDBRANCH   1   2
BRANCH   1  36
ATOM     36  C   UNL A   1      34.347  28.895  27.501  1.00  0.00     0.023 C 
BRANCH  36  37
ATOM     37  C   UNL A   1      35.304  30.078  27.658  1.00  0.00     0.116 C 
BRANCH  37  38
ATOM     38  N   UNL A   1      35.450  30.515  29.043  1.00  0.00    -0.352 N 
ATOM     39  C   UNL A   1      36.338  30.046  29.993  1.00  0.00     0.251 C 
ATOM     40  H   UNL A   1      34.841  31.232  29.335  1.00  0.00     0.163 HD
ATOM     41  O   UNL A   1      36.090  30.151  31.183  1.00  0.00    -0.269 OA
BRANCH  39  42
ATOM     42  C   UNL A   1      37.600  29.423  29.552  1.00  0.00     0.039 A 
ATOM     43  C   UNL A   1      38.336  29.971  28.505  1.00  0.00     0.014 A 
ATOM     44  C   UNL A   1      38.045  28.270  30.199  1.00  0.00     0.014 A 
ATOM     45  C   UNL A   1      39.568  29.405  28.186  1.00  0.00     0.010 A 
ATOM     46  C   UNL A   1      39.310  27.772  29.961  1.00  0.00     0.010 A 
ATOM     47  C   UNL A   1      40.073  28.328  28.945  1.00  0.00    -0.014 A 
BRANCH  47  48
ATOM     48  C   UNL A   1      41.491  27.974  28.823  1.00  0.00     0.031 A 
ATOM     49  C   UNL A   1      41.677  26.761  27.984  1.00  0.00     0.074 A 
ATOM     50  C   UNL A   1      42.544  28.720  29.235  1.00  0.00     0.049 A 
ATOM     51  N   UNL A   1      41.986  25.579  28.401  1.00  0.00    -0.248 NA
ATOM     52  C   UNL A   1      41.288  26.799  26.562  1.00  0.00     0.031 C 
ATOM     53  C   UNL A   1      42.501  30.087  29.762  1.00  0.00     0.029 A 
ATOM     54  N   UNL A   1      43.893  28.461  29.193  1.00  0.00    -0.354 N 
ATOM     55  C   UNL A   1      42.140  24.812  27.251  1.00  0.00     0.074 A 
ATOM     56  C   UNL A   1      41.468  25.524  26.201  1.00  0.00     0.031 C 
ATOM     57  C   UNL A   1      43.745  30.618  29.764  1.00  0.00     0.029 A 
ATOM     58  C   UNL A   1      44.699  29.582  29.411  1.00  0.00     0.049 A 
ATOM     59  H   UNL A   1      44.261  27.564  29.023  1.00  0.00     0.167 HD
ATOM     60  C   UNL A   1      43.153  23.901  27.211  1.00  0.00     0.037 A 
ATOM     61  C   UNL A   1      46.053  29.665  29.328  1.00  0.00     0.037 A 
ATOM     62  C   UNL A   1      43.632  23.637  28.547  1.00  0.00     0.049 A 
ATOM     63  C   UNL A   1      46.599  28.302  29.490  1.00  0.00     0.074 A 
ATOM     64  C   UNL A   1      43.225  22.933  29.659  1.00  0.00     0.029 A 
ATOM     65  N   UNL A   1      44.545  24.559  28.972  1.00  0.00    -0.354 N 
ATOM     66  N   UNL A   1      46.563  27.649  30.616  1.00  0.00    -0.248 NA
ATOM     67  C   UNL A   1      46.910  27.508  28.306  1.00  0.00     0.031 C 
ATOM     68  C   UNL A   1      43.919  23.497  30.776  1.00  0.00     0.029 A 
ATOM     69  C   UNL A   1      44.773  24.491  30.315  1.00  0.00     0.049 A 
ATOM     70  H   UNL A   1      44.991  25.202  28.374  1.00  0.00     0.167 HD
ATOM     71  C   UNL A   1      46.388  26.341  30.227  1.00  0.00     0.074 A 
ATOM     72  C   UNL A   1      46.796  26.285  28.829  1.00  0.00     0.031 C 
ATOM     73  C   UNL A   1      45.569  25.518  30.938  1.00  0.00     0.037 A 
BRANCH  60  74
ATOM     74  C   UNL A   1      44.099  23.719  26.030  1.00  0.00     0.064 A 
ATOM     75  C   UNL A   1      44.329  22.410  25.554  1.00  0.00     0.173 A 
ATOM     76  C   UNL A   1      45.026  24.688  25.583  1.00  0.00     0.173 A 
ATOM     77  F   UNL A   1      43.529  21.398  25.925  1.00  0.00    -0.203 F 
ATOM     78  C   UNL A   1      45.442  22.087  24.769  1.00  0.00     0.198 A 
ATOM     79  C   UNL A   1      46.109  24.369  24.763  1.00  0.00     0.198 A 
ATOM     80  F   UNL A   1      45.003  25.957  26.000  1.00  0.00    -0.203 F 
ATOM     81  F   UNL A   1      45.682  20.808  24.448  1.00  0.00    -0.200 F 
ATOM     82  C   UNL A   1      46.335  23.066  24.380  1.00  0.00     0.200 A 
ATOM     83  F   UNL A   1      46.979  25.331  24.421  1.00  0.00    -0.200 F 
ATOM     84  F   UNL A   1      47.433  22.753  23.681  1.00  0.00    -0.200 F 
ENDBRANCH  60  74
BRANCH  61  85
ATOM     85  C   UNL A   1      46.942  30.797  28.970  1.00  0.00     0.064 A 
ATOM     86  C   UNL A   1      46.891  31.396  27.697  1.00  0.00     0.173 A 
ATOM     87  C   UNL A   1      47.623  31.514  29.970  1.00  0.00     0.173 A 
ATOM     88  F   UNL A   1      46.233  30.798  26.694  1.00  0.00    -0.203 F 
ATOM     89  C   UNL A   1      47.445  32.658  27.453  1.00  0.00     0.198 A 
ATOM     90  C   UNL A   1      48.177  32.773  29.724  1.00  0.00     0.198 A 
ATOM     91  F   UNL A   1      47.671  31.049  31.226  1.00  0.00    -0.203 F 
ATOM     92  F   UNL A   1      47.310  33.227  26.246  1.00  0.00    -0.200 F 
ATOM     93  C   UNL A   1      48.072  33.353  28.472  1.00  0.00     0.200 A 
ATOM     94  F   UNL A   1      48.749  33.455  30.728  1.00  0.00    -0.200 F 
ATOM     95  F   UNL A   1      48.534  34.594  28.262  1.00  0.00    -0.200 F 
ENDBRANCH  61  85
BRANCH  73  96
ATOM     96  C   UNL A   1      45.413  25.786  32.397  1.00  0.00     0.064 A 
ATOM     97  C   UNL A   1      46.345  25.439  33.387  1.00  0.00     0.173 A 
ATOM     98  C   UNL A   1      44.254  26.465  32.798  1.00  0.00     0.173 A 
ATOM     99  F   UNL A   1      47.505  24.847  33.069  1.00  0.00    -0.203 F 
ATOM    100  C   UNL A   1      46.099  25.731  34.729  1.00  0.00     0.198 A 
ATOM    101  C   UNL A   1      44.030  26.785  34.130  1.00  0.00     0.198 A 
ATOM    102  F   UNL A   1      43.346  26.840  31.884  1.00  0.00    -0.203 F 
ATOM    103  F   UNL A   1      46.987  25.372  35.669  1.00  0.00    -0.200 F 
ATOM    104  C   UNL A   1      44.946  26.407  35.098  1.00  0.00     0.200 A 
ATOM    105  F   UNL A   1      42.930  27.470  34.472  1.00  0.00    -0.200 F 
ATOM    106  F   UNL A   1      44.722  26.710  36.383  1.00  0.00    -0.200 F 
ENDBRANCH  73  96
ENDBRANCH  47  48
ENDBRANCH  39  42
ENDBRANCH  37  38
ENDBRANCH  36  37
ENDBRANCH   1  36
TORSDOF 16
ENDMDL
