MODEL 1
REMARK VINA RESULT:     -12.8      0.000      0.000
REMARK SMILES Cc1cc(NC(=O)Nc2sc(C)c(C)c2C(=O)NCCCCNC(=O)c2ccc(-c3c4nc(c(-c5c(F)c(F)c(F)c(F)c5F)c5ccc([nH]5)c(-c5c(F)c(F)c(F)c(F)c5F)c5nc(c(-c6c(F)c(F)c(F)c(F)c6F)c6ccc3[nH]6)C=C5)C=C4)cc2)ccn1
REMARK SMILES IDX 20 1 19 2 18 3 16 4 17 5 15 7 9 8 10 9 11 10 13 11 12 12
REMARK SMILES IDX 14 13 8 14 5 15 6 16 7 18 4 20 1 21 2 22 3 23 91 24 90 25
REMARK SMILES IDX 89 26 21 27 22 28 23 29 24 30 25 32 26 33 27 34 88 35 28 36
REMARK SMILES IDX 87 37 29 38 30 39 31 40 81 41 32 42 86 43 80 44 82 45 33 46
REMARK SMILES IDX 85 47 79 48 78 49 34 51 66 52 46 53 65 54 47 55 50 56 64 57
REMARK SMILES IDX 83 58 48 59 49 60 63 62 84 63 51 64 35 65 36 66 44 67 37 68
REMARK SMILES IDX 38 69 42 70 45 71 39 72 40 73 43 74 41 75 67 76 68 77 76 78
REMARK SMILES IDX 69 79 70 80 74 81 77 82 71 83 72 84 75 85 73 86 52 87 53 88
REMARK SMILES IDX 61 89 54 90 55 91 59 92 62 93 56 94 57 95 60 96 58 97
REMARK H PARENT 18 6 5 17 8 19 23 31 82 50 50 61
REMARK Flexibility Score: inf
ROOT
ATOM      1  C   UNL A   1      31.873  30.464  26.160  1.00  0.00     0.023 C 
ENDROOT
BRANCH   1   2
ATOM      2  C   UNL A   1      31.831  29.258  27.090  1.00  0.00     0.116 C 
BRANCH   2   3
ATOM      3  N   UNL A   1      32.966  28.364  27.045  1.00  0.00    -0.352 N 
ATOM      4  C   UNL A   1      33.297  27.310  26.217  1.00  0.00     0.254 C 
ATOM      5  O   UNL A   1      34.400  26.806  26.449  1.00  0.00    -0.269 OA
ATOM      6  H   UNL A   1      33.636  28.542  27.744  1.00  0.00     0.163 HD
BRANCH   4   7
ATOM      7  C   UNL A   1      32.425  26.743  25.162  1.00  0.00     0.077 A 
ATOM      8  C   UNL A   1      31.444  25.769  25.256  1.00  0.00     0.110 A 
ATOM      9  S   UNL A   1      30.552  25.537  23.827  1.00  0.00    -0.122 S 
ATOM     10  C   UNL A   1      31.666  26.442  22.920  1.00  0.00     0.007 A 
ATOM     11  C   UNL A   1      32.581  27.097  23.734  1.00  0.00    -0.022 A 
ATOM     12  C   UNL A   1      31.550  26.438  21.429  1.00  0.00     0.057 C 
ATOM     13  C   UNL A   1      33.658  28.001  23.209  1.00  0.00     0.046 C 
BRANCH   8  14
ATOM     14  N   UNL A   1      30.989  25.058  26.331  1.00  0.00    -0.298 N 
ATOM     15  N   UNL A   1      32.100  22.948  25.998  1.00  0.00    -0.308 N 
ATOM     16  C   UNL A   1      31.219  23.758  26.635  1.00  0.00     0.324 C 
ATOM     17  H   UNL A   1      31.922  21.998  26.183  1.00  0.00     0.171 HD
ATOM     18  O   UNL A   1      30.584  23.279  27.581  1.00  0.00    -0.248 OA
ATOM     19  H   UNL A   1      30.423  25.554  26.965  1.00  0.00     0.172 HD
BRANCH  15  20
ATOM     20  C   UNL A   1      33.208  23.117  25.139  1.00  0.00     0.046 A 
ATOM     21  C   UNL A   1      36.889  23.839  25.610  1.00  0.00     0.067 C 
ATOM     22  C   UNL A   1      35.568  23.556  24.962  1.00  0.00     0.039 A 
ATOM     23  C   UNL A   1      34.413  23.478  25.739  1.00  0.00     0.049 A 
ATOM     24  N   UNL A   1      35.573  23.326  23.632  1.00  0.00    -0.261 NA
ATOM     25  C   UNL A   1      34.387  23.051  23.058  1.00  0.00     0.113 A 
ATOM     26  C   UNL A   1      33.193  22.970  23.759  1.00  0.00     0.046 A 
ENDBRANCH  15  20
ENDBRANCH   8  14
ENDBRANCH   4   7
ENDBRANCH   2   3
ENDBRANCH   1   2
BRANCH   1  27
ATOM     27  C   UNL A   1      31.519  31.811  26.772  1.00  0.00     0.023 C 
BRANCH  27  28
ATOM     28  C   UNL A   1      32.678  32.626  27.333  1.00  0.00     0.116 C 
BRANCH  28  29
ATOM     29  N   UNL A   1      32.344  34.009  27.643  1.00  0.00    -0.352 N 
ATOM     30  C   UNL A   1      32.941  34.898  28.509  1.00  0.00     0.251 C 
ATOM     31  H   UNL A   1      31.569  34.366  27.154  1.00  0.00     0.163 HD
ATOM     32  O   UNL A   1      32.457  36.014  28.672  1.00  0.00    -0.269 OA
BRANCH  30  33
ATOM     33  C   UNL A   1      34.131  34.500  29.293  1.00  0.00     0.039 A 
ATOM     34  C   UNL A   1      33.946  33.995  30.584  1.00  0.00     0.014 A 
ATOM     35  C   UNL A   1      35.418  34.596  28.763  1.00  0.00     0.014 A 
ATOM     36  C   UNL A   1      35.035  33.484  31.294  1.00  0.00     0.010 A 
ATOM     37  C   UNL A   1      36.485  33.999  29.428  1.00  0.00     0.010 A 
ATOM     38  C   UNL A   1      36.305  33.428  30.697  1.00  0.00    -0.014 A 
BRANCH  38  39
ATOM     39  C   UNL A   1      37.451  32.763  31.371  1.00  0.00     0.031 A 
ATOM     40  C   UNL A   1      38.131  31.588  30.726  1.00  0.00     0.074 A 
ATOM     41  C   UNL A   1      37.825  33.160  32.605  1.00  0.00     0.049 A 
ATOM     42  N   UNL A   1      39.075  30.813  31.197  1.00  0.00    -0.248 NA
ATOM     43  C   UNL A   1      37.666  31.213  29.380  1.00  0.00     0.031 C 
ATOM     44  C   UNL A   1      37.210  34.250  33.366  1.00  0.00     0.029 A 
ATOM     45  N   UNL A   1      38.803  32.684  33.442  1.00  0.00    -0.354 N 
ATOM     46  C   UNL A   1      39.299  29.852  30.221  1.00  0.00     0.074 A 
ATOM     47  C   UNL A   1      38.357  30.105  29.154  1.00  0.00     0.031 C 
ATOM     48  C   UNL A   1      37.842  34.374  34.545  1.00  0.00     0.029 A 
ATOM     49  C   UNL A   1      38.876  33.350  34.641  1.00  0.00     0.049 A 
ATOM     50  H   UNL A   1      39.398  31.936  33.205  1.00  0.00     0.167 HD
ATOM     51  C   UNL A   1      40.224  28.862  30.204  1.00  0.00     0.037 A 
ATOM     52  C   UNL A   1      39.680  33.151  35.704  1.00  0.00     0.037 A 
ATOM     53  C   UNL A   1      41.185  28.632  31.250  1.00  0.00     0.049 A 
ATOM     54  C   UNL A   1      40.705  32.051  35.655  1.00  0.00     0.074 A 
ATOM     55  C   UNL A   1      42.205  27.698  31.295  1.00  0.00     0.029 A 
ATOM     56  N   UNL A   1      41.247  29.348  32.436  1.00  0.00    -0.354 N 
ATOM     57  N   UNL A   1      40.951  31.191  34.698  1.00  0.00    -0.248 NA
ATOM     58  C   UNL A   1      41.567  31.895  36.836  1.00  0.00     0.031 C 
ATOM     59  C   UNL A   1      42.858  27.821  32.525  1.00  0.00     0.029 A 
ATOM     60  C   UNL A   1      42.276  28.865  33.227  1.00  0.00     0.049 A 
ATOM     61  H   UNL A   1      40.648  30.091  32.679  1.00  0.00     0.167 HD
ATOM     62  C   UNL A   1      42.012  30.415  35.144  1.00  0.00     0.074 A 
ATOM     63  C   UNL A   1      42.373  30.914  36.454  1.00  0.00     0.031 C 
ATOM     64  C   UNL A   1      42.631  29.381  34.524  1.00  0.00     0.037 A 
BRANCH  51  65
ATOM     65  C   UNL A   1      40.247  27.956  29.008  1.00  0.00     0.064 A 
ATOM     66  C   UNL A   1      40.975  28.283  27.853  1.00  0.00     0.173 A 
ATOM     67  C   UNL A   1      39.564  26.730  29.027  1.00  0.00     0.173 A 
ATOM     68  F   UNL A   1      41.635  29.448  27.779  1.00  0.00    -0.203 F 
ATOM     69  C   UNL A   1      40.994  27.430  26.752  1.00  0.00     0.198 A 
ATOM     70  C   UNL A   1      39.611  25.866  27.937  1.00  0.00     0.198 A 
ATOM     71  F   UNL A   1      38.859  26.367  30.109  1.00  0.00    -0.203 F 
ATOM     72  F   UNL A   1      41.654  27.787  25.642  1.00  0.00    -0.200 F 
ATOM     73  C   UNL A   1      40.319  26.220  26.797  1.00  0.00     0.200 A 
ATOM     74  F   UNL A   1      38.969  24.691  27.986  1.00  0.00    -0.200 F 
ATOM     75  F   UNL A   1      40.344  25.398  25.740  1.00  0.00    -0.200 F 
ENDBRANCH  51  65
BRANCH  52  76
ATOM     76  C   UNL A   1      39.570  34.032  36.898  1.00  0.00     0.064 A 
ATOM     77  C   UNL A   1      40.247  35.258  36.950  1.00  0.00     0.173 A 
ATOM     78  C   UNL A   1      38.800  33.664  38.010  1.00  0.00     0.173 A 
ATOM     79  F   UNL A   1      41.013  35.642  35.918  1.00  0.00    -0.203 F 
ATOM     80  C   UNL A   1      40.177  36.073  38.077  1.00  0.00     0.198 A 
ATOM     81  C   UNL A   1      38.709  34.493  39.127  1.00  0.00     0.198 A 
ATOM     82  F   UNL A   1      38.129  32.503  38.009  1.00  0.00    -0.203 F 
ATOM     83  F   UNL A   1      40.874  37.217  38.119  1.00  0.00    -0.200 F 
ATOM     84  C   UNL A   1      39.404  35.692  39.163  1.00  0.00     0.200 A 
ATOM     85  F   UNL A   1      37.950  34.128  40.169  1.00  0.00    -0.200 F 
ATOM     86  F   UNL A   1      39.337  36.476  40.248  1.00  0.00    -0.200 F 
ENDBRANCH  52  76
BRANCH  64  87
ATOM     87  C   UNL A   1      43.789  28.745  35.236  1.00  0.00     0.064 A 
ATOM     88  C   UNL A   1      45.100  29.218  35.077  1.00  0.00     0.173 A 
ATOM     89  C   UNL A   1      43.576  27.674  36.117  1.00  0.00     0.173 A 
ATOM     90  F   UNL A   1      45.356  30.228  34.233  1.00  0.00    -0.203 F 
ATOM     91  C   UNL A   1      46.159  28.626  35.760  1.00  0.00     0.198 A 
ATOM     92  C   UNL A   1      44.634  27.104  36.820  1.00  0.00     0.198 A 
ATOM     93  F   UNL A   1      42.341  27.189  36.308  1.00  0.00    -0.203 F 
ATOM     94  F   UNL A   1      47.410  29.065  35.560  1.00  0.00    -0.200 F 
ATOM     95  C   UNL A   1      45.925  27.577  36.635  1.00  0.00     0.200 A 
ATOM     96  F   UNL A   1      44.405  26.099  37.676  1.00  0.00    -0.200 F 
ATOM     97  F   UNL A   1      46.946  27.014  37.298  1.00  0.00    -0.200 F 
ENDBRANCH  64  87
ENDBRANCH  38  39
ENDBRANCH  30  33
ENDBRANCH  28  29
ENDBRANCH  27  28
ENDBRANCH   1  27
TORSDOF 13
ENDMDL
MODEL 2
REMARK VINA RESULT:     -12.7      0.099      1.577
REMARK SMILES Cc1cc(NC(=O)Nc2sc(C)c(C)c2C(=O)NCCCCNC(=O)c2ccc(-c3c4nc(c(-c5c(F)c(F)c(F)c(F)c5F)c5ccc([nH]5)c(-c5c(F)c(F)c(F)c(F)c5F)c5nc(c(-c6c(F)c(F)c(F)c(F)c6F)c6ccc3[nH]6)C=C5)C=C4)cc2)ccn1
REMARK SMILES IDX 20 1 19 2 18 3 16 4 17 5 15 7 9 8 10 9 11 10 13 11 12 12
REMARK SMILES IDX 14 13 8 14 5 15 6 16 7 18 4 20 1 21 2 22 3 23 91 24 90 25
REMARK SMILES IDX 89 26 21 27 22 28 23 29 24 30 25 32 26 33 27 34 88 35 28 36
REMARK SMILES IDX 87 37 29 38 30 39 31 40 81 41 32 42 86 43 80 44 82 45 33 46
REMARK SMILES IDX 85 47 79 48 78 49 34 51 66 52 46 53 65 54 47 55 50 56 64 57
REMARK SMILES IDX 83 58 48 59 49 60 63 62 84 63 51 64 35 65 36 66 44 67 37 68
REMARK SMILES IDX 38 69 42 70 45 71 39 72 40 73 43 74 41 75 67 76 68 77 76 78
REMARK SMILES IDX 69 79 70 80 74 81 77 82 71 83 72 84 75 85 73 86 52 87 53 88
REMARK SMILES IDX 61 89 54 90 55 91 59 92 62 93 56 94 57 95 60 96 58 97
REMARK H PARENT 18 6 5 17 8 19 23 31 82 50 50 61
REMARK Flexibility Score: inf
ROOT
ATOM      1  C   UNL A   1      31.965  30.549  26.154  1.00  0.00     0.023 C 
ENDROOT
BRANCH   1   2
ATOM      2  C   UNL A   1      31.785  29.258  26.942  1.00  0.00     0.116 C 
BRANCH   2   3
ATOM      3  N   UNL A   1      32.904  28.343  26.952  1.00  0.00    -0.352 N 
ATOM      4  C   UNL A   1      33.232  27.255  26.168  1.00  0.00     0.254 C 
ATOM      5  O   UNL A   1      34.320  26.739  26.440  1.00  0.00    -0.269 OA
ATOM      6  H   UNL A   1      33.563  28.533  27.658  1.00  0.00     0.163 HD
BRANCH   4   7
ATOM      7  C   UNL A   1      32.370  26.666  25.115  1.00  0.00     0.077 A 
ATOM      8  C   UNL A   1      31.391  25.692  25.218  1.00  0.00     0.110 A 
ATOM      9  S   UNL A   1      30.513  25.433  23.785  1.00  0.00    -0.122 S 
ATOM     10  C   UNL A   1      31.633  26.325  22.872  1.00  0.00     0.007 A 
ATOM     11  C   UNL A   1      32.539  26.996  23.683  1.00  0.00    -0.022 A 
ATOM     12  C   UNL A   1      31.530  26.294  21.381  1.00  0.00     0.057 C 
ATOM     13  C   UNL A   1      33.618  27.893  23.152  1.00  0.00     0.046 C 
BRANCH   8  14
ATOM     14  N   UNL A   1      30.929  24.999  26.301  1.00  0.00    -0.298 N 
ATOM     15  N   UNL A   1      32.073  22.898  26.034  1.00  0.00    -0.308 N 
ATOM     16  C   UNL A   1      31.171  23.709  26.638  1.00  0.00     0.324 C 
ATOM     17  H   UNL A   1      31.905  21.950  26.237  1.00  0.00     0.171 HD
ATOM     18  O   UNL A   1      30.527  23.243  27.585  1.00  0.00    -0.248 OA
ATOM     19  H   UNL A   1      30.345  25.501  26.915  1.00  0.00     0.172 HD
BRANCH  15  20
ATOM     20  C   UNL A   1      33.192  23.063  25.190  1.00  0.00     0.046 A 
ATOM     21  C   UNL A   1      36.863  23.805  25.706  1.00  0.00     0.067 C 
ATOM     22  C   UNL A   1      35.553  23.510  25.042  1.00  0.00     0.039 A 
ATOM     23  C   UNL A   1      34.387  23.435  25.803  1.00  0.00     0.049 A 
ATOM     24  N   UNL A   1      35.578  23.267  23.714  1.00  0.00    -0.261 NA
ATOM     25  C   UNL A   1      34.402  22.981  23.126  1.00  0.00     0.113 A 
ATOM     26  C   UNL A   1      33.198  22.901  23.810  1.00  0.00     0.046 A 
ENDBRANCH  15  20
ENDBRANCH   8  14
ENDBRANCH   4   7
ENDBRANCH   2   3
ENDBRANCH   1   2
BRANCH   1  27
ATOM     27  C   UNL A   1      31.614  31.843  26.873  1.00  0.00     0.023 C 
BRANCH  27  28
ATOM     28  C   UNL A   1      32.784  32.736  27.269  1.00  0.00     0.116 C 
BRANCH  28  29
ATOM     29  N   UNL A   1      32.404  34.090  27.647  1.00  0.00    -0.352 N 
ATOM     30  C   UNL A   1      32.962  34.950  28.566  1.00  0.00     0.251 C 
ATOM     31  H   UNL A   1      31.623  34.449  27.167  1.00  0.00     0.163 HD
ATOM     32  O   UNL A   1      32.442  36.041  28.782  1.00  0.00    -0.269 OA
BRANCH  30  33
ATOM     33  C   UNL A   1      34.155  34.548  29.343  1.00  0.00     0.039 A 
ATOM     34  C   UNL A   1      33.977  34.055  30.640  1.00  0.00     0.014 A 
ATOM     35  C   UNL A   1      35.440  34.628  28.802  1.00  0.00     0.014 A 
ATOM     36  C   UNL A   1      35.067  33.540  31.345  1.00  0.00     0.010 A 
ATOM     37  C   UNL A   1      36.506  34.027  29.463  1.00  0.00     0.010 A 
ATOM     38  C   UNL A   1      36.332  33.467  30.739  1.00  0.00    -0.014 A 
BRANCH  38  39
ATOM     39  C   UNL A   1      37.477  32.797  31.409  1.00  0.00     0.031 A 
ATOM     40  C   UNL A   1      38.162  31.631  30.752  1.00  0.00     0.074 A 
ATOM     41  C   UNL A   1      37.847  33.182  32.647  1.00  0.00     0.049 A 
ATOM     42  N   UNL A   1      39.106  30.853  31.218  1.00  0.00    -0.248 NA
ATOM     43  C   UNL A   1      37.701  31.270  29.401  1.00  0.00     0.031 C 
ATOM     44  C   UNL A   1      37.228  34.263  33.418  1.00  0.00     0.029 A 
ATOM     45  N   UNL A   1      38.824  32.699  33.482  1.00  0.00    -0.354 N 
ATOM     46  C   UNL A   1      39.334  29.903  30.232  1.00  0.00     0.074 A 
ATOM     47  C   UNL A   1      38.395  30.166  29.165  1.00  0.00     0.031 C 
ATOM     48  C   UNL A   1      37.856  34.375  34.600  1.00  0.00     0.029 A 
ATOM     49  C   UNL A   1      38.892  33.352  34.689  1.00  0.00     0.049 A 
ATOM     50  H   UNL A   1      39.421  31.955  33.238  1.00  0.00     0.167 HD
ATOM     51  C   UNL A   1      40.262  28.916  30.206  1.00  0.00     0.037 A 
ATOM     52  C   UNL A   1      39.693  33.143  35.751  1.00  0.00     0.037 A 
ATOM     53  C   UNL A   1      41.220  28.676  31.253  1.00  0.00     0.049 A 
ATOM     54  C   UNL A   1      40.721  32.046  35.693  1.00  0.00     0.074 A 
ATOM     55  C   UNL A   1      42.243  27.744  31.290  1.00  0.00     0.029 A 
ATOM     56  N   UNL A   1      41.277  29.380  32.446  1.00  0.00    -0.354 N 
ATOM     57  N   UNL A   1      40.971  31.197  34.727  1.00  0.00    -0.248 NA
ATOM     58  C   UNL A   1      41.580  31.879  36.874  1.00  0.00     0.031 C 
ATOM     59  C   UNL A   1      42.892  27.855  32.524  1.00  0.00     0.029 A 
ATOM     60  C   UNL A   1      42.305  28.890  33.235  1.00  0.00     0.049 A 
ATOM     61  H   UNL A   1      40.676  30.119  32.696  1.00  0.00     0.167 HD
ATOM     62  C   UNL A   1      42.033  30.418  35.168  1.00  0.00     0.074 A 
ATOM     63  C   UNL A   1      42.389  30.904  36.484  1.00  0.00     0.031 C 
ATOM     64  C   UNL A   1      42.656  29.393  34.539  1.00  0.00     0.037 A 
BRANCH  51  65
ATOM     65  C   UNL A   1      40.290  28.022  29.000  1.00  0.00     0.064 A 
ATOM     66  C   UNL A   1      41.023  28.362  27.852  1.00  0.00     0.173 A 
ATOM     67  C   UNL A   1      39.608  26.796  29.004  1.00  0.00     0.173 A 
ATOM     68  F   UNL A   1      41.683  29.528  27.793  1.00  0.00    -0.203 F 
ATOM     69  C   UNL A   1      41.046  27.521  26.742  1.00  0.00     0.198 A 
ATOM     70  C   UNL A   1      39.659  25.944  27.904  1.00  0.00     0.198 A 
ATOM     71  F   UNL A   1      38.898  26.421  30.078  1.00  0.00    -0.203 F 
ATOM     72  F   UNL A   1      41.711  27.891  25.639  1.00  0.00    -0.200 F 
ATOM     73  C   UNL A   1      40.371  26.311  26.772  1.00  0.00     0.200 A 
ATOM     74  F   UNL A   1      39.017  24.768  27.938  1.00  0.00    -0.200 F 
ATOM     75  F   UNL A   1      40.402  25.500  25.706  1.00  0.00    -0.200 F 
ENDBRANCH  51  65
BRANCH  52  76
ATOM     76  C   UNL A   1      39.578  34.011  36.954  1.00  0.00     0.064 A 
ATOM     77  C   UNL A   1      38.809  33.612  38.055  1.00  0.00     0.173 A 
ATOM     78  C   UNL A   1      40.220  35.256  37.022  1.00  0.00     0.173 A 
ATOM     79  F   UNL A   1      38.159  32.439  38.027  1.00  0.00    -0.203 F 
ATOM     80  C   UNL A   1      38.667  34.434  39.171  1.00  0.00     0.198 A 
ATOM     81  C   UNL A   1      40.099  36.065  38.150  1.00  0.00     0.198 A 
ATOM     82  F   UNL A   1      40.971  35.682  35.996  1.00  0.00    -0.203 F 
ATOM     83  F   UNL A   1      37.886  34.049  40.190  1.00  0.00    -0.200 F 
ATOM     84  C   UNL A   1      39.316  35.659  39.219  1.00  0.00     0.200 A 
ATOM     85  F   UNL A   1      40.739  37.242  38.199  1.00  0.00    -0.200 F 
ATOM     86  F   UNL A   1      39.180  36.449  40.293  1.00  0.00    -0.200 F 
ENDBRANCH  52  76
BRANCH  64  87
ATOM     87  C   UNL A   1      43.813  28.751  35.246  1.00  0.00     0.064 A 
ATOM     88  C   UNL A   1      43.630  27.684  36.138  1.00  0.00     0.173 A 
ATOM     89  C   UNL A   1      45.124  29.184  34.997  1.00  0.00     0.173 A 
ATOM     90  F   UNL A   1      42.395  27.245  36.422  1.00  0.00    -0.203 F 
ATOM     91  C   UNL A   1      44.718  27.090  36.772  1.00  0.00     0.198 A 
ATOM     92  C   UNL A   1      46.211  28.568  35.610  1.00  0.00     0.198 A 
ATOM     93  F   UNL A   1      45.353  30.197  34.148  1.00  0.00    -0.203 F 
ATOM     94  F   UNL A   1      44.517  26.101  37.655  1.00  0.00    -0.200 F 
ATOM     95  C   UNL A   1      46.006  27.526  36.502  1.00  0.00     0.200 A 
ATOM     96  F   UNL A   1      47.456  28.981  35.338  1.00  0.00    -0.200 F 
ATOM     97  F   UNL A   1      47.052  26.945  37.108  1.00  0.00    -0.200 F 
ENDBRANCH  64  87
ENDBRANCH  38  39
ENDBRANCH  30  33
ENDBRANCH  28  29
ENDBRANCH  27  28
ENDBRANCH   1  27
TORSDOF 13
ENDMDL
MODEL 3
REMARK VINA RESULT:     -12.6      0.624      7.162
REMARK SMILES Cc1cc(NC(=O)Nc2sc(C)c(C)c2C(=O)NCCCCNC(=O)c2ccc(-c3c4nc(c(-c5c(F)c(F)c(F)c(F)c5F)c5ccc([nH]5)c(-c5c(F)c(F)c(F)c(F)c5F)c5nc(c(-c6c(F)c(F)c(F)c(F)c6F)c6ccc3[nH]6)C=C5)C=C4)cc2)ccn1
REMARK SMILES IDX 20 1 19 2 18 3 16 4 17 5 15 7 9 8 10 9 11 10 13 11 12 12
REMARK SMILES IDX 14 13 8 14 5 15 6 16 7 18 4 20 1 21 2 22 3 23 91 24 90 25
REMARK SMILES IDX 89 26 21 27 22 28 23 29 24 30 25 32 26 33 27 34 88 35 28 36
REMARK SMILES IDX 87 37 29 38 30 39 31 40 81 41 32 42 86 43 80 44 82 45 33 46
REMARK SMILES IDX 85 47 79 48 78 49 34 51 66 52 46 53 65 54 47 55 50 56 64 57
REMARK SMILES IDX 83 58 48 59 49 60 63 62 84 63 51 64 35 65 36 66 44 67 37 68
REMARK SMILES IDX 38 69 42 70 45 71 39 72 40 73 43 74 41 75 67 76 68 77 76 78
REMARK SMILES IDX 69 79 70 80 74 81 77 82 71 83 72 84 75 85 73 86 52 87 53 88
REMARK SMILES IDX 61 89 54 90 55 91 59 92 62 93 56 94 57 95 60 96 58 97
REMARK H PARENT 18 6 5 17 8 19 23 31 82 50 50 61
REMARK Flexibility Score: inf
ROOT
ATOM      1  C   UNL A   1      31.768  30.454  25.991  1.00  0.00     0.023 C 
ENDROOT
BRANCH   1   2
ATOM      2  C   UNL A   1      31.749  29.299  26.984  1.00  0.00     0.116 C 
BRANCH   2   3
ATOM      3  N   UNL A   1      32.904  28.429  26.989  1.00  0.00    -0.352 N 
ATOM      4  C   UNL A   1      33.278  27.363  26.194  1.00  0.00     0.254 C 
ATOM      5  O   UNL A   1      34.385  26.888  26.466  1.00  0.00    -0.269 OA
ATOM      6  H   UNL A   1      33.552  28.637  27.700  1.00  0.00     0.163 HD
BRANCH   4   7
ATOM      7  C   UNL A   1      32.445  26.752  25.132  1.00  0.00     0.077 A 
ATOM      8  C   UNL A   1      31.485  25.758  25.225  1.00  0.00     0.110 A 
ATOM      9  S   UNL A   1      30.634  25.474  23.780  1.00  0.00    -0.122 S 
ATOM     10  C   UNL A   1      31.748  26.386  22.880  1.00  0.00     0.007 A 
ATOM     11  C   UNL A   1      32.628  27.079  23.700  1.00  0.00    -0.022 A 
ATOM     12  C   UNL A   1      31.668  26.346  21.387  1.00  0.00     0.057 C 
ATOM     13  C   UNL A   1      33.696  27.997  23.182  1.00  0.00     0.046 C 
BRANCH   8  14
ATOM     14  N   UNL A   1      31.021  25.060  26.303  1.00  0.00    -0.298 N 
ATOM     15  N   UNL A   1      32.162  22.958  26.026  1.00  0.00    -0.308 N 
ATOM     16  C   UNL A   1      31.261  23.768  26.633  1.00  0.00     0.324 C 
ATOM     17  H   UNL A   1      31.993  22.010  26.224  1.00  0.00     0.171 HD
ATOM     18  O   UNL A   1      30.617  23.298  27.578  1.00  0.00    -0.248 OA
ATOM     19  H   UNL A   1      30.438  25.560  26.920  1.00  0.00     0.172 HD
BRANCH  15  20
ATOM     20  C   UNL A   1      33.282  23.126  25.183  1.00  0.00     0.046 A 
ATOM     21  C   UNL A   1      36.951  23.877  25.702  1.00  0.00     0.067 C 
ATOM     22  C   UNL A   1      35.642  23.578  25.038  1.00  0.00     0.039 A 
ATOM     23  C   UNL A   1      34.476  23.501  25.797  1.00  0.00     0.049 A 
ATOM     24  N   UNL A   1      35.669  23.336  23.709  1.00  0.00    -0.261 NA
ATOM     25  C   UNL A   1      34.494  23.048  23.120  1.00  0.00     0.113 A 
ATOM     26  C   UNL A   1      33.290  22.965  23.803  1.00  0.00     0.046 A 
ENDBRANCH  15  20
ENDBRANCH   8  14
ENDBRANCH   4   7
ENDBRANCH   2   3
ENDBRANCH   1   2
BRANCH   1  27
ATOM     27  C   UNL A   1      31.503  31.842  26.553  1.00  0.00     0.023 C 
BRANCH  27  28
ATOM     28  C   UNL A   1      32.681  32.537  27.225  1.00  0.00     0.116 C 
BRANCH  28  29
ATOM     29  N   UNL A   1      32.428  33.922  27.596  1.00  0.00    -0.352 N 
ATOM     30  C   UNL A   1      33.074  34.735  28.500  1.00  0.00     0.251 C 
ATOM     31  H   UNL A   1      31.675  34.345  27.124  1.00  0.00     0.163 HD
ATOM     32  O   UNL A   1      32.656  35.870  28.714  1.00  0.00    -0.269 OA
BRANCH  30  33
ATOM     33  C   UNL A   1      34.238  34.234  29.264  1.00  0.00     0.039 A 
ATOM     34  C   UNL A   1      34.008  33.496  30.430  1.00  0.00     0.014 A 
ATOM     35  C   UNL A   1      35.545  34.462  28.833  1.00  0.00     0.014 A 
ATOM     36  C   UNL A   1      35.080  32.895  31.095  1.00  0.00     0.010 A 
ATOM     37  C   UNL A   1      36.600  33.785  29.437  1.00  0.00     0.010 A 
ATOM     38  C   UNL A   1      36.379  32.985  30.569  1.00  0.00    -0.014 A 
BRANCH  38  39
ATOM     39  C   UNL A   1      37.515  32.240  31.174  1.00  0.00     0.031 A 
ATOM     40  C   UNL A   1      38.018  32.608  32.542  1.00  0.00     0.074 A 
ATOM     41  C   UNL A   1      38.149  31.290  30.458  1.00  0.00     0.049 A 
ATOM     42  N   UNL A   1      39.056  32.149  33.195  1.00  0.00    -0.248 NA
ATOM     43  C   UNL A   1      37.274  33.656  33.260  1.00  0.00     0.031 C 
ATOM     44  C   UNL A   1      37.796  30.877  29.098  1.00  0.00     0.029 A 
ATOM     45  N   UNL A   1      39.234  30.508  30.769  1.00  0.00    -0.354 N 
ATOM     46  C   UNL A   1      39.101  32.864  34.384  1.00  0.00     0.074 A 
ATOM     47  C   UNL A   1      38.021  33.825  34.342  1.00  0.00     0.031 C 
ATOM     48  C   UNL A   1      38.632  29.903  28.702  1.00  0.00     0.029 A 
ATOM     49  C   UNL A   1      39.603  29.650  29.761  1.00  0.00     0.049 A 
ATOM     50  H   UNL A   1      39.703  30.557  31.633  1.00  0.00     0.167 HD
ATOM     51  C   UNL A   1      39.949  32.716  35.429  1.00  0.00     0.037 A 
ATOM     52  C   UNL A   1      40.617  28.765  29.695  1.00  0.00     0.037 A 
ATOM     53  C   UNL A   1      41.002  31.736  35.487  1.00  0.00     0.049 A 
ATOM     54  C   UNL A   1      41.540  28.614  30.874  1.00  0.00     0.074 A 
ATOM     55  C   UNL A   1      41.872  31.463  36.529  1.00  0.00     0.029 A 
ATOM     56  N   UNL A   1      41.324  30.864  34.459  1.00  0.00    -0.354 N 
ATOM     57  N   UNL A   1      41.530  29.250  32.019  1.00  0.00    -0.248 NA
ATOM     58  C   UNL A   1      42.614  27.618  30.751  1.00  0.00     0.031 C 
ATOM     59  C   UNL A   1      42.747  30.454  36.115  1.00  0.00     0.029 A 
ATOM     60  C   UNL A   1      42.391  30.064  34.834  1.00  0.00     0.049 A 
ATOM     61  H   UNL A   1      40.862  30.818  33.590  1.00  0.00     0.167 HD
ATOM     62  C   UNL A   1      42.572  28.713  32.763  1.00  0.00     0.074 A 
ATOM     63  C   UNL A   1      43.185  27.688  31.945  1.00  0.00     0.031 C 
ATOM     64  C   UNL A   1      42.983  29.039  34.012  1.00  0.00     0.037 A 
BRANCH  51  65
ATOM     65  C   UNL A   1      39.769  33.633  36.605  1.00  0.00     0.064 A 
ATOM     66  C   UNL A   1      40.433  34.867  36.682  1.00  0.00     0.173 A 
ATOM     67  C   UNL A   1      38.897  33.291  37.650  1.00  0.00     0.173 A 
ATOM     68  F   UNL A   1      41.287  35.236  35.714  1.00  0.00    -0.203 F 
ATOM     69  C   UNL A   1      40.253  35.711  37.775  1.00  0.00     0.198 A 
ATOM     70  C   UNL A   1      38.696  34.151  38.725  1.00  0.00     0.198 A 
ATOM     71  F   UNL A   1      38.234  32.125  37.622  1.00  0.00    -0.203 F 
ATOM     72  F   UNL A   1      40.937  36.861  37.850  1.00  0.00    -0.200 F 
ATOM     73  C   UNL A   1      39.380  35.356  38.791  1.00  0.00     0.200 A 
ATOM     74  F   UNL A   1      37.842  33.813  39.701  1.00  0.00    -0.200 F 
ATOM     75  F   UNL A   1      39.202  36.173  39.838  1.00  0.00    -0.200 F 
ENDBRANCH  51  65
BRANCH  52  76
ATOM     76  C   UNL A   1      40.798  27.929  28.478  1.00  0.00     0.064 A 
ATOM     77  C   UNL A   1      41.554  28.394  27.394  1.00  0.00     0.173 A 
ATOM     78  C   UNL A   1      40.211  26.660  28.368  1.00  0.00     0.173 A 
ATOM     79  F   UNL A   1      42.116  29.611  27.444  1.00  0.00    -0.203 F 
ATOM     80  C   UNL A   1      41.700  27.632  26.237  1.00  0.00     0.198 A 
ATOM     81  C   UNL A   1      40.380  25.887  27.221  1.00  0.00     0.198 A 
ATOM     82  F   UNL A   1      39.481  26.167  29.379  1.00  0.00    -0.203 F 
ATOM     83  F   UNL A   1      42.387  28.123  25.196  1.00  0.00    -0.200 F 
ATOM     84  C   UNL A   1      41.116  26.377  26.153  1.00  0.00     0.200 A 
ATOM     85  F   UNL A   1      39.826  24.669  27.149  1.00  0.00    -0.200 F 
ATOM     86  F   UNL A   1      41.257  25.644  25.040  1.00  0.00    -0.200 F 
ENDBRANCH  52  76
BRANCH  64  87
ATOM     87  C   UNL A   1      44.126  28.256  34.588  1.00  0.00     0.064 A 
ATOM     88  C   UNL A   1      45.452  28.698  34.474  1.00  0.00     0.173 A 
ATOM     89  C   UNL A   1      43.885  27.070  35.298  1.00  0.00     0.173 A 
ATOM     90  F   UNL A   1      45.735  29.817  33.792  1.00  0.00    -0.203 F 
ATOM     91  C   UNL A   1      46.498  27.967  35.031  1.00  0.00     0.198 A 
ATOM     92  C   UNL A   1      44.931  26.357  35.878  1.00  0.00     0.198 A 
ATOM     93  F   UNL A   1      42.634  26.608  35.440  1.00  0.00    -0.203 F 
ATOM     94  F   UNL A   1      47.763  28.384  34.872  1.00  0.00    -0.200 F 
ATOM     95  C   UNL A   1      46.237  26.803  35.738  1.00  0.00     0.200 A 
ATOM     96  F   UNL A   1      44.675  25.240  36.572  1.00  0.00    -0.200 F 
ATOM     97  F   UNL A   1      47.245  26.106  36.280  1.00  0.00    -0.200 F 
ENDBRANCH  64  87
ENDBRANCH  38  39
ENDBRANCH  30  33
ENDBRANCH  28  29
ENDBRANCH  27  28
ENDBRANCH   1  27
TORSDOF 13
ENDMDL
