MODEL 1
REMARK VINA RESULT:     -12.0      0.000      0.000
REMARK SMILES C[C@H](CNC(=O)Cc1ccc(F)c(F)c1)C(=O)NCCCCNC(=O)c1ccc(-c2c3nc(c(-c4c(F)c(F)c(F)c(F)c4F)c4ccc([nH]4)c(-c4c(F)c(F)c(F)c(F)c4F)c4nc(c(-c5c(F)c(F)c(F)c(F)c5F)c5ccc2[nH]5)C=C4)C=C3)cc1
REMARK SMILES IDX 19 1 18 2 16 3 17 4 2 6 1 7 3 8 4 9 5 10 6 12 7 13 8 14 9 15
REMARK SMILES IDX 15 16 10 17 13 18 11 19 14 20 12 21 20 22 21 23 22 24 23 25
REMARK SMILES IDX 24 26 25 28 26 29 27 30 88 31 28 32 87 33 29 34 30 35 31 36
REMARK SMILES IDX 81 37 32 38 86 39 80 40 82 41 33 42 85 43 79 44 78 45 34 47
REMARK SMILES IDX 66 48 46 49 65 50 47 51 50 52 64 53 83 54 48 55 49 56 63 58
REMARK SMILES IDX 84 59 51 60 35 61 36 62 44 63 37 64 38 65 42 66 45 67 39 68
REMARK SMILES IDX 40 69 43 70 41 71 67 72 68 73 76 74 69 75 70 76 74 77 77 78
REMARK SMILES IDX 71 79 72 80 75 81 73 82 52 83 53 84 61 85 54 86 55 87 59 88
REMARK SMILES IDX 62 89 56 90 57 91 60 92 58 93
REMARK H PARENT 18 5 4 11 23 27 82 46 50 57
REMARK Flexibility Score: inf
ROOT
ATOM      1  C   UNL A   1      32.507  29.970  27.098  1.00  0.00     0.116 C 
ENDROOT
BRANCH   1   2
ATOM      2  N   UNL A   1      31.813  28.731  27.382  1.00  0.00    -0.356 N 
ATOM      3  C   UNL A   1      31.673  27.598  26.649  1.00  0.00     0.224 C 
ATOM      4  O   UNL A   1      30.986  26.696  27.133  1.00  0.00    -0.275 OA
ATOM      5  H   UNL A   1      31.365  28.708  28.259  1.00  0.00     0.163 HD
BRANCH   3   6
ATOM      6  C   UNL A   1      32.348  27.414  25.297  1.00  0.00     0.094 C 
ATOM      7  C   UNL A   1      31.346  27.550  24.149  1.00  0.00     0.020 C 
BRANCH   6   8
ATOM      8  C   UNL A   1      33.196  26.137  25.234  1.00  0.00     0.129 C 
BRANCH   8   9
ATOM      9  N   UNL A   1      33.452  25.746  23.853  1.00  0.00    -0.355 N 
ATOM     10  C   UNL A   1      33.828  24.542  23.337  1.00  0.00     0.224 C 
ATOM     11  H   UNL A   1      33.336  26.464  23.190  1.00  0.00     0.163 HD
ATOM     12  O   UNL A   1      34.064  24.479  22.130  1.00  0.00    -0.275 OA
BRANCH  10  13
ATOM     13  C   UNL A   1      33.872  23.302  24.212  1.00  0.00     0.135 C 
BRANCH  13  14
ATOM     14  C   UNL A   1      35.240  22.818  24.637  1.00  0.00    -0.036 A 
ATOM     15  C   UNL A   1      36.189  23.760  25.076  1.00  0.00     0.007 A 
ATOM     16  C   UNL A   1      35.583  21.458  24.646  1.00  0.00     0.046 A 
ATOM     17  C   UNL A   1      37.470  23.356  25.457  1.00  0.00     0.043 A 
ATOM     18  C   UNL A   1      36.867  21.065  25.019  1.00  0.00     0.159 A 
ATOM     19  C   UNL A   1      37.807  22.008  25.415  1.00  0.00     0.158 A 
ATOM     20  F   UNL A   1      37.186  19.763  24.994  1.00  0.00    -0.204 F 
ATOM     21  F   UNL A   1      39.040  21.629  25.777  1.00  0.00    -0.204 F 
ENDBRANCH  13  14
ENDBRANCH  10  13
ENDBRANCH   8   9
ENDBRANCH   6   8
ENDBRANCH   3   6
ENDBRANCH   1   2
BRANCH   1  22
ATOM     22  C   UNL A   1      31.689  30.863  26.169  1.00  0.00     0.023 C 
BRANCH  22  23
ATOM     23  C   UNL A   1      31.433  32.271  26.712  1.00  0.00     0.023 C 
BRANCH  23  24
ATOM     24  C   UNL A   1      32.654  32.972  27.298  1.00  0.00     0.116 C 
BRANCH  24  25
ATOM     25  N   UNL A   1      32.387  34.345  27.699  1.00  0.00    -0.352 N 
ATOM     26  C   UNL A   1      32.999  35.091  28.676  1.00  0.00     0.251 C 
ATOM     27  H   UNL A   1      31.670  34.801  27.203  1.00  0.00     0.163 HD
ATOM     28  O   UNL A   1      32.567  36.201  28.972  1.00  0.00    -0.269 OA
BRANCH  26  29
ATOM     29  C   UNL A   1      34.159  34.532  29.397  1.00  0.00     0.039 A 
ATOM     30  C   UNL A   1      33.944  33.873  30.610  1.00  0.00     0.014 A 
ATOM     31  C   UNL A   1      35.446  34.630  28.863  1.00  0.00     0.014 A 
ATOM     32  C   UNL A   1      35.015  33.249  31.253  1.00  0.00     0.010 A 
ATOM     33  C   UNL A   1      36.497  33.949  29.468  1.00  0.00     0.010 A 
ATOM     34  C   UNL A   1      36.291  33.250  30.666  1.00  0.00    -0.014 A 
BRANCH  34  35
ATOM     35  C   UNL A   1      37.421  32.513  31.285  1.00  0.00     0.031 A 
ATOM     36  C   UNL A   1      37.912  32.893  32.652  1.00  0.00     0.074 A 
ATOM     37  C   UNL A   1      38.040  31.540  30.588  1.00  0.00     0.049 A 
ATOM     38  N   UNL A   1      38.924  32.415  33.329  1.00  0.00    -0.248 NA
ATOM     39  C   UNL A   1      37.187  33.972  33.340  1.00  0.00     0.031 C 
ATOM     40  C   UNL A   1      37.680  31.111  29.237  1.00  0.00     0.029 A 
ATOM     41  N   UNL A   1      39.108  30.742  30.918  1.00  0.00    -0.354 N 
ATOM     42  C   UNL A   1      38.962  33.138  34.512  1.00  0.00     0.074 A 
ATOM     43  C   UNL A   1      37.907  34.126  34.440  1.00  0.00     0.031 C 
ATOM     44  C   UNL A   1      38.489  30.106  28.865  1.00  0.00     0.029 A 
ATOM     45  C   UNL A   1      39.451  29.848  29.933  1.00  0.00     0.049 A 
ATOM     46  H   UNL A   1      39.582  30.805  31.777  1.00  0.00     0.167 HD
ATOM     47  C   UNL A   1      39.787  32.974  35.573  1.00  0.00     0.037 A 
ATOM     48  C   UNL A   1      40.432  28.926  29.895  1.00  0.00     0.037 A 
ATOM     49  C   UNL A   1      40.816  31.971  35.651  1.00  0.00     0.049 A 
ATOM     50  C   UNL A   1      41.343  28.773  31.081  1.00  0.00     0.074 A 
ATOM     51  C   UNL A   1      41.665  31.690  36.707  1.00  0.00     0.029 A 
ATOM     52  N   UNL A   1      41.135  31.085  34.632  1.00  0.00    -0.354 N 
ATOM     53  N   UNL A   1      41.335  29.427  32.217  1.00  0.00    -0.248 NA
ATOM     54  C   UNL A   1      42.400  27.756  30.981  1.00  0.00     0.031 C 
ATOM     55  C   UNL A   1      42.528  30.665  36.311  1.00  0.00     0.029 A 
ATOM     56  C   UNL A   1      42.183  30.271  35.027  1.00  0.00     0.049 A 
ATOM     57  H   UNL A   1      40.683  31.042  33.759  1.00  0.00     0.167 HD
ATOM     58  C   UNL A   1      42.366  28.888  32.975  1.00  0.00     0.074 A 
ATOM     59  C   UNL A   1      42.971  27.844  32.175  1.00  0.00     0.031 C 
ATOM     60  C   UNL A   1      42.772  29.231  34.222  1.00  0.00     0.037 A 
BRANCH  47  61
ATOM     61  C   UNL A   1      39.603  33.888  36.750  1.00  0.00     0.064 A 
ATOM     62  C   UNL A   1      40.268  35.123  36.805  1.00  0.00     0.173 A 
ATOM     63  C   UNL A   1      38.820  33.515  37.853  1.00  0.00     0.173 A 
ATOM     64  F   UNL A   1      41.033  35.526  35.779  1.00  0.00    -0.203 F 
ATOM     65  C   UNL A   1      40.164  35.943  37.926  1.00  0.00     0.198 A 
ATOM     66  C   UNL A   1      38.695  34.351  38.958  1.00  0.00     0.198 A 
ATOM     67  F   UNL A   1      38.155  32.350  37.844  1.00  0.00    -0.203 F 
ATOM     68  F   UNL A   1      40.833  37.103  37.969  1.00  0.00    -0.200 F 
ATOM     69  C   UNL A   1      39.375  35.558  38.999  1.00  0.00     0.200 A 
ATOM     70  F   UNL A   1      37.911  33.988  39.983  1.00  0.00    -0.200 F 
ATOM     71  F   UNL A   1      39.266  36.354  40.072  1.00  0.00    -0.200 F 
ENDBRANCH  47  61
BRANCH  48  72
ATOM     72  C   UNL A   1      40.566  28.049  28.703  1.00  0.00     0.064 A 
ATOM     73  C   UNL A   1      41.315  28.441  27.584  1.00  0.00     0.173 A 
ATOM     74  C   UNL A   1      39.913  26.810  28.650  1.00  0.00     0.173 A 
ATOM     75  F   UNL A   1      41.955  29.620  27.583  1.00  0.00    -0.203 F 
ATOM     76  C   UNL A   1      41.385  27.637  26.447  1.00  0.00     0.198 A 
ATOM     77  C   UNL A   1      40.004  25.995  27.523  1.00  0.00     0.198 A 
ATOM     78  F   UNL A   1      39.201  26.383  29.703  1.00  0.00    -0.203 F 
ATOM     79  F   UNL A   1      42.075  28.052  25.377  1.00  0.00    -0.200 F 
ATOM     80  C   UNL A   1      40.732  26.414  26.419  1.00  0.00     0.200 A 
ATOM     81  F   UNL A   1      39.390  24.805  27.508  1.00  0.00    -0.200 F 
ATOM     82  F   UNL A   1      40.805  25.638  25.329  1.00  0.00    -0.200 F 
ENDBRANCH  48  72
BRANCH  60  83
ATOM     83  C   UNL A   1      43.916  28.465  34.818  1.00  0.00     0.064 A 
ATOM     84  C   UNL A   1      43.679  27.301  35.565  1.00  0.00     0.173 A 
ATOM     85  C   UNL A   1      45.235  28.931  34.726  1.00  0.00     0.173 A 
ATOM     86  F   UNL A   1      42.432  26.819  35.689  1.00  0.00    -0.203 F 
ATOM     87  C   UNL A   1      44.718  26.643  36.215  1.00  0.00     0.198 A 
ATOM     88  C   UNL A   1      46.277  28.254  35.355  1.00  0.00     0.198 A 
ATOM     89  F   UNL A   1      45.514  30.032  34.014  1.00  0.00    -0.203 F 
ATOM     90  F   UNL A   1      44.462  25.556  36.956  1.00  0.00    -0.200 F 
ATOM     91  C   UNL A   1      46.017  27.118  36.108  1.00  0.00     0.200 A 
ATOM     92  F   UNL A   1      47.535  28.701  35.232  1.00  0.00    -0.200 F 
ATOM     93  F   UNL A   1      47.018  26.481  36.730  1.00  0.00    -0.200 F 
ENDBRANCH  60  83
ENDBRANCH  34  35
ENDBRANCH  26  29
ENDBRANCH  24  25
ENDBRANCH  23  24
ENDBRANCH  22  23
ENDBRANCH   1  22
TORSDOF 15
ENDMDL
MODEL 2
REMARK VINA RESULT:     -11.9      2.412      8.103
REMARK SMILES C[C@H](CNC(=O)Cc1ccc(F)c(F)c1)C(=O)NCCCCNC(=O)c1ccc(-c2c3nc(c(-c4c(F)c(F)c(F)c(F)c4F)c4ccc([nH]4)c(-c4c(F)c(F)c(F)c(F)c4F)c4nc(c(-c5c(F)c(F)c(F)c(F)c5F)c5ccc2[nH]5)C=C4)C=C3)cc1
REMARK SMILES IDX 19 1 18 2 16 3 17 4 2 6 1 7 3 8 4 9 5 10 6 12 7 13 8 14 9 15
REMARK SMILES IDX 15 16 10 17 13 18 11 19 14 20 12 21 20 22 21 23 22 24 23 25
REMARK SMILES IDX 24 26 25 28 26 29 27 30 88 31 28 32 87 33 29 34 30 35 31 36
REMARK SMILES IDX 81 37 32 38 86 39 80 40 82 41 33 42 85 43 79 44 78 45 34 47
REMARK SMILES IDX 66 48 46 49 65 50 47 51 50 52 64 53 83 54 48 55 49 56 63 58
REMARK SMILES IDX 84 59 51 60 35 61 36 62 44 63 37 64 38 65 42 66 45 67 39 68
REMARK SMILES IDX 40 69 43 70 41 71 67 72 68 73 76 74 69 75 70 76 74 77 77 78
REMARK SMILES IDX 71 79 72 80 75 81 73 82 52 83 53 84 61 85 54 86 55 87 59 88
REMARK SMILES IDX 62 89 56 90 57 91 60 92 58 93
REMARK H PARENT 18 5 4 11 23 27 82 46 50 57
REMARK Flexibility Score: inf
ROOT
ATOM      1  C   UNL A   1      30.290  25.908  25.608  1.00  0.00     0.116 C 
ENDROOT
BRANCH   1   2
ATOM      2  N   UNL A   1      29.803  24.895  26.521  1.00  0.00    -0.356 N 
ATOM      3  C   UNL A   1      30.298  23.674  26.847  1.00  0.00     0.224 C 
ATOM      4  O   UNL A   1      29.645  22.997  27.643  1.00  0.00    -0.275 OA
ATOM      5  H   UNL A   1      28.969  25.134  26.986  1.00  0.00     0.163 HD
BRANCH   3   6
ATOM      6  C   UNL A   1      31.615  23.154  26.287  1.00  0.00     0.094 C 
ATOM      7  C   UNL A   1      31.411  21.865  25.489  1.00  0.00     0.020 C 
BRANCH   6   8
ATOM      8  C   UNL A   1      32.709  23.055  27.358  1.00  0.00     0.129 C 
BRANCH   8   9
ATOM      9  N   UNL A   1      33.786  22.173  26.926  1.00  0.00    -0.355 N 
ATOM     10  C   UNL A   1      34.855  22.423  26.118  1.00  0.00     0.224 C 
ATOM     11  H   UNL A   1      33.733  21.253  27.272  1.00  0.00     0.163 HD
ATOM     12  O   UNL A   1      35.595  21.481  25.832  1.00  0.00    -0.275 OA
BRANCH  10  13
ATOM     13  C   UNL A   1      35.166  23.835  25.656  1.00  0.00     0.135 C 
BRANCH  13  14
ATOM     14  C   UNL A   1      34.438  24.324  24.426  1.00  0.00    -0.036 A 
ATOM     15  C   UNL A   1      34.061  23.391  23.441  1.00  0.00     0.007 A 
ATOM     16  C   UNL A   1      34.088  25.670  24.247  1.00  0.00     0.046 A 
ATOM     17  C   UNL A   1      33.406  23.804  22.279  1.00  0.00     0.043 A 
ATOM     18  C   UNL A   1      33.442  26.077  23.081  1.00  0.00     0.159 A 
ATOM     19  C   UNL A   1      33.111  25.151  22.100  1.00  0.00     0.158 A 
ATOM     20  F   UNL A   1      33.142  27.372  22.916  1.00  0.00    -0.204 F 
ATOM     21  F   UNL A   1      32.487  25.541  20.980  1.00  0.00    -0.204 F 
ENDBRANCH  13  14
ENDBRANCH  10  13
ENDBRANCH   8   9
ENDBRANCH   6   8
ENDBRANCH   3   6
ENDBRANCH   1   2
BRANCH   1  22
ATOM     22  C   UNL A   1      31.288  26.838  26.293  1.00  0.00     0.023 C 
BRANCH  22  23
ATOM     23  C   UNL A   1      31.445  28.203  25.619  1.00  0.00     0.023 C 
BRANCH  23  24
ATOM     24  C   UNL A   1      32.652  29.017  26.074  1.00  0.00     0.116 C 
BRANCH  24  25
ATOM     25  N   UNL A   1      32.347  30.425  26.278  1.00  0.00    -0.352 N 
ATOM     26  C   UNL A   1      33.042  31.360  27.004  1.00  0.00     0.251 C 
ATOM     27  H   UNL A   1      31.531  30.752  25.836  1.00  0.00     0.163 HD
ATOM     28  O   UNL A   1      32.579  32.483  27.177  1.00  0.00    -0.269 OA
BRANCH  26  29
ATOM     29  C   UNL A   1      34.337  30.992  27.610  1.00  0.00     0.039 A 
ATOM     30  C   UNL A   1      35.288  31.992  27.825  1.00  0.00     0.014 A 
ATOM     31  C   UNL A   1      34.597  29.674  27.994  1.00  0.00     0.014 A 
ATOM     32  C   UNL A   1      36.475  31.681  28.490  1.00  0.00     0.010 A 
ATOM     33  C   UNL A   1      35.748  29.381  28.718  1.00  0.00     0.010 A 
ATOM     34  C   UNL A   1      36.696  30.382  28.975  1.00  0.00    -0.014 A 
BRANCH  34  35
ATOM     35  C   UNL A   1      37.907  30.054  29.767  1.00  0.00     0.031 A 
ATOM     36  C   UNL A   1      38.944  29.122  29.209  1.00  0.00     0.074 A 
ATOM     37  C   UNL A   1      38.041  30.549  31.013  1.00  0.00     0.049 A 
ATOM     38  N   UNL A   1      40.032  28.664  29.773  1.00  0.00    -0.248 NA
ATOM     39  C   UNL A   1      38.717  28.618  27.846  1.00  0.00     0.031 C 
ATOM     40  C   UNL A   1      37.080  31.429  31.679  1.00  0.00     0.029 A 
ATOM     41  N   UNL A   1      39.034  30.376  31.945  1.00  0.00    -0.354 N 
ATOM     42  C   UNL A   1      40.611  27.813  28.841  1.00  0.00     0.074 A 
ATOM     43  C   UNL A   1      39.727  27.775  27.696  1.00  0.00     0.031 C 
ATOM     44  C   UNL A   1      37.546  31.747  32.896  1.00  0.00     0.029 A 
ATOM     45  C   UNL A   1      38.816  31.061  33.115  1.00  0.00     0.049 A 
ATOM     46  H   UNL A   1      39.828  29.816  31.788  1.00  0.00     0.167 HD
ATOM     47  C   UNL A   1      41.786  27.148  28.924  1.00  0.00     0.037 A 
ATOM     48  C   UNL A   1      39.555  31.126  34.239  1.00  0.00     0.037 A 
ATOM     49  C   UNL A   1      42.675  27.213  30.054  1.00  0.00     0.049 A 
ATOM     50  C   UNL A   1      40.851  30.365  34.312  1.00  0.00     0.074 A 
ATOM     51  C   UNL A   1      43.914  26.618  30.209  1.00  0.00     0.029 A 
ATOM     52  N   UNL A   1      42.417  27.915  31.223  1.00  0.00    -0.354 N 
ATOM     53  N   UNL A   1      41.414  29.607  33.403  1.00  0.00    -0.248 NA
ATOM     54  C   UNL A   1      41.613  30.467  35.565  1.00  0.00     0.031 C 
ATOM     55  C   UNL A   1      44.388  26.923  31.488  1.00  0.00     0.029 A 
ATOM     56  C   UNL A   1      43.467  27.750  32.112  1.00  0.00     0.049 A 
ATOM     57  H   UNL A   1      41.610  28.451  31.394  1.00  0.00     0.167 HD
ATOM     58  C   UNL A   1      42.604  29.161  33.962  1.00  0.00     0.074 A 
ATOM     59  C   UNL A   1      42.689  29.744  35.284  1.00  0.00     0.031 C 
ATOM     60  C   UNL A   1      43.540  28.341  33.424  1.00  0.00     0.037 A 
BRANCH  47  61
ATOM     61  C   UNL A   1      42.194  26.299  27.755  1.00  0.00     0.064 A 
ATOM     62  C   UNL A   1      41.710  24.989  27.619  1.00  0.00     0.173 A 
ATOM     63  C   UNL A   1      43.115  26.760  26.801  1.00  0.00     0.173 A 
ATOM     64  F   UNL A   1      40.831  24.498  28.507  1.00  0.00    -0.203 F 
ATOM     65  C   UNL A   1      42.142  24.170  26.580  1.00  0.00     0.198 A 
ATOM     66  C   UNL A   1      43.521  25.947  25.748  1.00  0.00     0.198 A 
ATOM     67  F   UNL A   1      43.598  28.009  26.879  1.00  0.00    -0.203 F 
ATOM     68  F   UNL A   1      41.690  22.911  26.490  1.00  0.00    -0.200 F 
ATOM     69  C   UNL A   1      43.043  24.651  25.643  1.00  0.00     0.200 A 
ATOM     70  F   UNL A   1      44.373  26.424  24.828  1.00  0.00    -0.200 F 
ATOM     71  F   UNL A   1      43.449  23.864  24.636  1.00  0.00    -0.200 F 
ENDBRANCH  47  61
BRANCH  48  72
ATOM     72  C   UNL A   1      39.102  31.982  35.366  1.00  0.00     0.064 A 
ATOM     73  C   UNL A   1      39.432  33.344  35.431  1.00  0.00     0.173 A 
ATOM     74  C   UNL A   1      38.359  31.439  36.423  1.00  0.00     0.173 A 
ATOM     75  F   UNL A   1      40.147  33.910  34.448  1.00  0.00    -0.203 F 
ATOM     76  C   UNL A   1      39.054  34.124  36.523  1.00  0.00     0.198 A 
ATOM     77  C   UNL A   1      37.959  32.225  37.501  1.00  0.00     0.198 A 
ATOM     78  F   UNL A   1      38.004  30.146  36.395  1.00  0.00    -0.203 F 
ATOM     79  F   UNL A   1      39.414  35.412  36.580  1.00  0.00    -0.200 F 
ATOM     80  C   UNL A   1      38.316  33.564  37.555  1.00  0.00     0.200 A 
ATOM     81  F   UNL A   1      37.228  31.686  38.486  1.00  0.00    -0.200 F 
ATOM     82  F   UNL A   1      37.946  34.316  38.601  1.00  0.00    -0.200 F 
ENDBRANCH  48  72
BRANCH  60  83
ATOM     83  C   UNL A   1      44.752  28.030  34.251  1.00  0.00     0.064 A 
ATOM     84  C   UNL A   1      45.893  28.845  34.174  1.00  0.00     0.173 A 
ATOM     85  C   UNL A   1      44.819  26.879  35.049  1.00  0.00     0.173 A 
ATOM     86  F   UNL A   1      45.882  29.953  33.418  1.00  0.00    -0.203 F 
ATOM     87  C   UNL A   1      47.061  28.507  34.850  1.00  0.00     0.198 A 
ATOM     88  C   UNL A   1      45.980  26.560  35.747  1.00  0.00     0.198 A 
ATOM     89  F   UNL A   1      43.751  26.075  35.164  1.00  0.00    -0.203 F 
ATOM     90  F   UNL A   1      48.150  29.279  34.730  1.00  0.00    -0.200 F 
ATOM     91  C   UNL A   1      47.104  27.366  35.637  1.00  0.00     0.200 A 
ATOM     92  F   UNL A   1      46.014  25.469  36.525  1.00  0.00    -0.200 F 
ATOM     93  F   UNL A   1      48.227  27.045  36.292  1.00  0.00    -0.200 F 
ENDBRANCH  60  83
ENDBRANCH  34  35
ENDBRANCH  26  29
ENDBRANCH  24  25
ENDBRANCH  23  24
ENDBRANCH  22  23
ENDBRANCH   1  22
TORSDOF 15
ENDMDL
MODEL 3
REMARK VINA RESULT:     -11.8      1.243      7.504
REMARK SMILES C[C@H](CNC(=O)Cc1ccc(F)c(F)c1)C(=O)NCCCCNC(=O)c1ccc(-c2c3nc(c(-c4c(F)c(F)c(F)c(F)c4F)c4ccc([nH]4)c(-c4c(F)c(F)c(F)c(F)c4F)c4nc(c(-c5c(F)c(F)c(F)c(F)c5F)c5ccc2[nH]5)C=C4)C=C3)cc1
REMARK SMILES IDX 19 1 18 2 16 3 17 4 2 6 1 7 3 8 4 9 5 10 6 12 7 13 8 14 9 15
REMARK SMILES IDX 15 16 10 17 13 18 11 19 14 20 12 21 20 22 21 23 22 24 23 25
REMARK SMILES IDX 24 26 25 28 26 29 27 30 88 31 28 32 87 33 29 34 30 35 31 36
REMARK SMILES IDX 81 37 32 38 86 39 80 40 82 41 33 42 85 43 79 44 78 45 34 47
REMARK SMILES IDX 66 48 46 49 65 50 47 51 50 52 64 53 83 54 48 55 49 56 63 58
REMARK SMILES IDX 84 59 51 60 35 61 36 62 44 63 37 64 38 65 42 66 45 67 39 68
REMARK SMILES IDX 40 69 43 70 41 71 67 72 68 73 76 74 69 75 70 76 74 77 77 78
REMARK SMILES IDX 71 79 72 80 75 81 73 82 52 83 53 84 61 85 54 86 55 87 59 88
REMARK SMILES IDX 62 89 56 90 57 91 60 92 58 93
REMARK H PARENT 18 5 4 11 23 27 82 46 50 57
REMARK Flexibility Score: inf
ROOT
ATOM      1  C   UNL A   1      31.014  29.500  25.068  1.00  0.00     0.116 C 
ENDROOT
BRANCH   1   2
ATOM      2  N   UNL A   1      30.679  29.987  23.745  1.00  0.00    -0.356 N 
ATOM      3  C   UNL A   1      30.280  29.330  22.627  1.00  0.00     0.224 C 
ATOM      4  O   UNL A   1      30.094  30.007  21.613  1.00  0.00    -0.275 OA
ATOM      5  H   UNL A   1      30.755  30.963  23.641  1.00  0.00     0.163 HD
BRANCH   3   6
ATOM      6  C   UNL A   1      30.038  27.827  22.608  1.00  0.00     0.094 C 
ATOM      7  C   UNL A   1      28.816  27.448  23.445  1.00  0.00     0.020 C 
BRANCH   6   8
ATOM      8  C   UNL A   1      31.300  27.026  22.952  1.00  0.00     0.129 C 
BRANCH   8   9
ATOM      9  N   UNL A   1      31.968  26.556  21.744  1.00  0.00    -0.355 N 
ATOM     10  C   UNL A   1      32.635  25.391  21.507  1.00  0.00     0.224 C 
ATOM     11  H   UNL A   1      31.932  27.177  20.981  1.00  0.00     0.163 HD
ATOM     12  O   UNL A   1      33.191  25.256  20.415  1.00  0.00    -0.275 OA
BRANCH  10  13
ATOM     13  C   UNL A   1      32.622  24.267  22.526  1.00  0.00     0.135 C 
BRANCH  13  14
ATOM     14  C   UNL A   1      33.885  24.064  23.331  1.00  0.00    -0.036 A 
ATOM     15  C   UNL A   1      34.026  24.738  24.558  1.00  0.00     0.007 A 
ATOM     16  C   UNL A   1      34.905  23.195  22.918  1.00  0.00     0.046 A 
ATOM     17  C   UNL A   1      35.186  24.594  25.322  1.00  0.00     0.043 A 
ATOM     18  C   UNL A   1      36.064  23.064  23.681  1.00  0.00     0.159 A 
ATOM     19  C   UNL A   1      36.206  23.765  24.872  1.00  0.00     0.158 A 
ATOM     20  F   UNL A   1      37.040  22.251  23.255  1.00  0.00    -0.204 F 
ATOM     21  F   UNL A   1      37.319  23.635  25.607  1.00  0.00    -0.204 F 
ENDBRANCH  13  14
ENDBRANCH  10  13
ENDBRANCH   8   9
ENDBRANCH   6   8
ENDBRANCH   3   6
ENDBRANCH   1   2
BRANCH   1  22
ATOM     22  C   UNL A   1      32.147  30.313  25.687  1.00  0.00     0.023 C 
BRANCH  22  23
ATOM     23  C   UNL A   1      31.687  31.562  26.443  1.00  0.00     0.023 C 
BRANCH  23  24
ATOM     24  C   UNL A   1      32.787  32.309  27.191  1.00  0.00     0.116 C 
BRANCH  24  25
ATOM     25  N   UNL A   1      32.442  33.693  27.480  1.00  0.00    -0.352 N 
ATOM     26  C   UNL A   1      32.994  34.542  28.407  1.00  0.00     0.251 C 
ATOM     27  H   UNL A   1      31.714  34.072  26.938  1.00  0.00     0.163 HD
ATOM     28  O   UNL A   1      32.500  35.648  28.609  1.00  0.00    -0.269 OA
BRANCH  26  29
ATOM     29  C   UNL A   1      34.165  34.100  29.189  1.00  0.00     0.039 A 
ATOM     30  C   UNL A   1      33.956  33.356  30.353  1.00  0.00     0.014 A 
ATOM     31  C   UNL A   1      35.462  34.392  28.759  1.00  0.00     0.014 A 
ATOM     32  C   UNL A   1      35.053  32.843  31.047  1.00  0.00     0.010 A 
ATOM     33  C   UNL A   1      36.550  33.822  29.412  1.00  0.00     0.010 A 
ATOM     34  C   UNL A   1      36.355  33.040  30.560  1.00  0.00    -0.014 A 
BRANCH  34  35
ATOM     35  C   UNL A   1      37.527  32.424  31.230  1.00  0.00     0.031 A 
ATOM     36  C   UNL A   1      38.279  31.308  30.561  1.00  0.00     0.074 A 
ATOM     37  C   UNL A   1      37.876  32.830  32.465  1.00  0.00     0.049 A 
ATOM     38  N   UNL A   1      39.282  30.601  31.013  1.00  0.00    -0.248 NA
ATOM     39  C   UNL A   1      37.826  30.918  29.217  1.00  0.00     0.031 C 
ATOM     40  C   UNL A   1      37.198  33.875  33.233  1.00  0.00     0.029 A 
ATOM     41  N   UNL A   1      38.884  32.409  33.297  1.00  0.00    -0.354 N 
ATOM     42  C   UNL A   1      39.573  29.679  30.017  1.00  0.00     0.074 A 
ATOM     43  C   UNL A   1      38.606  29.879  28.959  1.00  0.00     0.031 C 
ATOM     44  C   UNL A   1      37.828  34.037  34.407  1.00  0.00     0.029 A 
ATOM     45  C   UNL A   1      38.927  33.081  34.494  1.00  0.00     0.049 A 
ATOM     46  H   UNL A   1      39.516  31.694  33.058  1.00  0.00     0.167 HD
ATOM     47  C   UNL A   1      40.573  28.769  29.979  1.00  0.00     0.037 A 
ATOM     48  C   UNL A   1      39.758  32.940  35.545  1.00  0.00     0.037 A 
ATOM     49  C   UNL A   1      41.549  28.594  31.022  1.00  0.00     0.049 A 
ATOM     50  C   UNL A   1      40.853  31.910  35.483  1.00  0.00     0.074 A 
ATOM     51  C   UNL A   1      42.634  27.736  31.050  1.00  0.00     0.029 A 
ATOM     52  N   UNL A   1      41.558  29.292  32.221  1.00  0.00    -0.354 N 
ATOM     53  N   UNL A   1      41.151  31.081  34.513  1.00  0.00    -0.248 NA
ATOM     54  C   UNL A   1      41.725  31.796  36.661  1.00  0.00     0.031 C 
ATOM     55  C   UNL A   1      43.274  27.882  32.284  1.00  0.00     0.029 A 
ATOM     56  C   UNL A   1      42.618  28.867  33.005  1.00  0.00     0.049 A 
ATOM     57  H   UNL A   1      40.908  29.986  32.475  1.00  0.00     0.167 HD
ATOM     58  C   UNL A   1      42.256  30.364  34.951  1.00  0.00     0.074 A 
ATOM     59  C   UNL A   1      42.584  30.864  36.269  1.00  0.00     0.031 C 
ATOM     60  C   UNL A   1      42.935  29.379  34.314  1.00  0.00     0.037 A 
BRANCH  47  61
ATOM     61  C   UNL A   1      40.678  27.896  28.762  1.00  0.00     0.064 A 
ATOM     62  C   UNL A   1      41.462  28.288  27.666  1.00  0.00     0.173 A 
ATOM     63  C   UNL A   1      39.951  26.700  28.653  1.00  0.00     0.173 A 
ATOM     64  F   UNL A   1      42.173  29.425  27.717  1.00  0.00    -0.203 F 
ATOM     65  C   UNL A   1      41.505  27.523  26.504  1.00  0.00     0.198 A 
ATOM     66  C   UNL A   1      40.020  25.923  27.501  1.00  0.00     0.198 A 
ATOM     67  F   UNL A   1      39.196  26.274  29.677  1.00  0.00    -0.203 F 
ATOM     68  F   UNL A   1      42.236  27.935  25.460  1.00  0.00    -0.200 F 
ATOM     69  C   UNL A   1      40.787  26.339  26.425  1.00  0.00     0.200 A 
ATOM     70  F   UNL A   1      39.346  24.765  27.436  1.00  0.00    -0.200 F 
ATOM     71  F   UNL A   1      40.839  25.597  25.309  1.00  0.00    -0.200 F 
ENDBRANCH  47  61
BRANCH  48  72
ATOM     72  C   UNL A   1      39.607  33.832  36.723  1.00  0.00     0.064 A 
ATOM     73  C   UNL A   1      40.246  35.079  36.786  1.00  0.00     0.173 A 
ATOM     74  C   UNL A   1      38.846  33.433  37.830  1.00  0.00     0.173 A 
ATOM     75  F   UNL A   1      40.992  35.504  35.756  1.00  0.00    -0.203 F 
ATOM     76  C   UNL A   1      40.148  35.881  37.922  1.00  0.00     0.198 A 
ATOM     77  C   UNL A   1      38.726  34.246  38.955  1.00  0.00     0.198 A 
ATOM     78  F   UNL A   1      38.200  32.257  37.809  1.00  0.00    -0.203 F 
ATOM     79  F   UNL A   1      40.800  37.050  37.973  1.00  0.00    -0.200 F 
ATOM     80  C   UNL A   1      39.386  35.466  39.003  1.00  0.00     0.200 A 
ATOM     81  F   UNL A   1      37.972  33.851  39.988  1.00  0.00    -0.200 F 
ATOM     82  F   UNL A   1      39.285  36.240  40.092  1.00  0.00    -0.200 F 
ENDBRANCH  48  72
BRANCH  60  83
ATOM     83  C   UNL A   1      44.116  28.778  35.019  1.00  0.00     0.064 A 
ATOM     84  C   UNL A   1      45.404  29.297  34.815  1.00  0.00     0.173 A 
ATOM     85  C   UNL A   1      43.986  27.637  35.823  1.00  0.00     0.173 A 
ATOM     86  F   UNL A   1      45.582  30.383  34.048  1.00  0.00    -0.203 F 
ATOM     87  C   UNL A   1      46.520  28.682  35.374  1.00  0.00     0.198 A 
ATOM     88  C   UNL A   1      45.102  27.041  36.404  1.00  0.00     0.198 A 
ATOM     89  F   UNL A   1      42.774  27.110  36.056  1.00  0.00    -0.203 F 
ATOM     90  F   UNL A   1      47.744  29.172  35.133  1.00  0.00    -0.200 F 
ATOM     91  C   UNL A   1      46.369  27.556  36.170  1.00  0.00     0.200 A 
ATOM     92  F   UNL A   1      44.952  25.966  37.190  1.00  0.00    -0.200 F 
ATOM     93  F   UNL A   1      47.443  26.968  36.712  1.00  0.00    -0.200 F 
ENDBRANCH  60  83
ENDBRANCH  34  35
ENDBRANCH  26  29
ENDBRANCH  24  25
ENDBRANCH  23  24
ENDBRANCH  22  23
ENDBRANCH   1  22
TORSDOF 15
ENDMDL
