MODEL 1
REMARK VINA RESULT:     -13.8      0.000      0.000
REMARK SMILES COc1ccc(NC(=O)[C@H]2[C@@H]3CC[C@@H](C3)[C@@H]2C(=O)NCCCCNC(=O)c2ccc(-c3c4nc(c(-c5c(F)c(F)c(F)c(F)c5F)c5ccc([nH]5)c(-c5c(F)c(F)c(F)c(F)c5F)c5nc(c(-c6c(F)c(F)c(F)c(F)c6F)c6ccc3[nH]6)C=C5)C=C4)cc2)c(C)c1
REMARK SMILES IDX 21 1 20 2 19 3 17 4 18 5 16 7 10 8 11 9 12 10 15 11 14 12
REMARK SMILES IDX 13 13 8 14 7 15 9 17 6 18 3 19 4 20 92 21 5 22 90 23 91 24
REMARK SMILES IDX 2 25 1 26 22 27 23 28 24 29 25 30 26 32 27 33 28 34 89 35
REMARK SMILES IDX 29 36 88 37 30 38 31 39 32 40 82 41 33 42 87 43 81 44 83 45
REMARK SMILES IDX 34 46 86 47 80 48 79 49 35 51 67 52 47 53 66 54 48 55 51 56
REMARK SMILES IDX 65 57 84 58 49 59 50 60 64 62 85 63 52 64 36 65 37 66 45 67
REMARK SMILES IDX 38 68 39 69 43 70 46 71 40 72 41 73 44 74 42 75 68 76 69 77
REMARK SMILES IDX 77 78 70 79 71 80 75 81 78 82 72 83 73 84 76 85 74 86 53 87
REMARK SMILES IDX 54 88 62 89 55 90 56 91 60 92 63 93 57 94 58 95 61 96 59 97
REMARK H PARENT 19 6 7 16 24 31 83 50 51 61
REMARK Flexibility Score: inf
ROOT
ATOM      1  C   UNL A   1      32.907  28.485  25.518  1.00  0.00     0.023 C 
ENDROOT
BRANCH   1   2
ATOM      2  C   UNL A   1      33.615  27.179  25.124  1.00  0.00     0.116 C 
BRANCH   2   3
ATOM      3  N   UNL A   1      33.325  26.115  26.068  1.00  0.00    -0.356 N 
ATOM      4  C   UNL A   1      33.234  24.769  25.867  1.00  0.00     0.224 C 
ATOM      5  O   UNL A   1      32.724  24.091  26.758  1.00  0.00    -0.275 OA
ATOM      6  H   UNL A   1      33.169  26.410  26.995  1.00  0.00     0.163 HD
BRANCH   4   7
ATOM      7  C   UNL A   1      33.877  24.161  24.630  1.00  0.00     0.094 C 
ATOM      8  C   UNL A   1      33.484  22.688  24.347  1.00  0.00     0.094 C 
ATOM      9  C   UNL A   1      34.854  21.997  24.255  1.00  0.00     0.002 C 
ATOM     10  C   UNL A   1      35.407  21.819  25.688  1.00  0.00     0.005 C 
ATOM     11  C   UNL A   1      35.790  23.098  23.736  1.00  0.00     0.009 C 
ATOM     12  C   UNL A   1      35.419  24.075  24.839  1.00  0.00     0.002 C 
ATOM     13  C   UNL A   1      35.813  23.246  26.079  1.00  0.00     0.005 C 
BRANCH   8  14
ATOM     14  C   UNL A   1      32.388  22.565  23.268  1.00  0.00     0.228 C 
ATOM     15  N   UNL A   1      31.395  23.419  22.913  1.00  0.00    -0.326 N 
ATOM     16  H   UNL A   1      30.725  22.968  22.350  1.00  0.00     0.169 HD
ATOM     17  O   UNL A   1      32.272  21.446  22.732  1.00  0.00    -0.274 OA
BRANCH  15  18
ATOM     18  C   UNL A   1      31.056  24.763  23.126  1.00  0.00     0.044 A 
ATOM     19  C   UNL A   1      30.059  27.397  23.321  1.00  0.00     0.119 A 
ATOM     20  C   UNL A   1      29.737  26.453  24.282  1.00  0.00     0.048 A 
ATOM     21  C   UNL A   1      31.034  27.077  22.379  1.00  0.00     0.052 A 
ATOM     22  C   UNL A   1      30.270  25.165  24.195  1.00  0.00     0.030 A 
ATOM     23  C   UNL A   1      31.568  25.772  22.285  1.00  0.00    -0.024 A 
ATOM     24  C   UNL A   1      32.721  25.589  21.332  1.00  0.00     0.047 C 
BRANCH  19  25
ATOM     25  O   UNL A   1      29.539  28.658  23.252  1.00  0.00    -0.497 OA
ATOM     26  C   UNL A   1      30.273  29.572  22.439  1.00  0.00     0.278 C 
ENDBRANCH  19  25
ENDBRANCH  15  18
ENDBRANCH   8  14
ENDBRANCH   4   7
ENDBRANCH   2   3
ENDBRANCH   1   2
BRANCH   1  27
ATOM     27  C   UNL A   1      33.819  29.556  26.137  1.00  0.00     0.023 C 
BRANCH  27  28
ATOM     28  C   UNL A   1      33.812  29.582  27.661  1.00  0.00     0.116 C 
BRANCH  28  29
ATOM     29  N   UNL A   1      34.448  30.747  28.260  1.00  0.00    -0.352 N 
ATOM     30  C   UNL A   1      35.705  30.877  28.838  1.00  0.00     0.251 C 
ATOM     31  H   UNL A   1      33.905  31.567  28.254  1.00  0.00     0.163 HD
ATOM     32  O   UNL A   1      36.017  31.914  29.385  1.00  0.00    -0.269 OA
BRANCH  30  33
ATOM     33  C   UNL A   1      36.713  29.792  28.671  1.00  0.00     0.039 A 
ATOM     34  C   UNL A   1      36.965  28.954  29.766  1.00  0.00     0.014 A 
ATOM     35  C   UNL A   1      37.513  29.703  27.538  1.00  0.00     0.014 A 
ATOM     36  C   UNL A   1      38.153  28.222  29.816  1.00  0.00     0.010 A 
ATOM     37  C   UNL A   1      38.737  29.070  27.628  1.00  0.00     0.010 A 
ATOM     38  C   UNL A   1      39.087  28.385  28.795  1.00  0.00    -0.014 A 
BRANCH  38  39
ATOM     39  C   UNL A   1      40.489  27.990  28.900  1.00  0.00     0.031 A 
ATOM     40  C   UNL A   1      40.964  26.707  28.337  1.00  0.00     0.074 A 
ATOM     41  C   UNL A   1      41.380  28.882  29.388  1.00  0.00     0.049 A 
ATOM     42  N   UNL A   1      42.102  26.169  28.618  1.00  0.00    -0.248 NA
ATOM     43  C   UNL A   1      40.163  25.907  27.417  1.00  0.00     0.031 C 
ATOM     44  C   UNL A   1      42.837  28.835  29.284  1.00  0.00     0.029 A 
ATOM     45  N   UNL A   1      41.132  29.941  30.278  1.00  0.00    -0.354 N 
ATOM     46  C   UNL A   1      42.290  25.100  27.775  1.00  0.00     0.074 A 
ATOM     47  C   UNL A   1      41.042  24.965  27.057  1.00  0.00     0.031 C 
ATOM     48  C   UNL A   1      43.363  29.570  30.277  1.00  0.00     0.029 A 
ATOM     49  C   UNL A   1      42.263  29.982  31.130  1.00  0.00     0.049 A 
ATOM     50  H   UNL A   1      40.342  30.528  30.303  1.00  0.00     0.167 HD
ATOM     51  C   UNL A   1      43.513  24.498  27.716  1.00  0.00     0.037 A 
ATOM     52  C   UNL A   1      42.143  29.690  32.458  1.00  0.00     0.037 A 
ATOM     53  C   UNL A   1      44.438  25.063  28.692  1.00  0.00     0.049 A 
ATOM     54  C   UNL A   1      42.946  28.490  32.919  1.00  0.00     0.074 A 
ATOM     55  C   UNL A   1      45.424  26.034  28.646  1.00  0.00     0.029 A 
ATOM     56  N   UNL A   1      44.199  24.822  30.030  1.00  0.00    -0.354 N 
ATOM     57  N   UNL A   1      43.614  27.702  32.125  1.00  0.00    -0.248 NA
ATOM     58  C   UNL A   1      42.967  28.027  34.309  1.00  0.00     0.031 C 
ATOM     59  C   UNL A   1      45.746  26.399  29.985  1.00  0.00     0.029 A 
ATOM     60  C   UNL A   1      44.960  25.644  30.835  1.00  0.00     0.049 A 
ATOM     61  H   UNL A   1      43.566  24.147  30.367  1.00  0.00     0.167 HD
ATOM     62  C   UNL A   1      44.088  26.638  32.841  1.00  0.00     0.074 A 
ATOM     63  C   UNL A   1      43.665  26.885  34.205  1.00  0.00     0.031 C 
ATOM     64  C   UNL A   1      44.757  25.599  32.269  1.00  0.00     0.037 A 
BRANCH  51  65
ATOM     65  C   UNL A   1      43.926  23.517  26.651  1.00  0.00     0.064 A 
ATOM     66  C   UNL A   1      43.411  22.203  26.644  1.00  0.00     0.173 A 
ATOM     67  C   UNL A   1      44.846  23.801  25.625  1.00  0.00     0.173 A 
ATOM     68  F   UNL A   1      42.466  21.818  27.512  1.00  0.00    -0.203 F 
ATOM     69  C   UNL A   1      43.859  21.229  25.748  1.00  0.00     0.198 A 
ATOM     70  C   UNL A   1      45.339  22.811  24.769  1.00  0.00     0.198 A 
ATOM     71  F   UNL A   1      45.254  25.055  25.386  1.00  0.00    -0.203 F 
ATOM     72  F   UNL A   1      43.330  19.997  25.787  1.00  0.00    -0.200 F 
ATOM     73  C   UNL A   1      44.851  21.522  24.837  1.00  0.00     0.200 A 
ATOM     74  F   UNL A   1      46.292  23.118  23.877  1.00  0.00    -0.200 F 
ATOM     75  F   UNL A   1      45.317  20.575  24.011  1.00  0.00    -0.200 F 
ENDBRANCH  51  65
BRANCH  52  76
ATOM     76  C   UNL A   1      40.824  30.091  33.015  1.00  0.00     0.064 A 
ATOM     77  C   UNL A   1      40.550  31.466  33.165  1.00  0.00     0.173 A 
ATOM     78  C   UNL A   1      39.738  29.208  33.033  1.00  0.00     0.173 A 
ATOM     79  F   UNL A   1      41.556  32.355  33.154  1.00  0.00    -0.203 F 
ATOM     80  C   UNL A   1      39.242  31.943  33.195  1.00  0.00     0.198 A 
ATOM     81  C   UNL A   1      38.429  29.690  33.088  1.00  0.00     0.198 A 
ATOM     82  F   UNL A   1      39.929  27.891  32.875  1.00  0.00    -0.203 F 
ATOM     83  F   UNL A   1      39.013  33.264  33.202  1.00  0.00    -0.200 F 
ATOM     84  C   UNL A   1      38.183  31.055  33.129  1.00  0.00     0.200 A 
ATOM     85  F   UNL A   1      37.404  28.832  32.999  1.00  0.00    -0.200 F 
ATOM     86  F   UNL A   1      36.926  31.513  33.058  1.00  0.00    -0.200 F 
ENDBRANCH  52  76
BRANCH  64  87
ATOM     87  C   UNL A   1      45.278  24.445  33.059  1.00  0.00     0.064 A 
ATOM     88  C   UNL A   1      44.477  23.330  33.345  1.00  0.00     0.173 A 
ATOM     89  C   UNL A   1      46.552  24.483  33.654  1.00  0.00     0.173 A 
ATOM     90  F   UNL A   1      43.240  23.231  32.836  1.00  0.00    -0.203 F 
ATOM     91  C   UNL A   1      44.934  22.302  34.169  1.00  0.00     0.198 A 
ATOM     92  C   UNL A   1      46.989  23.477  34.513  1.00  0.00     0.198 A 
ATOM     93  F   UNL A   1      47.406  25.488  33.402  1.00  0.00    -0.203 F 
ATOM     94  F   UNL A   1      44.157  21.232  34.391  1.00  0.00    -0.200 F 
ATOM     95  C   UNL A   1      46.182  22.384  34.764  1.00  0.00     0.200 A 
ATOM     96  F   UNL A   1      48.193  23.574  35.092  1.00  0.00    -0.200 F 
ATOM     97  F   UNL A   1      46.609  21.407  35.575  1.00  0.00    -0.200 F 
ENDBRANCH  64  87
ENDBRANCH  38  39
ENDBRANCH  30  33
ENDBRANCH  28  29
ENDBRANCH  27  28
ENDBRANCH   1  27
TORSDOF 14
ENDMDL
MODEL 2
REMARK VINA RESULT:     -13.7      3.963     10.084
REMARK SMILES COc1ccc(NC(=O)[C@H]2[C@@H]3CC[C@@H](C3)[C@@H]2C(=O)NCCCCNC(=O)c2ccc(-c3c4nc(c(-c5c(F)c(F)c(F)c(F)c5F)c5ccc([nH]5)c(-c5c(F)c(F)c(F)c(F)c5F)c5nc(c(-c6c(F)c(F)c(F)c(F)c6F)c6ccc3[nH]6)C=C5)C=C4)cc2)c(C)c1
REMARK SMILES IDX 21 1 20 2 19 3 17 4 18 5 16 7 10 8 11 9 12 10 15 11 14 12
REMARK SMILES IDX 13 13 8 14 7 15 9 17 6 18 3 19 4 20 92 21 5 22 90 23 91 24
REMARK SMILES IDX 2 25 1 26 22 27 23 28 24 29 25 30 26 32 27 33 28 34 89 35
REMARK SMILES IDX 29 36 88 37 30 38 31 39 32 40 82 41 33 42 87 43 81 44 83 45
REMARK SMILES IDX 34 46 86 47 80 48 79 49 35 51 67 52 47 53 66 54 48 55 51 56
REMARK SMILES IDX 65 57 84 58 49 59 50 60 64 62 85 63 52 64 36 65 37 66 45 67
REMARK SMILES IDX 38 68 39 69 43 70 46 71 40 72 41 73 44 74 42 75 68 76 69 77
REMARK SMILES IDX 77 78 70 79 71 80 75 81 78 82 72 83 73 84 76 85 74 86 53 87
REMARK SMILES IDX 54 88 62 89 55 90 56 91 60 92 63 93 57 94 58 95 61 96 59 97
REMARK H PARENT 19 6 7 16 24 31 83 50 51 61
REMARK Flexibility Score: inf
ROOT
ATOM      1  C   UNL A   1      36.841  21.901  25.027  1.00  0.00     0.023 C 
ENDROOT
BRANCH   1   2
ATOM      2  C   UNL A   1      36.311  23.343  25.073  1.00  0.00     0.116 C 
BRANCH   2   3
ATOM      3  N   UNL A   1      35.380  23.598  23.988  1.00  0.00    -0.356 N 
ATOM      4  C   UNL A   1      34.083  24.017  24.031  1.00  0.00     0.224 C 
ATOM      5  O   UNL A   1      33.415  23.916  23.003  1.00  0.00    -0.275 OA
ATOM      6  H   UNL A   1      35.739  23.445  23.084  1.00  0.00     0.163 HD
BRANCH   4   7
ATOM      7  C   UNL A   1      33.568  24.703  25.287  1.00  0.00     0.094 C 
ATOM      8  C   UNL A   1      32.025  24.829  25.377  1.00  0.00     0.094 C 
ATOM      9  C   UNL A   1      31.834  26.339  25.601  1.00  0.00     0.002 C 
ATOM     10  C   UNL A   1      32.050  27.063  24.252  1.00  0.00     0.005 C 
ATOM     11  C   UNL A   1      33.107  26.766  26.347  1.00  0.00     0.009 C 
ATOM     12  C   UNL A   1      34.040  26.189  25.295  1.00  0.00     0.002 C 
ATOM     13  C   UNL A   1      33.568  26.975  24.054  1.00  0.00     0.005 C 
BRANCH   8  14
ATOM     14  C   UNL A   1      31.394  23.744  26.272  1.00  0.00     0.228 C 
ATOM     15  N   UNL A   1      31.442  22.390  26.190  1.00  0.00    -0.326 N 
ATOM     16  H   UNL A   1      30.760  21.975  26.768  1.00  0.00     0.169 HD
ATOM     17  O   UNL A   1      30.569  24.143  27.118  1.00  0.00    -0.274 OA
BRANCH  15  18
ATOM     18  C   UNL A   1      32.189  21.416  25.511  1.00  0.00     0.044 A 
ATOM     19  C   UNL A   1      33.444  19.194  24.306  1.00  0.00     0.119 A 
ATOM     20  C   UNL A   1      32.469  19.902  23.624  1.00  0.00     0.048 A 
ATOM     21  C   UNL A   1      33.927  19.716  25.503  1.00  0.00     0.052 A 
ATOM     22  C   UNL A   1      31.885  21.025  24.216  1.00  0.00     0.030 A 
ATOM     23  C   UNL A   1      33.333  20.847  26.107  1.00  0.00    -0.024 A 
ATOM     24  C   UNL A   1      34.037  21.407  27.316  1.00  0.00     0.047 C 
BRANCH  19  25
ATOM     25  O   UNL A   1      34.027  18.038  23.869  1.00  0.00    -0.497 OA
ATOM     26  C   UNL A   1      34.154  17.014  24.854  1.00  0.00     0.278 C 
ENDBRANCH  19  25
ENDBRANCH  15  18
ENDBRANCH   8  14
ENDBRANCH   4   7
ENDBRANCH   2   3
ENDBRANCH   1   2
BRANCH   1  27
ATOM     27  C   UNL A   1      38.320  21.740  25.410  1.00  0.00     0.023 C 
BRANCH  27  28
ATOM     28  C   UNL A   1      38.836  22.800  26.376  1.00  0.00     0.116 C 
BRANCH  28  29
ATOM     29  N   UNL A   1      40.284  22.949  26.409  1.00  0.00    -0.352 N 
ATOM     30  C   UNL A   1      41.058  24.093  26.559  1.00  0.00     0.251 C 
ATOM     31  H   UNL A   1      40.792  22.113  26.310  1.00  0.00     0.163 HD
ATOM     32  O   UNL A   1      42.266  24.028  26.452  1.00  0.00    -0.269 OA
BRANCH  30  33
ATOM     33  C   UNL A   1      40.419  25.371  26.981  1.00  0.00     0.039 A 
ATOM     34  C   UNL A   1      40.732  26.533  26.262  1.00  0.00     0.014 A 
ATOM     35  C   UNL A   1      39.670  25.466  28.149  1.00  0.00     0.014 A 
ATOM     36  C   UNL A   1      40.514  27.784  26.842  1.00  0.00     0.010 A 
ATOM     37  C   UNL A   1      39.552  26.692  28.774  1.00  0.00     0.010 A 
ATOM     38  C   UNL A   1      40.037  27.845  28.150  1.00  0.00    -0.014 A 
BRANCH  38  39
ATOM     39  C   UNL A   1      40.116  29.034  28.994  1.00  0.00     0.031 A 
ATOM     40  C   UNL A   1      39.040  30.050  28.985  1.00  0.00     0.074 A 
ATOM     41  C   UNL A   1      41.117  29.122  29.898  1.00  0.00     0.049 A 
ATOM     42  N   UNL A   1      39.157  31.234  29.483  1.00  0.00    -0.248 NA
ATOM     43  C   UNL A   1      37.736  29.809  28.378  1.00  0.00     0.031 C 
ATOM     44  C   UNL A   1      41.211  30.029  31.040  1.00  0.00     0.029 A 
ATOM     45  N   UNL A   1      42.384  28.515  29.835  1.00  0.00    -0.354 N 
ATOM     46  C   UNL A   1      37.917  31.826  29.474  1.00  0.00     0.074 A 
ATOM     47  C   UNL A   1      37.066  30.903  28.756  1.00  0.00     0.031 C 
ATOM     48  C   UNL A   1      42.505  30.170  31.374  1.00  0.00     0.029 A 
ATOM     49  C   UNL A   1      43.282  29.476  30.363  1.00  0.00     0.049 A 
ATOM     50  H   UNL A   1      42.599  27.616  29.499  1.00  0.00     0.167 HD
ATOM     51  C   UNL A   1      37.726  32.994  30.152  1.00  0.00     0.037 A 
ATOM     52  C   UNL A   1      44.231  30.051  29.566  1.00  0.00     0.037 A 
ATOM     53  C   UNL A   1      38.972  33.498  30.718  1.00  0.00     0.049 A 
ATOM     54  C   UNL A   1      44.107  31.553  29.414  1.00  0.00     0.074 A 
ATOM     55  C   UNL A   1      39.579  33.411  31.960  1.00  0.00     0.029 A 
ATOM     56  N   UNL A   1      39.939  33.965  29.851  1.00  0.00    -0.354 N 
ATOM     57  N   UNL A   1      43.121  32.262  29.888  1.00  0.00    -0.248 NA
ATOM     58  C   UNL A   1      45.038  32.357  28.618  1.00  0.00     0.031 C 
ATOM     59  C   UNL A   1      40.942  33.800  31.813  1.00  0.00     0.029 A 
ATOM     60  C   UNL A   1      41.153  34.127  30.487  1.00  0.00     0.049 A 
ATOM     61  H   UNL A   1      39.782  34.159  28.898  1.00  0.00     0.167 HD
ATOM     62  C   UNL A   1      43.236  33.549  29.440  1.00  0.00     0.074 A 
ATOM     63  C   UNL A   1      44.453  33.565  28.652  1.00  0.00     0.031 C 
ATOM     64  C   UNL A   1      42.308  34.510  29.700  1.00  0.00     0.037 A 
BRANCH  51  65
ATOM     65  C   UNL A   1      36.376  33.590  30.453  1.00  0.00     0.064 A 
ATOM     66  C   UNL A   1      35.556  34.075  29.412  1.00  0.00     0.173 A 
ATOM     67  C   UNL A   1      35.845  33.738  31.747  1.00  0.00     0.173 A 
ATOM     68  F   UNL A   1      35.897  33.926  28.125  1.00  0.00    -0.203 F 
ATOM     69  C   UNL A   1      34.353  34.743  29.657  1.00  0.00     0.198 A 
ATOM     70  C   UNL A   1      34.674  34.460  31.996  1.00  0.00     0.198 A 
ATOM     71  F   UNL A   1      36.416  33.143  32.803  1.00  0.00    -0.203 F 
ATOM     72  F   UNL A   1      33.612  35.178  28.628  1.00  0.00    -0.200 F 
ATOM     73  C   UNL A   1      33.932  34.970  30.951  1.00  0.00     0.200 A 
ATOM     74  F   UNL A   1      34.270  34.657  33.260  1.00  0.00    -0.200 F 
ATOM     75  F   UNL A   1      32.805  35.655  31.188  1.00  0.00    -0.200 F 
ENDBRANCH  51  65
BRANCH  52  76
ATOM     76  C   UNL A   1      44.722  29.130  28.507  1.00  0.00     0.064 A 
ATOM     77  C   UNL A   1      45.578  28.073  28.882  1.00  0.00     0.173 A 
ATOM     78  C   UNL A   1      44.087  29.038  27.263  1.00  0.00     0.173 A 
ATOM     79  F   UNL A   1      46.210  28.111  30.066  1.00  0.00    -0.203 F 
ATOM     80  C   UNL A   1      45.683  26.920  28.109  1.00  0.00     0.198 A 
ATOM     81  C   UNL A   1      44.217  27.891  26.480  1.00  0.00     0.198 A 
ATOM     82  F   UNL A   1      43.246  30.000  26.857  1.00  0.00    -0.203 F 
ATOM     83  F   UNL A   1      46.399  25.879  28.558  1.00  0.00    -0.200 F 
ATOM     84  C   UNL A   1      44.981  26.820  26.921  1.00  0.00     0.200 A 
ATOM     85  F   UNL A   1      43.516  27.783  25.342  1.00  0.00    -0.200 F 
ATOM     86  F   UNL A   1      45.002  25.677  26.223  1.00  0.00    -0.200 F 
ENDBRANCH  52  76
BRANCH  64  87
ATOM     87  C   UNL A   1      42.444  35.914  29.212  1.00  0.00     0.064 A 
ATOM     88  C   UNL A   1      41.883  36.326  27.996  1.00  0.00     0.173 A 
ATOM     89  C   UNL A   1      43.246  36.848  29.894  1.00  0.00     0.173 A 
ATOM     90  F   UNL A   1      41.127  35.485  27.274  1.00  0.00    -0.203 F 
ATOM     91  C   UNL A   1      42.100  37.610  27.496  1.00  0.00     0.198 A 
ATOM     92  C   UNL A   1      43.498  38.114  29.370  1.00  0.00     0.198 A 
ATOM     93  F   UNL A   1      43.786  36.559  31.087  1.00  0.00    -0.203 F 
ATOM     94  F   UNL A   1      41.519  37.985  26.348  1.00  0.00    -0.200 F 
ATOM     95  C   UNL A   1      42.919  38.497  28.175  1.00  0.00     0.200 A 
ATOM     96  F   UNL A   1      44.303  38.958  30.031  1.00  0.00    -0.200 F 
ATOM     97  F   UNL A   1      43.147  39.721  27.680  1.00  0.00    -0.200 F 
ENDBRANCH  64  87
ENDBRANCH  38  39
ENDBRANCH  30  33
ENDBRANCH  28  29
ENDBRANCH  27  28
ENDBRANCH   1  27
TORSDOF 14
ENDMDL
MODEL 3
REMARK VINA RESULT:     -13.7      1.487      3.240
REMARK SMILES COc1ccc(NC(=O)[C@H]2[C@@H]3CC[C@@H](C3)[C@@H]2C(=O)NCCCCNC(=O)c2ccc(-c3c4nc(c(-c5c(F)c(F)c(F)c(F)c5F)c5ccc([nH]5)c(-c5c(F)c(F)c(F)c(F)c5F)c5nc(c(-c6c(F)c(F)c(F)c(F)c6F)c6ccc3[nH]6)C=C5)C=C4)cc2)c(C)c1
REMARK SMILES IDX 21 1 20 2 19 3 17 4 18 5 16 7 10 8 11 9 12 10 15 11 14 12
REMARK SMILES IDX 13 13 8 14 7 15 9 17 6 18 3 19 4 20 92 21 5 22 90 23 91 24
REMARK SMILES IDX 2 25 1 26 22 27 23 28 24 29 25 30 26 32 27 33 28 34 89 35
REMARK SMILES IDX 29 36 88 37 30 38 31 39 32 40 82 41 33 42 87 43 81 44 83 45
REMARK SMILES IDX 34 46 86 47 80 48 79 49 35 51 67 52 47 53 66 54 48 55 51 56
REMARK SMILES IDX 65 57 84 58 49 59 50 60 64 62 85 63 52 64 36 65 37 66 45 67
REMARK SMILES IDX 38 68 39 69 43 70 46 71 40 72 41 73 44 74 42 75 68 76 69 77
REMARK SMILES IDX 77 78 70 79 71 80 75 81 78 82 72 83 73 84 76 85 74 86 53 87
REMARK SMILES IDX 54 88 62 89 55 90 56 91 60 92 63 93 57 94 58 95 61 96 59 97
REMARK H PARENT 19 6 7 16 24 31 83 50 51 61
REMARK Flexibility Score: inf
ROOT
ATOM      1  C   UNL A   1      33.161  28.706  27.456  1.00  0.00     0.023 C 
ENDROOT
BRANCH   1   2
ATOM      2  C   UNL A   1      33.915  28.120  26.251  1.00  0.00     0.116 C 
BRANCH   2   3
ATOM      3  N   UNL A   1      33.352  28.588  24.998  1.00  0.00    -0.356 N 
ATOM      4  C   UNL A   1      32.968  27.883  23.895  1.00  0.00     0.224 C 
ATOM      5  O   UNL A   1      32.761  28.511  22.858  1.00  0.00    -0.275 OA
ATOM      6  H   UNL A   1      33.228  29.563  24.933  1.00  0.00     0.163 HD
BRANCH   4   7
ATOM      7  C   UNL A   1      32.689  26.394  24.030  1.00  0.00     0.094 C 
ATOM      8  C   UNL A   1      31.936  25.759  22.832  1.00  0.00     0.094 C 
ATOM      9  C   UNL A   1      30.729  25.098  23.518  1.00  0.00     0.002 C 
ATOM     10  C   UNL A   1      29.708  26.202  23.877  1.00  0.00     0.005 C 
ATOM     11  C   UNL A   1      31.249  24.741  24.918  1.00  0.00     0.009 C 
ATOM     12  C   UNL A   1      31.709  26.158  25.220  1.00  0.00     0.002 C 
ATOM     13  C   UNL A   1      30.375  26.916  25.059  1.00  0.00     0.005 C 
BRANCH   8  14
ATOM     14  C   UNL A   1      32.882  25.020  21.864  1.00  0.00     0.228 C 
ATOM     15  N   UNL A   1      33.513  23.824  21.982  1.00  0.00    -0.326 N 
ATOM     16  H   UNL A   1      34.220  23.727  21.303  1.00  0.00     0.169 HD
ATOM     17  O   UNL A   1      33.278  25.674  20.879  1.00  0.00    -0.274 OA
BRANCH  15  18
ATOM     18  C   UNL A   1      33.441  22.688  22.802  1.00  0.00     0.044 A 
ATOM     19  C   UNL A   1      33.109  20.636  24.711  1.00  0.00     0.119 A 
ATOM     20  C   UNL A   1      32.185  20.801  23.693  1.00  0.00     0.048 A 
ATOM     21  C   UNL A   1      34.294  21.367  24.655  1.00  0.00     0.052 A 
ATOM     22  C   UNL A   1      32.383  21.795  22.731  1.00  0.00     0.030 A 
ATOM     23  C   UNL A   1      34.492  22.376  23.688  1.00  0.00    -0.024 A 
ATOM     24  C   UNL A   1      35.868  22.988  23.632  1.00  0.00     0.047 C 
BRANCH  19  25
ATOM     25  O   UNL A   1      32.985  19.760  25.751  1.00  0.00    -0.497 OA
ATOM     26  C   UNL A   1      32.886  18.386  25.378  1.00  0.00     0.278 C 
ENDBRANCH  19  25
ENDBRANCH  15  18
ENDBRANCH   8  14
ENDBRANCH   4   7
ENDBRANCH   2   3
ENDBRANCH   1   2
BRANCH   1  27
ATOM     27  C   UNL A   1      32.615  30.127  27.251  1.00  0.00     0.023 C 
BRANCH  27  28
ATOM     28  C   UNL A   1      33.688  31.184  27.016  1.00  0.00     0.116 C 
BRANCH  28  29
ATOM     29  N   UNL A   1      34.071  31.944  28.197  1.00  0.00    -0.352 N 
ATOM     30  C   UNL A   1      35.004  31.647  29.183  1.00  0.00     0.251 C 
ATOM     31  H   UNL A   1      33.598  32.798  28.315  1.00  0.00     0.163 HD
ATOM     32  O   UNL A   1      35.106  32.363  30.158  1.00  0.00    -0.269 OA
BRANCH  30  33
ATOM     33  C   UNL A   1      35.965  30.527  28.981  1.00  0.00     0.039 A 
ATOM     34  C   UNL A   1      36.263  29.708  30.080  1.00  0.00     0.014 A 
ATOM     35  C   UNL A   1      36.685  30.382  27.801  1.00  0.00     0.014 A 
ATOM     36  C   UNL A   1      37.429  28.940  30.073  1.00  0.00     0.010 A 
ATOM     37  C   UNL A   1      37.892  29.712  27.828  1.00  0.00     0.010 A 
ATOM     38  C   UNL A   1      38.298  29.046  28.989  1.00  0.00    -0.014 A 
BRANCH  38  39
ATOM     39  C   UNL A   1      39.691  28.609  29.012  1.00  0.00     0.031 A 
ATOM     40  C   UNL A   1      40.062  27.226  28.641  1.00  0.00     0.074 A 
ATOM     41  C   UNL A   1      40.657  29.528  29.234  1.00  0.00     0.049 A 
ATOM     42  N   UNL A   1      41.209  26.691  28.890  1.00  0.00    -0.248 NA
ATOM     43  C   UNL A   1      39.140  26.317  27.969  1.00  0.00     0.031 C 
ATOM     44  C   UNL A   1      42.090  29.395  28.986  1.00  0.00     0.029 A 
ATOM     45  N   UNL A   1      40.541  30.738  29.942  1.00  0.00    -0.354 N 
ATOM     46  C   UNL A   1      41.270  25.483  28.237  1.00  0.00     0.074 A 
ATOM     47  C   UNL A   1      39.945  25.285  27.693  1.00  0.00     0.031 C 
ATOM     48  C   UNL A   1      42.746  30.265  29.770  1.00  0.00     0.029 A 
ATOM     49  C   UNL A   1      41.763  30.872  30.647  1.00  0.00     0.049 A 
ATOM     50  H   UNL A   1      39.776  31.357  29.945  1.00  0.00     0.167 HD
ATOM     51  C   UNL A   1      42.460  24.823  28.157  1.00  0.00     0.037 A 
ATOM     52  C   UNL A   1      41.786  30.823  32.012  1.00  0.00     0.037 A 
ATOM     53  C   UNL A   1      43.507  25.504  28.912  1.00  0.00     0.049 A 
ATOM     54  C   UNL A   1      42.601  29.685  32.592  1.00  0.00     0.074 A 
ATOM     55  C   UNL A   1      44.508  26.404  28.588  1.00  0.00     0.029 A 
ATOM     56  N   UNL A   1      43.414  25.512  30.289  1.00  0.00    -0.354 N 
ATOM     57  N   UNL A   1      43.153  28.739  31.884  1.00  0.00    -0.248 NA
ATOM     58  C   UNL A   1      42.767  29.472  34.032  1.00  0.00     0.031 C 
ATOM     59  C   UNL A   1      44.990  26.982  29.798  1.00  0.00     0.029 A 
ATOM     60  C   UNL A   1      44.285  26.425  30.848  1.00  0.00     0.049 A 
ATOM     61  H   UNL A   1      42.805  24.939  30.807  1.00  0.00     0.167 HD
ATOM     62  C   UNL A   1      43.675  27.796  32.724  1.00  0.00     0.074 A 
ATOM     63  C   UNL A   1      43.416  28.297  34.060  1.00  0.00     0.031 C 
ATOM     64  C   UNL A   1      44.244  26.642  32.281  1.00  0.00     0.037 A 
BRANCH  51  65
ATOM     65  C   UNL A   1      42.722  23.652  27.247  1.00  0.00     0.064 A 
ATOM     66  C   UNL A   1      42.327  22.349  27.619  1.00  0.00     0.173 A 
ATOM     67  C   UNL A   1      43.383  23.742  26.008  1.00  0.00     0.173 A 
ATOM     68  F   UNL A   1      41.617  22.125  28.733  1.00  0.00    -0.203 F 
ATOM     69  C   UNL A   1      42.657  21.223  26.861  1.00  0.00     0.198 A 
ATOM     70  C   UNL A   1      43.767  22.611  25.282  1.00  0.00     0.198 A 
ATOM     71  F   UNL A   1      43.629  24.930  25.438  1.00  0.00    -0.203 F 
ATOM     72  F   UNL A   1      42.250  20.009  27.262  1.00  0.00    -0.200 F 
ATOM     73  C   UNL A   1      43.411  21.349  25.714  1.00  0.00     0.200 A 
ATOM     74  F   UNL A   1      44.485  22.754  24.158  1.00  0.00    -0.200 F 
ATOM     75  F   UNL A   1      43.771  20.265  25.014  1.00  0.00    -0.200 F 
ENDBRANCH  51  65
BRANCH  52  76
ATOM     76  C   UNL A   1      40.550  31.378  32.625  1.00  0.00     0.064 A 
ATOM     77  C   UNL A   1      40.369  32.777  32.620  1.00  0.00     0.173 A 
ATOM     78  C   UNL A   1      39.423  30.580  32.851  1.00  0.00     0.173 A 
ATOM     79  F   UNL A   1      41.418  33.587  32.406  1.00  0.00    -0.203 F 
ATOM     80  C   UNL A   1      39.099  33.341  32.702  1.00  0.00     0.198 A 
ATOM     81  C   UNL A   1      38.155  31.152  32.958  1.00  0.00     0.198 A 
ATOM     82  F   UNL A   1      39.524  29.244  32.849  1.00  0.00    -0.203 F 
ATOM     83  F   UNL A   1      38.947  34.666  32.559  1.00  0.00    -0.200 F 
ATOM     84  C   UNL A   1      37.990  32.526  32.844  1.00  0.00     0.200 A 
ATOM     85  F   UNL A   1      37.078  30.362  33.069  1.00  0.00    -0.200 F 
ATOM     86  F   UNL A   1      36.760  33.056  32.824  1.00  0.00    -0.200 F 
ENDBRANCH  52  76
BRANCH  64  87
ATOM     87  C   UNL A   1      44.818  25.619  33.204  1.00  0.00     0.064 A 
ATOM     88  C   UNL A   1      46.191  25.335  33.223  1.00  0.00     0.173 A 
ATOM     89  C   UNL A   1      43.989  24.811  34.003  1.00  0.00     0.173 A 
ATOM     90  F   UNL A   1      47.044  26.044  32.469  1.00  0.00    -0.203 F 
ATOM     91  C   UNL A   1      46.707  24.308  34.012  1.00  0.00     0.198 A 
ATOM     92  C   UNL A   1      44.501  23.757  34.756  1.00  0.00     0.198 A 
ATOM     93  F   UNL A   1      42.669  25.038  34.084  1.00  0.00    -0.203 F 
ATOM     94  F   UNL A   1      48.029  24.087  34.036  1.00  0.00    -0.200 F 
ATOM     95  C   UNL A   1      45.861  23.510  34.765  1.00  0.00     0.200 A 
ATOM     96  F   UNL A   1      43.671  22.984  35.470  1.00  0.00    -0.200 F 
ATOM     97  F   UNL A   1      46.357  22.508  35.503  1.00  0.00    -0.200 F 
ENDBRANCH  64  87
ENDBRANCH  38  39
ENDBRANCH  30  33
ENDBRANCH  28  29
ENDBRANCH  27  28
ENDBRANCH   1  27
TORSDOF 14
ENDMDL
