MODEL 1
REMARK VINA RESULT:     -12.5      0.000      0.000
REMARK SMILES O=C(NCCCCNC(=O)[C@@H]1C[N@H+](Cc2ccco2)CC12CCOCC2)c1ccc(-c2c3nc(c(-c4c(F)c(F)c(F)c(F)c4F)c4ccc([nH]4)c(-c4c(F)c(F)c(F)c(F)c4F)c4nc(c(-c5c(F)c(F)c(F)c(F)c5F)c5ccc2[nH]5)C=C4)C=C3)cc1
REMARK SMILES IDX 5 1 4 2 3 3 1 4 2 5 27 7 28 8 89 9 29 10 88 11 30 12 31 13
REMARK SMILES IDX 32 14 82 15 33 16 87 17 81 18 83 19 34 20 86 21 80 22 79 23
REMARK SMILES IDX 35 25 67 26 47 27 66 28 48 29 51 30 65 31 84 32 49 33 50 34
REMARK SMILES IDX 64 36 85 37 52 38 36 39 37 40 45 41 38 42 39 43 43 44 46 45
REMARK SMILES IDX 40 46 41 47 44 48 42 49 68 50 69 51 77 52 70 53 71 54 75 55
REMARK SMILES IDX 78 56 72 57 73 58 76 59 74 60 53 61 54 62 62 63 55 64 56 65
REMARK SMILES IDX 60 66 63 67 57 68 58 69 61 70 59 71 6 72 7 73 8 74 9 75
REMARK SMILES IDX 10 77 11 78 12 79 21 80 13 81 20 82 22 83 26 84 23 86 25 87
REMARK SMILES IDX 24 88 14 89 15 90 16 91 19 92 17 93 18 94
REMARK H PARENT 3 6 83 24 51 35 8 76 13 85
REMARK Flexibility Score: inf
ROOT
ATOM      1  C   UNL A   1      32.882  27.728  24.894  1.00  0.00     0.023 C 
ENDROOT
BRANCH   1   2
ATOM      2  C   UNL A   1      33.680  28.997  25.072  1.00  0.00     0.116 C 
BRANCH   2   3
ATOM      3  N   UNL A   1      32.912  30.090  25.640  1.00  0.00    -0.352 N 
ATOM      4  O   UNL A   1      32.401  31.684  27.157  1.00  0.00    -0.269 OA
ATOM      5  C   UNL A   1      33.206  30.864  26.742  1.00  0.00     0.251 C 
ATOM      6  H   UNL A   1      32.071  30.308  25.178  1.00  0.00     0.163 HD
BRANCH   5   7
ATOM      7  C   UNL A   1      34.495  30.659  27.439  1.00  0.00     0.039 A 
ATOM      8  C   UNL A   1      34.817  29.412  27.974  1.00  0.00     0.014 A 
ATOM      9  C   UNL A   1      35.370  31.739  27.599  1.00  0.00     0.014 A 
ATOM     10  C   UNL A   1      35.910  29.287  28.815  1.00  0.00     0.010 A 
ATOM     11  C   UNL A   1      36.543  31.575  28.342  1.00  0.00     0.010 A 
ATOM     12  C   UNL A   1      36.807  30.354  28.979  1.00  0.00    -0.014 A 
BRANCH  12  13
ATOM     13  C   UNL A   1      38.056  30.105  29.740  1.00  0.00     0.031 A 
ATOM     14  C   UNL A   1      38.242  30.599  31.145  1.00  0.00     0.074 A 
ATOM     15  C   UNL A   1      39.005  29.352  29.148  1.00  0.00     0.049 A 
ATOM     16  N   UNL A   1      39.256  30.409  31.953  1.00  0.00    -0.248 NA
ATOM     17  C   UNL A   1      37.163  31.416  31.721  1.00  0.00     0.031 C 
ATOM     18  C   UNL A   1      38.932  28.839  27.775  1.00  0.00     0.029 A 
ATOM     19  N   UNL A   1      40.186  28.848  29.625  1.00  0.00    -0.354 N 
ATOM     20  C   UNL A   1      38.949  31.095  33.119  1.00  0.00     0.074 A 
ATOM     21  C   UNL A   1      37.662  31.723  32.912  1.00  0.00     0.031 C 
ATOM     22  C   UNL A   1      39.977  28.033  27.549  1.00  0.00     0.029 A 
ATOM     23  C   UNL A   1      40.835  28.036  28.726  1.00  0.00     0.049 A 
ATOM     24  H   UNL A   1      40.535  29.047  30.523  1.00  0.00     0.167 HD
ATOM     25  C   UNL A   1      39.679  31.184  34.258  1.00  0.00     0.037 A 
ATOM     26  C   UNL A   1      42.001  27.377  28.830  1.00  0.00     0.037 A 
ATOM     27  C   UNL A   1      40.954  30.541  34.457  1.00  0.00     0.049 A 
ATOM     28  C   UNL A   1      42.776  27.487  30.108  1.00  0.00     0.074 A 
ATOM     29  C   UNL A   1      41.771  30.567  35.574  1.00  0.00     0.029 A 
ATOM     30  N   UNL A   1      41.595  29.748  33.514  1.00  0.00    -0.354 N 
ATOM     31  N   UNL A   1      42.472  28.140  31.203  1.00  0.00    -0.248 NA
ATOM     32  C   UNL A   1      44.060  26.778  30.162  1.00  0.00     0.031 C 
ATOM     33  C   UNL A   1      42.921  29.818  35.296  1.00  0.00     0.029 A 
ATOM     34  C   UNL A   1      42.801  29.290  34.021  1.00  0.00     0.049 A 
ATOM     35  H   UNL A   1      41.244  29.542  32.618  1.00  0.00     0.167 HD
ATOM     36  C   UNL A   1      43.526  27.926  32.076  1.00  0.00     0.074 A 
ATOM     37  C   UNL A   1      44.458  27.047  31.397  1.00  0.00     0.031 C 
ATOM     38  C   UNL A   1      43.717  28.426  33.321  1.00  0.00     0.037 A 
BRANCH  25  39
ATOM     39  C   UNL A   1      39.129  32.013  35.382  1.00  0.00     0.064 A 
ATOM     40  C   UNL A   1      38.375  31.441  36.417  1.00  0.00     0.173 A 
ATOM     41  C   UNL A   1      39.422  33.383  35.465  1.00  0.00     0.173 A 
ATOM     42  F   UNL A   1      38.057  30.137  36.380  1.00  0.00    -0.203 F 
ATOM     43  C   UNL A   1      37.925  32.211  37.487  1.00  0.00     0.198 A 
ATOM     44  C   UNL A   1      38.991  34.146  36.548  1.00  0.00     0.198 A 
ATOM     45  F   UNL A   1      40.144  33.979  34.505  1.00  0.00    -0.203 F 
ATOM     46  F   UNL A   1      37.183  31.648  38.451  1.00  0.00    -0.200 F 
ATOM     47  C   UNL A   1      38.241  33.560  37.556  1.00  0.00     0.200 A 
ATOM     48  F   UNL A   1      39.306  35.446  36.619  1.00  0.00    -0.200 F 
ATOM     49  F   UNL A   1      37.821  34.296  38.595  1.00  0.00    -0.200 F 
ENDBRANCH  25  39
BRANCH  26  50
ATOM     50  C   UNL A   1      42.503  26.580  27.683  1.00  0.00     0.064 A 
ATOM     51  C   UNL A   1      43.439  27.110  26.785  1.00  0.00     0.173 A 
ATOM     52  C   UNL A   1      42.069  25.262  27.470  1.00  0.00     0.173 A 
ATOM     53  F   UNL A   1      43.872  28.371  26.937  1.00  0.00    -0.203 F 
ATOM     54  C   UNL A   1      43.910  26.359  25.710  1.00  0.00     0.198 A 
ATOM     55  C   UNL A   1      42.566  24.500  26.417  1.00  0.00     0.198 A 
ATOM     56  F   UNL A   1      41.181  24.705  28.307  1.00  0.00    -0.203 F 
ATOM     57  F   UNL A   1      44.772  26.904  24.842  1.00  0.00    -0.200 F 
ATOM     58  C   UNL A   1      43.479  25.052  25.532  1.00  0.00     0.200 A 
ATOM     59  F   UNL A   1      42.163  23.232  26.263  1.00  0.00    -0.200 F 
ATOM     60  F   UNL A   1      43.940  24.327  24.505  1.00  0.00    -0.200 F 
ENDBRANCH  26  50
BRANCH  38  61
ATOM     61  C   UNL A   1      44.984  28.026  34.015  1.00  0.00     0.064 A 
ATOM     62  C   UNL A   1      46.153  28.792  33.895  1.00  0.00     0.173 A 
ATOM     63  C   UNL A   1      45.031  26.864  34.798  1.00  0.00     0.173 A 
ATOM     64  F   UNL A   1      46.160  29.901  33.139  1.00  0.00    -0.203 F 
ATOM     65  C   UNL A   1      47.336  28.389  34.507  1.00  0.00     0.198 A 
ATOM     66  C   UNL A   1      46.209  26.479  35.431  1.00  0.00     0.198 A 
ATOM     67  F   UNL A   1      43.939  26.101  34.944  1.00  0.00    -0.203 F 
ATOM     68  F   UNL A   1      48.457  29.102  34.331  1.00  0.00    -0.200 F 
ATOM     69  C   UNL A   1      47.362  27.235  35.277  1.00  0.00     0.200 A 
ATOM     70  F   UNL A   1      46.232  25.368  36.181  1.00  0.00    -0.200 F 
ATOM     71  F   UNL A   1      48.504  26.844  35.861  1.00  0.00    -0.200 F 
ENDBRANCH  38  61
ENDBRANCH  12  13
ENDBRANCH   5   7
ENDBRANCH   2   3
ENDBRANCH   1   2
BRANCH   1  72
ATOM     72  C   UNL A   1      32.556  26.974  26.178  1.00  0.00     0.023 C 
BRANCH  72  73
ATOM     73  C   UNL A   1      31.285  26.113  26.161  1.00  0.00     0.116 C 
BRANCH  73  74
ATOM     74  N   UNL A   1      31.432  24.846  26.854  1.00  0.00    -0.356 N 
ATOM     75  C   UNL A   1      31.974  23.641  26.519  1.00  0.00     0.229 C 
ATOM     76  H   UNL A   1      31.059  24.860  27.764  1.00  0.00     0.163 HD
ATOM     77  O   UNL A   1      32.066  22.863  27.474  1.00  0.00    -0.275 OA
BRANCH  75  78
ATOM     78  C   UNL A   1      32.573  23.320  25.135  1.00  0.00     0.145 C 
ATOM     79  C   UNL A   1      31.949  22.147  24.389  1.00  0.00     0.276 C 
ATOM     80  C   UNL A   1      34.121  23.022  25.021  1.00  0.00     0.041 C 
ATOM     81  N   UNL A   1      32.865  21.027  24.421  1.00  0.00    -0.327 N 
ATOM     82  C   UNL A   1      34.200  21.594  24.397  1.00  0.00     0.270 C 
ATOM     83  C   UNL A   1      34.790  24.038  24.054  1.00  0.00     0.042 C 
ATOM     84  C   UNL A   1      34.951  23.097  26.322  1.00  0.00     0.042 C 
ATOM     85  H   UNL A   1      32.707  20.450  23.595  1.00  0.00     0.348 HD
ATOM     86  C   UNL A   1      36.291  23.776  23.900  1.00  0.00     0.161 C 
ATOM     87  C   UNL A   1      36.436  22.843  26.079  1.00  0.00     0.161 C 
ATOM     88  O   UNL A   1      36.956  23.801  25.160  1.00  0.00    -0.381 OA
BRANCH  81  89
ATOM     89  C   UNL A   1      32.622  19.960  25.400  1.00  0.00     0.338 C 
BRANCH  89  90
ATOM     90  C   UNL A   1      33.012  18.564  25.047  1.00  0.00     0.157 A 
ATOM     91  C   UNL A   1      34.030  18.010  24.301  1.00  0.00     0.052 A 
ATOM     92  O   UNL A   1      32.278  17.558  25.615  1.00  0.00    -0.463 OA
ATOM     93  C   UNL A   1      33.891  16.606  24.375  1.00  0.00     0.042 A 
ATOM     94  C   UNL A   1      32.818  16.381  25.201  1.00  0.00     0.195 A 
ENDBRANCH  89  90
ENDBRANCH  81  89
ENDBRANCH  75  78
ENDBRANCH  73  74
ENDBRANCH  72  73
ENDBRANCH   1  72
TORSDOF 13
ENDMDL
MODEL 2
REMARK VINA RESULT:     -12.4      1.120      1.576
REMARK SMILES O=C(NCCCCNC(=O)[C@@H]1C[N@H+](Cc2ccco2)CC12CCOCC2)c1ccc(-c2c3nc(c(-c4c(F)c(F)c(F)c(F)c4F)c4ccc([nH]4)c(-c4c(F)c(F)c(F)c(F)c4F)c4nc(c(-c5c(F)c(F)c(F)c(F)c5F)c5ccc2[nH]5)C=C4)C=C3)cc1
REMARK SMILES IDX 5 1 4 2 3 3 1 4 2 5 27 7 28 8 89 9 29 10 88 11 30 12 31 13
REMARK SMILES IDX 32 14 82 15 33 16 87 17 81 18 83 19 34 20 86 21 80 22 79 23
REMARK SMILES IDX 35 25 67 26 47 27 66 28 48 29 51 30 65 31 84 32 49 33 50 34
REMARK SMILES IDX 64 36 85 37 52 38 36 39 37 40 45 41 38 42 39 43 43 44 46 45
REMARK SMILES IDX 40 46 41 47 44 48 42 49 68 50 69 51 77 52 70 53 71 54 75 55
REMARK SMILES IDX 78 56 72 57 73 58 76 59 74 60 53 61 54 62 62 63 55 64 56 65
REMARK SMILES IDX 60 66 63 67 57 68 58 69 61 70 59 71 6 72 7 73 8 74 9 75
REMARK SMILES IDX 10 77 11 78 12 79 21 80 13 81 20 82 22 83 26 84 23 86 25 87
REMARK SMILES IDX 24 88 14 89 15 90 16 91 19 92 17 93 18 94
REMARK H PARENT 3 6 83 24 51 35 8 76 13 85
REMARK Flexibility Score: inf
ROOT
ATOM      1  C   UNL A   1      32.421  27.842  25.050  1.00  0.00     0.023 C 
ENDROOT
BRANCH   1   2
ATOM      2  C   UNL A   1      33.363  28.988  25.327  1.00  0.00     0.116 C 
BRANCH   2   3
ATOM      3  N   UNL A   1      32.695  30.186  25.803  1.00  0.00    -0.352 N 
ATOM      4  O   UNL A   1      32.346  31.949  27.171  1.00  0.00    -0.269 OA
ATOM      5  C   UNL A   1      33.076  31.034  26.819  1.00  0.00     0.251 C 
ATOM      6  H   UNL A   1      31.860  30.423  25.339  1.00  0.00     0.163 HD
BRANCH   5   7
ATOM      7  C   UNL A   1      34.365  30.798  27.507  1.00  0.00     0.039 A 
ATOM      8  C   UNL A   1      34.667  29.538  28.025  1.00  0.00     0.014 A 
ATOM      9  C   UNL A   1      35.261  31.858  27.673  1.00  0.00     0.014 A 
ATOM     10  C   UNL A   1      35.761  29.383  28.858  1.00  0.00     0.010 A 
ATOM     11  C   UNL A   1      36.435  31.664  28.408  1.00  0.00     0.010 A 
ATOM     12  C   UNL A   1      36.680  30.431  29.029  1.00  0.00    -0.014 A 
BRANCH  12  13
ATOM     13  C   UNL A   1      37.928  30.149  29.780  1.00  0.00     0.031 A 
ATOM     14  C   UNL A   1      38.137  30.637  31.184  1.00  0.00     0.074 A 
ATOM     15  C   UNL A   1      38.853  29.373  29.180  1.00  0.00     0.049 A 
ATOM     16  N   UNL A   1      39.153  30.420  31.983  1.00  0.00    -0.248 NA
ATOM     17  C   UNL A   1      37.085  31.480  31.769  1.00  0.00     0.031 C 
ATOM     18  C   UNL A   1      38.756  28.864  27.807  1.00  0.00     0.029 A 
ATOM     19  N   UNL A   1      40.024  28.839  29.647  1.00  0.00    -0.354 N 
ATOM     20  C   UNL A   1      38.873  31.113  33.153  1.00  0.00     0.074 A 
ATOM     21  C   UNL A   1      37.600  31.774  32.956  1.00  0.00     0.031 C 
ATOM     22  C   UNL A   1      39.778  28.032  27.572  1.00  0.00     0.029 A 
ATOM     23  C   UNL A   1      40.645  28.012  28.742  1.00  0.00     0.049 A 
ATOM     24  H   UNL A   1      40.386  29.028  30.542  1.00  0.00     0.167 HD
ATOM     25  C   UNL A   1      39.614  31.182  34.286  1.00  0.00     0.037 A 
ATOM     26  C   UNL A   1      41.795  27.323  28.836  1.00  0.00     0.037 A 
ATOM     27  C   UNL A   1      40.874  30.507  34.474  1.00  0.00     0.049 A 
ATOM     28  C   UNL A   1      42.583  27.413  30.107  1.00  0.00     0.074 A 
ATOM     29  C   UNL A   1      41.700  30.511  35.584  1.00  0.00     0.029 A 
ATOM     30  N   UNL A   1      41.486  29.699  33.525  1.00  0.00    -0.354 N 
ATOM     31  N   UNL A   1      42.304  28.071  31.206  1.00  0.00    -0.248 NA
ATOM     32  C   UNL A   1      43.848  26.671  30.151  1.00  0.00     0.031 C 
ATOM     33  C   UNL A   1      42.828  29.734  35.296  1.00  0.00     0.029 A 
ATOM     34  C   UNL A   1      42.685  29.210  34.022  1.00  0.00     0.049 A 
ATOM     35  H   UNL A   1      41.124  29.503  32.632  1.00  0.00     0.167 HD
ATOM     36  C   UNL A   1      43.360  27.831  32.070  1.00  0.00     0.074 A 
ATOM     37  C   UNL A   1      44.263  26.929  31.383  1.00  0.00     0.031 C 
ATOM     38  C   UNL A   1      43.573  28.325  33.314  1.00  0.00     0.037 A 
BRANCH  25  39
ATOM     39  C   UNL A   1      39.095  32.024  35.415  1.00  0.00     0.064 A 
ATOM     40  C   UNL A   1      38.341  31.469  36.459  1.00  0.00     0.173 A 
ATOM     41  C   UNL A   1      39.416  33.388  35.493  1.00  0.00     0.173 A 
ATOM     42  F   UNL A   1      37.996  30.172  36.427  1.00  0.00    -0.203 F 
ATOM     43  C   UNL A   1      37.919  32.249  37.533  1.00  0.00     0.198 A 
ATOM     44  C   UNL A   1      39.013  34.161  36.579  1.00  0.00     0.198 A 
ATOM     45  F   UNL A   1      40.139  33.968  34.523  1.00  0.00    -0.203 F 
ATOM     46  F   UNL A   1      37.177  31.703  38.507  1.00  0.00    -0.200 F 
ATOM     47  C   UNL A   1      38.263  33.592  37.597  1.00  0.00     0.200 A 
ATOM     48  F   UNL A   1      39.356  35.455  36.644  1.00  0.00    -0.200 F 
ATOM     49  F   UNL A   1      37.870  34.338  38.639  1.00  0.00    -0.200 F 
ENDBRANCH  25  39
BRANCH  26  50
ATOM     50  C   UNL A   1      42.267  26.515  27.684  1.00  0.00     0.064 A 
ATOM     51  C   UNL A   1      43.213  27.020  26.781  1.00  0.00     0.173 A 
ATOM     52  C   UNL A   1      41.796  25.210  27.472  1.00  0.00     0.173 A 
ATOM     53  F   UNL A   1      43.682  28.268  26.933  1.00  0.00    -0.203 F 
ATOM     54  C   UNL A   1      43.655  26.258  25.703  1.00  0.00     0.198 A 
ATOM     55  C   UNL A   1      42.265  24.437  26.414  1.00  0.00     0.198 A 
ATOM     56  F   UNL A   1      40.898  24.677  28.313  1.00  0.00    -0.203 F 
ATOM     57  F   UNL A   1      44.527  26.781  24.830  1.00  0.00    -0.200 F 
ATOM     58  C   UNL A   1      43.187  24.965  25.524  1.00  0.00     0.200 A 
ATOM     59  F   UNL A   1      41.825  23.181  26.260  1.00  0.00    -0.200 F 
ATOM     60  F   UNL A   1      43.622  24.230  24.493  1.00  0.00    -0.200 F 
ENDBRANCH  26  50
BRANCH  38  61
ATOM     61  C   UNL A   1      44.836  27.891  33.997  1.00  0.00     0.064 A 
ATOM     62  C   UNL A   1      46.021  28.630  33.872  1.00  0.00     0.173 A 
ATOM     63  C   UNL A   1      44.861  26.725  34.775  1.00  0.00     0.173 A 
ATOM     64  F   UNL A   1      46.049  29.742  33.121  1.00  0.00    -0.203 F 
ATOM     65  C   UNL A   1      47.198  28.197  34.474  1.00  0.00     0.198 A 
ATOM     66  C   UNL A   1      46.033  26.310  35.398  1.00  0.00     0.198 A 
ATOM     67  F   UNL A   1      43.751  25.988  34.925  1.00  0.00    -0.203 F 
ATOM     68  F   UNL A   1      48.334  28.885  34.294  1.00  0.00    -0.200 F 
ATOM     69  C   UNL A   1      47.203  27.039  35.239  1.00  0.00     0.200 A 
ATOM     70  F   UNL A   1      46.035  25.196  36.143  1.00  0.00    -0.200 F 
ATOM     71  F   UNL A   1      48.339  26.619  35.813  1.00  0.00    -0.200 F 
ENDBRANCH  38  61
ENDBRANCH  12  13
ENDBRANCH   5   7
ENDBRANCH   2   3
ENDBRANCH   1   2
BRANCH   1  72
ATOM     72  C   UNL A   1      31.468  27.489  26.185  1.00  0.00     0.023 C 
BRANCH  72  73
ATOM     73  C   UNL A   1      30.685  26.176  26.038  1.00  0.00     0.116 C 
BRANCH  73  74
ATOM     74  N   UNL A   1      31.188  25.103  26.876  1.00  0.00    -0.356 N 
ATOM     75  C   UNL A   1      31.579  23.820  26.637  1.00  0.00     0.229 C 
ATOM     76  H   UNL A   1      31.263  25.358  27.823  1.00  0.00     0.163 HD
ATOM     77  O   UNL A   1      32.126  23.286  27.607  1.00  0.00    -0.275 OA
BRANCH  75  78
ATOM     78  C   UNL A   1      31.507  23.140  25.255  1.00  0.00     0.145 C 
ATOM     79  C   UNL A   1      31.519  21.617  25.254  1.00  0.00     0.276 C 
ATOM     80  C   UNL A   1      32.598  23.498  24.168  1.00  0.00     0.041 C 
ATOM     81  N   UNL A   1      32.811  21.156  24.789  1.00  0.00    -0.327 N 
ATOM     82  C   UNL A   1      33.262  22.132  23.815  1.00  0.00     0.270 C 
ATOM     83  C   UNL A   1      31.916  24.076  22.897  1.00  0.00     0.042 C 
ATOM     84  C   UNL A   1      33.668  24.541  24.560  1.00  0.00     0.042 C 
ATOM     85  H   UNL A   1      32.694  20.242  24.351  1.00  0.00     0.348 HD
ATOM     86  C   UNL A   1      32.936  24.423  21.809  1.00  0.00     0.161 C 
ATOM     87  C   UNL A   1      34.632  24.844  23.417  1.00  0.00     0.161 C 
ATOM     88  O   UNL A   1      33.917  25.339  22.287  1.00  0.00    -0.381 OA
BRANCH  81  89
ATOM     89  C   UNL A   1      33.793  20.721  25.789  1.00  0.00     0.338 C 
BRANCH  89  90
ATOM     90  C   UNL A   1      35.217  21.131  25.616  1.00  0.00     0.157 A 
ATOM     91  C   UNL A   1      35.974  22.191  26.065  1.00  0.00     0.052 A 
ATOM     92  O   UNL A   1      36.025  20.268  24.926  1.00  0.00    -0.463 OA
ATOM     93  C   UNL A   1      37.292  21.998  25.594  1.00  0.00     0.042 A 
ATOM     94  C   UNL A   1      37.275  20.802  24.919  1.00  0.00     0.195 A 
ENDBRANCH  89  90
ENDBRANCH  81  89
ENDBRANCH  75  78
ENDBRANCH  73  74
ENDBRANCH  72  73
ENDBRANCH   1  72
TORSDOF 13
ENDMDL
MODEL 3
REMARK VINA RESULT:     -12.4      0.266      1.157
REMARK SMILES O=C(NCCCCNC(=O)[C@@H]1C[N@H+](Cc2ccco2)CC12CCOCC2)c1ccc(-c2c3nc(c(-c4c(F)c(F)c(F)c(F)c4F)c4ccc([nH]4)c(-c4c(F)c(F)c(F)c(F)c4F)c4nc(c(-c5c(F)c(F)c(F)c(F)c5F)c5ccc2[nH]5)C=C4)C=C3)cc1
REMARK SMILES IDX 5 1 4 2 3 3 1 4 2 5 27 7 28 8 89 9 29 10 88 11 30 12 31 13
REMARK SMILES IDX 32 14 82 15 33 16 87 17 81 18 83 19 34 20 86 21 80 22 79 23
REMARK SMILES IDX 35 25 67 26 47 27 66 28 48 29 51 30 65 31 84 32 49 33 50 34
REMARK SMILES IDX 64 36 85 37 52 38 36 39 37 40 45 41 38 42 39 43 43 44 46 45
REMARK SMILES IDX 40 46 41 47 44 48 42 49 68 50 69 51 77 52 70 53 71 54 75 55
REMARK SMILES IDX 78 56 72 57 73 58 76 59 74 60 53 61 54 62 62 63 55 64 56 65
REMARK SMILES IDX 60 66 63 67 57 68 58 69 61 70 59 71 6 72 7 73 8 74 9 75
REMARK SMILES IDX 10 77 11 78 12 79 21 80 13 81 20 82 22 83 26 84 23 86 25 87
REMARK SMILES IDX 24 88 14 89 15 90 16 91 19 92 17 93 18 94
REMARK H PARENT 3 6 83 24 51 35 8 76 13 85
REMARK Flexibility Score: inf
ROOT
ATOM      1  C   UNL A   1      32.804  27.861  25.042  1.00  0.00     0.023 C 
ENDROOT
BRANCH   1   2
ATOM      2  C   UNL A   1      33.669  29.083  25.230  1.00  0.00     0.116 C 
BRANCH   2   3
ATOM      3  N   UNL A   1      32.951  30.227  25.762  1.00  0.00    -0.352 N 
ATOM      4  O   UNL A   1      32.513  31.891  27.226  1.00  0.00    -0.269 OA
ATOM      5  C   UNL A   1      33.281  31.024  26.836  1.00  0.00     0.251 C 
ATOM      6  H   UNL A   1      32.118  30.464  25.294  1.00  0.00     0.163 HD
BRANCH   5   7
ATOM      7  C   UNL A   1      34.563  30.788  27.538  1.00  0.00     0.039 A 
ATOM      8  C   UNL A   1      34.842  29.540  28.095  1.00  0.00     0.014 A 
ATOM      9  C   UNL A   1      35.475  31.839  27.677  1.00  0.00     0.014 A 
ATOM     10  C   UNL A   1      35.930  29.393  28.938  1.00  0.00     0.010 A 
ATOM     11  C   UNL A   1      36.642  31.649  28.424  1.00  0.00     0.010 A 
ATOM     12  C   UNL A   1      36.864  30.432  29.083  1.00  0.00    -0.014 A 
BRANCH  12  13
ATOM     13  C   UNL A   1      38.104  30.154  29.848  1.00  0.00     0.031 A 
ATOM     14  C   UNL A   1      38.294  30.639  31.256  1.00  0.00     0.074 A 
ATOM     15  C   UNL A   1      39.040  29.383  29.258  1.00  0.00     0.049 A 
ATOM     16  N   UNL A   1      39.300  30.425  32.068  1.00  0.00    -0.248 NA
ATOM     17  C   UNL A   1      37.230  31.476  31.831  1.00  0.00     0.031 C 
ATOM     18  C   UNL A   1      38.963  28.877  27.883  1.00  0.00     0.029 A 
ATOM     19  N   UNL A   1      40.207  28.853  29.738  1.00  0.00    -0.354 N 
ATOM     20  C   UNL A   1      39.003  31.113  33.235  1.00  0.00     0.074 A 
ATOM     21  C   UNL A   1      37.730  31.769  33.024  1.00  0.00     0.031 C 
ATOM     22  C   UNL A   1      39.991  28.050  27.658  1.00  0.00     0.029 A 
ATOM     23  C   UNL A   1      40.843  28.031  28.839  1.00  0.00     0.049 A 
ATOM     24  H   UNL A   1      40.557  29.042  30.638  1.00  0.00     0.167 HD
ATOM     25  C   UNL A   1      39.729  31.183  34.377  1.00  0.00     0.037 A 
ATOM     26  C   UNL A   1      41.995  27.347  28.946  1.00  0.00     0.037 A 
ATOM     27  C   UNL A   1      40.990  30.513  34.580  1.00  0.00     0.049 A 
ATOM     28  C   UNL A   1      42.767  27.437  30.227  1.00  0.00     0.074 A 
ATOM     29  C   UNL A   1      41.803  30.518  35.700  1.00  0.00     0.029 A 
ATOM     30  N   UNL A   1      41.618  29.710  33.637  1.00  0.00    -0.354 N 
ATOM     31  N   UNL A   1      42.472  28.091  31.324  1.00  0.00    -0.248 NA
ATOM     32  C   UNL A   1      44.035  26.701  30.285  1.00  0.00     0.031 C 
ATOM     33  C   UNL A   1      42.937  29.746  35.424  1.00  0.00     0.029 A 
ATOM     34  C   UNL A   1      42.812  29.225  34.147  1.00  0.00     0.049 A 
ATOM     35  H   UNL A   1      41.267  29.514  32.738  1.00  0.00     0.167 HD
ATOM     36  C   UNL A   1      43.517  27.853  32.200  1.00  0.00     0.074 A 
ATOM     37  C   UNL A   1      44.433  26.957  31.523  1.00  0.00     0.031 C 
ATOM     38  C   UNL A   1      43.713  28.345  33.448  1.00  0.00     0.037 A 
BRANCH  25  39
ATOM     39  C   UNL A   1      39.192  32.020  35.502  1.00  0.00     0.064 A 
ATOM     40  C   UNL A   1      38.387  31.468  36.509  1.00  0.00     0.173 A 
ATOM     41  C   UNL A   1      39.547  33.373  35.615  1.00  0.00     0.173 A 
ATOM     42  F   UNL A   1      38.009  30.182  36.442  1.00  0.00    -0.203 F 
ATOM     43  C   UNL A   1      37.948  32.242  37.580  1.00  0.00     0.198 A 
ATOM     44  C   UNL A   1      39.126  34.138  36.700  1.00  0.00     0.198 A 
ATOM     45  F   UNL A   1      40.320  33.949  34.682  1.00  0.00    -0.203 F 
ATOM     46  F   UNL A   1      37.157  31.700  38.517  1.00  0.00    -0.200 F 
ATOM     47  C   UNL A   1      38.325  33.573  37.680  1.00  0.00     0.200 A 
ATOM     48  F   UNL A   1      39.501  35.421  36.800  1.00  0.00    -0.200 F 
ATOM     49  F   UNL A   1      37.915  34.312  38.721  1.00  0.00    -0.200 F 
ENDBRANCH  25  39
BRANCH  26  50
ATOM     50  C   UNL A   1      42.485  26.543  27.798  1.00  0.00     0.064 A 
ATOM     51  C   UNL A   1      42.053  25.226  27.596  1.00  0.00     0.173 A 
ATOM     52  C   UNL A   1      43.384  27.085  26.866  1.00  0.00     0.173 A 
ATOM     53  F   UNL A   1      41.206  24.659  28.469  1.00  0.00    -0.203 F 
ATOM     54  C   UNL A   1      42.514  24.475  26.517  1.00  0.00     0.198 A 
ATOM     55  C   UNL A   1      43.817  26.347  25.769  1.00  0.00     0.198 A 
ATOM     56  F   UNL A   1      43.820  28.345  27.008  1.00  0.00    -0.203 F 
ATOM     57  F   UNL A   1      42.119  23.204  26.372  1.00  0.00    -0.200 F 
ATOM     58  C   UNL A   1      43.389  25.039  25.600  1.00  0.00     0.200 A 
ATOM     59  F   UNL A   1      44.644  26.903  24.875  1.00  0.00    -0.200 F 
ATOM     60  F   UNL A   1      43.823  24.320  24.556  1.00  0.00    -0.200 F 
ENDBRANCH  26  50
BRANCH  38  61
ATOM     61  C   UNL A   1      44.969  27.915  34.146  1.00  0.00     0.064 A 
ATOM     62  C   UNL A   1      46.150  28.664  34.044  1.00  0.00     0.173 A 
ATOM     63  C   UNL A   1      44.991  26.743  34.915  1.00  0.00     0.173 A 
ATOM     64  F   UNL A   1      46.180  29.782  33.303  1.00  0.00    -0.203 F 
ATOM     65  C   UNL A   1      47.322  28.235  34.660  1.00  0.00     0.198 A 
ATOM     66  C   UNL A   1      46.158  26.331  35.551  1.00  0.00     0.198 A 
ATOM     67  F   UNL A   1      43.885  25.996  35.043  1.00  0.00    -0.203 F 
ATOM     68  F   UNL A   1      48.455  28.932  34.501  1.00  0.00    -0.200 F 
ATOM     69  C   UNL A   1      47.324  27.071  35.415  1.00  0.00     0.200 A 
ATOM     70  F   UNL A   1      46.158  25.211  36.287  1.00  0.00    -0.200 F 
ATOM     71  F   UNL A   1      48.455  26.655  36.002  1.00  0.00    -0.200 F 
ENDBRANCH  38  61
ENDBRANCH  12  13
ENDBRANCH   5   7
ENDBRANCH   2   3
ENDBRANCH   1   2
BRANCH   1  72
ATOM     72  C   UNL A   1      32.340  27.185  26.326  1.00  0.00     0.023 C 
BRANCH  72  73
ATOM     73  C   UNL A   1      31.100  26.284  26.215  1.00  0.00     0.116 C 
BRANCH  73  74
ATOM     74  N   UNL A   1      31.256  24.998  26.869  1.00  0.00    -0.356 N 
ATOM     75  C   UNL A   1      31.819  23.812  26.503  1.00  0.00     0.229 C 
ATOM     76  H   UNL A   1      30.871  24.977  27.774  1.00  0.00     0.163 HD
ATOM     77  O   UNL A   1      31.909  23.005  27.433  1.00  0.00    -0.275 OA
BRANCH  75  78
ATOM     78  C   UNL A   1      32.441  23.544  25.118  1.00  0.00     0.145 C 
ATOM     79  C   UNL A   1      31.734  22.508  24.253  1.00  0.00     0.276 C 
ATOM     80  C   UNL A   1      33.955  23.096  25.031  1.00  0.00     0.041 C 
ATOM     81  N   UNL A   1      32.530  21.299  24.220  1.00  0.00    -0.327 N 
ATOM     82  C   UNL A   1      33.915  21.724  24.291  1.00  0.00     0.270 C 
ATOM     83  C   UNL A   1      34.764  24.112  24.178  1.00  0.00     0.042 C 
ATOM     84  C   UNL A   1      34.731  22.977  26.361  1.00  0.00     0.042 C 
ATOM     85  H   UNL A   1      32.349  20.812  23.342  1.00  0.00     0.348 HD
ATOM     86  C   UNL A   1      36.236  23.708  24.054  1.00  0.00     0.161 C 
ATOM     87  C   UNL A   1      36.192  22.589  26.149  1.00  0.00     0.161 C 
ATOM     88  O   UNL A   1      36.846  23.560  25.333  1.00  0.00    -0.381 OA
BRANCH  81  89
ATOM     89  C   UNL A   1      32.137  20.187  25.095  1.00  0.00     0.338 C 
BRANCH  89  90
ATOM     90  C   UNL A   1      32.531  18.802  24.708  1.00  0.00     0.157 A 
ATOM     91  C   UNL A   1      33.060  18.234  23.569  1.00  0.00     0.052 A 
ATOM     92  O   UNL A   1      32.436  17.842  25.680  1.00  0.00    -0.463 OA
ATOM     93  C   UNL A   1      33.257  16.861  23.834  1.00  0.00     0.042 A 
ATOM     94  C   UNL A   1      32.877  16.675  25.140  1.00  0.00     0.195 A 
ENDBRANCH  89  90
ENDBRANCH  81  89
ENDBRANCH  75  78
ENDBRANCH  73  74
ENDBRANCH  72  73
ENDBRANCH   1  72
TORSDOF 13
ENDMDL
