MODEL 1
REMARK VINA RESULT:     -12.6      0.000      0.000
REMARK SMILES Cn1ccc(S(=O)(=O)N[C@H]2C=C[C@@H](C(=O)NCCCCNC(=O)c3ccc(-c4c5nc(c(-c6c(F)c(F)c(F)c(F)c6F)c6ccc([nH]6)c(-c6c(F)c(F)c(F)c(F)c6F)c6nc(c(-c7c(F)c(F)c(F)c(F)c7F)c7ccc4[nH]7)C=C6)C=C5)cc3)C2)c1
REMARK SMILES IDX 18 1 17 2 16 3 14 4 15 5 13 7 10 8 11 9 87 10 12 11 9 12
REMARK SMILES IDX 6 14 7 15 8 16 5 17 1 18 2 19 3 20 88 21 4 22 19 23 20 24
REMARK SMILES IDX 21 25 22 26 23 28 24 29 25 30 86 31 26 32 85 33 27 34 28 35
REMARK SMILES IDX 29 36 79 37 30 38 84 39 78 40 80 41 31 42 83 43 77 44 76 45
REMARK SMILES IDX 32 47 64 48 44 49 63 50 45 51 48 52 62 53 81 54 46 55 47 56
REMARK SMILES IDX 61 58 82 59 49 60 33 61 34 62 42 63 35 64 36 65 40 66 43 67
REMARK SMILES IDX 37 68 38 69 41 70 39 71 65 72 66 73 74 74 67 75 68 76 72 77
REMARK SMILES IDX 75 78 69 79 70 80 73 81 71 82 50 83 51 84 59 85 52 86 53 87
REMARK SMILES IDX 57 88 60 89 54 90 55 91 58 92 56 93
REMARK H PARENT 16 6 9 13 21 27 80 46 48 57
REMARK Flexibility Score: inf
ROOT
ATOM      1  C   UNL A   1      31.683  30.998  26.099  1.00  0.00     0.023 C 
ENDROOT
BRANCH   1   2
ATOM      2  C   UNL A   1      31.845  29.875  27.121  1.00  0.00     0.116 C 
BRANCH   2   3
ATOM      3  N   UNL A   1      33.236  29.661  27.468  1.00  0.00    -0.356 N 
ATOM      4  C   UNL A   1      34.169  28.821  26.944  1.00  0.00     0.226 C 
ATOM      5  O   UNL A   1      35.303  28.872  27.431  1.00  0.00    -0.274 OA
ATOM      6  H   UNL A   1      33.561  30.217  28.212  1.00  0.00     0.163 HD
BRANCH   4   7
ATOM      7  C   UNL A   1      33.875  27.853  25.793  1.00  0.00     0.103 C 
ATOM      8  C   UNL A   1      31.941  27.522  24.287  1.00  0.00     0.093 C 
ATOM      9  C   UNL A   1      33.049  28.279  23.640  1.00  0.00    -0.011 C 
ATOM     10  C   UNL A   1      32.446  27.302  25.729  1.00  0.00     0.042 C 
ATOM     11  C   UNL A   1      34.100  28.456  24.446  1.00  0.00    -0.016 C 
BRANCH   8  12
ATOM     12  N   UNL A   1      30.645  28.197  24.306  1.00  0.00    -0.204 NA
ATOM     13  H   UNL A   1      30.139  27.802  25.099  1.00  0.00     0.142 HD
BRANCH  12  14
ATOM     14  S   UNL A   1      29.562  28.189  23.030  1.00  0.00     0.242 S 
ATOM     15  O   UNL A   1      28.380  27.468  23.441  1.00  0.00    -0.207 OA
ATOM     16  O   UNL A   1      30.313  27.792  21.861  1.00  0.00    -0.207 OA
BRANCH  14  17
ATOM     17  C   UNL A   1      29.032  29.793  22.696  1.00  0.00     0.100 A 
ATOM     18  C   UNL A   1      27.843  32.498  20.610  1.00  0.00     0.149 C 
ATOM     19  N   UNL A   1      28.301  31.608  21.652  1.00  0.00    -0.356 N 
ATOM     20  C   UNL A   1      28.629  31.993  22.926  1.00  0.00     0.086 A 
ATOM     21  C   UNL A   1      28.503  30.262  21.510  1.00  0.00     0.106 A 
ATOM     22  C   UNL A   1      29.089  30.883  23.602  1.00  0.00     0.041 A 
ENDBRANCH  14  17
ENDBRANCH  12  14
ENDBRANCH   8  12
ENDBRANCH   4   7
ENDBRANCH   2   3
ENDBRANCH   1   2
BRANCH   1  23
ATOM     23  C   UNL A   1      31.392  32.369  26.707  1.00  0.00     0.023 C 
BRANCH  23  24
ATOM     24  C   UNL A   1      32.564  33.010  27.438  1.00  0.00     0.116 C 
BRANCH  24  25
ATOM     25  N   UNL A   1      32.350  34.415  27.747  1.00  0.00    -0.352 N 
ATOM     26  C   UNL A   1      33.003  35.198  28.668  1.00  0.00     0.251 C 
ATOM     27  H   UNL A   1      31.643  34.863  27.229  1.00  0.00     0.163 HD
ATOM     28  O   UNL A   1      32.623  36.341  28.901  1.00  0.00    -0.269 OA
BRANCH  26  29
ATOM     29  C   UNL A   1      34.153  34.642  29.408  1.00  0.00     0.039 A 
ATOM     30  C   UNL A   1      33.943  34.111  30.683  1.00  0.00     0.014 A 
ATOM     31  C   UNL A   1      35.430  34.627  28.838  1.00  0.00     0.014 A 
ATOM     32  C   UNL A   1      35.003  33.509  31.363  1.00  0.00     0.010 A 
ATOM     33  C   UNL A   1      36.465  33.960  29.483  1.00  0.00     0.010 A 
ATOM     34  C   UNL A   1      36.263  33.402  30.755  1.00  0.00    -0.014 A 
BRANCH  34  35
ATOM     35  C   UNL A   1      37.394  32.727  31.438  1.00  0.00     0.031 A 
ATOM     36  C   UNL A   1      38.100  31.585  30.765  1.00  0.00     0.074 A 
ATOM     37  C   UNL A   1      37.740  33.098  32.684  1.00  0.00     0.049 A 
ATOM     38  N   UNL A   1      39.066  30.825  31.216  1.00  0.00    -0.248 NA
ATOM     39  C   UNL A   1      37.635  31.227  29.417  1.00  0.00     0.031 C 
ATOM     40  C   UNL A   1      37.102  34.164  33.457  1.00  0.00     0.029 A 
ATOM     41  N   UNL A   1      38.713  32.615  33.521  1.00  0.00    -0.354 N 
ATOM     42  C   UNL A   1      39.307  29.891  30.218  1.00  0.00     0.074 A 
ATOM     43  C   UNL A   1      38.350  30.142  29.163  1.00  0.00     0.031 C 
ATOM     44  C   UNL A   1      37.725  34.279  34.642  1.00  0.00     0.029 A 
ATOM     45  C   UNL A   1      38.778  33.272  34.725  1.00  0.00     0.049 A 
ATOM     46  H   UNL A   1      39.308  31.867  33.282  1.00  0.00     0.167 HD
ATOM     47  C   UNL A   1      40.257  28.927  30.174  1.00  0.00     0.037 A 
ATOM     48  C   UNL A   1      39.602  33.085  35.773  1.00  0.00     0.037 A 
ATOM     49  C   UNL A   1      41.227  28.702  31.213  1.00  0.00     0.049 A 
ATOM     50  C   UNL A   1      40.646  32.005  35.703  1.00  0.00     0.074 A 
ATOM     51  C   UNL A   1      42.274  27.797  31.237  1.00  0.00     0.029 A 
ATOM     52  N   UNL A   1      41.266  29.391  32.416  1.00  0.00    -0.354 N 
ATOM     53  N   UNL A   1      40.912  31.172  34.728  1.00  0.00    -0.248 NA
ATOM     54  C   UNL A   1      41.507  31.843  36.883  1.00  0.00     0.031 C 
ATOM     55  C   UNL A   1      42.922  27.911  32.472  1.00  0.00     0.029 A 
ATOM     56  C   UNL A   1      42.307  28.918  33.200  1.00  0.00     0.049 A 
ATOM     57  H   UNL A   1      40.646  30.110  32.675  1.00  0.00     0.167 HD
ATOM     58  C   UNL A   1      41.990  30.411  35.158  1.00  0.00     0.074 A 
ATOM     59  C   UNL A   1      42.333  30.887  36.483  1.00  0.00     0.031 C 
ATOM     60  C   UNL A   1      42.641  29.412  34.512  1.00  0.00     0.037 A 
BRANCH  47  61
ATOM     61  C   UNL A   1      40.282  28.044  28.960  1.00  0.00     0.064 A 
ATOM     62  C   UNL A   1      39.587  26.825  28.920  1.00  0.00     0.173 A 
ATOM     63  C   UNL A   1      41.015  28.416  27.824  1.00  0.00     0.173 A 
ATOM     64  F   UNL A   1      38.881  26.416  29.985  1.00  0.00    -0.203 F 
ATOM     65  C   UNL A   1      39.661  25.992  27.806  1.00  0.00     0.198 A 
ATOM     66  C   UNL A   1      41.061  27.597  26.699  1.00  0.00     0.198 A 
ATOM     67  F   UNL A   1      41.694  29.574  27.805  1.00  0.00    -0.203 F 
ATOM     68  F   UNL A   1      39.043  24.804  27.818  1.00  0.00    -0.200 F 
ATOM     69  C   UNL A   1      40.394  26.381  26.695  1.00  0.00     0.200 A 
ATOM     70  F   UNL A   1      41.760  27.979  25.622  1.00  0.00    -0.200 F 
ATOM     71  F   UNL A   1      40.469  25.578  25.626  1.00  0.00    -0.200 F 
ENDBRANCH  47  61
BRANCH  48  72
ATOM     72  C   UNL A   1      39.510  33.980  36.954  1.00  0.00     0.064 A 
ATOM     73  C   UNL A   1      40.168  35.218  36.961  1.00  0.00     0.173 A 
ATOM     74  C   UNL A   1      38.760  33.632  38.086  1.00  0.00     0.173 A 
ATOM     75  F   UNL A   1      40.913  35.584  35.907  1.00  0.00    -0.203 F 
ATOM     76  C   UNL A   1      40.091  36.069  38.060  1.00  0.00     0.198 A 
ATOM     77  C   UNL A   1      38.664  34.494  39.176  1.00  0.00     0.198 A 
ATOM     78  F   UNL A   1      38.109  32.460  38.127  1.00  0.00    -0.203 F 
ATOM     79  F   UNL A   1      40.757  37.231  38.054  1.00  0.00    -0.200 F 
ATOM     80  C   UNL A   1      39.333  35.710  39.165  1.00  0.00     0.200 A 
ATOM     81  F   UNL A   1      37.922  34.149  40.237  1.00  0.00    -0.200 F 
ATOM     82  F   UNL A   1      39.253  36.530  40.220  1.00  0.00    -0.200 F 
ENDBRANCH  48  72
BRANCH  60  83
ATOM     83  C   UNL A   1      43.817  28.795  35.210  1.00  0.00     0.064 A 
ATOM     84  C   UNL A   1      45.120  29.279  35.028  1.00  0.00     0.173 A 
ATOM     85  C   UNL A   1      43.629  27.727  36.102  1.00  0.00     0.173 A 
ATOM     86  F   UNL A   1      45.353  30.287  34.174  1.00  0.00    -0.203 F 
ATOM     87  C   UNL A   1      46.196  28.701  35.695  1.00  0.00     0.198 A 
ATOM     88  C   UNL A   1      44.704  27.170  36.788  1.00  0.00     0.198 A 
ATOM     89  F   UNL A   1      42.401  27.231  36.314  1.00  0.00    -0.203 F 
ATOM     90  F   UNL A   1      47.440  29.149  35.472  1.00  0.00    -0.200 F 
ATOM     91  C   UNL A   1      45.987  27.652  36.580  1.00  0.00     0.200 A 
ATOM     92  F   UNL A   1      44.498  26.166  37.651  1.00  0.00    -0.200 F 
ATOM     93  F   UNL A   1      47.025  27.102  37.226  1.00  0.00    -0.200 F 
ENDBRANCH  60  83
ENDBRANCH  34  35
ENDBRANCH  26  29
ENDBRANCH  24  25
ENDBRANCH  23  24
ENDBRANCH   1  23
TORSDOF 14
ENDMDL
MODEL 2
REMARK VINA RESULT:     -12.6      0.617      7.460
REMARK SMILES Cn1ccc(S(=O)(=O)N[C@H]2C=C[C@@H](C(=O)NCCCCNC(=O)c3ccc(-c4c5nc(c(-c6c(F)c(F)c(F)c(F)c6F)c6ccc([nH]6)c(-c6c(F)c(F)c(F)c(F)c6F)c6nc(c(-c7c(F)c(F)c(F)c(F)c7F)c7ccc4[nH]7)C=C6)C=C5)cc3)C2)c1
REMARK SMILES IDX 18 1 17 2 16 3 14 4 15 5 13 7 10 8 11 9 87 10 12 11 9 12
REMARK SMILES IDX 6 14 7 15 8 16 5 17 1 18 2 19 3 20 88 21 4 22 19 23 20 24
REMARK SMILES IDX 21 25 22 26 23 28 24 29 25 30 86 31 26 32 85 33 27 34 28 35
REMARK SMILES IDX 29 36 79 37 30 38 84 39 78 40 80 41 31 42 83 43 77 44 76 45
REMARK SMILES IDX 32 47 64 48 44 49 63 50 45 51 48 52 62 53 81 54 46 55 47 56
REMARK SMILES IDX 61 58 82 59 49 60 33 61 34 62 42 63 35 64 36 65 40 66 43 67
REMARK SMILES IDX 37 68 38 69 41 70 39 71 65 72 66 73 74 74 67 75 68 76 72 77
REMARK SMILES IDX 75 78 69 79 70 80 73 81 71 82 50 83 51 84 59 85 52 86 53 87
REMARK SMILES IDX 57 88 60 89 54 90 55 91 58 92 56 93
REMARK H PARENT 16 6 9 13 21 27 80 46 48 57
REMARK Flexibility Score: inf
ROOT
ATOM      1  C   UNL A   1      31.606  30.948  26.142  1.00  0.00     0.023 C 
ENDROOT
BRANCH   1   2
ATOM      2  C   UNL A   1      31.775  29.847  27.187  1.00  0.00     0.116 C 
BRANCH   2   3
ATOM      3  N   UNL A   1      33.165  29.665  27.556  1.00  0.00    -0.356 N 
ATOM      4  C   UNL A   1      34.140  28.889  27.009  1.00  0.00     0.226 C 
ATOM      5  O   UNL A   1      35.261  28.954  27.526  1.00  0.00    -0.274 OA
ATOM      6  H   UNL A   1      33.453  30.191  28.336  1.00  0.00     0.163 HD
BRANCH   4   7
ATOM      7  C   UNL A   1      33.907  27.975  25.802  1.00  0.00     0.103 C 
ATOM      8  C   UNL A   1      31.988  27.593  24.290  1.00  0.00     0.093 C 
ATOM      9  C   UNL A   1      33.028  28.470  23.685  1.00  0.00    -0.011 C 
ATOM     10  C   UNL A   1      32.524  27.322  25.712  1.00  0.00     0.042 C 
ATOM     11  C   UNL A   1      34.072  28.676  24.494  1.00  0.00    -0.016 C 
BRANCH   8  12
ATOM     12  N   UNL A   1      30.645  28.165  24.359  1.00  0.00    -0.204 NA
ATOM     13  H   UNL A   1      30.182  27.691  25.134  1.00  0.00     0.142 HD
BRANCH  12  14
ATOM     14  S   UNL A   1      29.547  28.143  23.096  1.00  0.00     0.242 S 
ATOM     15  O   UNL A   1      28.357  27.455  23.539  1.00  0.00    -0.207 OA
ATOM     16  O   UNL A   1      30.278  27.701  21.929  1.00  0.00    -0.207 OA
BRANCH  14  17
ATOM     17  C   UNL A   1      29.043  29.747  22.725  1.00  0.00     0.100 A 
ATOM     18  C   UNL A   1      28.028  32.458  20.556  1.00  0.00     0.149 C 
ATOM     19  N   UNL A   1      28.398  31.565  21.630  1.00  0.00    -0.356 N 
ATOM     20  C   UNL A   1      28.613  31.945  22.929  1.00  0.00     0.086 A 
ATOM     21  C   UNL A   1      28.616  30.220  21.499  1.00  0.00     0.106 A 
ATOM     22  C   UNL A   1      29.017  30.832  23.637  1.00  0.00     0.041 A 
ENDBRANCH  14  17
ENDBRANCH  12  14
ENDBRANCH   8  12
ENDBRANCH   4   7
ENDBRANCH   2   3
ENDBRANCH   1   2
BRANCH   1  23
ATOM     23  C   UNL A   1      31.403  32.346  26.724  1.00  0.00     0.023 C 
BRANCH  23  24
ATOM     24  C   UNL A   1      32.667  33.013  27.250  1.00  0.00     0.116 C 
BRANCH  24  25
ATOM     25  N   UNL A   1      32.444  34.366  27.736  1.00  0.00    -0.352 N 
ATOM     26  C   UNL A   1      33.085  35.026  28.756  1.00  0.00     0.251 C 
ATOM     27  H   UNL A   1      31.740  34.875  27.273  1.00  0.00     0.163 HD
ATOM     28  O   UNL A   1      32.698  36.128  29.131  1.00  0.00    -0.269 OA
BRANCH  26  29
ATOM     29  C   UNL A   1      34.231  34.382  29.430  1.00  0.00     0.039 A 
ATOM     30  C   UNL A   1      33.991  33.571  30.541  1.00  0.00     0.014 A 
ATOM     31  C   UNL A   1      35.532  34.564  28.955  1.00  0.00     0.014 A 
ATOM     32  C   UNL A   1      35.053  32.891  31.141  1.00  0.00     0.010 A 
ATOM     33  C   UNL A   1      36.576  33.828  29.504  1.00  0.00     0.010 A 
ATOM     34  C   UNL A   1      36.347  32.991  30.607  1.00  0.00    -0.014 A 
BRANCH  34  35
ATOM     35  C   UNL A   1      37.484  32.244  31.198  1.00  0.00     0.031 A 
ATOM     36  C   UNL A   1      37.968  32.587  32.578  1.00  0.00     0.074 A 
ATOM     37  C   UNL A   1      38.119  31.307  30.472  1.00  0.00     0.049 A 
ATOM     38  N   UNL A   1      38.981  32.098  33.249  1.00  0.00    -0.248 NA
ATOM     39  C   UNL A   1      37.233  33.645  33.288  1.00  0.00     0.031 C 
ATOM     40  C   UNL A   1      37.770  30.915  29.105  1.00  0.00     0.029 A 
ATOM     41  N   UNL A   1      39.196  30.516  30.780  1.00  0.00    -0.354 N 
ATOM     42  C   UNL A   1      39.016  32.802  34.444  1.00  0.00     0.074 A 
ATOM     43  C   UNL A   1      37.960  33.790  34.385  1.00  0.00     0.031 C 
ATOM     44  C   UNL A   1      38.595  29.933  28.707  1.00  0.00     0.029 A 
ATOM     45  C   UNL A   1      39.550  29.652  29.774  1.00  0.00     0.049 A 
ATOM     46  H   UNL A   1      39.671  30.563  31.642  1.00  0.00     0.167 HD
ATOM     47  C   UNL A   1      39.838  32.625  35.506  1.00  0.00     0.037 A 
ATOM     48  C   UNL A   1      40.532  28.733  29.724  1.00  0.00     0.037 A 
ATOM     49  C   UNL A   1      40.865  31.620  35.572  1.00  0.00     0.049 A 
ATOM     50  C   UNL A   1      41.436  28.557  30.913  1.00  0.00     0.074 A 
ATOM     51  C   UNL A   1      41.707  31.312  36.626  1.00  0.00     0.029 A 
ATOM     52  N   UNL A   1      41.191  30.758  34.534  1.00  0.00    -0.354 N 
ATOM     53  N   UNL A   1      41.419  29.180  32.065  1.00  0.00    -0.248 NA
ATOM     54  C   UNL A   1      42.496  27.546  30.792  1.00  0.00     0.031 C 
ATOM     55  C   UNL A   1      42.570  30.291  36.212  1.00  0.00     0.029 A 
ATOM     56  C   UNL A   1      42.236  29.931  34.916  1.00  0.00     0.049 A 
ATOM     57  H   UNL A   1      40.746  30.737  33.657  1.00  0.00     0.167 HD
ATOM     58  C   UNL A   1      42.437  28.615  32.821  1.00  0.00     0.074 A 
ATOM     59  C   UNL A   1      43.050  27.594  31.995  1.00  0.00     0.031 C 
ATOM     60  C   UNL A   1      42.826  28.912  34.085  1.00  0.00     0.037 A 
BRANCH  47  61
ATOM     61  C   UNL A   1      39.653  33.547  36.677  1.00  0.00     0.064 A 
ATOM     62  C   UNL A   1      38.821  33.210  37.755  1.00  0.00     0.173 A 
ATOM     63  C   UNL A   1      40.311  34.784  36.719  1.00  0.00     0.173 A 
ATOM     64  F   UNL A   1      38.158  32.043  37.758  1.00  0.00    -0.203 F 
ATOM     65  C   UNL A   1      38.619  34.096  38.810  1.00  0.00     0.198 A 
ATOM     66  C   UNL A   1      40.134  35.655  37.791  1.00  0.00     0.198 A 
ATOM     67  F   UNL A   1      41.124  35.154  35.718  1.00  0.00    -0.203 F 
ATOM     68  F   UNL A   1      37.767  33.780  39.796  1.00  0.00    -0.200 F 
ATOM     69  C   UNL A   1      39.279  35.316  38.830  1.00  0.00     0.200 A 
ATOM     70  F   UNL A   1      40.780  36.828  37.814  1.00  0.00    -0.200 F 
ATOM     71  F   UNL A   1      39.080  36.170  39.842  1.00  0.00    -0.200 F 
ENDBRANCH  47  61
BRANCH  48  72
ATOM     72  C   UNL A   1      40.674  27.867  28.525  1.00  0.00     0.064 A 
ATOM     73  C   UNL A   1      40.020  26.629  28.462  1.00  0.00     0.173 A 
ATOM     74  C   UNL A   1      41.446  28.256  27.422  1.00  0.00     0.173 A 
ATOM     75  F   UNL A   1      39.285  26.207  29.502  1.00  0.00    -0.203 F 
ATOM     76  C   UNL A   1      40.141  25.806  27.344  1.00  0.00     0.198 A 
ATOM     77  C   UNL A   1      41.549  27.443  26.295  1.00  0.00     0.198 A 
ATOM     78  F   UNL A   1      42.089  29.433  27.433  1.00  0.00    -0.203 F 
ATOM     79  F   UNL A   1      39.532  24.614  27.324  1.00  0.00    -0.200 F 
ATOM     80  C   UNL A   1      40.900  26.217  26.259  1.00  0.00     0.200 A 
ATOM     81  F   UNL A   1      42.274  27.848  25.244  1.00  0.00    -0.200 F 
ATOM     82  F   UNL A   1      41.013  25.430  25.182  1.00  0.00    -0.200 F 
ENDBRANCH  48  72
BRANCH  60  83
ATOM     83  C   UNL A   1      43.939  28.094  34.671  1.00  0.00     0.064 A 
ATOM     84  C   UNL A   1      43.694  26.888  35.342  1.00  0.00     0.173 A 
ATOM     85  C   UNL A   1      45.273  28.507  34.525  1.00  0.00     0.173 A 
ATOM     86  F   UNL A   1      42.436  26.459  35.521  1.00  0.00    -0.203 F 
ATOM     87  C   UNL A   1      44.742  26.136  35.867  1.00  0.00     0.198 A 
ATOM     88  C   UNL A   1      46.319  27.739  35.027  1.00  0.00     0.198 A 
ATOM     89  F   UNL A   1      45.560  29.652  33.886  1.00  0.00    -0.203 F 
ATOM     90  F   UNL A   1      44.483  25.010  36.544  1.00  0.00    -0.200 F 
ATOM     91  C   UNL A   1      46.053  26.559  35.702  1.00  0.00     0.200 A 
ATOM     92  F   UNL A   1      47.586  28.143  34.856  1.00  0.00    -0.200 F 
ATOM     93  F   UNL A   1      47.061  25.830  36.203  1.00  0.00    -0.200 F 
ENDBRANCH  60  83
ENDBRANCH  34  35
ENDBRANCH  26  29
ENDBRANCH  24  25
ENDBRANCH  23  24
ENDBRANCH   1  23
TORSDOF 14
ENDMDL
MODEL 3
REMARK VINA RESULT:     -12.4      6.896     12.061
REMARK SMILES Cn1ccc(S(=O)(=O)N[C@H]2C=C[C@@H](C(=O)NCCCCNC(=O)c3ccc(-c4c5nc(c(-c6c(F)c(F)c(F)c(F)c6F)c6ccc([nH]6)c(-c6c(F)c(F)c(F)c(F)c6F)c6nc(c(-c7c(F)c(F)c(F)c(F)c7F)c7ccc4[nH]7)C=C6)C=C5)cc3)C2)c1
REMARK SMILES IDX 18 1 17 2 16 3 14 4 15 5 13 7 10 8 11 9 87 10 12 11 9 12
REMARK SMILES IDX 6 14 7 15 8 16 5 17 1 18 2 19 3 20 88 21 4 22 19 23 20 24
REMARK SMILES IDX 21 25 22 26 23 28 24 29 25 30 86 31 26 32 85 33 27 34 28 35
REMARK SMILES IDX 29 36 79 37 30 38 84 39 78 40 80 41 31 42 83 43 77 44 76 45
REMARK SMILES IDX 32 47 64 48 44 49 63 50 45 51 48 52 62 53 81 54 46 55 47 56
REMARK SMILES IDX 61 58 82 59 49 60 33 61 34 62 42 63 35 64 36 65 40 66 43 67
REMARK SMILES IDX 37 68 38 69 41 70 39 71 65 72 66 73 74 74 67 75 68 76 72 77
REMARK SMILES IDX 75 78 69 79 70 80 73 81 71 82 50 83 51 84 59 85 52 86 53 87
REMARK SMILES IDX 57 88 60 89 54 90 55 91 58 92 56 93
REMARK H PARENT 16 6 9 13 21 27 80 46 48 57
REMARK Flexibility Score: inf
ROOT
ATOM      1  C   UNL A   1      37.133  20.408  25.013  1.00  0.00     0.023 C 
ENDROOT
BRANCH   1   2
ATOM      2  C   UNL A   1      37.381  21.698  24.233  1.00  0.00     0.116 C 
BRANCH   2   3
ATOM      3  N   UNL A   1      37.898  22.750  25.085  1.00  0.00    -0.356 N 
ATOM      4  C   UNL A   1      37.261  23.729  25.782  1.00  0.00     0.226 C 
ATOM      5  O   UNL A   1      37.969  24.485  26.456  1.00  0.00    -0.274 OA
ATOM      6  H   UNL A   1      38.879  22.759  25.173  1.00  0.00     0.163 HD
BRANCH   4   7
ATOM      7  C   UNL A   1      35.740  23.913  25.772  1.00  0.00     0.103 C 
ATOM      8  C   UNL A   1      33.855  22.527  24.973  1.00  0.00     0.093 C 
ATOM      9  C   UNL A   1      34.041  22.444  26.448  1.00  0.00    -0.011 C 
ATOM     10  C   UNL A   1      35.015  23.433  24.509  1.00  0.00     0.042 C 
ATOM     11  C   UNL A   1      35.055  23.196  26.888  1.00  0.00    -0.016 C 
BRANCH   8  12
ATOM     12  N   UNL A   1      33.898  21.251  24.260  1.00  0.00    -0.204 NA
ATOM     13  H   UNL A   1      34.171  21.478  23.304  1.00  0.00     0.142 HD
BRANCH  12  14
ATOM     14  S   UNL A   1      32.599  20.205  24.125  1.00  0.00     0.242 S 
ATOM     15  O   UNL A   1      32.134  20.231  22.758  1.00  0.00    -0.207 OA
ATOM     16  O   UNL A   1      31.712  20.512  25.224  1.00  0.00    -0.207 OA
BRANCH  14  17
ATOM     17  C   UNL A   1      33.114  18.586  24.407  1.00  0.00     0.100 A 
ATOM     18  C   UNL A   1      32.729  15.149  25.467  1.00  0.00     0.149 C 
ATOM     19  N   UNL A   1      33.148  16.443  24.980  1.00  0.00    -0.356 N 
ATOM     20  C   UNL A   1      34.439  16.790  24.679  1.00  0.00     0.086 A 
ATOM     21  C   UNL A   1      32.323  17.517  24.780  1.00  0.00     0.106 A 
ATOM     22  C   UNL A   1      34.450  18.120  24.319  1.00  0.00     0.041 A 
ENDBRANCH  14  17
ENDBRANCH  12  14
ENDBRANCH   8  12
ENDBRANCH   4   7
ENDBRANCH   2   3
ENDBRANCH   1   2
BRANCH   1  23
ATOM     23  C   UNL A   1      38.302  19.424  24.996  1.00  0.00     0.023 C 
BRANCH  23  24
ATOM     24  C   UNL A   1      39.545  19.891  25.743  1.00  0.00     0.116 C 
BRANCH  24  25
ATOM     25  N   UNL A   1      40.554  18.852  25.886  1.00  0.00    -0.352 N 
ATOM     26  C   UNL A   1      41.897  18.992  26.138  1.00  0.00     0.251 C 
ATOM     27  H   UNL A   1      40.231  17.928  25.788  1.00  0.00     0.163 HD
ATOM     28  O   UNL A   1      42.645  18.021  26.108  1.00  0.00    -0.269 OA
BRANCH  26  29
ATOM     29  C   UNL A   1      42.448  20.335  26.412  1.00  0.00     0.039 A 
ATOM     30  C   UNL A   1      43.004  21.065  25.358  1.00  0.00     0.014 A 
ATOM     31  C   UNL A   1      42.399  20.878  27.699  1.00  0.00     0.014 A 
ATOM     32  C   UNL A   1      43.456  22.367  25.583  1.00  0.00     0.010 A 
ATOM     33  C   UNL A   1      42.778  22.199  27.905  1.00  0.00     0.010 A 
ATOM     34  C   UNL A   1      43.318  22.953  26.852  1.00  0.00    -0.014 A 
BRANCH  34  35
ATOM     35  C   UNL A   1      43.749  24.349  27.105  1.00  0.00     0.031 A 
ATOM     36  C   UNL A   1      42.764  25.352  27.635  1.00  0.00     0.074 A 
ATOM     37  C   UNL A   1      45.003  24.728  26.799  1.00  0.00     0.049 A 
ATOM     38  N   UNL A   1      42.923  26.631  27.866  1.00  0.00    -0.248 NA
ATOM     39  C   UNL A   1      41.407  24.856  27.914  1.00  0.00     0.031 C 
ATOM     40  C   UNL A   1      46.037  23.858  26.239  1.00  0.00     0.029 A 
ATOM     41  N   UNL A   1      45.619  25.949  26.911  1.00  0.00    -0.354 N 
ATOM     42  C   UNL A   1      41.686  27.093  28.293  1.00  0.00     0.074 A 
ATOM     43  C   UNL A   1      40.773  25.973  28.237  1.00  0.00     0.031 C 
ATOM     44  C   UNL A   1      47.170  24.563  26.090  1.00  0.00     0.029 A 
ATOM     45  C   UNL A   1      46.931  25.940  26.510  1.00  0.00     0.049 A 
ATOM     46  H   UNL A   1      45.163  26.754  27.247  1.00  0.00     0.167 HD
ATOM     47  C   UNL A   1      41.348  28.334  28.718  1.00  0.00     0.037 A 
ATOM     48  C   UNL A   1      47.840  26.933  26.490  1.00  0.00     0.037 A 
ATOM     49  C   UNL A   1      42.269  29.437  28.802  1.00  0.00     0.049 A 
ATOM     50  C   UNL A   1      47.440  28.304  26.962  1.00  0.00     0.074 A 
ATOM     51  C   UNL A   1      42.045  30.715  29.283  1.00  0.00     0.029 A 
ATOM     52  N   UNL A   1      43.593  29.389  28.392  1.00  0.00    -0.354 N 
ATOM     53  N   UNL A   1      46.288  28.716  27.429  1.00  0.00    -0.248 NA
ATOM     54  C   UNL A   1      48.473  29.348  26.905  1.00  0.00     0.031 C 
ATOM     55  C   UNL A   1      43.224  31.453  29.125  1.00  0.00     0.029 A 
ATOM     56  C   UNL A   1      44.195  30.622  28.589  1.00  0.00     0.049 A 
ATOM     57  H   UNL A   1      44.040  28.597  28.016  1.00  0.00     0.167 HD
ATOM     58  C   UNL A   1      46.463  30.054  27.756  1.00  0.00     0.074 A 
ATOM     59  C   UNL A   1      47.838  30.383  27.437  1.00  0.00     0.031 C 
ATOM     60  C   UNL A   1      45.568  30.929  28.277  1.00  0.00     0.037 A 
BRANCH  47  61
ATOM     61  C   UNL A   1      39.918  28.555  29.119  1.00  0.00     0.064 A 
ATOM     62  C   UNL A   1      38.964  29.036  28.209  1.00  0.00     0.173 A 
ATOM     63  C   UNL A   1      39.497  28.290  30.430  1.00  0.00     0.173 A 
ATOM     64  F   UNL A   1      39.318  29.318  26.945  1.00  0.00    -0.203 F 
ATOM     65  C   UNL A   1      37.653  29.286  28.608  1.00  0.00     0.198 A 
ATOM     66  C   UNL A   1      38.178  28.509  30.818  1.00  0.00     0.198 A 
ATOM     67  F   UNL A   1      40.366  27.823  31.339  1.00  0.00    -0.203 F 
ATOM     68  F   UNL A   1      36.777  29.808  27.738  1.00  0.00    -0.200 F 
ATOM     69  C   UNL A   1      37.260  29.018  29.911  1.00  0.00     0.200 A 
ATOM     70  F   UNL A   1      37.796  28.239  32.073  1.00  0.00    -0.200 F 
ATOM     71  F   UNL A   1      36.001  29.262  30.295  1.00  0.00    -0.200 F 
ENDBRANCH  47  61
BRANCH  48  72
ATOM     72  C   UNL A   1      49.233  26.652  26.061  1.00  0.00     0.064 A 
ATOM     73  C   UNL A   1      50.168  26.142  26.972  1.00  0.00     0.173 A 
ATOM     74  C   UNL A   1      49.657  26.870  24.742  1.00  0.00     0.173 A 
ATOM     75  F   UNL A   1      49.813  25.936  28.250  1.00  0.00    -0.203 F 
ATOM     76  C   UNL A   1      51.479  25.872  26.585  1.00  0.00     0.198 A 
ATOM     77  C   UNL A   1      50.961  26.578  24.350  1.00  0.00     0.198 A 
ATOM     78  F   UNL A   1      48.799  27.353  23.832  1.00  0.00    -0.203 F 
ATOM     79  F   UNL A   1      52.360  25.417  27.485  1.00  0.00    -0.200 F 
ATOM     80  C   UNL A   1      51.873  26.083  25.273  1.00  0.00     0.200 A 
ATOM     81  F   UNL A   1      51.336  26.773  23.079  1.00  0.00    -0.200 F 
ATOM     82  F   UNL A   1      53.130  25.818  24.898  1.00  0.00    -0.200 F 
ENDBRANCH  48  72
BRANCH  60  83
ATOM     83  C   UNL A   1      46.058  32.315  28.577  1.00  0.00     0.064 A 
ATOM     84  C   UNL A   1      45.980  33.345  27.630  1.00  0.00     0.173 A 
ATOM     85  C   UNL A   1      46.581  32.621  29.843  1.00  0.00     0.173 A 
ATOM     86  F   UNL A   1      45.504  33.099  26.401  1.00  0.00    -0.203 F 
ATOM     87  C   UNL A   1      46.429  34.628  27.932  1.00  0.00     0.198 A 
ATOM     88  C   UNL A   1      47.003  33.911  30.150  1.00  0.00     0.198 A 
ATOM     89  F   UNL A   1      46.672  31.670  30.785  1.00  0.00    -0.203 F 
ATOM     90  F   UNL A   1      46.387  35.588  26.998  1.00  0.00    -0.200 F 
ATOM     91  C   UNL A   1      46.933  34.912  29.194  1.00  0.00     0.200 A 
ATOM     92  F   UNL A   1      47.477  34.186  31.373  1.00  0.00    -0.200 F 
ATOM     93  F   UNL A   1      47.358  36.150  29.484  1.00  0.00    -0.200 F 
ENDBRANCH  60  83
ENDBRANCH  34  35
ENDBRANCH  26  29
ENDBRANCH  24  25
ENDBRANCH  23  24
ENDBRANCH   1  23
TORSDOF 14
ENDMDL
