MODEL 1
REMARK VINA RESULT:     -12.8      0.000      0.000
REMARK SMILES CC(C)n1ccc(C[C@@H](C(=O)NCCCCNC(=O)c2ccc(-c3c4nc(c(-c5c(F)c(F)c(F)c(F)c5F)c5ccc([nH]5)c(-c5c(F)c(F)c(F)c(F)c5F)c5nc(c(-c6c(F)c(F)c(F)c(F)c6F)c6ccc3[nH]6)C=C5)C=C4)cc2)c2cccc(Cl)c2)n1
REMARK SMILES IDX 14 1 13 2 12 3 10 4 11 5 9 7 8 8 7 9 4 10 5 11 90 12 6 13
REMARK SMILES IDX 2 14 1 15 3 16 83 17 84 18 89 19 85 20 87 21 86 22 88 23
REMARK SMILES IDX 15 24 16 25 17 26 18 27 19 29 20 30 21 31 82 32 22 33 81 34
REMARK SMILES IDX 23 35 24 36 25 37 75 38 26 39 80 40 74 41 76 42 27 43 79 44
REMARK SMILES IDX 73 45 72 46 28 48 60 49 40 50 59 51 41 52 44 53 58 54 77 55
REMARK SMILES IDX 42 56 43 57 57 59 78 60 45 61 29 62 30 63 38 64 31 65 32 66
REMARK SMILES IDX 36 67 39 68 33 69 34 70 37 71 35 72 61 73 62 74 70 75 63 76
REMARK SMILES IDX 64 77 68 78 71 79 65 80 66 81 69 82 67 83 46 84 47 85 55 86
REMARK SMILES IDX 48 87 49 88 53 89 56 90 50 91 51 92 54 93 52 94
REMARK H PARENT 12 6 17 28 76 47 44 58
REMARK Flexibility Score: inf
ROOT
ATOM      1  C   UNL A   1      37.389  23.123  25.241  1.00  0.00     0.023 C 
ENDROOT
BRANCH   1   2
ATOM      2  C   UNL A   1      36.085  23.286  26.037  1.00  0.00     0.116 C 
BRANCH   2   3
ATOM      3  N   UNL A   1      35.626  21.994  26.514  1.00  0.00    -0.356 N 
ATOM      4  C   UNL A   1      34.432  21.408  26.174  1.00  0.00     0.227 C 
ATOM      5  O   UNL A   1      33.744  20.997  27.113  1.00  0.00    -0.274 OA
ATOM      6  H   UNL A   1      36.216  21.500  27.129  1.00  0.00     0.163 HD
BRANCH   4   7
ATOM      7  C   UNL A   1      34.021  21.231  24.693  1.00  0.00     0.114 C 
BRANCH   7   8
ATOM      8  C   UNL A   1      32.662  21.921  24.433  1.00  0.00     0.076 C 
BRANCH   8   9
ATOM      9  C   UNL A   1      32.428  23.271  25.023  1.00  0.00     0.064 A 
ATOM     10  N   UNL A   1      32.491  25.379  25.288  1.00  0.00    -0.270 N 
ATOM     11  C   UNL A   1      31.580  24.937  26.209  1.00  0.00     0.109 A 
ATOM     12  N   UNL A   1      33.028  24.376  24.553  1.00  0.00    -0.178 NA
ATOM     13  C   UNL A   1      31.502  23.577  26.049  1.00  0.00     0.045 A 
BRANCH  10  14
ATOM     14  C   UNL A   1      32.849  26.778  25.067  1.00  0.00     0.101 C 
ATOM     15  C   UNL A   1      33.794  27.346  26.126  1.00  0.00     0.033 C 
ATOM     16  C   UNL A   1      33.411  26.976  23.662  1.00  0.00     0.033 C 
ENDBRANCH  10  14
ENDBRANCH   8   9
ENDBRANCH   7   8
BRANCH   7  17
ATOM     17  C   UNL A   1      33.839  19.735  24.281  1.00  0.00    -0.034 A 
ATOM     18  C   UNL A   1      32.706  19.361  23.527  1.00  0.00     0.004 A 
ATOM     19  C   UNL A   1      34.680  18.696  24.723  1.00  0.00     0.025 A 
ATOM     20  C   UNL A   1      32.369  18.016  23.327  1.00  0.00     0.002 A 
ATOM     21  C   UNL A   1      34.345  17.353  24.514  1.00  0.00     0.041 A 
ATOM     22  C   UNL A   1      33.180  17.008  23.837  1.00  0.00     0.020 A 
ATOM     23  Cl  UNL A   1      35.362  16.109  25.137  1.00  0.00    -0.084 Cl
ENDBRANCH   7  17
ENDBRANCH   4   7
ENDBRANCH   2   3
ENDBRANCH   1   2
BRANCH   1  24
ATOM     24  C   UNL A   1      38.139  21.794  25.338  1.00  0.00     0.023 C 
BRANCH  24  25
ATOM     25  C   UNL A   1      39.201  21.746  26.426  1.00  0.00     0.116 C 
BRANCH  25  26
ATOM     26  N   UNL A   1      40.569  21.893  25.918  1.00  0.00    -0.352 N 
ATOM     27  C   UNL A   1      41.398  22.994  26.033  1.00  0.00     0.251 C 
ATOM     28  H   UNL A   1      40.941  21.119  25.439  1.00  0.00     0.163 HD
ATOM     29  O   UNL A   1      42.418  23.120  25.368  1.00  0.00    -0.269 OA
BRANCH  27  30
ATOM     30  C   UNL A   1      40.993  24.025  26.999  1.00  0.00     0.039 A 
ATOM     31  C   UNL A   1      41.760  24.265  28.139  1.00  0.00     0.014 A 
ATOM     32  C   UNL A   1      40.015  24.918  26.576  1.00  0.00     0.014 A 
ATOM     33  C   UNL A   1      41.638  25.498  28.780  1.00  0.00     0.010 A 
ATOM     34  C   UNL A   1      40.003  26.181  27.132  1.00  0.00     0.010 A 
ATOM     35  C   UNL A   1      40.805  26.491  28.238  1.00  0.00    -0.014 A 
BRANCH  35  36
ATOM     36  C   UNL A   1      40.874  27.873  28.747  1.00  0.00     0.031 A 
ATOM     37  C   UNL A   1      41.968  28.768  28.230  1.00  0.00     0.074 A 
ATOM     38  C   UNL A   1      39.899  28.460  29.475  1.00  0.00     0.049 A 
ATOM     39  N   UNL A   1      42.872  29.399  28.912  1.00  0.00    -0.248 NA
ATOM     40  C   UNL A   1      42.067  28.993  26.779  1.00  0.00     0.031 C 
ATOM     41  C   UNL A   1      38.591  27.930  29.877  1.00  0.00     0.029 A 
ATOM     42  N   UNL A   1      39.855  29.745  29.931  1.00  0.00    -0.354 N 
ATOM     43  C   UNL A   1      43.581  30.198  28.011  1.00  0.00     0.074 A 
ATOM     44  C   UNL A   1      43.086  29.854  26.701  1.00  0.00     0.031 C 
ATOM     45  C   UNL A   1      37.799  28.942  30.289  1.00  0.00     0.029 A 
ATOM     46  C   UNL A   1      38.609  30.139  30.384  1.00  0.00     0.049 A 
ATOM     47  H   UNL A   1      40.640  30.339  29.938  1.00  0.00     0.167 HD
ATOM     48  C   UNL A   1      44.435  31.183  28.419  1.00  0.00     0.037 A 
ATOM     49  C   UNL A   1      38.247  31.361  30.827  1.00  0.00     0.037 A 
ATOM     50  C   UNL A   1      44.795  31.035  29.803  1.00  0.00     0.049 A 
ATOM     51  C   UNL A   1      39.474  32.059  31.270  1.00  0.00     0.074 A 
ATOM     52  C   UNL A   1      45.439  30.065  30.548  1.00  0.00     0.029 A 
ATOM     53  N   UNL A   1      44.224  31.871  30.728  1.00  0.00    -0.354 N 
ATOM     54  N   UNL A   1      40.187  31.695  32.299  1.00  0.00    -0.248 NA
ATOM     55  C   UNL A   1      40.135  32.954  30.334  1.00  0.00     0.031 C 
ATOM     56  C   UNL A   1      44.777  30.074  31.813  1.00  0.00     0.029 A 
ATOM     57  C   UNL A   1      43.800  31.071  31.757  1.00  0.00     0.049 A 
ATOM     58  H   UNL A   1      44.136  32.849  30.666  1.00  0.00     0.167 HD
ATOM     59  C   UNL A   1      41.496  31.968  31.935  1.00  0.00     0.074 A 
ATOM     60  C   UNL A   1      41.389  32.851  30.779  1.00  0.00     0.031 C 
ATOM     61  C   UNL A   1      42.536  31.236  32.433  1.00  0.00     0.037 A 
BRANCH  48  62
ATOM     62  C   UNL A   1      44.771  32.446  27.656  1.00  0.00     0.064 A 
ATOM     63  C   UNL A   1      46.000  32.542  26.964  1.00  0.00     0.173 A 
ATOM     64  C   UNL A   1      44.072  33.657  27.818  1.00  0.00     0.173 A 
ATOM     65  F   UNL A   1      46.764  31.458  26.769  1.00  0.00    -0.203 F 
ATOM     66  C   UNL A   1      46.516  33.768  26.531  1.00  0.00     0.198 A 
ATOM     67  C   UNL A   1      44.566  34.874  27.340  1.00  0.00     0.198 A 
ATOM     68  F   UNL A   1      42.944  33.727  28.535  1.00  0.00    -0.203 F 
ATOM     69  F   UNL A   1      47.739  33.823  25.987  1.00  0.00    -0.200 F 
ATOM     70  C   UNL A   1      45.800  34.935  26.724  1.00  0.00     0.200 A 
ATOM     71  F   UNL A   1      43.868  35.998  27.549  1.00  0.00    -0.200 F 
ATOM     72  F   UNL A   1      46.316  36.117  26.362  1.00  0.00    -0.200 F 
ENDBRANCH  48  62
BRANCH  49  73
ATOM     73  C   UNL A   1      36.929  32.006  30.691  1.00  0.00     0.064 A 
ATOM     74  C   UNL A   1      36.011  32.028  31.747  1.00  0.00     0.173 A 
ATOM     75  C   UNL A   1      36.644  32.829  29.582  1.00  0.00     0.173 A 
ATOM     76  F   UNL A   1      36.236  31.303  32.852  1.00  0.00    -0.203 F 
ATOM     77  C   UNL A   1      34.874  32.841  31.704  1.00  0.00     0.198 A 
ATOM     78  C   UNL A   1      35.507  33.633  29.537  1.00  0.00     0.198 A 
ATOM     79  F   UNL A   1      37.509  32.929  28.561  1.00  0.00    -0.203 F 
ATOM     80  F   UNL A   1      34.041  32.878  32.753  1.00  0.00    -0.200 F 
ATOM     81  C   UNL A   1      34.628  33.649  30.604  1.00  0.00     0.200 A 
ATOM     82  F   UNL A   1      35.299  34.433  28.482  1.00  0.00    -0.200 F 
ATOM     83  F   UNL A   1      33.568  34.467  30.588  1.00  0.00    -0.200 F 
ENDBRANCH  49  73
BRANCH  61  84
ATOM     84  C   UNL A   1      42.264  30.315  33.589  1.00  0.00     0.064 A 
ATOM     85  C   UNL A   1      41.856  28.979  33.440  1.00  0.00     0.173 A 
ATOM     86  C   UNL A   1      42.575  30.750  34.884  1.00  0.00     0.173 A 
ATOM     87  F   UNL A   1      41.648  28.454  32.228  1.00  0.00    -0.203 F 
ATOM     88  C   UNL A   1      41.716  28.134  34.540  1.00  0.00     0.198 A 
ATOM     89  C   UNL A   1      42.470  29.894  35.978  1.00  0.00     0.198 A 
ATOM     90  F   UNL A   1      43.034  31.996  35.083  1.00  0.00    -0.203 F 
ATOM     91  F   UNL A   1      41.315  26.866  34.366  1.00  0.00    -0.200 F 
ATOM     92  C   UNL A   1      42.030  28.591  35.808  1.00  0.00     0.200 A 
ATOM     93  F   UNL A   1      42.825  30.323  37.196  1.00  0.00    -0.200 F 
ATOM     94  F   UNL A   1      41.937  27.767  36.861  1.00  0.00    -0.200 F 
ENDBRANCH  61  84
ENDBRANCH  35  36
ENDBRANCH  27  30
ENDBRANCH  25  26
ENDBRANCH  24  25
ENDBRANCH   1  24
TORSDOF 15
ENDMDL
MODEL 2
REMARK VINA RESULT:     -12.6      1.712      3.546
REMARK SMILES CC(C)n1ccc(C[C@@H](C(=O)NCCCCNC(=O)c2ccc(-c3c4nc(c(-c5c(F)c(F)c(F)c(F)c5F)c5ccc([nH]5)c(-c5c(F)c(F)c(F)c(F)c5F)c5nc(c(-c6c(F)c(F)c(F)c(F)c6F)c6ccc3[nH]6)C=C5)C=C4)cc2)c2cccc(Cl)c2)n1
REMARK SMILES IDX 14 1 13 2 12 3 10 4 11 5 9 7 8 8 7 9 4 10 5 11 90 12 6 13
REMARK SMILES IDX 2 14 1 15 3 16 83 17 84 18 89 19 85 20 87 21 86 22 88 23
REMARK SMILES IDX 15 24 16 25 17 26 18 27 19 29 20 30 21 31 82 32 22 33 81 34
REMARK SMILES IDX 23 35 24 36 25 37 75 38 26 39 80 40 74 41 76 42 27 43 79 44
REMARK SMILES IDX 73 45 72 46 28 48 60 49 40 50 59 51 41 52 44 53 58 54 77 55
REMARK SMILES IDX 42 56 43 57 57 59 78 60 45 61 29 62 30 63 38 64 31 65 32 66
REMARK SMILES IDX 36 67 39 68 33 69 34 70 37 71 35 72 61 73 62 74 70 75 63 76
REMARK SMILES IDX 64 77 68 78 71 79 65 80 66 81 69 82 67 83 46 84 47 85 55 86
REMARK SMILES IDX 48 87 49 88 53 89 56 90 50 91 51 92 54 93 52 94
REMARK H PARENT 12 6 17 28 76 47 44 58
REMARK Flexibility Score: inf
ROOT
ATOM      1  C   UNL A   1      38.279  22.516  25.786  1.00  0.00     0.023 C 
ENDROOT
BRANCH   1   2
ATOM      2  C   UNL A   1      36.806  22.280  25.422  1.00  0.00     0.116 C 
BRANCH   2   3
ATOM      3  N   UNL A   1      36.292  23.406  24.662  1.00  0.00    -0.356 N 
ATOM      4  C   UNL A   1      35.037  23.477  24.112  1.00  0.00     0.227 C 
ATOM      5  O   UNL A   1      34.985  23.802  22.922  1.00  0.00    -0.274 OA
ATOM      6  H   UNL A   1      36.890  24.178  24.533  1.00  0.00     0.163 HD
BRANCH   4   7
ATOM      7  C   UNL A   1      33.773  23.219  24.966  1.00  0.00     0.114 C 
BRANCH   7   8
ATOM      8  C   UNL A   1      32.654  22.610  24.089  1.00  0.00     0.076 C 
BRANCH   8   9
ATOM      9  C   UNL A   1      32.719  21.154  23.768  1.00  0.00     0.064 A 
ATOM     10  N   UNL A   1      33.107  19.075  23.970  1.00  0.00    -0.270 N 
ATOM     11  C   UNL A   1      32.342  19.180  22.840  1.00  0.00     0.109 A 
ATOM     12  N   UNL A   1      33.356  20.272  24.553  1.00  0.00    -0.178 NA
ATOM     13  C   UNL A   1      32.057  20.514  22.694  1.00  0.00     0.045 A 
BRANCH  10  14
ATOM     14  C   UNL A   1      33.597  17.821  24.538  1.00  0.00     0.101 C 
ATOM     15  C   UNL A   1      32.587  17.120  25.447  1.00  0.00     0.033 C 
ATOM     16  C   UNL A   1      34.092  16.886  23.438  1.00  0.00     0.033 C 
ENDBRANCH  10  14
ENDBRANCH   8   9
ENDBRANCH   7   8
BRANCH   7  17
ATOM     17  C   UNL A   1      33.179  24.521  25.592  1.00  0.00    -0.034 A 
ATOM     18  C   UNL A   1      31.794  24.588  25.860  1.00  0.00     0.004 A 
ATOM     19  C   UNL A   1      33.923  25.699  25.797  1.00  0.00     0.025 A 
ATOM     20  C   UNL A   1      31.170  25.794  26.200  1.00  0.00     0.002 A 
ATOM     21  C   UNL A   1      33.297  26.902  26.145  1.00  0.00     0.041 A 
ATOM     22  C   UNL A   1      31.919  26.959  26.325  1.00  0.00     0.020 A 
ATOM     23  Cl  UNL A   1      34.233  28.338  26.312  1.00  0.00    -0.084 Cl
ENDBRANCH   7  17
ENDBRANCH   4   7
ENDBRANCH   2   3
ENDBRANCH   1   2
BRANCH   1  24
ATOM     24  C   UNL A   1      39.232  21.319  25.771  1.00  0.00     0.023 C 
BRANCH  24  25
ATOM     25  C   UNL A   1      40.440  21.462  26.685  1.00  0.00     0.116 C 
BRANCH  25  26
ATOM     26  N   UNL A   1      41.659  21.886  25.988  1.00  0.00    -0.352 N 
ATOM     27  C   UNL A   1      42.186  23.162  25.912  1.00  0.00     0.251 C 
ATOM     28  H   UNL A   1      42.159  21.182  25.518  1.00  0.00     0.163 HD
ATOM     29  O   UNL A   1      43.058  23.465  25.108  1.00  0.00    -0.269 OA
BRANCH  27  30
ATOM     30  C   UNL A   1      41.644  24.156  26.849  1.00  0.00     0.039 A 
ATOM     31  C   UNL A   1      42.231  24.341  28.101  1.00  0.00     0.014 A 
ATOM     32  C   UNL A   1      40.744  25.075  26.322  1.00  0.00     0.014 A 
ATOM     33  C   UNL A   1      42.019  25.547  28.767  1.00  0.00     0.010 A 
ATOM     34  C   UNL A   1      40.652  26.314  26.923  1.00  0.00     0.010 A 
ATOM     35  C   UNL A   1      41.279  26.570  28.149  1.00  0.00    -0.014 A 
BRANCH  35  36
ATOM     36  C   UNL A   1      41.276  27.929  28.721  1.00  0.00     0.031 A 
ATOM     37  C   UNL A   1      42.379  28.871  28.323  1.00  0.00     0.074 A 
ATOM     38  C   UNL A   1      40.236  28.460  29.401  1.00  0.00     0.049 A 
ATOM     39  N   UNL A   1      43.216  29.492  29.097  1.00  0.00    -0.248 NA
ATOM     40  C   UNL A   1      42.576  29.164  26.895  1.00  0.00     0.031 C 
ATOM     41  C   UNL A   1      38.917  27.883  29.683  1.00  0.00     0.029 A 
ATOM     42  N   UNL A   1      40.125  29.722  29.908  1.00  0.00    -0.354 N 
ATOM     43  C   UNL A   1      43.966  30.347  28.284  1.00  0.00     0.074 A 
ATOM     44  C   UNL A   1      43.574  30.051  26.929  1.00  0.00     0.031 C 
ATOM     45  C   UNL A   1      38.071  28.856  30.080  1.00  0.00     0.029 A 
ATOM     46  C   UNL A   1      38.840  30.066  30.285  1.00  0.00     0.049 A 
ATOM     47  H   UNL A   1      40.891  30.333  29.997  1.00  0.00     0.167 HD
ATOM     48  C   UNL A   1      44.762  31.332  28.796  1.00  0.00     0.037 A 
ATOM     49  C   UNL A   1      38.415  31.258  30.754  1.00  0.00     0.037 A 
ATOM     50  C   UNL A   1      45.026  31.131  30.194  1.00  0.00     0.049 A 
ATOM     51  C   UNL A   1      39.588  31.963  31.313  1.00  0.00     0.074 A 
ATOM     52  C   UNL A   1      45.640  30.143  30.941  1.00  0.00     0.029 A 
ATOM     53  N   UNL A   1      44.368  31.911  31.110  1.00  0.00    -0.354 N 
ATOM     54  N   UNL A   1      40.235  31.571  32.375  1.00  0.00    -0.248 NA
ATOM     55  C   UNL A   1      40.291  32.915  30.468  1.00  0.00     0.031 C 
ATOM     56  C   UNL A   1      44.890  30.081  32.154  1.00  0.00     0.029 A 
ATOM     57  C   UNL A   1      43.894  31.055  32.070  1.00  0.00     0.049 A 
ATOM     58  H   UNL A   1      44.259  32.889  31.084  1.00  0.00     0.167 HD
ATOM     59  C   UNL A   1      41.560  31.890  32.120  1.00  0.00     0.074 A 
ATOM     60  C   UNL A   1      41.512  32.821  30.998  1.00  0.00     0.031 C 
ATOM     61  C   UNL A   1      42.580  31.161  32.660  1.00  0.00     0.037 A 
BRANCH  48  62
ATOM     62  C   UNL A   1      45.118  32.635  28.114  1.00  0.00     0.064 A 
ATOM     63  C   UNL A   1      44.112  33.598  27.870  1.00  0.00     0.173 A 
ATOM     64  C   UNL A   1      46.336  32.848  27.439  1.00  0.00     0.173 A 
ATOM     65  F   UNL A   1      42.904  33.487  28.441  1.00  0.00    -0.203 F 
ATOM     66  C   UNL A   1      44.293  34.650  26.966  1.00  0.00     0.198 A 
ATOM     67  C   UNL A   1      46.530  33.930  26.575  1.00  0.00     0.198 A 
ATOM     68  F   UNL A   1      47.339  31.965  27.504  1.00  0.00    -0.203 F 
ATOM     69  F   UNL A   1      43.270  35.467  26.679  1.00  0.00    -0.200 F 
ATOM     70  C   UNL A   1      45.502  34.813  26.315  1.00  0.00     0.200 A 
ATOM     71  F   UNL A   1      47.702  34.064  25.939  1.00  0.00    -0.200 F 
ATOM     72  F   UNL A   1      45.660  35.785  25.407  1.00  0.00    -0.200 F 
ENDBRANCH  48  62
BRANCH  49  73
ATOM     73  C   UNL A   1      37.094  31.878  30.550  1.00  0.00     0.064 A 
ATOM     74  C   UNL A   1      36.117  31.869  31.553  1.00  0.00     0.173 A 
ATOM     75  C   UNL A   1      36.854  32.707  29.436  1.00  0.00     0.173 A 
ATOM     76  F   UNL A   1      36.295  31.136  32.661  1.00  0.00    -0.203 F 
ATOM     77  C   UNL A   1      34.968  32.659  31.454  1.00  0.00     0.198 A 
ATOM     78  C   UNL A   1      35.704  33.489  29.335  1.00  0.00     0.198 A 
ATOM     79  F   UNL A   1      37.772  32.836  28.466  1.00  0.00    -0.203 F 
ATOM     80  F   UNL A   1      34.077  32.667  32.455  1.00  0.00    -0.200 F 
ATOM     81  C   UNL A   1      34.767  33.474  30.351  1.00  0.00     0.200 A 
ATOM     82  F   UNL A   1      35.539  34.297  28.279  1.00  0.00    -0.200 F 
ATOM     83  F   UNL A   1      33.693  34.271  30.284  1.00  0.00    -0.200 F 
ENDBRANCH  49  73
BRANCH  61  84
ATOM     84  C   UNL A   1      42.251  30.183  33.752  1.00  0.00     0.064 A 
ATOM     85  C   UNL A   1      41.818  28.867  33.514  1.00  0.00     0.173 A 
ATOM     86  C   UNL A   1      42.530  30.536  35.078  1.00  0.00     0.173 A 
ATOM     87  F   UNL A   1      41.638  28.416  32.268  1.00  0.00    -0.203 F 
ATOM     88  C   UNL A   1      41.624  27.965  34.559  1.00  0.00     0.198 A 
ATOM     89  C   UNL A   1      42.370  29.622  36.118  1.00  0.00     0.198 A 
ATOM     90  F   UNL A   1      43.009  31.757  35.363  1.00  0.00    -0.203 F 
ATOM     91  F   UNL A   1      41.200  26.719  34.300  1.00  0.00    -0.200 F 
ATOM     92  C   UNL A   1      41.907  28.342  35.860  1.00  0.00     0.200 A 
ATOM     93  F   UNL A   1      42.695  29.973  37.369  1.00  0.00    -0.200 F 
ATOM     94  F   UNL A   1      41.762  27.462  36.861  1.00  0.00    -0.200 F 
ENDBRANCH  61  84
ENDBRANCH  35  36
ENDBRANCH  27  30
ENDBRANCH  25  26
ENDBRANCH  24  25
ENDBRANCH   1  24
TORSDOF 15
ENDMDL
MODEL 3
REMARK VINA RESULT:     -12.5      3.076      5.070
REMARK SMILES CC(C)n1ccc(C[C@@H](C(=O)NCCCCNC(=O)c2ccc(-c3c4nc(c(-c5c(F)c(F)c(F)c(F)c5F)c5ccc([nH]5)c(-c5c(F)c(F)c(F)c(F)c5F)c5nc(c(-c6c(F)c(F)c(F)c(F)c6F)c6ccc3[nH]6)C=C5)C=C4)cc2)c2cccc(Cl)c2)n1
REMARK SMILES IDX 14 1 13 2 12 3 10 4 11 5 9 7 8 8 7 9 4 10 5 11 90 12 6 13
REMARK SMILES IDX 2 14 1 15 3 16 83 17 84 18 89 19 85 20 87 21 86 22 88 23
REMARK SMILES IDX 15 24 16 25 17 26 18 27 19 29 20 30 21 31 82 32 22 33 81 34
REMARK SMILES IDX 23 35 24 36 25 37 75 38 26 39 80 40 74 41 76 42 27 43 79 44
REMARK SMILES IDX 73 45 72 46 28 48 60 49 40 50 59 51 41 52 44 53 58 54 77 55
REMARK SMILES IDX 42 56 43 57 57 59 78 60 45 61 29 62 30 63 38 64 31 65 32 66
REMARK SMILES IDX 36 67 39 68 33 69 34 70 37 71 35 72 61 73 62 74 70 75 63 76
REMARK SMILES IDX 64 77 68 78 71 79 65 80 66 81 69 82 67 83 46 84 47 85 55 86
REMARK SMILES IDX 48 87 49 88 53 89 56 90 50 91 51 92 54 93 52 94
REMARK H PARENT 12 6 17 28 76 47 44 58
REMARK Flexibility Score: inf
ROOT
ATOM      1  C   UNL A   1      40.004  21.411  26.235  1.00  0.00     0.023 C 
ENDROOT
BRANCH   1   2
ATOM      2  C   UNL A   1      38.476  21.298  26.119  1.00  0.00     0.116 C 
BRANCH   2   3
ATOM      3  N   UNL A   1      37.970  22.298  25.195  1.00  0.00    -0.356 N 
ATOM      4  C   UNL A   1      36.814  22.181  24.464  1.00  0.00     0.227 C 
ATOM      5  O   UNL A   1      36.914  22.409  23.255  1.00  0.00    -0.274 OA
ATOM      6  H   UNL A   1      38.497  23.123  25.084  1.00  0.00     0.163 HD
BRANCH   4   7
ATOM      7  C   UNL A   1      35.469  21.840  25.146  1.00  0.00     0.114 C 
BRANCH   7   8
ATOM      8  C   UNL A   1      34.563  21.054  24.169  1.00  0.00     0.076 C 
BRANCH   8   9
ATOM      9  C   UNL A   1      33.977  19.762  24.631  1.00  0.00     0.064 A 
ATOM     10  N   UNL A   1      33.737  17.676  24.960  1.00  0.00    -0.270 N 
ATOM     11  C   UNL A   1      32.770  18.266  25.730  1.00  0.00     0.109 A 
ATOM     12  N   UNL A   1      34.485  18.573  24.273  1.00  0.00    -0.178 NA
ATOM     13  C   UNL A   1      32.913  19.619  25.554  1.00  0.00     0.045 A 
BRANCH  10  14
ATOM     14  C   UNL A   1      33.989  16.239  24.885  1.00  0.00     0.101 C 
ATOM     15  C   UNL A   1      35.379  15.831  25.376  1.00  0.00     0.033 C 
ATOM     16  C   UNL A   1      32.896  15.460  25.611  1.00  0.00     0.033 C 
ENDBRANCH  10  14
ENDBRANCH   8   9
ENDBRANCH   7   8
BRANCH   7  17
ATOM     17  C   UNL A   1      34.658  23.106  25.572  1.00  0.00    -0.034 A 
ATOM     18  C   UNL A   1      33.662  22.985  26.565  1.00  0.00     0.004 A 
ATOM     19  C   UNL A   1      34.771  24.357  24.934  1.00  0.00     0.025 A 
ATOM     20  C   UNL A   1      32.754  24.019  26.823  1.00  0.00     0.002 A 
ATOM     21  C   UNL A   1      33.867  25.392  25.200  1.00  0.00     0.041 A 
ATOM     22  C   UNL A   1      32.844  25.220  26.126  1.00  0.00     0.020 A 
ATOM     23  Cl  UNL A   1      33.992  26.881  24.343  1.00  0.00    -0.084 Cl
ENDBRANCH   7  17
ENDBRANCH   4   7
ENDBRANCH   2   3
ENDBRANCH   1   2
BRANCH   1  24
ATOM     24  C   UNL A   1      40.846  20.159  25.979  1.00  0.00     0.023 C 
BRANCH  24  25
ATOM     25  C   UNL A   1      42.273  20.241  26.499  1.00  0.00     0.116 C 
BRANCH  25  26
ATOM     26  N   UNL A   1      43.254  19.579  25.633  1.00  0.00    -0.352 N 
ATOM     27  C   UNL A   1      44.176  20.175  24.793  1.00  0.00     0.251 C 
ATOM     28  H   UNL A   1      43.256  18.595  25.651  1.00  0.00     0.163 HD
ATOM     29  O   UNL A   1      44.776  19.550  23.928  1.00  0.00    -0.269 OA
BRANCH  27  30
ATOM     30  C   UNL A   1      44.404  21.615  24.981  1.00  0.00     0.039 A 
ATOM     31  C   UNL A   1      43.499  22.546  24.473  1.00  0.00     0.014 A 
ATOM     32  C   UNL A   1      45.367  21.969  25.918  1.00  0.00     0.014 A 
ATOM     33  C   UNL A   1      43.471  23.825  25.029  1.00  0.00     0.010 A 
ATOM     34  C   UNL A   1      45.239  23.189  26.553  1.00  0.00     0.010 A 
ATOM     35  C   UNL A   1      44.299  24.133  26.121  1.00  0.00    -0.014 A 
BRANCH  35  36
ATOM     36  C   UNL A   1      44.088  25.379  26.881  1.00  0.00     0.031 A 
ATOM     37  C   UNL A   1      45.013  26.537  26.621  1.00  0.00     0.074 A 
ATOM     38  C   UNL A   1      42.992  25.630  27.631  1.00  0.00     0.049 A 
ATOM     39  N   UNL A   1      45.755  27.172  27.474  1.00  0.00    -0.248 NA
ATOM     40  C   UNL A   1      45.124  27.055  25.249  1.00  0.00     0.031 C 
ATOM     41  C   UNL A   1      41.793  24.808  27.829  1.00  0.00     0.029 A 
ATOM     42  N   UNL A   1      42.689  26.772  28.313  1.00  0.00    -0.354 N 
ATOM     43  C   UNL A   1      46.335  28.245  26.792  1.00  0.00     0.074 A 
ATOM     44  C   UNL A   1      45.964  28.082  25.408  1.00  0.00     0.031 C 
ATOM     45  C   UNL A   1      40.809  25.562  28.361  1.00  0.00     0.029 A 
ATOM     46  C   UNL A   1      41.375  26.842  28.736  1.00  0.00     0.049 A 
ATOM     47  H   UNL A   1      43.347  27.482  28.488  1.00  0.00     0.167 HD
ATOM     48  C   UNL A   1      46.972  29.266  27.438  1.00  0.00     0.037 A 
ATOM     49  C   UNL A   1      40.772  27.870  29.371  1.00  0.00     0.037 A 
ATOM     50  C   UNL A   1      47.299  28.917  28.793  1.00  0.00     0.049 A 
ATOM     51  C   UNL A   1      41.827  28.673  30.024  1.00  0.00     0.074 A 
ATOM     52  C   UNL A   1      48.085  27.949  29.391  1.00  0.00     0.029 A 
ATOM     53  N   UNL A   1      46.545  29.440  29.812  1.00  0.00    -0.354 N 
ATOM     54  N   UNL A   1      42.555  28.248  31.019  1.00  0.00    -0.248 NA
ATOM     55  C   UNL A   1      42.344  29.837  29.323  1.00  0.00     0.031 C 
ATOM     56  C   UNL A   1      47.384  27.593  30.583  1.00  0.00     0.029 A 
ATOM     57  C   UNL A   1      46.241  28.392  30.640  1.00  0.00     0.049 A 
ATOM     58  H   UNL A   1      46.277  30.380  29.926  1.00  0.00     0.167 HD
ATOM     59  C   UNL A   1      43.803  28.814  30.810  1.00  0.00     0.074 A 
ATOM     60  C   UNL A   1      43.577  29.873  29.832  1.00  0.00     0.031 C 
ATOM     61  C   UNL A   1      44.942  28.195  31.240  1.00  0.00     0.037 A 
BRANCH  48  62
ATOM     62  C   UNL A   1      47.093  30.693  26.949  1.00  0.00     0.064 A 
ATOM     63  C   UNL A   1      48.348  31.344  26.985  1.00  0.00     0.173 A 
ATOM     64  C   UNL A   1      45.984  31.531  26.723  1.00  0.00     0.173 A 
ATOM     65  F   UNL A   1      49.473  30.651  27.215  1.00  0.00    -0.203 F 
ATOM     66  C   UNL A   1      48.469  32.733  26.872  1.00  0.00     0.198 A 
ATOM     67  C   UNL A   1      46.114  32.914  26.560  1.00  0.00     0.198 A 
ATOM     68  F   UNL A   1      44.731  31.063  26.759  1.00  0.00    -0.203 F 
ATOM     69  F   UNL A   1      49.667  33.313  27.032  1.00  0.00    -0.200 F 
ATOM     70  C   UNL A   1      47.351  33.518  26.664  1.00  0.00     0.200 A 
ATOM     71  F   UNL A   1      45.018  33.662  26.376  1.00  0.00    -0.200 F 
ATOM     72  F   UNL A   1      47.457  34.852  26.613  1.00  0.00    -0.200 F 
ENDBRANCH  48  62
BRANCH  49  73
ATOM     73  C   UNL A   1      39.363  28.285  29.258  1.00  0.00     0.064 A 
ATOM     74  C   UNL A   1      38.521  28.333  30.376  1.00  0.00     0.173 A 
ATOM     75  C   UNL A   1      38.881  28.877  28.073  1.00  0.00     0.173 A 
ATOM     76  F   UNL A   1      38.928  27.827  31.549  1.00  0.00    -0.203 F 
ATOM     77  C   UNL A   1      37.269  28.953  30.317  1.00  0.00     0.198 A 
ATOM     78  C   UNL A   1      37.630  29.489  28.013  1.00  0.00     0.198 A 
ATOM     79  F   UNL A   1      39.652  28.946  26.978  1.00  0.00    -0.203 F 
ATOM     80  F   UNL A   1      36.509  29.027  31.418  1.00  0.00    -0.200 F 
ATOM     81  C   UNL A   1      36.829  29.538  29.139  1.00  0.00     0.200 A 
ATOM     82  F   UNL A   1      37.231  30.078  26.878  1.00  0.00    -0.200 F 
ATOM     83  F   UNL A   1      35.654  30.179  29.099  1.00  0.00    -0.200 F 
ENDBRANCH  49  73
BRANCH  61  84
ATOM     84  C   UNL A   1      44.804  27.032  32.182  1.00  0.00     0.064 A 
ATOM     85  C   UNL A   1      44.642  27.171  33.571  1.00  0.00     0.173 A 
ATOM     86  C   UNL A   1      44.676  25.744  31.647  1.00  0.00     0.173 A 
ATOM     87  F   UNL A   1      44.638  28.378  34.146  1.00  0.00    -0.203 F 
ATOM     88  C   UNL A   1      44.414  26.067  34.390  1.00  0.00     0.198 A 
ATOM     89  C   UNL A   1      44.412  24.646  32.463  1.00  0.00     0.198 A 
ATOM     90  F   UNL A   1      44.754  25.556  30.320  1.00  0.00    -0.203 F 
ATOM     91  F   UNL A   1      44.275  26.231  35.715  1.00  0.00    -0.200 F 
ATOM     92  C   UNL A   1      44.293  24.806  33.834  1.00  0.00     0.200 A 
ATOM     93  F   UNL A   1      44.243  23.435  31.916  1.00  0.00    -0.200 F 
ATOM     94  F   UNL A   1      44.032  23.749  34.616  1.00  0.00    -0.200 F 
ENDBRANCH  61  84
ENDBRANCH  35  36
ENDBRANCH  27  30
ENDBRANCH  25  26
ENDBRANCH  24  25
ENDBRANCH   1  24
TORSDOF 15
ENDMDL
