MODEL 1
REMARK VINA RESULT:     -11.9      0.000      0.000
REMARK SMILES O=C(Cc1ccccc1[C@H]1CCC[NH2+]1)NCCCCNC(=O)c1ccc(-c2c3nc(c(-c4c(F)c(F)c(F)c(F)c4F)c4ccc([nH]4)c(-c4c(F)c(F)c(F)c(F)c4F)c4nc(c(-c5c(F)c(F)c(F)c(F)c5F)c5ccc2[nH]5)C=C4)C=C3)cc1
REMARK SMILES IDX 17 1 16 2 15 3 1 4 2 5 3 7 4 8 5 9 9 10 6 11 8 12 7 13 10 14
REMARK SMILES IDX 11 15 14 16 12 17 13 18 18 21 19 22 20 23 21 24 22 26 23 27
REMARK SMILES IDX 24 28 85 29 25 30 84 31 26 32 27 33 28 34 78 35 29 36 83 37
REMARK SMILES IDX 77 38 79 39 30 40 82 41 76 42 75 43 31 45 63 46 43 47 62 48
REMARK SMILES IDX 44 49 47 50 61 51 80 52 45 53 46 54 60 56 81 57 48 58 32 59
REMARK SMILES IDX 33 60 41 61 34 62 35 63 39 64 42 65 36 66 37 67 40 68 38 69
REMARK SMILES IDX 64 70 65 71 73 72 66 73 67 74 71 75 74 76 68 77 69 78 72 79
REMARK SMILES IDX 70 80 49 81 50 82 58 83 51 84 52 85 56 86 59 87 53 88 54 89
REMARK SMILES IDX 57 90 55 91
REMARK H PARENT 15 6 14 19 14 20 20 25 79 44 47 55
REMARK Flexibility Score: inf
ROOT
ATOM      1  C   UNL A   1      37.379  21.065  24.614  1.00  0.00     0.023 C 
ENDROOT
BRANCH   1   2
ATOM      2  C   UNL A   1      36.520  21.568  25.772  1.00  0.00     0.116 C 
BRANCH   2   3
ATOM      3  N   UNL A   1      35.113  21.322  25.546  1.00  0.00    -0.356 N 
ATOM      4  O   UNL A   1      34.452  21.587  27.734  1.00  0.00    -0.275 OA
ATOM      5  C   UNL A   1      34.175  21.352  26.562  1.00  0.00     0.224 C 
ATOM      6  H   UNL A   1      34.809  21.125  24.631  1.00  0.00     0.163 HD
BRANCH   5   7
ATOM      7  C   UNL A   1      32.764  21.037  26.092  1.00  0.00     0.136 C 
BRANCH   7   8
ATOM      8  C   UNL A   1      32.551  20.905  24.589  1.00  0.00    -0.030 A 
ATOM      9  C   UNL A   1      32.318  22.074  23.825  1.00  0.00     0.005 A 
ATOM     10  C   UNL A   1      32.502  19.642  23.933  1.00  0.00     0.013 A 
ATOM     11  C   UNL A   1      32.039  22.026  22.461  1.00  0.00     0.000 A 
ATOM     12  C   UNL A   1      32.147  19.632  22.560  1.00  0.00     0.010 A 
ATOM     13  C   UNL A   1      31.938  20.801  21.830  1.00  0.00     0.001 A 
BRANCH  10  14
ATOM     14  C   UNL A   1      32.664  18.264  24.599  1.00  0.00     0.214 C 
ATOM     15  C   UNL A   1      32.746  17.076  23.628  1.00  0.00     0.076 C 
ATOM     16  N   UNL A   1      33.900  18.053  25.376  1.00  0.00    -0.340 N 
ATOM     17  C   UNL A   1      34.207  17.043  23.225  1.00  0.00     0.068 C 
ATOM     18  C   UNL A   1      34.932  17.575  24.444  1.00  0.00     0.261 C 
ATOM     19  H   UNL A   1      33.738  17.357  26.104  1.00  0.00     0.346 HD
ATOM     20  H   UNL A   1      34.195  18.920  25.826  1.00  0.00     0.346 HD
ENDBRANCH  10  14
ENDBRANCH   7   8
ENDBRANCH   5   7
ENDBRANCH   2   3
ENDBRANCH   1   2
BRANCH   1  21
ATOM     21  C   UNL A   1      38.240  19.837  24.929  1.00  0.00     0.023 C 
BRANCH  21  22
ATOM     22  C   UNL A   1      39.276  20.028  26.033  1.00  0.00     0.116 C 
BRANCH  22  23
ATOM     23  N   UNL A   1      40.337  19.033  25.990  1.00  0.00    -0.352 N 
ATOM     24  C   UNL A   1      41.697  19.192  26.091  1.00  0.00     0.251 C 
ATOM     25  H   UNL A   1      40.033  18.104  25.872  1.00  0.00     0.163 HD
ATOM     26  O   UNL A   1      42.443  18.238  25.882  1.00  0.00    -0.269 OA
BRANCH  24  27
ATOM     27  C   UNL A   1      42.277  20.513  26.421  1.00  0.00     0.039 A 
ATOM     28  C   UNL A   1      42.708  21.337  25.377  1.00  0.00     0.014 A 
ATOM     29  C   UNL A   1      42.408  20.939  27.744  1.00  0.00     0.014 A 
ATOM     30  C   UNL A   1      43.203  22.614  25.656  1.00  0.00     0.010 A 
ATOM     31  C   UNL A   1      42.829  22.240  28.017  1.00  0.00     0.010 A 
ATOM     32  C   UNL A   1      43.229  23.092  26.976  1.00  0.00    -0.014 A 
BRANCH  32  33
ATOM     33  C   UNL A   1      43.657  24.483  27.283  1.00  0.00     0.031 A 
ATOM     34  C   UNL A   1      42.666  25.488  27.803  1.00  0.00     0.074 A 
ATOM     35  C   UNL A   1      44.927  24.860  27.034  1.00  0.00     0.049 A 
ATOM     36  N   UNL A   1      42.836  26.760  28.065  1.00  0.00    -0.248 NA
ATOM     37  C   UNL A   1      41.296  25.007  28.035  1.00  0.00     0.031 C 
ATOM     38  C   UNL A   1      45.974  23.993  26.491  1.00  0.00     0.029 A 
ATOM     39  N   UNL A   1      45.552  26.072  27.194  1.00  0.00    -0.354 N 
ATOM     40  C   UNL A   1      41.597  27.231  28.477  1.00  0.00     0.074 A 
ATOM     41  C   UNL A   1      40.671  26.124  28.379  1.00  0.00     0.031 C 
ATOM     42  C   UNL A   1      47.116  24.691  26.388  1.00  0.00     0.029 A 
ATOM     43  C   UNL A   1      46.872  26.067  26.814  1.00  0.00     0.049 A 
ATOM     44  H   UNL A   1      45.096  26.869  27.547  1.00  0.00     0.167 HD
ATOM     45  C   UNL A   1      41.265  28.470  28.916  1.00  0.00     0.037 A 
ATOM     46  C   UNL A   1      47.781  27.060  26.799  1.00  0.00     0.037 A 
ATOM     47  C   UNL A   1      42.193  29.565  29.032  1.00  0.00     0.049 A 
ATOM     48  C   UNL A   1      47.380  28.432  27.271  1.00  0.00     0.074 A 
ATOM     49  C   UNL A   1      41.967  30.838  29.526  1.00  0.00     0.029 A 
ATOM     50  N   UNL A   1      43.523  29.520  28.639  1.00  0.00    -0.354 N 
ATOM     51  N   UNL A   1      46.223  28.846  27.727  1.00  0.00    -0.248 NA
ATOM     52  C   UNL A   1      48.415  29.475  27.231  1.00  0.00     0.031 C 
ATOM     53  C   UNL A   1      43.143  31.580  29.378  1.00  0.00     0.029 A 
ATOM     54  C   UNL A   1      44.120  30.752  28.852  1.00  0.00     0.049 A 
ATOM     55  H   UNL A   1      43.975  28.729  28.267  1.00  0.00     0.167 HD
ATOM     56  C   UNL A   1      46.400  30.182  28.060  1.00  0.00     0.074 A 
ATOM     57  C   UNL A   1      47.779  30.507  27.765  1.00  0.00     0.031 C 
ATOM     58  C   UNL A   1      45.499  31.061  28.563  1.00  0.00     0.037 A 
BRANCH  45  59
ATOM     59  C   UNL A   1      39.833  28.712  29.302  1.00  0.00     0.064 A 
ATOM     60  C   UNL A   1      39.374  28.505  30.612  1.00  0.00     0.173 A 
ATOM     61  C   UNL A   1      38.915  29.199  28.357  1.00  0.00     0.173 A 
ATOM     62  F   UNL A   1      40.206  28.032  31.552  1.00  0.00    -0.203 F 
ATOM     63  C   UNL A   1      38.046  28.746  30.955  1.00  0.00     0.198 A 
ATOM     64  C   UNL A   1      37.597  29.472  28.712  1.00  0.00     0.198 A 
ATOM     65  F   UNL A   1      39.300  29.423  27.092  1.00  0.00    -0.203 F 
ATOM     66  F   UNL A   1      37.619  28.490  32.199  1.00  0.00    -0.200 F 
ATOM     67  C   UNL A   1      37.160  29.236  30.007  1.00  0.00     0.200 A 
ATOM     68  F   UNL A   1      36.746  29.960  27.798  1.00  0.00    -0.200 F 
ATOM     69  F   UNL A   1      35.885  29.476  30.340  1.00  0.00    -0.200 F 
ENDBRANCH  45  59
BRANCH  46  70
ATOM     70  C   UNL A   1      49.171  26.792  26.339  1.00  0.00     0.064 A 
ATOM     71  C   UNL A   1      49.539  27.000  25.003  1.00  0.00     0.173 A 
ATOM     72  C   UNL A   1      50.153  26.310  27.217  1.00  0.00     0.173 A 
ATOM     73  F   UNL A   1      48.631  27.440  24.119  1.00  0.00    -0.203 F 
ATOM     74  C   UNL A   1      50.827  26.715  24.556  1.00  0.00     0.198 A 
ATOM     75  C   UNL A   1      51.450  26.055  26.778  1.00  0.00     0.198 A 
ATOM     76  F   UNL A   1      49.855  26.097  28.507  1.00  0.00    -0.203 F 
ATOM     77  F   UNL A   1      51.137  26.872  23.262  1.00  0.00    -0.200 F 
ATOM     78  C   UNL A   1      51.783  26.247  25.445  1.00  0.00     0.200 A 
ATOM     79  F   UNL A   1      52.374  25.618  27.643  1.00  0.00    -0.200 F 
ATOM     80  F   UNL A   1      53.023  25.974  25.017  1.00  0.00    -0.200 F 
ENDBRANCH  46  70
BRANCH  58  81
ATOM     81  C   UNL A   1      45.984  32.450  28.872  1.00  0.00     0.064 A 
ATOM     82  C   UNL A   1      46.551  32.777  30.113  1.00  0.00     0.173 A 
ATOM     83  C   UNL A   1      45.915  33.458  27.898  1.00  0.00     0.173 A 
ATOM     84  F   UNL A   1      46.628  31.855  31.085  1.00  0.00    -0.203 F 
ATOM     85  C   UNL A   1      47.004  34.068  30.376  1.00  0.00     0.198 A 
ATOM     86  C   UNL A   1      46.400  34.737  28.151  1.00  0.00     0.198 A 
ATOM     87  F   UNL A   1      45.388  33.198  26.691  1.00  0.00    -0.203 F 
ATOM     88  F   UNL A   1      47.494  34.370  31.586  1.00  0.00    -0.200 F 
ATOM     89  C   UNL A   1      46.936  35.043  29.393  1.00  0.00     0.200 A 
ATOM     90  F   UNL A   1      46.349  35.674  27.195  1.00  0.00    -0.200 F 
ATOM     91  F   UNL A   1      47.381  36.283  29.645  1.00  0.00    -0.200 F 
ENDBRANCH  58  81
ENDBRANCH  32  33
ENDBRANCH  24  27
ENDBRANCH  22  23
ENDBRANCH  21  22
ENDBRANCH   1  21
TORSDOF 13
ENDMDL
MODEL 2
REMARK VINA RESULT:     -11.9      3.651      7.648
REMARK SMILES O=C(Cc1ccccc1[C@H]1CCC[NH2+]1)NCCCCNC(=O)c1ccc(-c2c3nc(c(-c4c(F)c(F)c(F)c(F)c4F)c4ccc([nH]4)c(-c4c(F)c(F)c(F)c(F)c4F)c4nc(c(-c5c(F)c(F)c(F)c(F)c5F)c5ccc2[nH]5)C=C4)C=C3)cc1
REMARK SMILES IDX 17 1 16 2 15 3 1 4 2 5 3 7 4 8 5 9 9 10 6 11 8 12 7 13 10 14
REMARK SMILES IDX 11 15 14 16 12 17 13 18 18 21 19 22 20 23 21 24 22 26 23 27
REMARK SMILES IDX 24 28 85 29 25 30 84 31 26 32 27 33 28 34 78 35 29 36 83 37
REMARK SMILES IDX 77 38 79 39 30 40 82 41 76 42 75 43 31 45 63 46 43 47 62 48
REMARK SMILES IDX 44 49 47 50 61 51 80 52 45 53 46 54 60 56 81 57 48 58 32 59
REMARK SMILES IDX 33 60 41 61 34 62 35 63 39 64 42 65 36 66 37 67 40 68 38 69
REMARK SMILES IDX 64 70 65 71 73 72 66 73 67 74 71 75 74 76 68 77 69 78 72 79
REMARK SMILES IDX 70 80 49 81 50 82 58 83 51 84 52 85 56 86 59 87 53 88 54 89
REMARK SMILES IDX 57 90 55 91
REMARK H PARENT 15 6 14 19 14 20 20 25 79 44 47 55
REMARK Flexibility Score: inf
ROOT
ATOM      1  C   UNL A   1      32.590  26.517  26.111  1.00  0.00     0.023 C 
ENDROOT
BRANCH   1   2
ATOM      2  C   UNL A   1      33.574  26.428  24.947  1.00  0.00     0.116 C 
BRANCH   2   3
ATOM      3  N   UNL A   1      33.714  25.072  24.463  1.00  0.00    -0.356 N 
ATOM      4  O   UNL A   1      33.888  25.615  22.233  1.00  0.00    -0.275 OA
ATOM      5  C   UNL A   1      33.862  24.769  23.121  1.00  0.00     0.224 C 
ATOM      6  H   UNL A   1      33.702  24.335  25.114  1.00  0.00     0.163 HD
BRANCH   5   7
ATOM      7  C   UNL A   1      33.965  23.276  22.847  1.00  0.00     0.136 C 
BRANCH   7   8
ATOM      8  C   UNL A   1      34.940  22.482  23.708  1.00  0.00    -0.030 A 
ATOM      9  C   UNL A   1      36.330  22.673  23.519  1.00  0.00     0.005 A 
ATOM     10  C   UNL A   1      34.507  21.500  24.643  1.00  0.00     0.013 A 
ATOM     11  C   UNL A   1      37.282  21.928  24.212  1.00  0.00     0.000 A 
ATOM     12  C   UNL A   1      35.506  20.717  25.277  1.00  0.00     0.010 A 
ATOM     13  C   UNL A   1      36.869  20.937  25.082  1.00  0.00     0.001 A 
BRANCH  10  14
ATOM     14  C   UNL A   1      33.051  21.105  24.940  1.00  0.00     0.214 C 
ATOM     15  C   UNL A   1      32.305  20.436  23.774  1.00  0.00     0.076 C 
ATOM     16  N   UNL A   1      32.847  20.095  25.995  1.00  0.00    -0.340 N 
ATOM     17  C   UNL A   1      32.712  18.980  23.878  1.00  0.00     0.068 C 
ATOM     18  C   UNL A   1      32.936  18.771  25.362  1.00  0.00     0.261 C 
ATOM     19  H   UNL A   1      31.928  20.216  26.421  1.00  0.00     0.346 HD
ATOM     20  H   UNL A   1      33.552  20.192  26.727  1.00  0.00     0.346 HD
ENDBRANCH  10  14
ENDBRANCH   7   8
ENDBRANCH   5   7
ENDBRANCH   2   3
ENDBRANCH   1   2
BRANCH   1  21
ATOM     21  C   UNL A   1      32.634  27.829  26.901  1.00  0.00     0.023 C 
BRANCH  21  22
ATOM     22  C   UNL A   1      33.961  28.580  26.853  1.00  0.00     0.116 C 
BRANCH  22  23
ATOM     23  N   UNL A   1      33.876  29.917  27.419  1.00  0.00    -0.352 N 
ATOM     24  C   UNL A   1      34.781  30.608  28.186  1.00  0.00     0.251 C 
ATOM     25  H   UNL A   1      33.040  30.400  27.223  1.00  0.00     0.163 HD
ATOM     26  O   UNL A   1      34.461  31.679  28.696  1.00  0.00    -0.269 OA
BRANCH  24  27
ATOM     27  C   UNL A   1      36.134  30.059  28.429  1.00  0.00     0.039 A 
ATOM     28  C   UNL A   1      37.090  30.158  27.414  1.00  0.00     0.014 A 
ATOM     29  C   UNL A   1      36.461  29.440  29.637  1.00  0.00     0.014 A 
ATOM     30  C   UNL A   1      38.392  29.703  27.637  1.00  0.00     0.010 A 
ATOM     31  C   UNL A   1      37.779  29.058  29.887  1.00  0.00     0.010 A 
ATOM     32  C   UNL A   1      38.759  29.187  28.891  1.00  0.00    -0.014 A 
BRANCH  32  33
ATOM     33  C   UNL A   1      40.163  28.791  29.180  1.00  0.00     0.031 A 
ATOM     34  C   UNL A   1      41.084  29.730  29.910  1.00  0.00     0.074 A 
ATOM     35  C   UNL A   1      40.629  27.609  28.730  1.00  0.00     0.049 A 
ATOM     36  N   UNL A   1      42.355  29.590  30.195  1.00  0.00    -0.248 NA
ATOM     37  C   UNL A   1      40.508  31.008  30.356  1.00  0.00     0.031 C 
ATOM     38  C   UNL A   1      39.850  26.627  27.975  1.00  0.00     0.029 A 
ATOM     39  N   UNL A   1      41.873  27.036  28.834  1.00  0.00    -0.354 N 
ATOM     40  C   UNL A   1      42.730  30.761  30.838  1.00  0.00     0.074 A 
ATOM     41  C   UNL A   1      41.570  31.625  30.854  1.00  0.00     0.031 C 
ATOM     42  C   UNL A   1      40.623  25.563  27.706  1.00  0.00     0.029 A 
ATOM     43  C   UNL A   1      41.965  25.806  28.229  1.00  0.00     0.049 A 
ATOM     44  H   UNL A   1      42.627  27.467  29.296  1.00  0.00     0.167 HD
ATOM     45  C   UNL A   1      43.930  31.080  31.384  1.00  0.00     0.037 A 
ATOM     46  C   UNL A   1      43.015  24.972  28.100  1.00  0.00     0.037 A 
ATOM     47  C   UNL A   1      45.077  30.211  31.385  1.00  0.00     0.049 A 
ATOM     48  C   UNL A   1      44.341  25.361  28.696  1.00  0.00     0.074 A 
ATOM     49  C   UNL A   1      46.316  30.418  31.968  1.00  0.00     0.029 A 
ATOM     50  N   UNL A   1      45.131  28.971  30.765  1.00  0.00    -0.354 N 
ATOM     51  N   UNL A   1      44.664  26.441  29.365  1.00  0.00    -0.248 NA
ATOM     52  C   UNL A   1      45.449  24.412  28.522  1.00  0.00     0.031 C 
ATOM     53  C   UNL A   1      47.137  29.332  31.651  1.00  0.00     0.029 A 
ATOM     54  C   UNL A   1      46.392  28.417  30.925  1.00  0.00     0.049 A 
ATOM     55  H   UNL A   1      44.385  28.547  30.284  1.00  0.00     0.167 HD
ATOM     56  C   UNL A   1      45.997  26.285  29.722  1.00  0.00     0.074 A 
ATOM     57  C   UNL A   1      46.420  25.001  29.205  1.00  0.00     0.031 C 
ATOM     58  C   UNL A   1      46.798  27.132  30.414  1.00  0.00     0.037 A 
BRANCH  45  59
ATOM     59  C   UNL A   1      44.066  32.433  32.025  1.00  0.00     0.064 A 
ATOM     60  C   UNL A   1      43.773  32.642  33.381  1.00  0.00     0.173 A 
ATOM     61  C   UNL A   1      44.537  33.527  31.281  1.00  0.00     0.173 A 
ATOM     62  F   UNL A   1      43.311  31.634  34.135  1.00  0.00    -0.203 F 
ATOM     63  C   UNL A   1      43.917  33.900  33.961  1.00  0.00     0.198 A 
ATOM     64  C   UNL A   1      44.712  34.775  31.873  1.00  0.00     0.198 A 
ATOM     65  F   UNL A   1      44.840  33.383  29.982  1.00  0.00    -0.203 F 
ATOM     66  F   UNL A   1      43.580  34.087  35.245  1.00  0.00    -0.200 F 
ATOM     67  C   UNL A   1      44.393  34.963  33.210  1.00  0.00     0.200 A 
ATOM     68  F   UNL A   1      45.188  35.798  31.148  1.00  0.00    -0.200 F 
ATOM     69  F   UNL A   1      44.539  36.171  33.770  1.00  0.00    -0.200 F 
ENDBRANCH  45  59
BRANCH  46  70
ATOM     70  C   UNL A   1      42.853  23.673  27.393  1.00  0.00     0.064 A 
ATOM     71  C   UNL A   1      43.244  23.529  26.055  1.00  0.00     0.173 A 
ATOM     72  C   UNL A   1      42.292  22.557  28.031  1.00  0.00     0.173 A 
ATOM     73  F   UNL A   1      43.766  24.573  25.394  1.00  0.00    -0.203 F 
ATOM     74  C   UNL A   1      43.059  22.327  25.374  1.00  0.00     0.198 A 
ATOM     75  C   UNL A   1      42.136  21.346  27.360  1.00  0.00     0.198 A 
ATOM     76  F   UNL A   1      41.904  22.639  29.312  1.00  0.00    -0.203 F 
ATOM     77  F   UNL A   1      43.393  22.233  24.080  1.00  0.00    -0.200 F 
ATOM     78  C   UNL A   1      42.510  21.235  26.029  1.00  0.00     0.200 A 
ATOM     79  F   UNL A   1      41.620  20.289  28.001  1.00  0.00    -0.200 F 
ATOM     80  F   UNL A   1      42.334  20.079  25.376  1.00  0.00    -0.200 F 
ENDBRANCH  46  70
BRANCH  58  81
ATOM     81  C   UNL A   1      48.204  26.679  30.695  1.00  0.00     0.064 A 
ATOM     82  C   UNL A   1      48.514  25.870  31.798  1.00  0.00     0.173 A 
ATOM     83  C   UNL A   1      49.248  27.031  29.827  1.00  0.00     0.173 A 
ATOM     84  F   UNL A   1      47.555  25.518  32.669  1.00  0.00    -0.203 F 
ATOM     85  C   UNL A   1      49.822  25.453  32.036  1.00  0.00     0.198 A 
ATOM     86  C   UNL A   1      50.548  26.584  30.047  1.00  0.00     0.198 A 
ATOM     87  F   UNL A   1      49.006  27.798  28.752  1.00  0.00    -0.203 F 
ATOM     88  F   UNL A   1      50.103  24.724  33.125  1.00  0.00    -0.200 F 
ATOM     89  C   UNL A   1      50.835  25.803  31.156  1.00  0.00     0.200 A 
ATOM     90  F   UNL A   1      51.523  26.909  29.188  1.00  0.00    -0.200 F 
ATOM     91  F   UNL A   1      52.092  25.394  31.383  1.00  0.00    -0.200 F 
ENDBRANCH  58  81
ENDBRANCH  32  33
ENDBRANCH  24  27
ENDBRANCH  22  23
ENDBRANCH  21  22
ENDBRANCH   1  21
TORSDOF 13
ENDMDL
MODEL 3
REMARK VINA RESULT:     -11.9      4.363      9.488
REMARK SMILES O=C(Cc1ccccc1[C@H]1CCC[NH2+]1)NCCCCNC(=O)c1ccc(-c2c3nc(c(-c4c(F)c(F)c(F)c(F)c4F)c4ccc([nH]4)c(-c4c(F)c(F)c(F)c(F)c4F)c4nc(c(-c5c(F)c(F)c(F)c(F)c5F)c5ccc2[nH]5)C=C4)C=C3)cc1
REMARK SMILES IDX 17 1 16 2 15 3 1 4 2 5 3 7 4 8 5 9 9 10 6 11 8 12 7 13 10 14
REMARK SMILES IDX 11 15 14 16 12 17 13 18 18 21 19 22 20 23 21 24 22 26 23 27
REMARK SMILES IDX 24 28 85 29 25 30 84 31 26 32 27 33 28 34 78 35 29 36 83 37
REMARK SMILES IDX 77 38 79 39 30 40 82 41 76 42 75 43 31 45 63 46 43 47 62 48
REMARK SMILES IDX 44 49 47 50 61 51 80 52 45 53 46 54 60 56 81 57 48 58 32 59
REMARK SMILES IDX 33 60 41 61 34 62 35 63 39 64 42 65 36 66 37 67 40 68 38 69
REMARK SMILES IDX 64 70 65 71 73 72 66 73 67 74 71 75 74 76 68 77 69 78 72 79
REMARK SMILES IDX 70 80 49 81 50 82 58 83 51 84 52 85 56 86 59 87 53 88 54 89
REMARK SMILES IDX 57 90 55 91
REMARK H PARENT 15 6 14 19 14 20 20 25 79 44 47 55
REMARK Flexibility Score: inf
ROOT
ATOM      1  C   UNL A   1      34.676  23.947  24.740  1.00  0.00     0.023 C 
ENDROOT
BRANCH   1   2
ATOM      2  C   UNL A   1      33.285  23.534  25.217  1.00  0.00     0.116 C 
BRANCH   2   3
ATOM      3  N   UNL A   1      32.360  24.646  25.208  1.00  0.00    -0.356 N 
ATOM      4  O   UNL A   1      31.360  24.161  27.223  1.00  0.00    -0.275 OA
ATOM      5  C   UNL A   1      31.456  24.875  26.230  1.00  0.00     0.224 C 
ATOM      6  H   UNL A   1      32.374  25.266  24.444  1.00  0.00     0.163 HD
BRANCH   5   7
ATOM      7  C   UNL A   1      30.569  26.087  25.992  1.00  0.00     0.136 C 
BRANCH   7   8
ATOM      8  C   UNL A   1      31.252  27.449  25.977  1.00  0.00    -0.030 A 
ATOM      9  C   UNL A   1      31.647  28.030  27.205  1.00  0.00     0.005 A 
ATOM     10  C   UNL A   1      31.441  28.194  24.778  1.00  0.00     0.013 A 
ATOM     11  C   UNL A   1      32.206  29.304  27.278  1.00  0.00     0.000 A 
ATOM     12  C   UNL A   1      31.948  29.513  24.903  1.00  0.00     0.010 A 
ATOM     13  C   UNL A   1      32.343  30.054  26.125  1.00  0.00     0.001 A 
BRANCH  10  14
ATOM     14  C   UNL A   1      31.021  27.764  23.363  1.00  0.00     0.214 C 
ATOM     15  C   UNL A   1      29.526  27.449  23.192  1.00  0.00     0.076 C 
ATOM     16  N   UNL A   1      31.202  28.763  22.292  1.00  0.00    -0.340 N 
ATOM     17  C   UNL A   1      28.899  28.808  22.955  1.00  0.00     0.068 C 
ATOM     18  C   UNL A   1      29.989  29.593  22.254  1.00  0.00     0.261 C 
ATOM     19  H   UNL A   1      31.331  28.293  21.396  1.00  0.00     0.346 HD
ATOM     20  H   UNL A   1      32.026  29.337  22.472  1.00  0.00     0.346 HD
ENDBRANCH  10  14
ENDBRANCH   7   8
ENDBRANCH   5   7
ENDBRANCH   2   3
ENDBRANCH   1   2
BRANCH   1  21
ATOM     21  C   UNL A   1      35.829  23.102  25.289  1.00  0.00     0.023 C 
BRANCH  21  22
ATOM     22  C   UNL A   1      37.219  23.717  25.149  1.00  0.00     0.116 C 
BRANCH  22  23
ATOM     23  N   UNL A   1      38.285  22.794  25.506  1.00  0.00    -0.352 N 
ATOM     24  C   UNL A   1      39.446  23.018  26.202  1.00  0.00     0.251 C 
ATOM     25  H   UNL A   1      38.153  21.867  25.200  1.00  0.00     0.163 HD
ATOM     26  O   UNL A   1      40.298  22.134  26.274  1.00  0.00    -0.269 OA
BRANCH  24  27
ATOM     27  C   UNL A   1      39.696  24.327  26.845  1.00  0.00     0.039 A 
ATOM     28  C   UNL A   1      39.242  24.531  28.151  1.00  0.00     0.014 A 
ATOM     29  C   UNL A   1      40.362  25.353  26.171  1.00  0.00     0.014 A 
ATOM     30  C   UNL A   1      39.517  25.735  28.804  1.00  0.00     0.010 A 
ATOM     31  C   UNL A   1      40.703  26.523  26.848  1.00  0.00     0.010 A 
ATOM     32  C   UNL A   1      40.286  26.726  28.173  1.00  0.00    -0.014 A 
BRANCH  32  33
ATOM     33  C   UNL A   1      40.675  27.971  28.887  1.00  0.00     0.031 A 
ATOM     34  C   UNL A   1      42.067  28.133  29.433  1.00  0.00     0.074 A 
ATOM     35  C   UNL A   1      39.754  28.933  29.099  1.00  0.00     0.049 A 
ATOM     36  N   UNL A   1      42.571  29.115  30.139  1.00  0.00    -0.248 NA
ATOM     37  C   UNL A   1      43.010  27.035  29.176  1.00  0.00     0.031 C 
ATOM     38  C   UNL A   1      38.360  28.880  28.657  1.00  0.00     0.029 A 
ATOM     39  N   UNL A   1      39.850  30.139  29.749  1.00  0.00    -0.354 N 
ATOM     40  C   UNL A   1      43.880  28.747  30.419  1.00  0.00     0.074 A 
ATOM     41  C   UNL A   1      44.077  27.429  29.856  1.00  0.00     0.031 C 
ATOM     42  C   UNL A   1      37.738  30.011  29.024  1.00  0.00     0.029 A 
ATOM     43  C   UNL A   1      38.674  30.850  29.767  1.00  0.00     0.049 A 
ATOM     44  H   UNL A   1      40.681  30.462  30.164  1.00  0.00     0.167 HD
ATOM     45  C   UNL A   1      44.837  29.452  31.070  1.00  0.00     0.037 A 
ATOM     46  C   UNL A   1      38.380  32.039  30.327  1.00  0.00     0.037 A 
ATOM     47  C   UNL A   1      44.644  30.772  31.612  1.00  0.00     0.049 A 
ATOM     48  C   UNL A   1      39.456  32.791  31.063  1.00  0.00     0.074 A 
ATOM     49  C   UNL A   1      45.570  31.594  32.232  1.00  0.00     0.029 A 
ATOM     50  N   UNL A   1      43.439  31.461  31.607  1.00  0.00    -0.354 N 
ATOM     51  N   UNL A   1      40.710  32.465  31.259  1.00  0.00    -0.248 NA
ATOM     52  C   UNL A   1      39.075  34.082  31.654  1.00  0.00     0.031 C 
ATOM     53  C   UNL A   1      44.913  32.754  32.655  1.00  0.00     0.029 A 
ATOM     54  C   UNL A   1      43.593  32.684  32.241  1.00  0.00     0.049 A 
ATOM     55  H   UNL A   1      42.602  31.131  31.211  1.00  0.00     0.167 HD
ATOM     56  C   UNL A   1      41.275  33.521  31.961  1.00  0.00     0.074 A 
ATOM     57  C   UNL A   1      40.230  34.504  32.148  1.00  0.00     0.031 C 
ATOM     58  C   UNL A   1      42.546  33.661  32.413  1.00  0.00     0.037 A 
BRANCH  45  59
ATOM     59  C   UNL A   1      46.184  28.808  31.239  1.00  0.00     0.064 A 
ATOM     60  C   UNL A   1      47.206  28.971  30.291  1.00  0.00     0.173 A 
ATOM     61  C   UNL A   1      46.471  28.051  32.386  1.00  0.00     0.173 A 
ATOM     62  F   UNL A   1      46.983  29.677  29.172  1.00  0.00    -0.203 F 
ATOM     63  C   UNL A   1      48.453  28.377  30.469  1.00  0.00     0.198 A 
ATOM     64  C   UNL A   1      47.730  27.487  32.577  1.00  0.00     0.198 A 
ATOM     65  F   UNL A   1      45.535  27.869  33.329  1.00  0.00    -0.203 F 
ATOM     66  F   UNL A   1      49.395  28.503  29.524  1.00  0.00    -0.200 F 
ATOM     67  C   UNL A   1      48.717  27.642  31.615  1.00  0.00     0.200 A 
ATOM     68  F   UNL A   1      47.988  26.790  33.693  1.00  0.00    -0.200 F 
ATOM     69  F   UNL A   1      49.919  27.078  31.790  1.00  0.00    -0.200 F 
ENDBRANCH  45  59
BRANCH  46  70
ATOM     70  C   UNL A   1      37.011  32.606  30.197  1.00  0.00     0.064 A 
ATOM     71  C   UNL A   1      36.635  33.323  29.053  1.00  0.00     0.173 A 
ATOM     72  C   UNL A   1      36.057  32.458  31.215  1.00  0.00     0.173 A 
ATOM     73  F   UNL A   1      37.518  33.511  28.060  1.00  0.00    -0.203 F 
ATOM     74  C   UNL A   1      35.368  33.891  28.941  1.00  0.00     0.198 A 
ATOM     75  C   UNL A   1      34.779  32.999  31.089  1.00  0.00     0.198 A 
ATOM     76  F   UNL A   1      36.363  31.778  32.329  1.00  0.00    -0.203 F 
ATOM     77  F   UNL A   1      35.053  34.617  27.859  1.00  0.00    -0.200 F 
ATOM     78  C   UNL A   1      34.439  33.724  29.957  1.00  0.00     0.200 A 
ATOM     79  F   UNL A   1      33.880  32.821  32.066  1.00  0.00    -0.200 F 
ATOM     80  F   UNL A   1      33.219  34.268  29.849  1.00  0.00    -0.200 F 
ENDBRANCH  46  70
BRANCH  58  81
ATOM     81  C   UNL A   1      42.894  34.945  33.113  1.00  0.00     0.064 A 
ATOM     82  C   UNL A   1      42.775  35.084  34.504  1.00  0.00     0.173 A 
ATOM     83  C   UNL A   1      43.387  36.038  32.385  1.00  0.00     0.173 A 
ATOM     84  F   UNL A   1      42.295  34.074  35.246  1.00  0.00    -0.203 F 
ATOM     85  C   UNL A   1      43.112  36.279  35.136  1.00  0.00     0.198 A 
ATOM     86  C   UNL A   1      43.755  37.219  33.023  1.00  0.00     0.198 A 
ATOM     87  F   UNL A   1      43.526  35.957  31.052  1.00  0.00    -0.203 F 
ATOM     88  F   UNL A   1      42.942  36.406  36.459  1.00  0.00    -0.200 F 
ATOM     89  C   UNL A   1      43.609  37.341  34.396  1.00  0.00     0.200 A 
ATOM     90  F   UNL A   1      44.251  38.239  32.309  1.00  0.00    -0.200 F 
ATOM     91  F   UNL A   1      43.941  38.488  35.007  1.00  0.00    -0.200 F 
ENDBRANCH  58  81
ENDBRANCH  32  33
ENDBRANCH  24  27
ENDBRANCH  22  23
ENDBRANCH  21  22
ENDBRANCH   1  21
TORSDOF 13
ENDMDL
