MODEL 1
REMARK VINA RESULT:     -12.5      0.000      0.000
REMARK SMILES Cc1oc(C)c(S(=O)(=O)Nn2c(C)ccc2C)c1C(=O)NCCCCNC(=O)c1ccc(-c2c3nc(c(-c4c(F)c(F)c(F)c(F)c4F)c4ccc([nH]4)c(-c4c(F)c(F)c(F)c(F)c4F)c4nc(c(-c5c(F)c(F)c(F)c(F)c5F)c5ccc2[nH]5)C=C4)C=C3)cc1
REMARK SMILES IDX 23 1 22 2 21 3 19 4 20 5 18 7 1 8 2 9 3 10 4 11 6 12 5 13
REMARK SMILES IDX 7 14 8 15 9 16 10 17 11 19 12 20 16 21 13 22 14 23 15 24
REMARK SMILES IDX 17 25 24 26 25 27 26 28 27 29 28 31 29 32 30 33 91 34 31 35
REMARK SMILES IDX 90 36 32 37 33 38 34 39 84 40 35 41 89 42 83 43 85 44 36 45
REMARK SMILES IDX 88 46 82 47 81 48 37 50 69 51 49 52 68 53 50 54 53 55 67 56
REMARK SMILES IDX 86 57 51 58 52 59 66 61 87 62 54 63 38 64 39 65 47 66 40 67
REMARK SMILES IDX 41 68 45 69 48 70 42 71 43 72 46 73 44 74 70 75 71 76 79 77
REMARK SMILES IDX 72 78 73 79 77 80 80 81 74 82 75 83 78 84 76 85 55 86 56 87
REMARK SMILES IDX 64 88 57 89 58 90 62 91 65 92 59 93 60 94 63 95 61 96
REMARK H PARENT 21 6 10 18 26 30 85 49 53 60
REMARK Flexibility Score: inf
ROOT
ATOM      1  C   UNL A   1      34.520  30.474  27.144  1.00  0.00     0.023 C 
ENDROOT
BRANCH   1   2
ATOM      2  C   UNL A   1      34.273  28.978  27.336  1.00  0.00     0.116 C 
BRANCH   2   3
ATOM      3  N   UNL A   1      32.905  28.515  27.442  1.00  0.00    -0.352 N 
ATOM      4  C   UNL A   1      32.263  27.445  26.865  1.00  0.00     0.256 C 
ATOM      5  O   UNL A   1      31.205  27.072  27.367  1.00  0.00    -0.269 OA
ATOM      6  H   UNL A   1      32.335  29.063  28.029  1.00  0.00     0.163 HD
BRANCH   4   7
ATOM      7  C   UNL A   1      32.752  26.811  25.659  1.00  0.00     0.101 A 
ATOM      8  C   UNL A   1      33.552  24.382  26.404  1.00  0.00     0.088 C 
ATOM      9  C   UNL A   1      33.257  25.524  25.512  1.00  0.00     0.115 A 
ATOM     10  O   UNL A   1      33.482  25.246  24.201  1.00  0.00    -0.464 OA
ATOM     11  C   UNL A   1      33.083  26.319  23.479  1.00  0.00     0.122 A 
ATOM     12  C   UNL A   1      32.671  27.334  24.321  1.00  0.00     0.143 A 
ATOM     13  C   UNL A   1      33.145  26.150  22.009  1.00  0.00     0.089 C 
BRANCH  12  14
ATOM     14  S   UNL A   1      32.127  28.844  23.700  1.00  0.00     0.279 S 
ATOM     15  O   UNL A   1      31.733  29.578  24.895  1.00  0.00    -0.200 OA
ATOM     16  O   UNL A   1      33.263  29.289  22.931  1.00  0.00    -0.200 OA
BRANCH  14  17
ATOM     17  N   UNL A   1      30.869  28.910  22.648  1.00  0.00    -0.216 N 
ATOM     18  H   UNL A   1      31.117  29.029  21.703  1.00  0.00     0.202 HD
BRANCH  17  19
ATOM     19  N   UNL A   1      29.508  28.822  22.895  1.00  0.00    -0.256 N 
ATOM     20  C   UNL A   1      28.758  27.772  23.371  1.00  0.00     0.038 A 
ATOM     21  C   UNL A   1      28.699  29.924  22.695  1.00  0.00     0.038 A 
ATOM     22  C   UNL A   1      29.260  26.464  23.862  1.00  0.00     0.067 C 
ATOM     23  C   UNL A   1      27.435  28.192  23.363  1.00  0.00     0.025 A 
ATOM     24  C   UNL A   1      27.396  29.527  22.921  1.00  0.00     0.025 A 
ATOM     25  C   UNL A   1      29.173  31.253  22.211  1.00  0.00     0.067 C 
ENDBRANCH  17  19
ENDBRANCH  14  17
ENDBRANCH  12  14
ENDBRANCH   4   7
ENDBRANCH   2   3
ENDBRANCH   1   2
BRANCH   1  26
ATOM     26  C   UNL A   1      33.973  31.527  28.119  1.00  0.00     0.023 C 
BRANCH  26  27
ATOM     27  C   UNL A   1      34.849  32.696  28.569  1.00  0.00     0.116 C 
BRANCH  27  28
ATOM     28  N   UNL A   1      35.046  32.812  29.994  1.00  0.00    -0.352 N 
ATOM     29  C   UNL A   1      36.096  32.263  30.712  1.00  0.00     0.251 C 
ATOM     30  H   UNL A   1      34.376  33.326  30.499  1.00  0.00     0.163 HD
ATOM     31  O   UNL A   1      36.183  32.481  31.917  1.00  0.00    -0.269 OA
BRANCH  29  32
ATOM     32  C   UNL A   1      37.036  31.297  30.049  1.00  0.00     0.039 A 
ATOM     33  C   UNL A   1      36.691  29.963  30.107  1.00  0.00     0.014 A 
ATOM     34  C   UNL A   1      38.268  31.613  29.445  1.00  0.00     0.014 A 
ATOM     35  C   UNL A   1      37.539  28.990  29.529  1.00  0.00     0.010 A 
ATOM     36  C   UNL A   1      39.186  30.588  28.955  1.00  0.00     0.010 A 
ATOM     37  C   UNL A   1      38.867  29.220  29.001  1.00  0.00    -0.014 A 
BRANCH  37  38
ATOM     38  C   UNL A   1      39.844  27.928  28.968  1.00  0.00     0.031 A 
ATOM     39  C   UNL A   1      40.697  28.149  30.174  1.00  0.00     0.074 A 
ATOM     40  C   UNL A   1      40.272  26.842  28.201  1.00  0.00     0.049 A 
ATOM     41  N   UNL A   1      41.382  29.258  30.254  1.00  0.00    -0.248 NA
ATOM     42  C   UNL A   1      40.486  27.464  31.452  1.00  0.00     0.031 C 
ATOM     43  C   UNL A   1      39.909  26.499  26.817  1.00  0.00     0.029 A 
ATOM     44  N   UNL A   1      41.166  25.755  28.484  1.00  0.00    -0.354 N 
ATOM     45  C   UNL A   1      41.901  29.305  31.521  1.00  0.00     0.074 A 
ATOM     46  C   UNL A   1      41.145  28.304  32.262  1.00  0.00     0.031 C 
ATOM     47  C   UNL A   1      40.419  25.286  26.441  1.00  0.00     0.029 A 
ATOM     48  C   UNL A   1      41.228  24.693  27.505  1.00  0.00     0.049 A 
ATOM     49  H   UNL A   1      41.710  25.734  29.304  1.00  0.00     0.167 HD
ATOM     50  C   UNL A   1      43.235  29.580  31.584  1.00  0.00     0.037 A 
ATOM     51  C   UNL A   1      41.921  23.480  27.506  1.00  0.00     0.037 A 
ATOM     52  C   UNL A   1      43.996  28.372  31.732  1.00  0.00     0.049 A 
ATOM     53  C   UNL A   1      43.062  23.680  28.402  1.00  0.00     0.074 A 
ATOM     54  C   UNL A   1      43.841  27.273  32.554  1.00  0.00     0.029 A 
ATOM     55  N   UNL A   1      44.724  27.952  30.642  1.00  0.00    -0.354 N 
ATOM     56  N   UNL A   1      44.128  24.298  27.997  1.00  0.00    -0.248 NA
ATOM     57  C   UNL A   1      43.126  23.112  29.741  1.00  0.00     0.031 C 
ATOM     58  C   UNL A   1      43.985  26.167  31.689  1.00  0.00     0.029 A 
ATOM     59  C   UNL A   1      44.636  26.581  30.536  1.00  0.00     0.049 A 
ATOM     60  H   UNL A   1      45.228  28.539  30.034  1.00  0.00     0.167 HD
ATOM     61  C   UNL A   1      44.732  24.645  29.157  1.00  0.00     0.074 A 
ATOM     62  C   UNL A   1      44.265  23.683  30.138  1.00  0.00     0.031 C 
ATOM     63  C   UNL A   1      45.010  25.962  29.293  1.00  0.00     0.037 A 
BRANCH  50  64
ATOM     64  C   UNL A   1      43.619  30.763  30.733  1.00  0.00     0.064 A 
ATOM     65  C   UNL A   1      43.663  32.026  31.329  1.00  0.00     0.173 A 
ATOM     66  C   UNL A   1      43.719  30.707  29.326  1.00  0.00     0.173 A 
ATOM     67  F   UNL A   1      43.640  32.139  32.666  1.00  0.00    -0.203 F 
ATOM     68  C   UNL A   1      43.715  33.185  30.552  1.00  0.00     0.198 A 
ATOM     69  C   UNL A   1      43.690  31.863  28.553  1.00  0.00     0.198 A 
ATOM     70  F   UNL A   1      43.827  29.528  28.692  1.00  0.00    -0.203 F 
ATOM     71  F   UNL A   1      43.775  34.384  31.147  1.00  0.00    -0.200 F 
ATOM     72  C   UNL A   1      43.679  33.103  29.168  1.00  0.00     0.200 A 
ATOM     73  F   UNL A   1      43.660  31.774  27.215  1.00  0.00    -0.200 F 
ATOM     74  F   UNL A   1      43.655  34.219  28.425  1.00  0.00    -0.200 F 
ENDBRANCH  50  64
BRANCH  51  75
ATOM     75  C   UNL A   1      42.097  22.093  26.815  1.00  0.00     0.064 A 
ATOM     76  C   UNL A   1      43.028  21.911  25.728  1.00  0.00     0.173 A 
ATOM     77  C   UNL A   1      41.746  20.890  27.443  1.00  0.00     0.173 A 
ATOM     78  F   UNL A   1      43.432  22.939  24.968  1.00  0.00    -0.203 F 
ATOM     79  C   UNL A   1      43.647  20.691  25.411  1.00  0.00     0.198 A 
ATOM     80  C   UNL A   1      42.340  19.647  27.089  1.00  0.00     0.198 A 
ATOM     81  F   UNL A   1      40.893  20.901  28.474  1.00  0.00    -0.203 F 
ATOM     82  F   UNL A   1      44.614  20.644  24.478  1.00  0.00    -0.200 F 
ATOM     83  C   UNL A   1      43.317  19.557  26.108  1.00  0.00     0.200 A 
ATOM     84  F   UNL A   1      42.012  18.535  27.762  1.00  0.00    -0.200 F 
ATOM     85  F   UNL A   1      43.952  18.400  25.861  1.00  0.00    -0.200 F 
ENDBRANCH  51  75
BRANCH  63  86
ATOM     86  C   UNL A   1      45.565  26.682  28.075  1.00  0.00     0.064 A 
ATOM     87  C   UNL A   1      44.853  27.131  26.936  1.00  0.00     0.173 A 
ATOM     88  C   UNL A   1      46.957  26.862  28.035  1.00  0.00     0.173 A 
ATOM     89  F   UNL A   1      43.513  27.141  26.884  1.00  0.00    -0.203 F 
ATOM     90  C   UNL A   1      45.510  27.628  25.804  1.00  0.00     0.198 A 
ATOM     91  C   UNL A   1      47.603  27.418  26.933  1.00  0.00     0.198 A 
ATOM     92  F   UNL A   1      47.707  26.509  29.090  1.00  0.00    -0.203 F 
ATOM     93  F   UNL A   1      44.807  27.974  24.715  1.00  0.00    -0.200 F 
ATOM     94  C   UNL A   1      46.884  27.774  25.806  1.00  0.00     0.200 A 
ATOM     95  F   UNL A   1      48.928  27.608  26.971  1.00  0.00    -0.200 F 
ATOM     96  F   UNL A   1      47.515  28.271  24.734  1.00  0.00    -0.200 F 
ENDBRANCH  63  86
ENDBRANCH  37  38
ENDBRANCH  29  32
ENDBRANCH  27  28
ENDBRANCH  26  27
ENDBRANCH   1  26
TORSDOF 14
ENDMDL
MODEL 2
REMARK VINA RESULT:     -12.4      2.029      3.888
REMARK SMILES Cc1oc(C)c(S(=O)(=O)Nn2c(C)ccc2C)c1C(=O)NCCCCNC(=O)c1ccc(-c2c3nc(c(-c4c(F)c(F)c(F)c(F)c4F)c4ccc([nH]4)c(-c4c(F)c(F)c(F)c(F)c4F)c4nc(c(-c5c(F)c(F)c(F)c(F)c5F)c5ccc2[nH]5)C=C4)C=C3)cc1
REMARK SMILES IDX 23 1 22 2 21 3 19 4 20 5 18 7 1 8 2 9 3 10 4 11 6 12 5 13
REMARK SMILES IDX 7 14 8 15 9 16 10 17 11 19 12 20 16 21 13 22 14 23 15 24
REMARK SMILES IDX 17 25 24 26 25 27 26 28 27 29 28 31 29 32 30 33 91 34 31 35
REMARK SMILES IDX 90 36 32 37 33 38 34 39 84 40 35 41 89 42 83 43 85 44 36 45
REMARK SMILES IDX 88 46 82 47 81 48 37 50 69 51 49 52 68 53 50 54 53 55 67 56
REMARK SMILES IDX 86 57 51 58 52 59 66 61 87 62 54 63 38 64 39 65 47 66 40 67
REMARK SMILES IDX 41 68 45 69 48 70 42 71 43 72 46 73 44 74 70 75 71 76 79 77
REMARK SMILES IDX 72 78 73 79 77 80 80 81 74 82 75 83 78 84 76 85 55 86 56 87
REMARK SMILES IDX 64 88 57 89 58 90 62 91 65 92 59 93 60 94 63 95 61 96
REMARK H PARENT 21 6 10 18 26 30 85 49 53 60
REMARK Flexibility Score: inf
ROOT
ATOM      1  C   UNL A   1      33.272  28.431  24.710  1.00  0.00     0.023 C 
ENDROOT
BRANCH   1   2
ATOM      2  C   UNL A   1      33.326  28.850  23.241  1.00  0.00     0.116 C 
BRANCH   2   3
ATOM      3  N   UNL A   1      33.600  27.834  22.247  1.00  0.00    -0.352 N 
ATOM      4  C   UNL A   1      32.971  26.642  21.971  1.00  0.00     0.256 C 
ATOM      5  O   UNL A   1      33.180  26.123  20.876  1.00  0.00    -0.269 OA
ATOM      6  H   UNL A   1      34.372  28.030  21.668  1.00  0.00     0.163 HD
BRANCH   4   7
ATOM      7  C   UNL A   1      32.149  25.960  22.947  1.00  0.00     0.101 A 
ATOM      8  C   UNL A   1      29.935  27.425  23.165  1.00  0.00     0.088 C 
ATOM      9  C   UNL A   1      30.880  26.311  23.394  1.00  0.00     0.115 A 
ATOM     10  O   UNL A   1      30.377  25.346  24.208  1.00  0.00    -0.464 OA
ATOM     11  C   UNL A   1      31.281  24.341  24.262  1.00  0.00     0.122 A 
ATOM     12  C   UNL A   1      32.414  24.680  23.547  1.00  0.00     0.143 A 
ATOM     13  C   UNL A   1      30.848  23.142  25.015  1.00  0.00     0.089 C 
BRANCH  12  14
ATOM     14  S   UNL A   1      33.759  23.611  23.448  1.00  0.00     0.279 S 
ATOM     15  O   UNL A   1      33.316  22.598  22.498  1.00  0.00    -0.200 OA
ATOM     16  O   UNL A   1      34.836  24.502  23.091  1.00  0.00    -0.200 OA
BRANCH  14  17
ATOM     17  N   UNL A   1      34.303  22.825  24.782  1.00  0.00    -0.216 N 
ATOM     18  H   UNL A   1      33.753  22.941  25.591  1.00  0.00     0.202 HD
BRANCH  17  19
ATOM     19  N   UNL A   1      35.421  22.022  24.938  1.00  0.00    -0.256 N 
ATOM     20  C   UNL A   1      36.734  22.363  25.168  1.00  0.00     0.038 A 
ATOM     21  C   UNL A   1      35.292  20.647  24.909  1.00  0.00     0.038 A 
ATOM     22  C   UNL A   1      37.274  23.722  25.428  1.00  0.00     0.067 C 
ATOM     23  C   UNL A   1      37.458  21.179  25.171  1.00  0.00     0.025 A 
ATOM     24  C   UNL A   1      36.561  20.110  24.988  1.00  0.00     0.025 A 
ATOM     25  C   UNL A   1      34.006  19.916  24.710  1.00  0.00     0.067 C 
ENDBRANCH  17  19
ENDBRANCH  14  17
ENDBRANCH  12  14
ENDBRANCH   4   7
ENDBRANCH   2   3
ENDBRANCH   1   2
BRANCH   1  26
ATOM     26  C   UNL A   1      34.382  28.793  25.707  1.00  0.00     0.023 C 
BRANCH  26  27
ATOM     27  C   UNL A   1      34.035  29.340  27.091  1.00  0.00     0.116 C 
BRANCH  27  28
ATOM     28  N   UNL A   1      34.181  30.767  27.249  1.00  0.00    -0.352 N 
ATOM     29  C   UNL A   1      35.340  31.424  27.628  1.00  0.00     0.251 C 
ATOM     30  H   UNL A   1      33.388  31.322  27.072  1.00  0.00     0.163 HD
ATOM     31  O   UNL A   1      35.353  32.650  27.672  1.00  0.00    -0.269 OA
BRANCH  29  32
ATOM     32  C   UNL A   1      36.525  30.638  28.115  1.00  0.00     0.039 A 
ATOM     33  C   UNL A   1      37.481  30.318  27.174  1.00  0.00     0.014 A 
ATOM     34  C   UNL A   1      36.714  30.134  29.415  1.00  0.00     0.014 A 
ATOM     35  C   UNL A   1      38.612  29.557  27.550  1.00  0.00     0.010 A 
ATOM     36  C   UNL A   1      37.828  29.255  29.760  1.00  0.00     0.010 A 
ATOM     37  C   UNL A   1      38.818  28.906  28.826  1.00  0.00    -0.014 A 
BRANCH  37  38
ATOM     38  C   UNL A   1      39.833  27.644  28.815  1.00  0.00     0.031 A 
ATOM     39  C   UNL A   1      40.665  27.901  30.028  1.00  0.00     0.074 A 
ATOM     40  C   UNL A   1      40.302  26.565  28.062  1.00  0.00     0.049 A 
ATOM     41  N   UNL A   1      41.316  29.030  30.106  1.00  0.00    -0.248 NA
ATOM     42  C   UNL A   1      40.460  27.221  31.310  1.00  0.00     0.031 C 
ATOM     43  C   UNL A   1      39.966  26.198  26.677  1.00  0.00     0.029 A 
ATOM     44  N   UNL A   1      41.225  25.507  28.365  1.00  0.00    -0.354 N 
ATOM     45  C   UNL A   1      41.819  29.104  31.378  1.00  0.00     0.074 A 
ATOM     46  C   UNL A   1      41.084  28.087  32.120  1.00  0.00     0.031 C 
ATOM     47  C   UNL A   1      40.516  24.999  26.318  1.00  0.00     0.029 A 
ATOM     48  C   UNL A   1      41.330  24.439  27.397  1.00  0.00     0.049 A 
ATOM     49  H   UNL A   1      41.760  25.510  29.191  1.00  0.00     0.167 HD
ATOM     50  C   UNL A   1      43.143  29.419  31.453  1.00  0.00     0.037 A 
ATOM     51  C   UNL A   1      42.060  23.248  27.416  1.00  0.00     0.037 A 
ATOM     52  C   UNL A   1      43.939  28.237  31.620  1.00  0.00     0.049 A 
ATOM     53  C   UNL A   1      43.184  23.490  28.323  1.00  0.00     0.074 A 
ATOM     54  C   UNL A   1      43.807  27.140  32.450  1.00  0.00     0.029 A 
ATOM     55  N   UNL A   1      44.690  27.829  30.543  1.00  0.00    -0.354 N 
ATOM     56  N   UNL A   1      44.235  24.136  27.924  1.00  0.00    -0.248 NA
ATOM     57  C   UNL A   1      43.250  22.936  29.667  1.00  0.00     0.031 C 
ATOM     58  C   UNL A   1      43.994  26.032  31.597  1.00  0.00     0.029 A 
ATOM     59  C   UNL A   1      44.646  26.455  30.448  1.00  0.00     0.049 A 
ATOM     60  H   UNL A   1      45.184  28.426  29.935  1.00  0.00     0.167 HD
ATOM     61  C   UNL A   1      44.815  24.511  29.088  1.00  0.00     0.074 A 
ATOM     62  C   UNL A   1      44.366  23.545  30.071  1.00  0.00     0.031 C 
ATOM     63  C   UNL A   1      45.052  25.837  29.215  1.00  0.00     0.037 A 
BRANCH  50  64
ATOM     64  C   UNL A   1      43.501  30.606  30.597  1.00  0.00     0.064 A 
ATOM     65  C   UNL A   1      43.432  31.882  31.162  1.00  0.00     0.173 A 
ATOM     66  C   UNL A   1      43.686  30.527  29.199  1.00  0.00     0.173 A 
ATOM     67  F   UNL A   1      43.324  32.022  32.492  1.00  0.00    -0.203 F 
ATOM     68  C   UNL A   1      43.456  33.025  30.361  1.00  0.00     0.198 A 
ATOM     69  C   UNL A   1      43.630  31.662  28.397  1.00  0.00     0.198 A 
ATOM     70  F   UNL A   1      43.904  29.344  28.601  1.00  0.00    -0.203 F 
ATOM     71  F   UNL A   1      43.406  34.238  30.928  1.00  0.00    -0.200 F 
ATOM     72  C   UNL A   1      43.506  32.912  28.979  1.00  0.00     0.200 A 
ATOM     73  F   UNL A   1      43.683  31.542  27.062  1.00  0.00    -0.200 F 
ATOM     74  F   UNL A   1      43.455  34.007  28.208  1.00  0.00    -0.200 F 
ENDBRANCH  50  64
BRANCH  51  75
ATOM     75  C   UNL A   1      42.284  21.861  26.739  1.00  0.00     0.064 A 
ATOM     76  C   UNL A   1      43.259  21.690  25.689  1.00  0.00     0.173 A 
ATOM     77  C   UNL A   1      41.930  20.655  27.360  1.00  0.00     0.173 A 
ATOM     78  F   UNL A   1      43.673  22.721  24.940  1.00  0.00    -0.203 F 
ATOM     79  C   UNL A   1      43.910  20.479  25.402  1.00  0.00     0.198 A 
ATOM     80  C   UNL A   1      42.558  19.421  27.035  1.00  0.00     0.198 A 
ATOM     81  F   UNL A   1      41.039  20.656  28.358  1.00  0.00    -0.203 F 
ATOM     82  F   UNL A   1      44.912  20.445  24.506  1.00  0.00    -0.200 F 
ATOM     83  C   UNL A   1      43.573  19.343  26.092  1.00  0.00     0.200 A 
ATOM     84  F   UNL A   1      42.224  18.306  27.701  1.00  0.00    -0.200 F 
ATOM     85  F   UNL A   1      44.237  18.196  25.875  1.00  0.00    -0.200 F 
ENDBRANCH  51  75
BRANCH  63  86
ATOM     86  C   UNL A   1      45.599  26.563  27.996  1.00  0.00     0.064 A 
ATOM     87  C   UNL A   1      44.883  26.998  26.854  1.00  0.00     0.173 A 
ATOM     88  C   UNL A   1      46.988  26.765  27.960  1.00  0.00     0.173 A 
ATOM     89  F   UNL A   1      43.543  26.987  26.799  1.00  0.00    -0.203 F 
ATOM     90  C   UNL A   1      45.535  27.502  25.724  1.00  0.00     0.198 A 
ATOM     91  C   UNL A   1      47.628  27.329  26.859  1.00  0.00     0.198 A 
ATOM     92  F   UNL A   1      47.740  26.427  29.018  1.00  0.00    -0.203 F 
ATOM     93  F   UNL A   1      44.830  27.835  24.631  1.00  0.00    -0.200 F 
ATOM     94  C   UNL A   1      46.907  27.670  25.729  1.00  0.00     0.200 A 
ATOM     95  F   UNL A   1      48.949  27.540  26.900  1.00  0.00    -0.200 F 
ATOM     96  F   UNL A   1      47.533  28.175  24.658  1.00  0.00    -0.200 F 
ENDBRANCH  63  86
ENDBRANCH  37  38
ENDBRANCH  29  32
ENDBRANCH  27  28
ENDBRANCH  26  27
ENDBRANCH   1  26
TORSDOF 14
ENDMDL
MODEL 3
REMARK VINA RESULT:     -12.4      3.914      9.353
REMARK SMILES Cc1oc(C)c(S(=O)(=O)Nn2c(C)ccc2C)c1C(=O)NCCCCNC(=O)c1ccc(-c2c3nc(c(-c4c(F)c(F)c(F)c(F)c4F)c4ccc([nH]4)c(-c4c(F)c(F)c(F)c(F)c4F)c4nc(c(-c5c(F)c(F)c(F)c(F)c5F)c5ccc2[nH]5)C=C4)C=C3)cc1
REMARK SMILES IDX 23 1 22 2 21 3 19 4 20 5 18 7 1 8 2 9 3 10 4 11 6 12 5 13
REMARK SMILES IDX 7 14 8 15 9 16 10 17 11 19 12 20 16 21 13 22 14 23 15 24
REMARK SMILES IDX 17 25 24 26 25 27 26 28 27 29 28 31 29 32 30 33 91 34 31 35
REMARK SMILES IDX 90 36 32 37 33 38 34 39 84 40 35 41 89 42 83 43 85 44 36 45
REMARK SMILES IDX 88 46 82 47 81 48 37 50 69 51 49 52 68 53 50 54 53 55 67 56
REMARK SMILES IDX 86 57 51 58 52 59 66 61 87 62 54 63 38 64 39 65 47 66 40 67
REMARK SMILES IDX 41 68 45 69 48 70 42 71 43 72 46 73 44 74 70 75 71 76 79 77
REMARK SMILES IDX 72 78 73 79 77 80 80 81 74 82 75 83 78 84 76 85 55 86 56 87
REMARK SMILES IDX 64 88 57 89 58 90 62 91 65 92 59 93 60 94 63 95 61 96
REMARK H PARENT 21 6 10 18 26 30 85 49 53 60
REMARK Flexibility Score: inf
ROOT
ATOM      1  C   UNL A   1      35.557  21.929  25.108  1.00  0.00     0.023 C 
ENDROOT
BRANCH   1   2
ATOM      2  C   UNL A   1      34.581  21.033  25.869  1.00  0.00     0.116 C 
BRANCH   2   3
ATOM      3  N   UNL A   1      33.302  21.587  26.259  1.00  0.00    -0.352 N 
ATOM      4  C   UNL A   1      32.298  22.162  25.515  1.00  0.00     0.256 C 
ATOM      5  O   UNL A   1      31.183  22.247  26.024  1.00  0.00    -0.269 OA
ATOM      6  H   UNL A   1      33.118  21.546  27.226  1.00  0.00     0.163 HD
BRANCH   4   7
ATOM      7  C   UNL A   1      32.537  22.728  24.205  1.00  0.00     0.101 A 
ATOM      8  C   UNL A   1      32.149  20.732  22.483  1.00  0.00     0.088 C 
ATOM      9  C   UNL A   1      32.439  22.099  22.968  1.00  0.00     0.115 A 
ATOM     10  O   UNL A   1      32.603  22.997  21.962  1.00  0.00    -0.464 OA
ATOM     11  C   UNL A   1      32.759  24.219  22.521  1.00  0.00     0.122 A 
ATOM     12  C   UNL A   1      32.778  24.113  23.899  1.00  0.00     0.143 A 
ATOM     13  C   UNL A   1      32.834  25.347  21.565  1.00  0.00     0.089 C 
BRANCH  12  14
ATOM     14  S   UNL A   1      32.987  25.499  24.898  1.00  0.00     0.279 S 
ATOM     15  O   UNL A   1      33.511  24.944  26.140  1.00  0.00    -0.200 OA
ATOM     16  O   UNL A   1      33.827  26.342  24.083  1.00  0.00    -0.200 OA
BRANCH  14  17
ATOM     17  N   UNL A   1      31.706  26.449  25.288  1.00  0.00    -0.216 N 
ATOM     18  H   UNL A   1      30.909  25.968  25.608  1.00  0.00     0.202 HD
BRANCH  17  19
ATOM     19  N   UNL A   1      31.583  27.828  25.234  1.00  0.00    -0.256 N 
ATOM     20  C   UNL A   1      32.062  28.797  26.085  1.00  0.00     0.038 A 
ATOM     21  C   UNL A   1      30.923  28.420  24.174  1.00  0.00     0.038 A 
ATOM     22  C   UNL A   1      32.958  28.599  27.253  1.00  0.00     0.067 C 
ATOM     23  C   UNL A   1      31.595  30.013  25.607  1.00  0.00     0.025 A 
ATOM     24  C   UNL A   1      30.866  29.776  24.427  1.00  0.00     0.025 A 
ATOM     25  C   UNL A   1      30.297  27.680  23.040  1.00  0.00     0.067 C 
ENDBRANCH  17  19
ENDBRANCH  14  17
ENDBRANCH  12  14
ENDBRANCH   4   7
ENDBRANCH   2   3
ENDBRANCH   1   2
BRANCH   1  26
ATOM     26  C   UNL A   1      36.271  23.115  25.773  1.00  0.00     0.023 C 
BRANCH  26  27
ATOM     27  C   UNL A   1      37.700  23.482  25.375  1.00  0.00     0.116 C 
BRANCH  27  28
ATOM     28  N   UNL A   1      38.722  22.560  25.809  1.00  0.00    -0.352 N 
ATOM     29  C   UNL A   1      39.731  22.838  26.716  1.00  0.00     0.251 C 
ATOM     30  H   UNL A   1      38.700  21.653  25.426  1.00  0.00     0.163 HD
ATOM     31  O   UNL A   1      40.509  21.949  27.047  1.00  0.00    -0.269 OA
BRANCH  29  32
ATOM     32  C   UNL A   1      39.956  24.250  27.181  1.00  0.00     0.039 A 
ATOM     33  C   UNL A   1      39.215  24.666  28.267  1.00  0.00     0.014 A 
ATOM     34  C   UNL A   1      40.788  25.206  26.571  1.00  0.00     0.014 A 
ATOM     35  C   UNL A   1      39.351  25.989  28.747  1.00  0.00     0.010 A 
ATOM     36  C   UNL A   1      40.832  26.599  27.007  1.00  0.00     0.010 A 
ATOM     37  C   UNL A   1      40.089  27.058  28.108  1.00  0.00    -0.014 A 
BRANCH  37  38
ATOM     38  C   UNL A   1      39.615  28.561  28.483  1.00  0.00     0.031 A 
ATOM     39  C   UNL A   1      40.920  29.272  28.633  1.00  0.00     0.074 A 
ATOM     40  C   UNL A   1      38.528  29.353  28.856  1.00  0.00     0.049 A 
ATOM     41  N   UNL A   1      41.779  28.815  29.504  1.00  0.00    -0.248 NA
ATOM     42  C   UNL A   1      41.495  30.135  27.598  1.00  0.00     0.031 C 
ATOM     43  C   UNL A   1      37.147  28.936  29.149  1.00  0.00     0.029 A 
ATOM     44  N   UNL A   1      38.395  30.766  29.075  1.00  0.00    -0.354 N 
ATOM     45  C   UNL A   1      42.946  29.502  29.298  1.00  0.00     0.074 A 
ATOM     46  C   UNL A   1      42.776  30.128  27.993  1.00  0.00     0.031 C 
ATOM     47  C   UNL A   1      36.321  30.007  29.350  1.00  0.00     0.029 A 
ATOM     48  C   UNL A   1      37.054  31.271  29.269  1.00  0.00     0.049 A 
ATOM     49  H   UNL A   1      39.178  31.362  29.092  1.00  0.00     0.167 HD
ATOM     50  C   UNL A   1      43.508  30.026  30.425  1.00  0.00     0.037 A 
ATOM     51  C   UNL A   1      36.574  32.573  29.427  1.00  0.00     0.037 A 
ATOM     52  C   UNL A   1      43.166  31.413  30.565  1.00  0.00     0.049 A 
ATOM     53  C   UNL A   1      37.701  33.345  29.956  1.00  0.00     0.074 A 
ATOM     54  C   UNL A   1      43.168  32.464  29.668  1.00  0.00     0.029 A 
ATOM     55  N   UNL A   1      42.271  31.741  31.557  1.00  0.00    -0.354 N 
ATOM     56  N   UNL A   1      38.010  33.297  31.214  1.00  0.00    -0.248 NA
ATOM     57  C   UNL A   1      38.463  34.288  29.149  1.00  0.00     0.031 C 
ATOM     58  C   UNL A   1      41.916  33.086  29.857  1.00  0.00     0.029 A 
ATOM     59  C   UNL A   1      41.409  32.710  31.092  1.00  0.00     0.049 A 
ATOM     60  H   UNL A   1      42.251  31.345  32.459  1.00  0.00     0.167 HD
ATOM     61  C   UNL A   1      39.280  33.762  31.228  1.00  0.00     0.074 A 
ATOM     62  C   UNL A   1      39.399  34.597  30.048  1.00  0.00     0.031 C 
ATOM     63  C   UNL A   1      40.188  32.947  31.814  1.00  0.00     0.037 A 
BRANCH  50  64
ATOM     64  C   UNL A   1      43.592  29.023  31.546  1.00  0.00     0.064 A 
ATOM     65  C   UNL A   1      44.721  28.204  31.625  1.00  0.00     0.173 A 
ATOM     66  C   UNL A   1      42.503  28.707  32.387  1.00  0.00     0.173 A 
ATOM     67  F   UNL A   1      45.813  28.493  30.899  1.00  0.00    -0.203 F 
ATOM     68  C   UNL A   1      44.730  27.071  32.440  1.00  0.00     0.198 A 
ATOM     69  C   UNL A   1      42.485  27.535  33.137  1.00  0.00     0.198 A 
ATOM     70  F   UNL A   1      41.441  29.526  32.473  1.00  0.00    -0.203 F 
ATOM     71  F   UNL A   1      45.832  26.311  32.513  1.00  0.00    -0.200 F 
ATOM     72  C   UNL A   1      43.597  26.712  33.155  1.00  0.00     0.200 A 
ATOM     73  F   UNL A   1      41.386  27.200  33.828  1.00  0.00    -0.200 F 
ATOM     74  F   UNL A   1      43.583  25.584  33.880  1.00  0.00    -0.200 F 
ENDBRANCH  50  64
BRANCH  51  75
ATOM     75  C   UNL A   1      35.312  33.489  29.462  1.00  0.00     0.064 A 
ATOM     76  C   UNL A   1      34.597  33.731  30.691  1.00  0.00     0.173 A 
ATOM     77  C   UNL A   1      35.059  34.457  28.480  1.00  0.00     0.173 A 
ATOM     78  F   UNL A   1      34.664  32.879  31.723  1.00  0.00    -0.203 F 
ATOM     79  C   UNL A   1      33.840  34.885  30.953  1.00  0.00     0.198 A 
ATOM     80  C   UNL A   1      34.254  35.602  28.732  1.00  0.00     0.198 A 
ATOM     81  F   UNL A   1      35.657  34.368  27.286  1.00  0.00    -0.203 F 
ATOM     82  F   UNL A   1      33.331  35.097  32.179  1.00  0.00    -0.200 F 
ATOM     83  C   UNL A   1      33.685  35.836  29.977  1.00  0.00     0.200 A 
ATOM     84  F   UNL A   1      34.092  36.529  27.777  1.00  0.00    -0.200 F 
ATOM     85  F   UNL A   1      33.023  36.975  30.238  1.00  0.00    -0.200 F 
ENDBRANCH  51  75
BRANCH  63  86
ATOM     86  C   UNL A   1      39.772  32.262  33.105  1.00  0.00     0.064 A 
ATOM     87  C   UNL A   1      38.981  31.096  33.251  1.00  0.00     0.173 A 
ATOM     88  C   UNL A   1      40.155  32.893  34.300  1.00  0.00     0.173 A 
ATOM     89  F   UNL A   1      38.648  30.319  32.210  1.00  0.00    -0.203 F 
ATOM     90  C   UNL A   1      38.527  30.666  34.502  1.00  0.00     0.198 A 
ATOM     91  C   UNL A   1      39.756  32.424  35.549  1.00  0.00     0.198 A 
ATOM     92  F   UNL A   1      40.945  33.977  34.259  1.00  0.00    -0.203 F 
ATOM     93  F   UNL A   1      37.716  29.600  34.595  1.00  0.00    -0.200 F 
ATOM     94  C   UNL A   1      38.918  31.328  35.650  1.00  0.00     0.200 A 
ATOM     95  F   UNL A   1      40.191  33.040  36.655  1.00  0.00    -0.200 F 
ATOM     96  F   UNL A   1      38.506  30.905  36.852  1.00  0.00    -0.200 F 
ENDBRANCH  63  86
ENDBRANCH  37  38
ENDBRANCH  29  32
ENDBRANCH  27  28
ENDBRANCH  26  27
ENDBRANCH   1  26
TORSDOF 14
ENDMDL
