MODEL 1
REMARK VINA RESULT:     -12.2      0.000      0.000
REMARK SMILES O=C(NCCCCNC(=O)c1cc(-n2cccc2)ccc1O)c1ccc(-c2c3nc(c(-c4c(F)c(F)c(F)c(F)c4F)c4ccc([nH]4)c(-c4c(F)c(F)c(F)c(F)c4F)c4nc(c(-c5c(F)c(F)c(F)c(F)c5F)c5ccc2[nH]5)C=C4)C=C3)cc1
REMARK SMILES IDX 5 1 4 2 3 3 1 4 2 5 23 7 24 8 85 9 25 10 84 11 26 12 27 13
REMARK SMILES IDX 28 14 78 15 29 16 83 17 77 18 79 19 30 20 82 21 76 22 75 23
REMARK SMILES IDX 31 25 63 26 43 27 62 28 44 29 47 30 61 31 80 32 45 33 46 34
REMARK SMILES IDX 60 36 81 37 48 38 32 39 33 40 41 41 34 42 35 43 39 44 42 45
REMARK SMILES IDX 36 46 37 47 40 48 38 49 64 50 65 51 73 52 66 53 67 54 71 55
REMARK SMILES IDX 74 56 68 57 69 58 72 59 70 60 49 61 50 62 58 63 51 64 52 65
REMARK SMILES IDX 56 66 59 67 53 68 54 69 57 70 55 71 6 72 7 73 8 74 9 75
REMARK SMILES IDX 10 77 11 78 12 79 21 80 13 81 20 82 19 83 22 84 14 86 15 87
REMARK SMILES IDX 18 88 16 89 17 90
REMARK H PARENT 3 6 79 24 47 35 8 76 22 85
REMARK Flexibility Score: inf
ROOT
ATOM      1  C   UNL A   1      33.315  28.380  26.323  1.00  0.00     0.023 C 
ENDROOT
BRANCH   1   2
ATOM      2  C   UNL A   1      34.781  28.723  26.597  1.00  0.00     0.116 C 
BRANCH   2   3
ATOM      3  N   UNL A   1      35.007  30.002  27.247  1.00  0.00    -0.352 N 
ATOM      4  O   UNL A   1      36.041  31.718  28.246  1.00  0.00    -0.269 OA
ATOM      5  C   UNL A   1      36.113  30.560  27.837  1.00  0.00     0.251 C 
ATOM      6  H   UNL A   1      34.211  30.581  27.268  1.00  0.00     0.163 HD
BRANCH   5   7
ATOM      7  C   UNL A   1      37.363  29.797  28.062  1.00  0.00     0.039 A 
ATOM      8  C   UNL A   1      38.437  29.817  27.172  1.00  0.00     0.014 A 
ATOM      9  C   UNL A   1      37.460  29.044  29.245  1.00  0.00     0.014 A 
ATOM     10  C   UNL A   1      39.544  29.013  27.395  1.00  0.00     0.010 A 
ATOM     11  C   UNL A   1      38.596  28.277  29.506  1.00  0.00     0.010 A 
ATOM     12  C   UNL A   1      39.636  28.262  28.571  1.00  0.00    -0.014 A 
BRANCH  12  13
ATOM     13  C   UNL A   1      40.968  27.693  28.875  1.00  0.00     0.031 A 
ATOM     14  C   UNL A   1      41.093  26.255  28.335  1.00  0.00     0.074 A 
ATOM     15  C   UNL A   1      41.807  28.441  29.649  1.00  0.00     0.049 A 
ATOM     16  N   UNL A   1      41.802  25.255  28.765  1.00  0.00    -0.248 NA
ATOM     17  C   UNL A   1      40.238  25.850  27.182  1.00  0.00     0.031 C 
ATOM     18  C   UNL A   1      41.544  29.834  30.059  1.00  0.00     0.029 A 
ATOM     19  N   UNL A   1      43.022  28.197  30.261  1.00  0.00    -0.354 N 
ATOM     20  C   UNL A   1      41.633  24.195  27.846  1.00  0.00     0.074 A 
ATOM     21  C   UNL A   1      40.571  24.577  26.970  1.00  0.00     0.031 C 
ATOM     22  C   UNL A   1      42.505  30.277  30.899  1.00  0.00     0.029 A 
ATOM     23  C   UNL A   1      43.489  29.232  31.116  1.00  0.00     0.049 A 
ATOM     24  H   UNL A   1      43.528  27.365  30.115  1.00  0.00     0.167 HD
ATOM     25  C   UNL A   1      42.469  23.118  27.780  1.00  0.00     0.037 A 
ATOM     26  C   UNL A   1      44.564  29.235  31.966  1.00  0.00     0.037 A 
ATOM     27  C   UNL A   1      43.446  23.184  28.809  1.00  0.00     0.049 A 
ATOM     28  C   UNL A   1      45.268  27.972  31.700  1.00  0.00     0.074 A 
ATOM     29  C   UNL A   1      43.385  22.949  30.156  1.00  0.00     0.029 A 
ATOM     30  N   UNL A   1      44.616  23.839  28.520  1.00  0.00    -0.354 N 
ATOM     31  N   UNL A   1      45.988  27.741  30.644  1.00  0.00    -0.248 NA
ATOM     32  C   UNL A   1      45.117  26.861  32.648  1.00  0.00     0.031 C 
ATOM     33  C   UNL A   1      44.326  23.847  30.699  1.00  0.00     0.029 A 
ATOM     34  C   UNL A   1      45.020  24.483  29.663  1.00  0.00     0.049 A 
ATOM     35  H   UNL A   1      45.081  23.845  27.653  1.00  0.00     0.167 HD
ATOM     36  C   UNL A   1      46.090  26.372  30.655  1.00  0.00     0.074 A 
ATOM     37  C   UNL A   1      45.850  25.948  32.015  1.00  0.00     0.031 C 
ATOM     38  C   UNL A   1      45.817  25.679  29.521  1.00  0.00     0.037 A 
BRANCH  25  39
ATOM     39  C   UNL A   1      42.657  22.063  26.725  1.00  0.00     0.064 A 
ATOM     40  C   UNL A   1      42.069  20.789  26.933  1.00  0.00     0.173 A 
ATOM     41  C   UNL A   1      43.644  22.132  25.733  1.00  0.00     0.173 A 
ATOM     42  F   UNL A   1      41.086  20.625  27.832  1.00  0.00    -0.203 F 
ATOM     43  C   UNL A   1      42.530  19.646  26.285  1.00  0.00     0.198 A 
ATOM     44  C   UNL A   1      44.070  20.989  25.049  1.00  0.00     0.198 A 
ATOM     45  F   UNL A   1      44.286  23.279  25.474  1.00  0.00    -0.203 F 
ATOM     46  F   UNL A   1      42.035  18.444  26.614  1.00  0.00    -0.200 F 
ATOM     47  C   UNL A   1      43.544  19.744  25.353  1.00  0.00     0.200 A 
ATOM     48  F   UNL A   1      45.052  21.089  24.142  1.00  0.00    -0.200 F 
ATOM     49  F   UNL A   1      44.039  18.641  24.776  1.00  0.00    -0.200 F 
ENDBRANCH  25  39
BRANCH  26  50
ATOM     50  C   UNL A   1      45.150  30.097  33.071  1.00  0.00     0.064 A 
ATOM     51  C   UNL A   1      46.295  30.898  32.978  1.00  0.00     0.173 A 
ATOM     52  C   UNL A   1      44.482  30.199  34.329  1.00  0.00     0.173 A 
ATOM     53  F   UNL A   1      47.104  30.831  31.918  1.00  0.00    -0.203 F 
ATOM     54  C   UNL A   1      46.666  31.800  33.996  1.00  0.00     0.198 A 
ATOM     55  C   UNL A   1      44.819  31.124  35.318  1.00  0.00     0.198 A 
ATOM     56  F   UNL A   1      43.460  29.397  34.655  1.00  0.00    -0.203 F 
ATOM     57  F   UNL A   1      47.767  32.550  33.847  1.00  0.00    -0.200 F 
ATOM     58  C   UNL A   1      45.907  31.942  35.144  1.00  0.00     0.200 A 
ATOM     59  F   UNL A   1      44.065  31.220  36.424  1.00  0.00    -0.200 F 
ATOM     60  F   UNL A   1      46.228  32.845  36.079  1.00  0.00    -0.200 F 
ENDBRANCH  26  50
BRANCH  38  61
ATOM     61  C   UNL A   1      46.003  26.500  28.257  1.00  0.00     0.064 A 
ATOM     62  C   UNL A   1      47.289  26.907  27.869  1.00  0.00     0.173 A 
ATOM     63  C   UNL A   1      44.940  27.020  27.500  1.00  0.00     0.173 A 
ATOM     64  F   UNL A   1      48.362  26.449  28.529  1.00  0.00    -0.203 F 
ATOM     65  C   UNL A   1      47.489  27.794  26.807  1.00  0.00     0.198 A 
ATOM     66  C   UNL A   1      45.134  27.900  26.435  1.00  0.00     0.198 A 
ATOM     67  F   UNL A   1      43.684  26.683  27.779  1.00  0.00    -0.203 F 
ATOM     68  F   UNL A   1      48.732  28.166  26.473  1.00  0.00    -0.200 F 
ATOM     69  C   UNL A   1      46.412  28.293  26.092  1.00  0.00     0.200 A 
ATOM     70  F   UNL A   1      44.080  28.359  25.744  1.00  0.00    -0.200 F 
ATOM     71  F   UNL A   1      46.605  29.139  25.070  1.00  0.00    -0.200 F 
ENDBRANCH  38  61
ENDBRANCH  12  13
ENDBRANCH   5   7
ENDBRANCH   2   3
ENDBRANCH   1   2
BRANCH   1  72
ATOM     72  C   UNL A   1      33.028  26.894  26.113  1.00  0.00     0.023 C 
BRANCH  72  73
ATOM     73  C   UNL A   1      31.565  26.551  25.851  1.00  0.00     0.116 C 
BRANCH  73  74
ATOM     74  N   UNL A   1      31.088  25.488  26.713  1.00  0.00    -0.352 N 
ATOM     75  C   UNL A   1      31.282  24.135  26.595  1.00  0.00     0.255 C 
ATOM     76  H   UNL A   1      30.555  25.775  27.489  1.00  0.00     0.163 HD
ATOM     77  O   UNL A   1      30.746  23.373  27.385  1.00  0.00    -0.269 OA
BRANCH  75  78
ATOM     78  C   UNL A   1      32.079  23.585  25.478  1.00  0.00     0.083 A 
ATOM     79  C   UNL A   1      33.408  23.243  25.765  1.00  0.00     0.044 A 
ATOM     80  C   UNL A   1      31.598  23.501  24.166  1.00  0.00     0.128 A 
ATOM     81  C   UNL A   1      34.259  22.847  24.728  1.00  0.00     0.046 A 
ATOM     82  C   UNL A   1      32.438  23.066  23.141  1.00  0.00     0.049 A 
ATOM     83  C   UNL A   1      33.773  22.760  23.417  1.00  0.00     0.030 A 
BRANCH  80  84
ATOM     84  O   UNL A   1      30.314  23.860  23.868  1.00  0.00    -0.507 OA
ATOM     85  H   UNL A   1      29.919  23.569  23.069  1.00  0.00     0.293 HD
ENDBRANCH  80  84
BRANCH  81  86
ATOM     86  N   UNL A   1      35.622  22.574  25.000  1.00  0.00    -0.324 N 
ATOM     87  C   UNL A   1      36.305  21.434  24.626  1.00  0.00     0.091 A 
ATOM     88  C   UNL A   1      36.509  23.399  25.660  1.00  0.00     0.091 A 
ATOM     89  C   UNL A   1      37.618  21.550  25.030  1.00  0.00     0.020 A 
ATOM     90  C   UNL A   1      37.739  22.779  25.712  1.00  0.00     0.020 A 
ENDBRANCH  81  86
ENDBRANCH  75  78
ENDBRANCH  73  74
ENDBRANCH  72  73
ENDBRANCH   1  72
TORSDOF 13
ENDMDL
MODEL 2
REMARK VINA RESULT:     -12.2      0.588      1.292
REMARK SMILES O=C(NCCCCNC(=O)c1cc(-n2cccc2)ccc1O)c1ccc(-c2c3nc(c(-c4c(F)c(F)c(F)c(F)c4F)c4ccc([nH]4)c(-c4c(F)c(F)c(F)c(F)c4F)c4nc(c(-c5c(F)c(F)c(F)c(F)c5F)c5ccc2[nH]5)C=C4)C=C3)cc1
REMARK SMILES IDX 5 1 4 2 3 3 1 4 2 5 23 7 24 8 85 9 25 10 84 11 26 12 27 13
REMARK SMILES IDX 28 14 78 15 29 16 83 17 77 18 79 19 30 20 82 21 76 22 75 23
REMARK SMILES IDX 31 25 63 26 43 27 62 28 44 29 47 30 61 31 80 32 45 33 46 34
REMARK SMILES IDX 60 36 81 37 48 38 32 39 33 40 41 41 34 42 35 43 39 44 42 45
REMARK SMILES IDX 36 46 37 47 40 48 38 49 64 50 65 51 73 52 66 53 67 54 71 55
REMARK SMILES IDX 74 56 68 57 69 58 72 59 70 60 49 61 50 62 58 63 51 64 52 65
REMARK SMILES IDX 56 66 59 67 53 68 54 69 57 70 55 71 6 72 7 73 8 74 9 75
REMARK SMILES IDX 10 77 11 78 12 79 21 80 13 81 20 82 19 83 22 84 14 86 15 87
REMARK SMILES IDX 18 88 16 89 17 90
REMARK H PARENT 3 6 79 24 47 35 8 76 22 85
REMARK Flexibility Score: inf
ROOT
ATOM      1  C   UNL A   1      33.330  28.299  26.443  1.00  0.00     0.023 C 
ENDROOT
BRANCH   1   2
ATOM      2  C   UNL A   1      34.791  28.554  26.818  1.00  0.00     0.116 C 
BRANCH   2   3
ATOM      3  N   UNL A   1      35.067  29.867  27.374  1.00  0.00    -0.352 N 
ATOM      4  O   UNL A   1      36.176  31.636  28.182  1.00  0.00    -0.269 OA
ATOM      5  C   UNL A   1      36.218  30.457  27.833  1.00  0.00     0.251 C 
ATOM      6  H   UNL A   1      34.274  30.447  27.432  1.00  0.00     0.163 HD
BRANCH   5   7
ATOM      7  C   UNL A   1      37.487  29.707  27.991  1.00  0.00     0.039 A 
ATOM      8  C   UNL A   1      38.515  29.746  27.050  1.00  0.00     0.014 A 
ATOM      9  C   UNL A   1      37.651  28.947  29.162  1.00  0.00     0.014 A 
ATOM     10  C   UNL A   1      39.641  28.954  27.211  1.00  0.00     0.010 A 
ATOM     11  C   UNL A   1      38.807  28.191  29.361  1.00  0.00     0.010 A 
ATOM     12  C   UNL A   1      39.799  28.196  28.376  1.00  0.00    -0.014 A 
BRANCH  12  13
ATOM     13  C   UNL A   1      41.151  27.640  28.609  1.00  0.00     0.031 A 
ATOM     14  C   UNL A   1      41.244  26.182  28.118  1.00  0.00     0.074 A 
ATOM     15  C   UNL A   1      42.038  28.419  29.294  1.00  0.00     0.049 A 
ATOM     16  N   UNL A   1      41.984  25.201  28.537  1.00  0.00    -0.248 NA
ATOM     17  C   UNL A   1      40.314  25.732  27.043  1.00  0.00     0.031 C 
ATOM     18  C   UNL A   1      41.799  29.827  29.667  1.00  0.00     0.029 A 
ATOM     19  N   UNL A   1      43.293  28.200  29.830  1.00  0.00    -0.354 N 
ATOM     20  C   UNL A   1      41.758  24.106  27.673  1.00  0.00     0.074 A 
ATOM     21  C   UNL A   1      40.637  24.451  26.858  1.00  0.00     0.031 C 
ATOM     22  C   UNL A   1      42.813  30.302  30.421  1.00  0.00     0.029 A 
ATOM     23  C   UNL A   1      43.814  29.268  30.610  1.00  0.00     0.049 A 
ATOM     24  H   UNL A   1      43.791  27.363  29.682  1.00  0.00     0.167 HD
ATOM     25  C   UNL A   1      42.591  23.027  27.591  1.00  0.00     0.037 A 
ATOM     26  C   UNL A   1      44.945  29.305  31.384  1.00  0.00     0.037 A 
ATOM     27  C   UNL A   1      43.636  23.134  28.548  1.00  0.00     0.049 A 
ATOM     28  C   UNL A   1      45.634  28.033  31.120  1.00  0.00     0.074 A 
ATOM     29  C   UNL A   1      43.668  22.953  29.904  1.00  0.00     0.029 A 
ATOM     30  N   UNL A   1      44.781  23.779  28.154  1.00  0.00    -0.354 N 
ATOM     31  N   UNL A   1      46.280  27.763  30.026  1.00  0.00    -0.248 NA
ATOM     32  C   UNL A   1      45.553  26.960  32.118  1.00  0.00     0.031 C 
ATOM     33  C   UNL A   1      44.641  23.872  30.346  1.00  0.00     0.029 A 
ATOM     34  C   UNL A   1      45.260  24.468  29.241  1.00  0.00     0.049 A 
ATOM     35  H   UNL A   1      45.186  23.752  27.258  1.00  0.00     0.167 HD
ATOM     36  C   UNL A   1      46.388  26.395  30.083  1.00  0.00     0.074 A 
ATOM     37  C   UNL A   1      46.244  26.024  31.472  1.00  0.00     0.031 C 
ATOM     38  C   UNL A   1      46.040  25.658  28.998  1.00  0.00     0.037 A 
BRANCH  25  39
ATOM     39  C   UNL A   1      42.710  21.933  26.568  1.00  0.00     0.064 A 
ATOM     40  C   UNL A   1      42.169  20.659  26.878  1.00  0.00     0.173 A 
ATOM     41  C   UNL A   1      43.606  21.978  25.493  1.00  0.00     0.173 A 
ATOM     42  F   UNL A   1      41.271  20.515  27.865  1.00  0.00    -0.203 F 
ATOM     43  C   UNL A   1      42.598  19.497  26.239  1.00  0.00     0.198 A 
ATOM     44  C   UNL A   1      43.996  20.814  24.821  1.00  0.00     0.198 A 
ATOM     45  F   UNL A   1      44.199  23.123  25.132  1.00  0.00    -0.203 F 
ATOM     46  F   UNL A   1      42.158  18.302  26.658  1.00  0.00    -0.200 F 
ATOM     47  C   UNL A   1      43.525  19.574  25.220  1.00  0.00     0.200 A 
ATOM     48  F   UNL A   1      44.895  20.893  23.829  1.00  0.00    -0.200 F 
ATOM     49  F   UNL A   1      43.992  18.456  24.647  1.00  0.00    -0.200 F 
ENDBRANCH  25  39
BRANCH  26  50
ATOM     50  C   UNL A   1      45.602  30.210  32.411  1.00  0.00     0.064 A 
ATOM     51  C   UNL A   1      46.823  30.881  32.265  1.00  0.00     0.173 A 
ATOM     52  C   UNL A   1      44.933  30.502  33.639  1.00  0.00     0.173 A 
ATOM     53  F   UNL A   1      47.633  30.629  31.234  1.00  0.00    -0.203 F 
ATOM     54  C   UNL A   1      47.271  31.838  33.198  1.00  0.00     0.198 A 
ATOM     55  C   UNL A   1      45.351  31.483  34.540  1.00  0.00     0.198 A 
ATOM     56  F   UNL A   1      43.832  29.842  34.020  1.00  0.00    -0.203 F 
ATOM     57  F   UNL A   1      48.444  32.457  33.000  1.00  0.00    -0.200 F 
ATOM     58  C   UNL A   1      46.517  32.167  34.310  1.00  0.00     0.200 A 
ATOM     59  F   UNL A   1      44.598  31.763  35.614  1.00  0.00    -0.200 F 
ATOM     60  F   UNL A   1      46.917  33.123  35.160  1.00  0.00    -0.200 F 
ENDBRANCH  26  50
BRANCH  38  61
ATOM     61  C   UNL A   1      46.136  26.429  27.693  1.00  0.00     0.064 A 
ATOM     62  C   UNL A   1      44.975  26.710  26.957  1.00  0.00     0.173 A 
ATOM     63  C   UNL A   1      47.351  26.768  27.075  1.00  0.00     0.173 A 
ATOM     64  F   UNL A   1      43.771  26.430  27.478  1.00  0.00    -0.203 F 
ATOM     65  C   UNL A   1      45.033  27.273  25.679  1.00  0.00     0.198 A 
ATOM     66  C   UNL A   1      47.415  27.336  25.801  1.00  0.00     0.198 A 
ATOM     67  F   UNL A   1      48.507  26.555  27.695  1.00  0.00    -0.203 F 
ATOM     68  F   UNL A   1      43.901  27.517  25.006  1.00  0.00    -0.200 F 
ATOM     69  C   UNL A   1      46.253  27.582  25.100  1.00  0.00     0.200 A 
ATOM     70  F   UNL A   1      48.605  27.645  25.264  1.00  0.00    -0.200 F 
ATOM     71  F   UNL A   1      46.307  28.128  23.876  1.00  0.00    -0.200 F 
ENDBRANCH  38  61
ENDBRANCH  12  13
ENDBRANCH   5   7
ENDBRANCH   2   3
ENDBRANCH   1   2
BRANCH   1  72
ATOM     72  C   UNL A   1      33.055  26.932  25.815  1.00  0.00     0.023 C 
BRANCH  72  73
ATOM     73  C   UNL A   1      31.581  26.618  25.578  1.00  0.00     0.116 C 
BRANCH  73  74
ATOM     74  N   UNL A   1      31.080  25.614  26.495  1.00  0.00    -0.352 N 
ATOM     75  C   UNL A   1      31.238  24.252  26.447  1.00  0.00     0.255 C 
ATOM     76  H   UNL A   1      30.558  25.955  27.256  1.00  0.00     0.163 HD
ATOM     77  O   UNL A   1      30.686  23.546  27.277  1.00  0.00    -0.269 OA
BRANCH  75  78
ATOM     78  C   UNL A   1      32.016  23.625  25.357  1.00  0.00     0.083 A 
ATOM     79  C   UNL A   1      33.325  23.230  25.669  1.00  0.00     0.044 A 
ATOM     80  C   UNL A   1      31.542  23.516  24.045  1.00  0.00     0.128 A 
ATOM     81  C   UNL A   1      34.164  22.757  24.654  1.00  0.00     0.046 A 
ATOM     82  C   UNL A   1      32.367  23.004  23.044  1.00  0.00     0.049 A 
ATOM     83  C   UNL A   1      33.684  22.645  23.343  1.00  0.00     0.030 A 
BRANCH  80  84
ATOM     84  O   UNL A   1      30.278  23.923  23.722  1.00  0.00    -0.507 OA
ATOM     85  H   UNL A   1      29.536  23.517  24.126  1.00  0.00     0.293 HD
ENDBRANCH  80  84
BRANCH  81  86
ATOM     86  N   UNL A   1      35.510  22.430  24.948  1.00  0.00    -0.324 N 
ATOM     87  C   UNL A   1      36.036  21.155  25.004  1.00  0.00     0.091 A 
ATOM     88  C   UNL A   1      36.534  23.318  25.205  1.00  0.00     0.091 A 
ATOM     89  C   UNL A   1      37.384  21.240  25.274  1.00  0.00     0.020 A 
ATOM     90  C   UNL A   1      37.693  22.608  25.432  1.00  0.00     0.020 A 
ENDBRANCH  81  86
ENDBRANCH  75  78
ENDBRANCH  73  74
ENDBRANCH  72  73
ENDBRANCH   1  72
TORSDOF 13
ENDMDL
MODEL 3
REMARK VINA RESULT:     -12.2      0.290      1.182
REMARK SMILES O=C(NCCCCNC(=O)c1cc(-n2cccc2)ccc1O)c1ccc(-c2c3nc(c(-c4c(F)c(F)c(F)c(F)c4F)c4ccc([nH]4)c(-c4c(F)c(F)c(F)c(F)c4F)c4nc(c(-c5c(F)c(F)c(F)c(F)c5F)c5ccc2[nH]5)C=C4)C=C3)cc1
REMARK SMILES IDX 5 1 4 2 3 3 1 4 2 5 23 7 24 8 85 9 25 10 84 11 26 12 27 13
REMARK SMILES IDX 28 14 78 15 29 16 83 17 77 18 79 19 30 20 82 21 76 22 75 23
REMARK SMILES IDX 31 25 63 26 43 27 62 28 44 29 47 30 61 31 80 32 45 33 46 34
REMARK SMILES IDX 60 36 81 37 48 38 32 39 33 40 41 41 34 42 35 43 39 44 42 45
REMARK SMILES IDX 36 46 37 47 40 48 38 49 64 50 65 51 73 52 66 53 67 54 71 55
REMARK SMILES IDX 74 56 68 57 69 58 72 59 70 60 49 61 50 62 58 63 51 64 52 65
REMARK SMILES IDX 56 66 59 67 53 68 54 69 57 70 55 71 6 72 7 73 8 74 9 75
REMARK SMILES IDX 10 77 11 78 12 79 21 80 13 81 20 82 19 83 22 84 14 86 15 87
REMARK SMILES IDX 18 88 16 89 17 90
REMARK H PARENT 3 6 79 24 47 35 8 76 22 85
REMARK Flexibility Score: inf
ROOT
ATOM      1  C   UNL A   1      33.484  28.507  25.847  1.00  0.00     0.023 C 
ENDROOT
BRANCH   1   2
ATOM      2  C   UNL A   1      34.622  28.584  26.865  1.00  0.00     0.116 C 
BRANCH   2   3
ATOM      3  N   UNL A   1      34.886  29.909  27.400  1.00  0.00    -0.352 N 
ATOM      4  O   UNL A   1      35.976  31.691  28.204  1.00  0.00    -0.269 OA
ATOM      5  C   UNL A   1      36.023  30.504  27.885  1.00  0.00     0.251 C 
ATOM      6  H   UNL A   1      34.095  30.494  27.416  1.00  0.00     0.163 HD
BRANCH   5   7
ATOM      7  C   UNL A   1      37.282  29.752  28.105  1.00  0.00     0.039 A 
ATOM      8  C   UNL A   1      38.356  29.793  27.217  1.00  0.00     0.014 A 
ATOM      9  C   UNL A   1      37.385  28.989  29.280  1.00  0.00     0.014 A 
ATOM     10  C   UNL A   1      39.472  28.999  27.432  1.00  0.00     0.010 A 
ATOM     11  C   UNL A   1      38.529  28.232  29.535  1.00  0.00     0.010 A 
ATOM     12  C   UNL A   1      39.570  28.237  28.602  1.00  0.00    -0.014 A 
BRANCH  12  13
ATOM     13  C   UNL A   1      40.908  27.679  28.902  1.00  0.00     0.031 A 
ATOM     14  C   UNL A   1      41.046  26.245  28.354  1.00  0.00     0.074 A 
ATOM     15  C   UNL A   1      41.740  28.432  29.678  1.00  0.00     0.049 A 
ATOM     16  N   UNL A   1      41.765  25.251  28.780  1.00  0.00    -0.248 NA
ATOM     17  C   UNL A   1      40.195  25.838  27.201  1.00  0.00     0.031 C 
ATOM     18  C   UNL A   1      41.465  29.821  30.096  1.00  0.00     0.029 A 
ATOM     19  N   UNL A   1      42.958  28.197  30.289  1.00  0.00    -0.354 N 
ATOM     20  C   UNL A   1      41.606  24.193  27.856  1.00  0.00     0.074 A 
ATOM     21  C   UNL A   1      40.540  24.568  26.982  1.00  0.00     0.031 C 
ATOM     22  C   UNL A   1      42.421  30.268  30.937  1.00  0.00     0.029 A 
ATOM     23  C   UNL A   1      43.415  29.233  31.148  1.00  0.00     0.049 A 
ATOM     24  H   UNL A   1      43.472  27.370  30.138  1.00  0.00     0.167 HD
ATOM     25  C   UNL A   1      42.452  23.124  27.783  1.00  0.00     0.037 A 
ATOM     26  C   UNL A   1      44.491  29.242  31.998  1.00  0.00     0.037 A 
ATOM     27  C   UNL A   1      43.429  23.195  28.812  1.00  0.00     0.049 A 
ATOM     28  C   UNL A   1      45.207  27.986  31.725  1.00  0.00     0.074 A 
ATOM     29  C   UNL A   1      43.372  22.953  30.158  1.00  0.00     0.029 A 
ATOM     30  N   UNL A   1      44.592  23.863  28.526  1.00  0.00    -0.354 N 
ATOM     31  N   UNL A   1      45.928  27.768  30.667  1.00  0.00    -0.248 NA
ATOM     32  C   UNL A   1      45.068  26.870  32.667  1.00  0.00     0.031 C 
ATOM     33  C   UNL A   1      44.305  23.858  30.705  1.00  0.00     0.029 A 
ATOM     34  C   UNL A   1      44.991  24.505  29.671  1.00  0.00     0.049 A 
ATOM     35  H   UNL A   1      45.057  23.877  27.658  1.00  0.00     0.167 HD
ATOM     36  C   UNL A   1      46.043  26.399  30.671  1.00  0.00     0.074 A 
ATOM     37  C   UNL A   1      45.809  25.967  32.029  1.00  0.00     0.031 C 
ATOM     38  C   UNL A   1      45.776  25.710  29.534  1.00  0.00     0.037 A 
BRANCH  25  39
ATOM     39  C   UNL A   1      42.650  22.077  26.724  1.00  0.00     0.064 A 
ATOM     40  C   UNL A   1      42.084  20.793  26.932  1.00  0.00     0.173 A 
ATOM     41  C   UNL A   1      43.627  22.165  25.725  1.00  0.00     0.173 A 
ATOM     42  F   UNL A   1      41.111  20.609  27.838  1.00  0.00    -0.203 F 
ATOM     43  C   UNL A   1      42.559  19.659  26.276  1.00  0.00     0.198 A 
ATOM     44  C   UNL A   1      44.067  21.032  25.033  1.00  0.00     0.198 A 
ATOM     45  F   UNL A   1      44.248  23.323  25.465  1.00  0.00    -0.203 F 
ATOM     46  F   UNL A   1      42.086  18.448  26.604  1.00  0.00    -0.200 F 
ATOM     47  C   UNL A   1      43.564  19.777  25.337  1.00  0.00     0.200 A 
ATOM     48  F   UNL A   1      45.040  21.150  24.119  1.00  0.00    -0.200 F 
ATOM     49  F   UNL A   1      44.072  18.684  24.752  1.00  0.00    -0.200 F 
ENDBRANCH  25  39
BRANCH  26  50
ATOM     50  C   UNL A   1      45.070  30.104  33.106  1.00  0.00     0.064 A 
ATOM     51  C   UNL A   1      44.543  30.264  34.393  1.00  0.00     0.173 A 
ATOM     52  C   UNL A   1      46.306  30.790  32.905  1.00  0.00     0.173 A 
ATOM     53  F   UNL A   1      43.336  29.790  34.712  1.00  0.00    -0.203 F 
ATOM     54  C   UNL A   1      45.241  30.943  35.412  1.00  0.00     0.198 A 
ATOM     55  C   UNL A   1      47.021  31.422  33.923  1.00  0.00     0.198 A 
ATOM     56  F   UNL A   1      46.881  30.877  31.698  1.00  0.00    -0.203 F 
ATOM     57  F   UNL A   1      44.692  31.056  36.630  1.00  0.00    -0.200 F 
ATOM     58  C   UNL A   1      46.494  31.484  35.188  1.00  0.00     0.200 A 
ATOM     59  F   UNL A   1      48.228  31.948  33.662  1.00  0.00    -0.200 F 
ATOM     60  F   UNL A   1      47.181  32.073  36.176  1.00  0.00    -0.200 F 
ENDBRANCH  26  50
BRANCH  38  61
ATOM     61  C   UNL A   1      45.954  26.538  28.274  1.00  0.00     0.064 A 
ATOM     62  C   UNL A   1      47.235  26.961  27.888  1.00  0.00     0.173 A 
ATOM     63  C   UNL A   1      44.885  27.049  27.519  1.00  0.00     0.173 A 
ATOM     64  F   UNL A   1      48.313  26.511  28.546  1.00  0.00    -0.203 F 
ATOM     65  C   UNL A   1      47.425  27.855  26.830  1.00  0.00     0.198 A 
ATOM     66  C   UNL A   1      45.069  27.937  26.458  1.00  0.00     0.198 A 
ATOM     67  F   UNL A   1      43.633  26.697  27.797  1.00  0.00    -0.203 F 
ATOM     68  F   UNL A   1      48.664  28.242  26.498  1.00  0.00    -0.200 F 
ATOM     69  C   UNL A   1      46.342  28.346  26.117  1.00  0.00     0.200 A 
ATOM     70  F   UNL A   1      44.010  28.387  25.769  1.00  0.00    -0.200 F 
ATOM     71  F   UNL A   1      46.527  29.198  25.099  1.00  0.00    -0.200 F 
ENDBRANCH  38  61
ENDBRANCH  12  13
ENDBRANCH   5   7
ENDBRANCH   2   3
ENDBRANCH   1   2
BRANCH   1  72
ATOM     72  C   UNL A   1      32.169  27.947  26.390  1.00  0.00     0.023 C 
BRANCH  72  73
ATOM     73  C   UNL A   1      31.627  26.734  25.642  1.00  0.00     0.116 C 
BRANCH  73  74
ATOM     74  N   UNL A   1      31.114  25.720  26.541  1.00  0.00    -0.352 N 
ATOM     75  C   UNL A   1      31.262  24.358  26.473  1.00  0.00     0.255 C 
ATOM     76  H   UNL A   1      30.589  26.053  27.304  1.00  0.00     0.163 HD
ATOM     77  O   UNL A   1      30.699  23.643  27.289  1.00  0.00    -0.269 OA
BRANCH  75  78
ATOM     78  C   UNL A   1      32.042  23.741  25.379  1.00  0.00     0.083 A 
ATOM     79  C   UNL A   1      33.365  23.385  25.676  1.00  0.00     0.044 A 
ATOM     80  C   UNL A   1      31.553  23.608  24.074  1.00  0.00     0.128 A 
ATOM     81  C   UNL A   1      34.203  22.925  24.655  1.00  0.00     0.046 A 
ATOM     82  C   UNL A   1      32.379  23.109  23.067  1.00  0.00     0.049 A 
ATOM     83  C   UNL A   1      33.709  22.788  23.352  1.00  0.00     0.030 A 
BRANCH  80  84
ATOM     84  O   UNL A   1      30.275  23.978  23.765  1.00  0.00    -0.507 OA
ATOM     85  H   UNL A   1      29.640  24.087  24.446  1.00  0.00     0.293 HD
ENDBRANCH  80  84
BRANCH  81  86
ATOM     86  N   UNL A   1      35.561  22.636  24.933  1.00  0.00    -0.324 N 
ATOM     87  C   UNL A   1      36.193  21.431  24.702  1.00  0.00     0.091 A 
ATOM     88  C   UNL A   1      36.494  23.505  25.460  1.00  0.00     0.091 A 
ATOM     89  C   UNL A   1      37.518  21.547  25.060  1.00  0.00     0.020 A 
ATOM     90  C   UNL A   1      37.701  22.850  25.569  1.00  0.00     0.020 A 
ENDBRANCH  81  86
ENDBRANCH  75  78
ENDBRANCH  73  74
ENDBRANCH  72  73
ENDBRANCH   1  72
TORSDOF 13
ENDMDL
