MODEL 1
REMARK VINA RESULT:     -11.2      0.000      0.000
REMARK SMILES CC[NH2+][C@@](C)(C[C@@H](C)Sc1ccncc1)C(=O)NCCCCNC(=O)c1ccc(-c2c3nc(c(-c4c(F)c(F)c(F)c(F)c4F)c4ccc([nH]4)c(-c4c(F)c(F)c(F)c(F)c4F)c4nc(c(-c5c(F)c(F)c(F)c(F)c5F)c5ccc2[nH]5)C=C4)C=C3)cc1
REMARK SMILES IDX 19 1 18 2 16 3 17 4 4 6 5 7 3 8 2 11 1 12 6 13 7 14 8 15
REMARK SMILES IDX 9 16 10 17 11 18 15 19 12 20 14 21 13 22 20 23 21 24 22 25
REMARK SMILES IDX 23 26 24 27 25 29 26 30 27 31 88 32 28 33 87 34 29 35 30 36
REMARK SMILES IDX 31 37 81 38 32 39 86 40 80 41 82 42 33 43 85 44 79 45 78 46
REMARK SMILES IDX 34 48 66 49 46 50 65 51 47 52 50 53 64 54 83 55 48 56 49 57
REMARK SMILES IDX 63 59 84 60 51 61 35 62 36 63 44 64 37 65 38 66 42 67 45 68
REMARK SMILES IDX 39 69 40 70 43 71 41 72 67 73 68 74 76 75 69 76 70 77 74 78
REMARK SMILES IDX 77 79 71 80 72 81 75 82 73 83 52 84 53 85 61 86 54 87 55 88
REMARK SMILES IDX 59 89 62 90 56 91 57 92 60 93 58 94
REMARK H PARENT 18 5 3 9 3 10 23 28 82 47 50 58
REMARK Flexibility Score: inf
ROOT
ATOM      1  C   UNL A   1      33.200  29.894  26.291  1.00  0.00     0.116 C 
ENDROOT
BRANCH   1   2
ATOM      2  N   UNL A   1      33.399  29.786  24.862  1.00  0.00    -0.351 N 
ATOM      3  C   UNL A   1      33.411  28.733  23.995  1.00  0.00     0.281 C 
ATOM      4  O   UNL A   1      33.692  29.044  22.833  1.00  0.00    -0.268 OA
ATOM      5  H   UNL A   1      33.558  30.653  24.423  1.00  0.00     0.163 HD
BRANCH   3   6
ATOM      6  C   UNL A   1      33.092  27.255  24.436  1.00  0.00     0.173 C 
ATOM      7  C   UNL A   1      33.714  26.974  25.825  1.00  0.00     0.090 C 
BRANCH   6   8
ATOM      8  N   UNL A   1      31.617  27.016  24.535  1.00  0.00    -0.334 N 
ATOM      9  H   UNL A   1      31.416  26.118  24.093  1.00  0.00     0.347 HD
ATOM     10  H   UNL A   1      31.399  27.049  25.530  1.00  0.00     0.347 HD
BRANCH   8  11
ATOM     11  C   UNL A   1      30.758  28.026  23.909  1.00  0.00     0.257 C 
ATOM     12  C   UNL A   1      29.475  27.368  23.414  1.00  0.00     0.071 C 
ENDBRANCH   8  11
ENDBRANCH   6   8
BRANCH   6  13
ATOM     13  C   UNL A   1      33.642  26.214  23.412  1.00  0.00     0.093 C 
BRANCH  13  14
ATOM     14  C   UNL A   1      32.629  25.364  22.611  1.00  0.00     0.055 C 
ATOM     15  C   UNL A   1      32.576  25.591  21.104  1.00  0.00     0.020 C 
BRANCH  14  16
ATOM     16  S   UNL A   1      32.853  23.550  22.988  1.00  0.00    -0.123 SA
BRANCH  16  17
ATOM     17  C   UNL A   1      32.298  23.398  24.677  1.00  0.00     0.011 A 
ATOM     18  C   UNL A   1      30.947  23.521  24.996  1.00  0.00     0.035 A 
ATOM     19  C   UNL A   1      33.224  23.246  25.709  1.00  0.00     0.035 A 
ATOM     20  C   UNL A   1      30.576  23.438  26.330  1.00  0.00     0.112 A 
ATOM     21  C   UNL A   1      32.755  23.177  27.011  1.00  0.00     0.112 A 
ATOM     22  N   UNL A   1      31.449  23.251  27.341  1.00  0.00    -0.265 NA
ENDBRANCH  16  17
ENDBRANCH  14  16
ENDBRANCH  13  14
ENDBRANCH   6  13
ENDBRANCH   3   6
ENDBRANCH   1   2
BRANCH   1  23
ATOM     23  C   UNL A   1      31.806  30.405  26.635  1.00  0.00     0.023 C 
BRANCH  23  24
ATOM     24  C   UNL A   1      31.646  31.920  26.662  1.00  0.00     0.023 C 
BRANCH  24  25
ATOM     25  C   UNL A   1      32.753  32.654  27.401  1.00  0.00     0.116 C 
BRANCH  25  26
ATOM     26  N   UNL A   1      32.441  34.053  27.657  1.00  0.00    -0.352 N 
ATOM     27  C   UNL A   1      33.023  34.916  28.551  1.00  0.00     0.251 C 
ATOM     28  H   UNL A   1      31.711  34.432  27.115  1.00  0.00     0.163 HD
ATOM     29  O   UNL A   1      32.577  36.045  28.716  1.00  0.00    -0.269 OA
BRANCH  27  30
ATOM     30  C   UNL A   1      34.177  34.449  29.343  1.00  0.00     0.039 A 
ATOM     31  C   UNL A   1      33.944  33.708  30.502  1.00  0.00     0.014 A 
ATOM     32  C   UNL A   1      35.481  34.695  28.904  1.00  0.00     0.014 A 
ATOM     33  C   UNL A   1      35.022  33.153  31.189  1.00  0.00     0.010 A 
ATOM     34  C   UNL A   1      36.546  34.071  29.539  1.00  0.00     0.010 A 
ATOM     35  C   UNL A   1      36.327  33.299  30.690  1.00  0.00    -0.014 A 
BRANCH  35  36
ATOM     36  C   UNL A   1      37.485  32.659  31.360  1.00  0.00     0.031 A 
ATOM     37  C   UNL A   1      38.214  31.536  30.677  1.00  0.00     0.074 A 
ATOM     38  C   UNL A   1      37.829  33.038  32.606  1.00  0.00     0.049 A 
ATOM     39  N   UNL A   1      39.193  30.793  31.124  1.00  0.00    -0.248 NA
ATOM     40  C   UNL A   1      37.758  31.180  29.324  1.00  0.00     0.031 C 
ATOM     41  C   UNL A   1      37.161  34.079  33.390  1.00  0.00     0.029 A 
ATOM     42  N   UNL A   1      38.819  32.581  33.438  1.00  0.00    -0.354 N 
ATOM     43  C   UNL A   1      39.452  29.870  30.119  1.00  0.00     0.074 A 
ATOM     44  C   UNL A   1      38.494  30.110  29.063  1.00  0.00     0.031 C 
ATOM     45  C   UNL A   1      37.777  34.199  34.576  1.00  0.00     0.029 A 
ATOM     46  C   UNL A   1      38.857  33.221  34.652  1.00  0.00     0.049 A 
ATOM     47  H   UNL A   1      39.445  31.863  33.187  1.00  0.00     0.167 HD
ATOM     48  C   UNL A   1      40.421  28.925  30.072  1.00  0.00     0.037 A 
ATOM     49  C   UNL A   1      39.670  33.033  35.709  1.00  0.00     0.037 A 
ATOM     50  C   UNL A   1      41.394  28.717  31.110  1.00  0.00     0.049 A 
ATOM     51  C   UNL A   1      40.743  31.980  35.626  1.00  0.00     0.074 A 
ATOM     52  C   UNL A   1      42.462  27.838  31.128  1.00  0.00     0.029 A 
ATOM     53  N   UNL A   1      41.417  29.402  32.318  1.00  0.00    -0.354 N 
ATOM     54  N   UNL A   1      41.029  31.164  34.640  1.00  0.00    -0.248 NA
ATOM     55  C   UNL A   1      41.610  31.826  36.802  1.00  0.00     0.031 C 
ATOM     56  C   UNL A   1      43.106  27.959  32.364  1.00  0.00     0.029 A 
ATOM     57  C   UNL A   1      42.468  28.948  33.097  1.00  0.00     0.049 A 
ATOM     58  H   UNL A   1      40.780  30.105  32.580  1.00  0.00     0.167 HD
ATOM     59  C   UNL A   1      42.125  30.425  35.062  1.00  0.00     0.074 A 
ATOM     60  C   UNL A   1      42.461  30.897  36.389  1.00  0.00     0.031 C 
ATOM     61  C   UNL A   1      42.794  29.441  34.411  1.00  0.00     0.037 A 
BRANCH  48  62
ATOM     62  C   UNL A   1      40.477  28.048  28.855  1.00  0.00     0.064 A 
ATOM     63  C   UNL A   1      39.783  26.830  28.793  1.00  0.00     0.173 A 
ATOM     64  C   UNL A   1      41.208  28.446  27.726  1.00  0.00     0.173 A 
ATOM     65  F   UNL A   1      39.081  26.397  29.851  1.00  0.00    -0.203 F 
ATOM     66  C   UNL A   1      39.841  26.030  27.654  1.00  0.00     0.198 A 
ATOM     67  C   UNL A   1      41.238  27.659  26.578  1.00  0.00     0.198 A 
ATOM     68  F   UNL A   1      41.886  29.604  27.732  1.00  0.00    -0.203 F 
ATOM     69  F   UNL A   1      39.212  24.847  27.637  1.00  0.00    -0.200 F 
ATOM     70  C   UNL A   1      40.562  26.448  26.546  1.00  0.00     0.200 A 
ATOM     71  F   UNL A   1      41.925  28.070  25.504  1.00  0.00    -0.200 F 
ATOM     72  F   UNL A   1      40.612  25.681  25.449  1.00  0.00    -0.200 F 
ENDBRANCH  48  62
BRANCH  49  73
ATOM     73  C   UNL A   1      39.526  33.877  36.922  1.00  0.00     0.064 A 
ATOM     74  C   UNL A   1      38.786  33.428  38.024  1.00  0.00     0.173 A 
ATOM     75  C   UNL A   1      40.113  35.147  37.006  1.00  0.00     0.173 A 
ATOM     76  F   UNL A   1      38.188  32.228  37.985  1.00  0.00    -0.203 F 
ATOM     77  C   UNL A   1      38.618  34.226  39.154  1.00  0.00     0.198 A 
ATOM     78  C   UNL A   1      39.969  35.934  38.147  1.00  0.00     0.198 A 
ATOM     79  F   UNL A   1      40.836  35.622  35.981  1.00  0.00    -0.203 F 
ATOM     80  F   UNL A   1      37.864  33.791  40.173  1.00  0.00    -0.200 F 
ATOM     81  C   UNL A   1      39.214  35.476  39.216  1.00  0.00     0.200 A 
ATOM     82  F   UNL A   1      40.558  37.136  38.209  1.00  0.00    -0.200 F 
ATOM     83  F   UNL A   1      39.054  36.243  40.303  1.00  0.00    -0.200 F 
ENDBRANCH  49  73
BRANCH  61  84
ATOM     84  C   UNL A   1      43.979  28.839  35.105  1.00  0.00     0.064 A 
ATOM     85  C   UNL A   1      43.858  27.700  35.915  1.00  0.00     0.173 A 
ATOM     86  C   UNL A   1      45.259  29.385  34.923  1.00  0.00     0.173 A 
ATOM     87  F   UNL A   1      42.654  27.152  36.133  1.00  0.00    -0.203 F 
ATOM     88  C   UNL A   1      44.972  27.145  36.537  1.00  0.00     0.198 A 
ATOM     89  C   UNL A   1      46.375  28.808  35.521  1.00  0.00     0.198 A 
ATOM     90  F   UNL A   1      45.428  30.469  34.152  1.00  0.00    -0.203 F 
ATOM     91  F   UNL A   1      44.828  26.084  37.343  1.00  0.00    -0.200 F 
ATOM     92  C   UNL A   1      46.230  27.692  36.332  1.00  0.00     0.200 A 
ATOM     93  F   UNL A   1      47.591  29.330  35.311  1.00  0.00    -0.200 F 
ATOM     94  F   UNL A   1      47.303  27.150  36.925  1.00  0.00    -0.200 F 
ENDBRANCH  61  84
ENDBRANCH  35  36
ENDBRANCH  27  30
ENDBRANCH  25  26
ENDBRANCH  24  25
ENDBRANCH  23  24
ENDBRANCH   1  23
TORSDOF 17
ENDMDL
MODEL 2
REMARK VINA RESULT:     -11.1      0.989      7.525
REMARK SMILES CC[NH2+][C@@](C)(C[C@@H](C)Sc1ccncc1)C(=O)NCCCCNC(=O)c1ccc(-c2c3nc(c(-c4c(F)c(F)c(F)c(F)c4F)c4ccc([nH]4)c(-c4c(F)c(F)c(F)c(F)c4F)c4nc(c(-c5c(F)c(F)c(F)c(F)c5F)c5ccc2[nH]5)C=C4)C=C3)cc1
REMARK SMILES IDX 19 1 18 2 16 3 17 4 4 6 5 7 3 8 2 11 1 12 6 13 7 14 8 15
REMARK SMILES IDX 9 16 10 17 11 18 15 19 12 20 14 21 13 22 20 23 21 24 22 25
REMARK SMILES IDX 23 26 24 27 25 29 26 30 27 31 88 32 28 33 87 34 29 35 30 36
REMARK SMILES IDX 31 37 81 38 32 39 86 40 80 41 82 42 33 43 85 44 79 45 78 46
REMARK SMILES IDX 34 48 66 49 46 50 65 51 47 52 50 53 64 54 83 55 48 56 49 57
REMARK SMILES IDX 63 59 84 60 51 61 35 62 36 63 44 64 37 65 38 66 42 67 45 68
REMARK SMILES IDX 39 69 40 70 43 71 41 72 67 73 68 74 76 75 69 76 70 77 74 78
REMARK SMILES IDX 77 79 71 80 72 81 75 82 73 83 52 84 53 85 61 86 54 87 55 88
REMARK SMILES IDX 59 89 62 90 56 91 57 92 60 93 58 94
REMARK H PARENT 18 5 3 9 3 10 23 28 82 47 50 58
REMARK Flexibility Score: inf
ROOT
ATOM      1  C   UNL A   1      32.779  30.040  25.941  1.00  0.00     0.116 C 
ENDROOT
BRANCH   1   2
ATOM      2  N   UNL A   1      33.293  29.709  24.629  1.00  0.00    -0.351 N 
ATOM      3  C   UNL A   1      33.229  28.589  23.854  1.00  0.00     0.281 C 
ATOM      4  O   UNL A   1      33.869  28.674  22.800  1.00  0.00    -0.268 OA
ATOM      5  H   UNL A   1      33.792  30.446  24.209  1.00  0.00     0.163 HD
BRANCH   3   6
ATOM      6  C   UNL A   1      32.411  27.308  24.262  1.00  0.00     0.173 C 
ATOM      7  C   UNL A   1      33.039  26.661  25.519  1.00  0.00     0.090 C 
BRANCH   6   8
ATOM      8  N   UNL A   1      30.985  27.641  24.579  1.00  0.00    -0.334 N 
ATOM      9  H   UNL A   1      30.525  26.784  24.887  1.00  0.00     0.347 HD
ATOM     10  H   UNL A   1      31.026  28.372  25.289  1.00  0.00     0.347 HD
BRANCH   8  11
ATOM     11  C   UNL A   1      30.196  28.204  23.478  1.00  0.00     0.257 C 
ATOM     12  C   UNL A   1      28.834  27.522  23.427  1.00  0.00     0.071 C 
ENDBRANCH   8  11
ENDBRANCH   6   8
BRANCH   6  13
ATOM     13  C   UNL A   1      32.374  26.254  23.112  1.00  0.00     0.093 C 
BRANCH  13  14
ATOM     14  C   UNL A   1      32.074  24.781  23.475  1.00  0.00     0.055 C 
ATOM     15  C   UNL A   1      30.623  24.325  23.371  1.00  0.00     0.020 C 
BRANCH  14  16
ATOM     16  S   UNL A   1      33.186  23.631  22.513  1.00  0.00    -0.123 SA
BRANCH  16  17
ATOM     17  C   UNL A   1      33.278  22.175  23.539  1.00  0.00     0.011 A 
ATOM     18  C   UNL A   1      32.391  21.115  23.353  1.00  0.00     0.035 A 
ATOM     19  C   UNL A   1      34.180  22.120  24.601  1.00  0.00     0.035 A 
ATOM     20  C   UNL A   1      32.478  20.027  24.207  1.00  0.00     0.112 A 
ATOM     21  C   UNL A   1      34.188  20.990  25.402  1.00  0.00     0.112 A 
ATOM     22  N   UNL A   1      33.369  19.934  25.217  1.00  0.00    -0.265 NA
ENDBRANCH  16  17
ENDBRANCH  14  16
ENDBRANCH  13  14
ENDBRANCH   6  13
ENDBRANCH   3   6
ENDBRANCH   1   2
BRANCH   1  23
ATOM     23  C   UNL A   1      31.540  30.923  25.860  1.00  0.00     0.023 C 
BRANCH  23  24
ATOM     24  C   UNL A   1      31.406  31.974  26.956  1.00  0.00     0.023 C 
BRANCH  24  25
ATOM     25  C   UNL A   1      32.664  32.793  27.197  1.00  0.00     0.116 C 
BRANCH  25  26
ATOM     26  N   UNL A   1      32.386  34.164  27.601  1.00  0.00    -0.352 N 
ATOM     27  C   UNL A   1      33.001  34.918  28.568  1.00  0.00     0.251 C 
ATOM     28  H   UNL A   1      31.657  34.611  27.113  1.00  0.00     0.163 HD
ATOM     29  O   UNL A   1      32.582  36.033  28.856  1.00  0.00    -0.269 OA
BRANCH  27  30
ATOM     30  C   UNL A   1      34.157  34.350  29.287  1.00  0.00     0.039 A 
ATOM     31  C   UNL A   1      33.931  33.610  30.448  1.00  0.00     0.014 A 
ATOM     32  C   UNL A   1      35.450  34.500  28.778  1.00  0.00     0.014 A 
ATOM     33  C   UNL A   1      34.999  32.961  31.066  1.00  0.00     0.010 A 
ATOM     34  C   UNL A   1      36.495  33.784  29.343  1.00  0.00     0.010 A 
ATOM     35  C   UNL A   1      36.281  33.012  30.495  1.00  0.00    -0.014 A 
BRANCH  35  36
ATOM     36  C   UNL A   1      37.420  32.273  31.091  1.00  0.00     0.031 A 
ATOM     37  C   UNL A   1      37.908  32.636  32.465  1.00  0.00     0.074 A 
ATOM     38  C   UNL A   1      38.057  31.332  30.367  1.00  0.00     0.049 A 
ATOM     39  N   UNL A   1      38.934  32.171  33.129  1.00  0.00    -0.248 NA
ATOM     40  C   UNL A   1      37.160  33.687  33.174  1.00  0.00     0.031 C 
ATOM     41  C   UNL A   1      37.708  30.931  29.003  1.00  0.00     0.029 A 
ATOM     42  N   UNL A   1      39.141  30.550  30.676  1.00  0.00    -0.354 N 
ATOM     43  C   UNL A   1      38.968  32.887  34.318  1.00  0.00     0.074 A 
ATOM     44  C   UNL A   1      37.894  33.854  34.263  1.00  0.00     0.031 C 
ATOM     45  C   UNL A   1      38.544  29.961  28.603  1.00  0.00     0.029 A 
ATOM     46  C   UNL A   1      39.509  29.697  29.664  1.00  0.00     0.049 A 
ATOM     47  H   UNL A   1      39.610  30.595  31.540  1.00  0.00     0.167 HD
ATOM     48  C   UNL A   1      39.804  32.733  35.372  1.00  0.00     0.037 A 
ATOM     49  C   UNL A   1      40.517  28.806  29.602  1.00  0.00     0.037 A 
ATOM     50  C   UNL A   1      40.846  31.742  35.434  1.00  0.00     0.049 A 
ATOM     51  C   UNL A   1      41.427  28.650  30.792  1.00  0.00     0.074 A 
ATOM     52  C   UNL A   1      41.699  31.453  36.484  1.00  0.00     0.029 A 
ATOM     53  N   UNL A   1      41.175  30.878  34.399  1.00  0.00    -0.354 N 
ATOM     54  N   UNL A   1      41.403  29.278  31.942  1.00  0.00    -0.248 NA
ATOM     55  C   UNL A   1      42.502  27.654  30.675  1.00  0.00     0.031 C 
ATOM     56  C   UNL A   1      42.573  30.443  36.070  1.00  0.00     0.029 A 
ATOM     57  C   UNL A   1      42.233  30.070  34.779  1.00  0.00     0.049 A 
ATOM     58  H   UNL A   1      40.722  30.845  33.525  1.00  0.00     0.167 HD
ATOM     59  C   UNL A   1      42.433  28.735  32.696  1.00  0.00     0.074 A 
ATOM     60  C   UNL A   1      43.057  27.717  31.877  1.00  0.00     0.031 C 
ATOM     61  C   UNL A   1      42.831  29.051  33.953  1.00  0.00     0.037 A 
BRANCH  48  62
ATOM     62  C   UNL A   1      39.622  33.652  36.544  1.00  0.00     0.064 A 
ATOM     63  C   UNL A   1      40.229  34.916  36.590  1.00  0.00     0.173 A 
ATOM     64  C   UNL A   1      38.803  33.277  37.620  1.00  0.00     0.173 A 
ATOM     65  F   UNL A   1      41.033  35.316  35.593  1.00  0.00    -0.203 F 
ATOM     66  C   UNL A   1      40.046  35.759  37.683  1.00  0.00     0.198 A 
ATOM     67  C   UNL A   1      38.597  34.136  38.696  1.00  0.00     0.198 A 
ATOM     68  F   UNL A   1      38.195  32.081  37.624  1.00  0.00    -0.203 F 
ATOM     69  F   UNL A   1      40.678  36.940  37.728  1.00  0.00    -0.200 F 
ATOM     70  C   UNL A   1      39.225  35.372  38.731  1.00  0.00     0.200 A 
ATOM     71  F   UNL A   1      37.794  33.766  39.702  1.00  0.00    -0.200 F 
ATOM     72  F   UNL A   1      39.044  36.188  39.779  1.00  0.00    -0.200 F 
ENDBRANCH  48  62
BRANCH  49  73
ATOM     73  C   UNL A   1      40.702  27.971  28.388  1.00  0.00     0.064 A 
ATOM     74  C   UNL A   1      40.103  26.708  28.289  1.00  0.00     0.173 A 
ATOM     75  C   UNL A   1      41.483  28.408  27.309  1.00  0.00     0.173 A 
ATOM     76  F   UNL A   1      39.363  26.237  29.304  1.00  0.00    -0.203 F 
ATOM     77  C   UNL A   1      40.296  25.904  27.168  1.00  0.00     0.198 A 
ATOM     78  C   UNL A   1      41.653  27.615  26.176  1.00  0.00     0.198 A 
ATOM     79  F   UNL A   1      42.074  29.611  27.351  1.00  0.00    -0.203 F 
ATOM     80  F   UNL A   1      39.752  24.680  27.122  1.00  0.00    -0.200 F 
ATOM     81  C   UNL A   1      41.068  26.360  26.110  1.00  0.00     0.200 A 
ATOM     82  F   UNL A   1      42.388  28.066  25.149  1.00  0.00    -0.200 F 
ATOM     83  F   UNL A   1      41.253  25.587  25.031  1.00  0.00    -0.200 F 
ENDBRANCH  49  73
BRANCH  61  84
ATOM     84  C   UNL A   1      43.965  28.261  34.536  1.00  0.00     0.064 A 
ATOM     85  C   UNL A   1      45.293  28.705  34.448  1.00  0.00     0.173 A 
ATOM     86  C   UNL A   1      43.714  27.066  35.227  1.00  0.00     0.173 A 
ATOM     87  F   UNL A   1      45.585  29.832  33.784  1.00  0.00    -0.203 F 
ATOM     88  C   UNL A   1      46.330  27.967  35.010  1.00  0.00     0.198 A 
ATOM     89  C   UNL A   1      44.750  26.348  35.815  1.00  0.00     0.198 A 
ATOM     90  F   UNL A   1      42.460  26.604  35.345  1.00  0.00    -0.203 F 
ATOM     91  F   UNL A   1      47.596  28.384  34.875  1.00  0.00    -0.200 F 
ATOM     92  C   UNL A   1      46.058  26.795  35.701  1.00  0.00     0.200 A 
ATOM     93  F   UNL A   1      44.483  25.223  36.494  1.00  0.00    -0.200 F 
ATOM     94  F   UNL A   1      47.057  26.092  36.250  1.00  0.00    -0.200 F 
ENDBRANCH  61  84
ENDBRANCH  35  36
ENDBRANCH  27  30
ENDBRANCH  25  26
ENDBRANCH  24  25
ENDBRANCH  23  24
ENDBRANCH   1  23
TORSDOF 17
ENDMDL
MODEL 3
REMARK VINA RESULT:     -11.0      6.009     11.240
REMARK SMILES CC[NH2+][C@@](C)(C[C@@H](C)Sc1ccncc1)C(=O)NCCCCNC(=O)c1ccc(-c2c3nc(c(-c4c(F)c(F)c(F)c(F)c4F)c4ccc([nH]4)c(-c4c(F)c(F)c(F)c(F)c4F)c4nc(c(-c5c(F)c(F)c(F)c(F)c5F)c5ccc2[nH]5)C=C4)C=C3)cc1
REMARK SMILES IDX 19 1 18 2 16 3 17 4 4 6 5 7 3 8 2 11 1 12 6 13 7 14 8 15
REMARK SMILES IDX 9 16 10 17 11 18 15 19 12 20 14 21 13 22 20 23 21 24 22 25
REMARK SMILES IDX 23 26 24 27 25 29 26 30 27 31 88 32 28 33 87 34 29 35 30 36
REMARK SMILES IDX 31 37 81 38 32 39 86 40 80 41 82 42 33 43 85 44 79 45 78 46
REMARK SMILES IDX 34 48 66 49 46 50 65 51 47 52 50 53 64 54 83 55 48 56 49 57
REMARK SMILES IDX 63 59 84 60 51 61 35 62 36 63 44 64 37 65 38 66 42 67 45 68
REMARK SMILES IDX 39 69 40 70 43 71 41 72 67 73 68 74 76 75 69 76 70 77 74 78
REMARK SMILES IDX 77 79 71 80 72 81 75 82 73 83 52 84 53 85 61 86 54 87 55 88
REMARK SMILES IDX 59 89 62 90 56 91 57 92 60 93 58 94
REMARK H PARENT 18 5 3 9 3 10 23 28 82 47 50 58
REMARK Flexibility Score: inf
ROOT
ATOM      1  C   UNL A   1      36.759  22.253  25.474  1.00  0.00     0.116 C 
ENDROOT
BRANCH   1   2
ATOM      2  N   UNL A   1      35.845  21.795  26.498  1.00  0.00    -0.351 N 
ATOM      3  C   UNL A   1      34.489  21.660  26.550  1.00  0.00     0.281 C 
ATOM      4  O   UNL A   1      34.065  21.294  27.651  1.00  0.00    -0.268 OA
ATOM      5  H   UNL A   1      36.296  21.522  27.329  1.00  0.00     0.163 HD
BRANCH   3   6
ATOM      6  C   UNL A   1      33.551  21.943  25.318  1.00  0.00     0.173 C 
ATOM      7  C   UNL A   1      32.100  22.173  25.804  1.00  0.00     0.090 C 
BRANCH   6   8
ATOM      8  N   UNL A   1      33.983  23.162  24.563  1.00  0.00    -0.334 N 
ATOM      9  H   UNL A   1      34.963  23.337  24.788  1.00  0.00     0.347 HD
ATOM     10  H   UNL A   1      33.812  22.951  23.580  1.00  0.00     0.347 HD
BRANCH   8  11
ATOM     11  C   UNL A   1      33.232  24.390  24.840  1.00  0.00     0.257 C 
ATOM     12  C   UNL A   1      34.126  25.378  25.581  1.00  0.00     0.071 C 
ENDBRANCH   8  11
ENDBRANCH   6   8
BRANCH   6  13
ATOM     13  C   UNL A   1      33.563  20.762  24.298  1.00  0.00     0.093 C 
BRANCH  13  14
ATOM     14  C   UNL A   1      32.313  20.538  23.416  1.00  0.00     0.055 C 
ATOM     15  C   UNL A   1      31.971  21.631  22.410  1.00  0.00     0.020 C 
BRANCH  14  16
ATOM     16  S   UNL A   1      32.399  18.878  22.568  1.00  0.00    -0.123 SA
BRANCH  16  17
ATOM     17  C   UNL A   1      33.065  17.797  23.821  1.00  0.00     0.011 A 
ATOM     18  C   UNL A   1      34.333  17.236  23.678  1.00  0.00     0.035 A 
ATOM     19  C   UNL A   1      32.284  17.426  24.916  1.00  0.00     0.035 A 
ATOM     20  C   UNL A   1      34.783  16.367  24.660  1.00  0.00     0.112 A 
ATOM     21  C   UNL A   1      32.821  16.548  25.843  1.00  0.00     0.112 A 
ATOM     22  N   UNL A   1      34.061  16.025  25.748  1.00  0.00    -0.265 NA
ENDBRANCH  16  17
ENDBRANCH  14  16
ENDBRANCH  13  14
ENDBRANCH   6  13
ENDBRANCH   3   6
ENDBRANCH   1   2
BRANCH   1  23
ATOM     23  C   UNL A   1      37.151  21.133  24.517  1.00  0.00     0.023 C 
BRANCH  23  24
ATOM     24  C   UNL A   1      37.909  19.968  25.141  1.00  0.00     0.023 C 
BRANCH  24  25
ATOM     25  C   UNL A   1      39.246  20.346  25.758  1.00  0.00     0.116 C 
BRANCH  25  26
ATOM     26  N   UNL A   1      40.169  19.224  25.857  1.00  0.00    -0.352 N 
ATOM     27  C   UNL A   1      41.517  19.239  26.114  1.00  0.00     0.251 C 
ATOM     28  H   UNL A   1      39.771  18.333  25.721  1.00  0.00     0.163 HD
ATOM     29  O   UNL A   1      42.176  18.207  26.067  1.00  0.00    -0.269 OA
BRANCH  27  30
ATOM     30  C   UNL A   1      42.171  20.527  26.411  1.00  0.00     0.039 A 
ATOM     31  C   UNL A   1      42.652  21.298  25.351  1.00  0.00     0.014 A 
ATOM     32  C   UNL A   1      42.253  20.992  27.726  1.00  0.00     0.014 A 
ATOM     33  C   UNL A   1      43.157  22.572  25.606  1.00  0.00     0.010 A 
ATOM     34  C   UNL A   1      42.675  22.292  27.967  1.00  0.00     0.010 A 
ATOM     35  C   UNL A   1      43.136  23.093  26.911  1.00  0.00    -0.014 A 
BRANCH  35  36
ATOM     36  C   UNL A   1      43.600  24.471  27.199  1.00  0.00     0.031 A 
ATOM     37  C   UNL A   1      42.633  25.484  27.744  1.00  0.00     0.074 A 
ATOM     38  C   UNL A   1      44.865  24.826  26.902  1.00  0.00     0.049 A 
ATOM     39  N   UNL A   1      42.815  26.756  27.984  1.00  0.00    -0.248 NA
ATOM     40  C   UNL A   1      41.268  25.009  28.024  1.00  0.00     0.031 C 
ATOM     41  C   UNL A   1      45.878  23.944  26.320  1.00  0.00     0.029 A 
ATOM     42  N   UNL A   1      45.510  26.029  27.037  1.00  0.00    -0.354 N 
ATOM     43  C   UNL A   1      41.587  27.236  28.420  1.00  0.00     0.074 A 
ATOM     44  C   UNL A   1      40.653  26.133  28.359  1.00  0.00     0.031 C 
ATOM     45  C   UNL A   1      47.024  24.627  26.174  1.00  0.00     0.029 A 
ATOM     46  C   UNL A   1      46.817  26.002  26.614  1.00  0.00     0.049 A 
ATOM     47  H   UNL A   1      45.078  26.834  27.404  1.00  0.00     0.167 HD
ATOM     48  C   UNL A   1      41.274  28.479  28.856  1.00  0.00     0.037 A 
ATOM     49  C   UNL A   1      47.740  26.983  26.583  1.00  0.00     0.037 A 
ATOM     50  C   UNL A   1      42.218  29.561  28.950  1.00  0.00     0.049 A 
ATOM     51  C   UNL A   1      47.366  28.353  27.081  1.00  0.00     0.074 A 
ATOM     52  C   UNL A   1      42.021  30.836  29.448  1.00  0.00     0.029 A 
ATOM     53  N   UNL A   1      43.540  29.491  28.535  1.00  0.00    -0.354 N 
ATOM     54  N   UNL A   1      46.223  28.777  27.563  1.00  0.00    -0.248 NA
ATOM     55  C   UNL A   1      48.416  29.381  27.037  1.00  0.00     0.031 C 
ATOM     56  C   UNL A   1      43.212  31.552  29.295  1.00  0.00     0.029 A 
ATOM     57  C   UNL A   1      44.165  30.708  28.746  1.00  0.00     0.049 A 
ATOM     58  H   UNL A   1      43.970  28.694  28.148  1.00  0.00     0.167 HD
ATOM     59  C   UNL A   1      46.422  30.106  27.908  1.00  0.00     0.074 A 
ATOM     60  C   UNL A   1      47.801  30.417  27.591  1.00  0.00     0.031 C 
ATOM     61  C   UNL A   1      45.544  30.993  28.437  1.00  0.00     0.037 A 
BRANCH  48  62
ATOM     62  C   UNL A   1      39.854  28.733  29.270  1.00  0.00     0.064 A 
ATOM     63  C   UNL A   1      38.896  29.210  28.361  1.00  0.00     0.173 A 
ATOM     64  C   UNL A   1      39.437  28.465  30.582  1.00  0.00     0.173 A 
ATOM     65  F   UNL A   1      39.246  29.495  27.098  1.00  0.00    -0.203 F 
ATOM     66  C   UNL A   1      37.581  29.436  28.760  1.00  0.00     0.198 A 
ATOM     67  C   UNL A   1      38.115  28.663  30.969  1.00  0.00     0.198 A 
ATOM     68  F   UNL A   1      40.312  28.004  31.489  1.00  0.00    -0.203 F 
ATOM     69  F   UNL A   1      36.697  29.941  27.888  1.00  0.00    -0.200 F 
ATOM     70  C   UNL A   1      37.189  29.155  30.060  1.00  0.00     0.200 A 
ATOM     71  F   UNL A   1      37.735  28.379  32.222  1.00  0.00    -0.200 F 
ATOM     72  F   UNL A   1      35.922  29.366  30.440  1.00  0.00    -0.200 F 
ENDBRANCH  48  62
BRANCH  49  73
ATOM     73  C   UNL A   1      49.113  26.699  26.094  1.00  0.00     0.064 A 
ATOM     74  C   UNL A   1      49.480  27.000  24.774  1.00  0.00     0.173 A 
ATOM     75  C   UNL A   1      50.082  26.119  26.923  1.00  0.00     0.173 A 
ATOM     76  F   UNL A   1      48.582  27.539  23.936  1.00  0.00    -0.203 F 
ATOM     77  C   UNL A   1      50.756  26.709  24.297  1.00  0.00     0.198 A 
ATOM     78  C   UNL A   1      51.367  25.854  26.453  1.00  0.00     0.198 A 
ATOM     79  F   UNL A   1      49.785  25.817  28.195  1.00  0.00    -0.203 F 
ATOM     80  F   UNL A   1      51.064  26.962  23.017  1.00  0.00    -0.200 F 
ATOM     81  C   UNL A   1      51.700  26.141  25.138  1.00  0.00     0.200 A 
ATOM     82  F   UNL A   1      52.281  25.317  27.273  1.00  0.00    -0.200 F 
ATOM     83  F   UNL A   1      52.928  25.862  24.679  1.00  0.00    -0.200 F 
ENDBRANCH  49  73
BRANCH  61  84
ATOM     84  C   UNL A   1      46.056  32.368  28.746  1.00  0.00     0.064 A 
ATOM     85  C   UNL A   1      46.645  32.675  29.981  1.00  0.00     0.173 A 
ATOM     86  C   UNL A   1      45.993  33.381  27.776  1.00  0.00     0.173 A 
ATOM     87  F   UNL A   1      46.714  31.745  30.945  1.00  0.00    -0.203 F 
ATOM     88  C   UNL A   1      47.131  33.952  30.243  1.00  0.00     0.198 A 
ATOM     89  C   UNL A   1      46.508  34.648  28.030  1.00  0.00     0.198 A 
ATOM     90  F   UNL A   1      45.445  33.136  26.576  1.00  0.00    -0.203 F 
ATOM     91  F   UNL A   1      47.649  34.237  31.446  1.00  0.00    -0.200 F 
ATOM     92  C   UNL A   1      47.071  34.934  29.265  1.00  0.00     0.200 A 
ATOM     93  F   UNL A   1      46.462  35.592  27.080  1.00  0.00    -0.200 F 
ATOM     94  F   UNL A   1      47.548  36.161  29.516  1.00  0.00    -0.200 F 
ENDBRANCH  61  84
ENDBRANCH  35  36
ENDBRANCH  27  30
ENDBRANCH  25  26
ENDBRANCH  24  25
ENDBRANCH  23  24
ENDBRANCH   1  23
TORSDOF 17
ENDMDL
