MODEL 1
REMARK VINA RESULT:     -13.8      0.000      0.000
REMARK SMILES CC(C)Oc1ccc([C@@H]2CC(=O)Nc3c(C(=O)NCCCCNC(=O)c4ccc(-c5c6nc(c(-c7c(F)c(F)c(F)c(F)c7F)c7ccc([nH]7)c(-c7c(F)c(F)c(F)c(F)c7F)c7nc(c(-c8c(F)c(F)c(F)c(F)c8F)c8ccc5[nH]8)C=C7)C=C6)cc4)nsc32)cc1
REMARK SMILES IDX 20 1 19 2 18 3 16 4 17 5 15 7 9 8 10 9 91 10 11 11 14 12
REMARK SMILES IDX 90 13 12 14 13 15 89 16 8 18 5 19 6 20 93 21 7 22 92 23 4 24
REMARK SMILES IDX 2 25 1 26 3 27 21 28 22 29 23 30 24 31 25 33 26 34 27 35
REMARK SMILES IDX 88 36 28 37 87 38 29 39 30 40 31 41 81 42 32 43 86 44 80 45
REMARK SMILES IDX 82 46 33 47 85 48 79 49 78 50 34 52 66 53 46 54 65 55 47 56
REMARK SMILES IDX 50 57 64 58 83 59 48 60 49 61 63 63 84 64 51 65 35 66 36 67
REMARK SMILES IDX 44 68 37 69 38 70 42 71 45 72 39 73 40 74 43 75 41 76 67 77
REMARK SMILES IDX 68 78 76 79 69 80 70 81 74 82 77 83 71 84 72 85 75 86 73 87
REMARK SMILES IDX 52 88 53 89 61 90 54 91 55 92 59 93 62 94 56 95 57 96 60 97
REMARK SMILES IDX 58 98
REMARK H PARENT 18 6 13 17 23 32 82 51 50 62
REMARK Flexibility Score: inf
ROOT
ATOM      1  C   UNL A   1      35.848  21.740  26.080  1.00  0.00     0.023 C 
ENDROOT
BRANCH   1   2
ATOM      2  C   UNL A   1      35.594  20.636  25.062  1.00  0.00     0.116 C 
BRANCH   2   3
ATOM      3  N   UNL A   1      34.345  19.905  25.151  1.00  0.00    -0.351 N 
ATOM      4  C   UNL A   1      33.054  20.328  24.847  1.00  0.00     0.273 C 
ATOM      5  O   UNL A   1      32.158  19.484  24.931  1.00  0.00    -0.267 OA
ATOM      6  H   UNL A   1      34.420  18.978  25.473  1.00  0.00     0.163 HD
BRANCH   4   7
ATOM      7  C   UNL A   1      32.779  21.743  24.500  1.00  0.00     0.165 A 
ATOM      8  C   UNL A   1      30.821  24.943  24.833  1.00  0.00     0.073 C 
ATOM      9  C   UNL A   1      29.935  24.567  26.040  1.00  0.00     0.114 C 
ATOM     10  C   UNL A   1      31.726  23.818  24.455  1.00  0.00     0.058 A 
ATOM     11  C   UNL A   1      30.344  23.350  26.851  1.00  0.00     0.225 C 
ATOM     12  C   UNL A   1      31.996  22.715  25.224  1.00  0.00     0.089 A 
ATOM     13  S   UNL A   1      32.620  23.709  23.019  1.00  0.00    -0.038 S 
ATOM     14  O   UNL A   1      29.679  22.968  27.815  1.00  0.00    -0.275 OA
ATOM     15  N   UNL A   1      31.433  22.619  26.477  1.00  0.00    -0.323 N 
ATOM     16  N   UNL A   1      33.250  22.208  23.330  1.00  0.00    -0.185 NA
ATOM     17  H   UNL A   1      31.833  21.998  27.129  1.00  0.00     0.170 HD
BRANCH   8  18
ATOM     18  C   UNL A   1      31.580  26.224  25.127  1.00  0.00    -0.039 A 
ATOM     19  C   UNL A   1      32.981  28.597  25.628  1.00  0.00     0.119 A 
ATOM     20  C   UNL A   1      33.612  27.367  25.803  1.00  0.00     0.047 A 
ATOM     21  C   UNL A   1      31.682  28.646  25.139  1.00  0.00     0.047 A 
ATOM     22  C   UNL A   1      32.914  26.181  25.559  1.00  0.00     0.008 A 
ATOM     23  C   UNL A   1      30.975  27.471  24.916  1.00  0.00     0.008 A 
BRANCH  19  24
ATOM     24  O   UNL A   1      33.717  29.722  25.866  1.00  0.00    -0.491 OA
BRANCH  24  25
ATOM     25  C   UNL A   1      33.943  30.077  27.244  1.00  0.00     0.167 C 
ATOM     26  C   UNL A   1      35.386  29.869  27.699  1.00  0.00     0.052 C 
ATOM     27  C   UNL A   1      33.404  31.456  27.626  1.00  0.00     0.052 C 
ENDBRANCH  24  25
ENDBRANCH  19  24
ENDBRANCH   8  18
ENDBRANCH   4   7
ENDBRANCH   2   3
ENDBRANCH   1   2
BRANCH   1  28
ATOM     28  C   UNL A   1      36.461  23.046  25.574  1.00  0.00     0.023 C 
BRANCH  28  29
ATOM     29  C   UNL A   1      37.701  23.540  26.308  1.00  0.00     0.116 C 
BRANCH  29  30
ATOM     30  N   UNL A   1      38.752  22.544  26.468  1.00  0.00    -0.352 N 
ATOM     31  C   UNL A   1      40.112  22.787  26.616  1.00  0.00     0.251 C 
ATOM     32  H   UNL A   1      38.470  21.601  26.472  1.00  0.00     0.163 HD
ATOM     33  O   UNL A   1      40.938  21.916  26.434  1.00  0.00    -0.269 OA
BRANCH  31  34
ATOM     34  C   UNL A   1      40.537  24.157  26.983  1.00  0.00     0.039 A 
ATOM     35  C   UNL A   1      40.171  25.247  26.190  1.00  0.00     0.014 A 
ATOM     36  C   UNL A   1      41.258  24.342  28.163  1.00  0.00     0.014 A 
ATOM     37  C   UNL A   1      40.445  26.533  26.649  1.00  0.00     0.010 A 
ATOM     38  C   UNL A   1      41.444  25.615  28.661  1.00  0.00     0.010 A 
ATOM     39  C   UNL A   1      41.047  26.717  27.906  1.00  0.00    -0.014 A 
BRANCH  39  40
ATOM     40  C   UNL A   1      41.074  28.056  28.502  1.00  0.00     0.031 A 
ATOM     41  C   UNL A   1      42.185  28.920  28.008  1.00  0.00     0.074 A 
ATOM     42  C   UNL A   1      40.085  28.577  29.261  1.00  0.00     0.049 A 
ATOM     43  N   UNL A   1      43.163  29.416  28.692  1.00  0.00    -0.248 NA
ATOM     44  C   UNL A   1      42.291  29.169  26.560  1.00  0.00     0.031 C 
ATOM     45  C   UNL A   1      38.788  27.968  29.572  1.00  0.00     0.029 A 
ATOM     46  N   UNL A   1      39.979  29.818  29.827  1.00  0.00    -0.354 N 
ATOM     47  C   UNL A   1      43.904  30.196  27.804  1.00  0.00     0.074 A 
ATOM     48  C   UNL A   1      43.421  29.876  26.487  1.00  0.00     0.031 C 
ATOM     49  C   UNL A   1      37.951  28.909  30.059  1.00  0.00     0.029 A 
ATOM     50  C   UNL A   1      38.694  30.142  30.248  1.00  0.00     0.049 A 
ATOM     51  H   UNL A   1      40.746  30.428  29.928  1.00  0.00     0.167 HD
ATOM     52  C   UNL A   1      44.660  31.231  28.262  1.00  0.00     0.037 A 
ATOM     53  C   UNL A   1      38.255  31.339  30.707  1.00  0.00     0.037 A 
ATOM     54  C   UNL A   1      44.859  31.120  29.686  1.00  0.00     0.049 A 
ATOM     55  C   UNL A   1      39.437  32.094  31.177  1.00  0.00     0.074 A 
ATOM     56  C   UNL A   1      45.524  30.269  30.541  1.00  0.00     0.029 A 
ATOM     57  N   UNL A   1      43.961  31.824  30.440  1.00  0.00    -0.354 N 
ATOM     58  N   UNL A   1      40.130  31.774  32.232  1.00  0.00    -0.248 NA
ATOM     59  C   UNL A   1      40.067  33.057  30.285  1.00  0.00     0.031 C 
ATOM     60  C   UNL A   1      44.776  30.283  31.757  1.00  0.00     0.029 A 
ATOM     61  C   UNL A   1      43.713  31.175  31.616  1.00  0.00     0.049 A 
ATOM     62  H   UNL A   1      43.552  32.679  30.173  1.00  0.00     0.167 HD
ATOM     63  C   UNL A   1      41.426  32.114  31.901  1.00  0.00     0.074 A 
ATOM     64  C   UNL A   1      41.296  33.065  30.805  1.00  0.00     0.031 C 
ATOM     65  C   UNL A   1      42.469  31.345  32.332  1.00  0.00     0.037 A 
BRANCH  52  66
ATOM     66  C   UNL A   1      44.787  32.583  27.573  1.00  0.00     0.064 A 
ATOM     67  C   UNL A   1      45.994  32.888  26.900  1.00  0.00     0.173 A 
ATOM     68  C   UNL A   1      43.955  33.691  27.842  1.00  0.00     0.173 A 
ATOM     69  F   UNL A   1      46.871  31.919  26.597  1.00  0.00    -0.203 F 
ATOM     70  C   UNL A   1      46.379  34.204  26.625  1.00  0.00     0.198 A 
ATOM     71  C   UNL A   1      44.323  34.999  27.520  1.00  0.00     0.198 A 
ATOM     72  F   UNL A   1      42.813  33.581  28.527  1.00  0.00    -0.203 F 
ATOM     73  F   UNL A   1      47.596  34.450  26.120  1.00  0.00    -0.200 F 
ATOM     74  C   UNL A   1      45.548  35.259  26.946  1.00  0.00     0.200 A 
ATOM     75  F   UNL A   1      43.511  36.011  27.858  1.00  0.00    -0.200 F 
ATOM     76  F   UNL A   1      45.944  36.524  26.753  1.00  0.00    -0.200 F 
ENDBRANCH  52  66
BRANCH  53  77
ATOM     77  C   UNL A   1      36.915  31.962  30.617  1.00  0.00     0.064 A 
ATOM     78  C   UNL A   1      36.027  31.937  31.707  1.00  0.00     0.173 A 
ATOM     79  C   UNL A   1      36.592  32.846  29.570  1.00  0.00     0.173 A 
ATOM     80  F   UNL A   1      36.274  31.147  32.762  1.00  0.00    -0.203 F 
ATOM     81  C   UNL A   1      34.913  32.779  31.767  1.00  0.00     0.198 A 
ATOM     82  C   UNL A   1      35.475  33.680  29.628  1.00  0.00     0.198 A 
ATOM     83  F   UNL A   1      37.409  32.988  28.516  1.00  0.00    -0.203 F 
ATOM     84  F   UNL A   1      34.134  32.780  32.859  1.00  0.00    -0.200 F 
ATOM     85  C   UNL A   1      34.646  33.661  30.734  1.00  0.00     0.200 A 
ATOM     86  F   UNL A   1      35.245  34.552  28.635  1.00  0.00    -0.200 F 
ATOM     87  F   UNL A   1      33.620  34.519  30.823  1.00  0.00    -0.200 F 
ENDBRANCH  53  77
BRANCH  65  88
ATOM     88  C   UNL A   1      42.229  30.486  33.538  1.00  0.00     0.064 A 
ATOM     89  C   UNL A   1      42.311  30.926  34.870  1.00  0.00     0.173 A 
ATOM     90  C   UNL A   1      41.839  29.156  33.320  1.00  0.00     0.173 A 
ATOM     91  F   UNL A   1      42.585  32.204  35.162  1.00  0.00    -0.203 F 
ATOM     92  C   UNL A   1      42.079  30.053  35.932  1.00  0.00     0.198 A 
ATOM     93  C   UNL A   1      41.563  28.301  34.381  1.00  0.00     0.198 A 
ATOM     94  F   UNL A   1      41.697  28.693  32.068  1.00  0.00    -0.203 F 
ATOM     95  F   UNL A   1      42.204  30.485  37.195  1.00  0.00    -0.200 F 
ATOM     96  C   UNL A   1      41.701  28.744  35.685  1.00  0.00     0.200 A 
ATOM     97  F   UNL A   1      41.153  27.049  34.136  1.00  0.00    -0.200 F 
ATOM     98  F   UNL A   1      41.451  27.912  36.706  1.00  0.00    -0.200 F 
ENDBRANCH  65  88
ENDBRANCH  39  40
ENDBRANCH  31  34
ENDBRANCH  29  30
ENDBRANCH  28  29
ENDBRANCH   1  28
TORSDOF 14
ENDMDL
MODEL 2
REMARK VINA RESULT:     -13.8      3.945      8.337
REMARK SMILES CC(C)Oc1ccc([C@@H]2CC(=O)Nc3c(C(=O)NCCCCNC(=O)c4ccc(-c5c6nc(c(-c7c(F)c(F)c(F)c(F)c7F)c7ccc([nH]7)c(-c7c(F)c(F)c(F)c(F)c7F)c7nc(c(-c8c(F)c(F)c(F)c(F)c8F)c8ccc5[nH]8)C=C7)C=C6)cc4)nsc32)cc1
REMARK SMILES IDX 20 1 19 2 18 3 16 4 17 5 15 7 9 8 10 9 91 10 11 11 14 12
REMARK SMILES IDX 90 13 12 14 13 15 89 16 8 18 5 19 6 20 93 21 7 22 92 23 4 24
REMARK SMILES IDX 2 25 1 26 3 27 21 28 22 29 23 30 24 31 25 33 26 34 27 35
REMARK SMILES IDX 88 36 28 37 87 38 29 39 30 40 31 41 81 42 32 43 86 44 80 45
REMARK SMILES IDX 82 46 33 47 85 48 79 49 78 50 34 52 66 53 46 54 65 55 47 56
REMARK SMILES IDX 50 57 64 58 83 59 48 60 49 61 63 63 84 64 51 65 35 66 36 67
REMARK SMILES IDX 44 68 37 69 38 70 42 71 45 72 39 73 40 74 43 75 41 76 67 77
REMARK SMILES IDX 68 78 76 79 69 80 70 81 74 82 77 83 71 84 72 85 75 86 73 87
REMARK SMILES IDX 52 88 53 89 61 90 54 91 55 92 59 93 62 94 56 95 57 96 60 97
REMARK SMILES IDX 58 98
REMARK H PARENT 18 6 13 17 23 32 82 51 50 62
REMARK Flexibility Score: inf
ROOT
ATOM      1  C   UNL A   1      32.582  29.267  26.451  1.00  0.00     0.023 C 
ENDROOT
BRANCH   1   2
ATOM      2  C   UNL A   1      32.793  29.363  24.945  1.00  0.00     0.116 C 
BRANCH   2   3
ATOM      3  N   UNL A   1      31.628  29.250  24.089  1.00  0.00    -0.351 N 
ATOM      4  C   UNL A   1      30.967  28.106  23.648  1.00  0.00     0.273 C 
ATOM      5  O   UNL A   1      29.942  28.278  22.985  1.00  0.00    -0.267 OA
ATOM      6  H   UNL A   1      31.252  30.103  23.773  1.00  0.00     0.163 HD
BRANCH   4   7
ATOM      7  C   UNL A   1      31.518  26.757  23.922  1.00  0.00     0.165 A 
ATOM      8  C   UNL A   1      32.863  23.414  22.824  1.00  0.00     0.073 C 
ATOM      9  C   UNL A   1      32.986  23.682  21.309  1.00  0.00     0.114 C 
ATOM     10  C   UNL A   1      32.324  24.607  23.541  1.00  0.00     0.058 A 
ATOM     11  C   UNL A   1      32.914  25.128  20.849  1.00  0.00     0.225 C 
ATOM     12  C   UNL A   1      32.234  25.876  23.030  1.00  0.00     0.089 A 
ATOM     13  S   UNL A   1      31.754  24.625  25.138  1.00  0.00    -0.038 S 
ATOM     14  O   UNL A   1      32.980  25.427  19.656  1.00  0.00    -0.275 OA
ATOM     15  N   UNL A   1      32.709  26.122  21.761  1.00  0.00    -0.323 N 
ATOM     16  N   UNL A   1      31.287  26.215  25.129  1.00  0.00    -0.185 NA
ATOM     17  H   UNL A   1      32.909  27.051  21.502  1.00  0.00     0.170 HD
BRANCH   8  18
ATOM     18  C   UNL A   1      34.200  22.959  23.379  1.00  0.00    -0.039 A 
ATOM     19  C   UNL A   1      36.676  22.098  24.367  1.00  0.00     0.119 A 
ATOM     20  C   UNL A   1      35.497  21.555  24.874  1.00  0.00     0.047 A 
ATOM     21  C   UNL A   1      36.623  23.015  23.324  1.00  0.00     0.047 A 
ATOM     22  C   UNL A   1      34.261  21.985  24.388  1.00  0.00     0.008 A 
ATOM     23  C   UNL A   1      35.396  23.465  22.851  1.00  0.00     0.008 A 
BRANCH  19  24
ATOM     24  O   UNL A   1      37.854  21.627  24.869  1.00  0.00    -0.491 OA
BRANCH  24  25
ATOM     25  C   UNL A   1      38.329  22.223  26.092  1.00  0.00     0.167 C 
ATOM     26  C   UNL A   1      39.763  21.832  26.445  1.00  0.00     0.052 C 
ATOM     27  C   UNL A   1      38.099  23.732  26.177  1.00  0.00     0.052 C 
ENDBRANCH  24  25
ENDBRANCH  19  24
ENDBRANCH   8  18
ENDBRANCH   4   7
ENDBRANCH   2   3
ENDBRANCH   1   2
BRANCH   1  28
ATOM     28  C   UNL A   1      33.581  28.437  27.257  1.00  0.00     0.023 C 
BRANCH  28  29
ATOM     29  C   UNL A   1      34.999  28.989  27.350  1.00  0.00     0.116 C 
BRANCH  29  30
ATOM     30  N   UNL A   1      35.179  30.041  28.342  1.00  0.00    -0.352 N 
ATOM     31  C   UNL A   1      36.256  30.192  29.206  1.00  0.00     0.251 C 
ATOM     32  H   UNL A   1      34.465  30.715  28.406  1.00  0.00     0.163 HD
ATOM     33  O   UNL A   1      36.187  30.897  30.192  1.00  0.00    -0.269 OA
BRANCH  31  34
ATOM     34  C   UNL A   1      37.499  29.447  28.904  1.00  0.00     0.039 A 
ATOM     35  C   UNL A   1      38.248  29.752  27.766  1.00  0.00     0.014 A 
ATOM     36  C   UNL A   1      37.935  28.476  29.807  1.00  0.00     0.014 A 
ATOM     37  C   UNL A   1      39.492  29.149  27.598  1.00  0.00     0.010 A 
ATOM     38  C   UNL A   1      39.205  27.952  29.690  1.00  0.00     0.010 A 
ATOM     39  C   UNL A   1      39.988  28.277  28.584  1.00  0.00    -0.014 A 
BRANCH  39  40
ATOM     40  C   UNL A   1      41.396  27.872  28.543  1.00  0.00     0.031 A 
ATOM     41  C   UNL A   1      41.640  26.587  27.825  1.00  0.00     0.074 A 
ATOM     42  C   UNL A   1      42.431  28.659  28.912  1.00  0.00     0.049 A 
ATOM     43  N   UNL A   1      42.118  25.490  28.312  1.00  0.00    -0.248 NA
ATOM     44  C   UNL A   1      41.191  26.467  26.428  1.00  0.00     0.031 C 
ATOM     45  C   UNL A   1      42.374  30.061  29.338  1.00  0.00     0.029 A 
ATOM     46  N   UNL A   1      43.775  28.410  28.875  1.00  0.00    -0.354 N 
ATOM     47  C   UNL A   1      42.210  24.598  27.245  1.00  0.00     0.074 A 
ATOM     48  C   UNL A   1      41.480  25.192  26.158  1.00  0.00     0.031 C 
ATOM     49  C   UNL A   1      43.612  30.598  29.295  1.00  0.00     0.029 A 
ATOM     50  C   UNL A   1      44.567  29.546  28.998  1.00  0.00     0.049 A 
ATOM     51  H   UNL A   1      44.149  27.505  28.770  1.00  0.00     0.167 HD
ATOM     52  C   UNL A   1      43.111  23.576  27.276  1.00  0.00     0.037 A 
ATOM     53  C   UNL A   1      45.912  29.632  28.855  1.00  0.00     0.037 A 
ATOM     54  C   UNL A   1      43.589  23.367  28.620  1.00  0.00     0.049 A 
ATOM     55  C   UNL A   1      46.468  28.276  29.056  1.00  0.00     0.074 A 
ATOM     56  C   UNL A   1      43.063  22.926  29.813  1.00  0.00     0.029 A 
ATOM     57  N   UNL A   1      44.756  24.017  28.913  1.00  0.00    -0.354 N 
ATOM     58  N   UNL A   1      46.478  27.660  30.203  1.00  0.00    -0.248 NA
ATOM     59  C   UNL A   1      46.744  27.442  27.896  1.00  0.00     0.031 C 
ATOM     60  C   UNL A   1      43.800  23.602  30.833  1.00  0.00     0.029 A 
ATOM     61  C   UNL A   1      44.778  24.391  30.227  1.00  0.00     0.049 A 
ATOM     62  H   UNL A   1      45.480  24.191  28.268  1.00  0.00     0.167 HD
ATOM     63  C   UNL A   1      46.295  26.332  29.874  1.00  0.00     0.074 A 
ATOM     64  C   UNL A   1      46.666  26.238  28.468  1.00  0.00     0.031 C 
ATOM     65  C   UNL A   1      45.556  25.519  30.686  1.00  0.00     0.037 A 
BRANCH  52  66
ATOM     66  C   UNL A   1      43.940  23.115  26.085  1.00  0.00     0.064 A 
ATOM     67  C   UNL A   1      43.973  21.734  25.779  1.00  0.00     0.173 A 
ATOM     68  C   UNL A   1      44.955  23.887  25.479  1.00  0.00     0.173 A 
ATOM     69  F   UNL A   1      43.065  20.896  26.302  1.00  0.00    -0.203 F 
ATOM     70  C   UNL A   1      45.002  21.165  25.022  1.00  0.00     0.198 A 
ATOM     71  C   UNL A   1      45.951  23.320  24.683  1.00  0.00     0.198 A 
ATOM     72  F   UNL A   1      45.102  25.193  25.719  1.00  0.00    -0.203 F 
ATOM     73  F   UNL A   1      45.069  19.833  24.883  1.00  0.00    -0.200 F 
ATOM     74  C   UNL A   1      45.997  21.957  24.485  1.00  0.00     0.200 A 
ATOM     75  F   UNL A   1      46.920  24.103  24.188  1.00  0.00    -0.200 F 
ATOM     76  F   UNL A   1      47.024  21.408  23.823  1.00  0.00    -0.200 F 
ENDBRANCH  52  66
BRANCH  53  77
ATOM     77  C   UNL A   1      46.751  30.759  28.386  1.00  0.00     0.064 A 
ATOM     78  C   UNL A   1      46.403  31.496  27.240  1.00  0.00     0.173 A 
ATOM     79  C   UNL A   1      47.742  31.321  29.212  1.00  0.00     0.173 A 
ATOM     80  F   UNL A   1      45.446  31.050  26.414  1.00  0.00    -0.203 F 
ATOM     81  C   UNL A   1      46.976  32.742  26.966  1.00  0.00     0.198 A 
ATOM     82  C   UNL A   1      48.319  32.560  28.933  1.00  0.00     0.198 A 
ATOM     83  F   UNL A   1      48.097  30.725  30.360  1.00  0.00    -0.203 F 
ATOM     84  F   UNL A   1      46.561  33.448  25.904  1.00  0.00    -0.200 F 
ATOM     85  C   UNL A   1      47.923  33.279  27.820  1.00  0.00     0.200 A 
ATOM     86  F   UNL A   1      49.211  33.086  29.785  1.00  0.00    -0.200 F 
ATOM     87  F   UNL A   1      48.420  34.504  27.597  1.00  0.00    -0.200 F 
ENDBRANCH  53  77
BRANCH  65  88
ATOM     88  C   UNL A   1      45.407  25.940  32.118  1.00  0.00     0.064 A 
ATOM     89  C   UNL A   1      46.366  25.731  33.123  1.00  0.00     0.173 A 
ATOM     90  C   UNL A   1      44.246  26.645  32.469  1.00  0.00     0.173 A 
ATOM     91  F   UNL A   1      47.542  25.151  32.849  1.00  0.00    -0.203 F 
ATOM     92  C   UNL A   1      46.139  26.150  34.433  1.00  0.00     0.198 A 
ATOM     93  C   UNL A   1      44.043  27.102  33.767  1.00  0.00     0.198 A 
ATOM     94  F   UNL A   1      43.316  26.915  31.540  1.00  0.00    -0.203 F 
ATOM     95  F   UNL A   1      47.052  25.903  35.384  1.00  0.00    -0.200 F 
ATOM     96  C   UNL A   1      44.981  26.839  34.751  1.00  0.00     0.200 A 
ATOM     97  F   UNL A   1      42.942  27.807  34.058  1.00  0.00    -0.200 F 
ATOM     98  F   UNL A   1      44.775  27.266  36.005  1.00  0.00    -0.200 F 
ENDBRANCH  65  88
ENDBRANCH  39  40
ENDBRANCH  31  34
ENDBRANCH  29  30
ENDBRANCH  28  29
ENDBRANCH   1  28
TORSDOF 14
ENDMDL
MODEL 3
REMARK VINA RESULT:     -13.6      1.105      2.013
REMARK SMILES CC(C)Oc1ccc([C@@H]2CC(=O)Nc3c(C(=O)NCCCCNC(=O)c4ccc(-c5c6nc(c(-c7c(F)c(F)c(F)c(F)c7F)c7ccc([nH]7)c(-c7c(F)c(F)c(F)c(F)c7F)c7nc(c(-c8c(F)c(F)c(F)c(F)c8F)c8ccc5[nH]8)C=C7)C=C6)cc4)nsc32)cc1
REMARK SMILES IDX 20 1 19 2 18 3 16 4 17 5 15 7 9 8 10 9 91 10 11 11 14 12
REMARK SMILES IDX 90 13 12 14 13 15 89 16 8 18 5 19 6 20 93 21 7 22 92 23 4 24
REMARK SMILES IDX 2 25 1 26 3 27 21 28 22 29 23 30 24 31 25 33 26 34 27 35
REMARK SMILES IDX 88 36 28 37 87 38 29 39 30 40 31 41 81 42 32 43 86 44 80 45
REMARK SMILES IDX 82 46 33 47 85 48 79 49 78 50 34 52 66 53 46 54 65 55 47 56
REMARK SMILES IDX 50 57 64 58 83 59 48 60 49 61 63 63 84 64 51 65 35 66 36 67
REMARK SMILES IDX 44 68 37 69 38 70 42 71 45 72 39 73 40 74 43 75 41 76 67 77
REMARK SMILES IDX 68 78 76 79 69 80 70 81 74 82 77 83 71 84 72 85 75 86 73 87
REMARK SMILES IDX 52 88 53 89 61 90 54 91 55 92 59 93 62 94 56 95 57 96 60 97
REMARK SMILES IDX 58 98
REMARK H PARENT 18 6 13 17 23 32 82 51 50 62
REMARK Flexibility Score: inf
ROOT
ATOM      1  C   UNL A   1      37.649  21.060  25.314  1.00  0.00     0.023 C 
ENDROOT
BRANCH   1   2
ATOM      2  C   UNL A   1      36.226  21.439  25.700  1.00  0.00     0.116 C 
BRANCH   2   3
ATOM      3  N   UNL A   1      35.156  20.539  25.316  1.00  0.00    -0.351 N 
ATOM      4  C   UNL A   1      33.969  20.820  24.644  1.00  0.00     0.273 C 
ATOM      5  O   UNL A   1      33.251  19.858  24.360  1.00  0.00    -0.267 OA
ATOM      6  H   UNL A   1      35.286  19.596  25.566  1.00  0.00     0.163 HD
BRANCH   4   7
ATOM      7  C   UNL A   1      33.576  22.218  24.346  1.00  0.00     0.165 A 
ATOM      8  C   UNL A   1      31.332  25.215  24.756  1.00  0.00     0.073 C 
ATOM      9  C   UNL A   1      30.458  24.712  25.925  1.00  0.00     0.114 C 
ATOM     10  C   UNL A   1      32.342  24.191  24.357  1.00  0.00     0.058 A 
ATOM     11  C   UNL A   1      30.957  23.503  26.698  1.00  0.00     0.225 C 
ATOM     12  C   UNL A   1      32.693  23.086  25.088  1.00  0.00     0.089 A 
ATOM     13  S   UNL A   1      33.273  24.221  22.940  1.00  0.00    -0.038 S 
ATOM     14  O   UNL A   1      30.309  23.024  27.629  1.00  0.00    -0.275 OA
ATOM     15  N   UNL A   1      32.115  22.888  26.322  1.00  0.00    -0.323 N 
ATOM     16  N   UNL A   1      34.028  22.771  23.208  1.00  0.00    -0.185 NA
ATOM     17  H   UNL A   1      32.555  22.279  26.959  1.00  0.00     0.170 HD
BRANCH   8  18
ATOM     18  C   UNL A   1      31.966  26.545  25.119  1.00  0.00    -0.039 A 
ATOM     19  C   UNL A   1      33.151  29.004  25.749  1.00  0.00     0.119 A 
ATOM     20  C   UNL A   1      33.689  27.822  26.255  1.00  0.00     0.047 A 
ATOM     21  C   UNL A   1      32.070  28.954  24.877  1.00  0.00     0.047 A 
ATOM     22  C   UNL A   1      33.097  26.594  25.947  1.00  0.00     0.008 A 
ATOM     23  C   UNL A   1      31.463  27.739  24.585  1.00  0.00     0.008 A 
BRANCH  19  24
ATOM     24  O   UNL A   1      33.781  30.171  26.070  1.00  0.00    -0.491 OA
BRANCH  24  25
ATOM     25  C   UNL A   1      34.234  30.317  27.430  1.00  0.00     0.167 C 
ATOM     26  C   UNL A   1      35.696  29.924  27.632  1.00  0.00     0.052 C 
ATOM     27  C   UNL A   1      33.905  31.675  28.051  1.00  0.00     0.052 C 
ENDBRANCH  24  25
ENDBRANCH  19  24
ENDBRANCH   8  18
ENDBRANCH   4   7
ENDBRANCH   2   3
ENDBRANCH   1   2
BRANCH   1  28
ATOM     28  C   UNL A   1      38.774  22.008  25.728  1.00  0.00     0.023 C 
BRANCH  28  29
ATOM     29  C   UNL A   1      39.939  21.384  26.489  1.00  0.00     0.116 C 
BRANCH  29  30
ATOM     30  N   UNL A   1      41.226  21.474  25.814  1.00  0.00    -0.352 N 
ATOM     31  C   UNL A   1      42.006  22.613  25.660  1.00  0.00     0.251 C 
ATOM     32  H   UNL A   1      41.580  20.641  25.426  1.00  0.00     0.163 HD
ATOM     33  O   UNL A   1      42.894  22.670  24.834  1.00  0.00    -0.269 OA
BRANCH  31  34
ATOM     34  C   UNL A   1      41.710  23.779  26.522  1.00  0.00     0.039 A 
ATOM     35  C   UNL A   1      42.153  23.809  27.847  1.00  0.00     0.014 A 
ATOM     36  C   UNL A   1      41.033  24.867  25.971  1.00  0.00     0.014 A 
ATOM     37  C   UNL A   1      42.003  24.984  28.579  1.00  0.00     0.010 A 
ATOM     38  C   UNL A   1      40.970  26.058  26.663  1.00  0.00     0.010 A 
ATOM     39  C   UNL A   1      41.446  26.124  27.972  1.00  0.00    -0.014 A 
BRANCH  39  40
ATOM     40  C   UNL A   1      41.548  27.421  28.646  1.00  0.00     0.031 A 
ATOM     41  C   UNL A   1      42.723  28.237  28.225  1.00  0.00     0.074 A 
ATOM     42  C   UNL A   1      40.578  27.961  29.417  1.00  0.00     0.049 A 
ATOM     43  N   UNL A   1      43.716  28.626  28.954  1.00  0.00    -0.248 NA
ATOM     44  C   UNL A   1      42.877  28.562  26.796  1.00  0.00     0.031 C 
ATOM     45  C   UNL A   1      39.237  27.423  29.667  1.00  0.00     0.029 A 
ATOM     46  N   UNL A   1      40.541  29.172  30.053  1.00  0.00    -0.354 N 
ATOM     47  C   UNL A   1      44.525  29.405  28.128  1.00  0.00     0.074 A 
ATOM     48  C   UNL A   1      44.052  29.195  26.786  1.00  0.00     0.031 C 
ATOM     49  C   UNL A   1      38.453  28.387  30.194  1.00  0.00     0.029 A 
ATOM     50  C   UNL A   1      39.271  29.555  30.470  1.00  0.00     0.049 A 
ATOM     51  H   UNL A   1      41.343  29.722  30.204  1.00  0.00     0.167 HD
ATOM     52  C   UNL A   1      45.337  30.360  28.660  1.00  0.00     0.037 A 
ATOM     53  C   UNL A   1      38.901  30.750  30.991  1.00  0.00     0.037 A 
ATOM     54  C   UNL A   1      45.497  30.153  30.078  1.00  0.00     0.049 A 
ATOM     55  C   UNL A   1      40.118  31.396  31.527  1.00  0.00     0.074 A 
ATOM     56  C   UNL A   1      46.086  29.211  30.893  1.00  0.00     0.029 A 
ATOM     57  N   UNL A   1      44.630  30.869  30.857  1.00  0.00    -0.354 N 
ATOM     58  N   UNL A   1      40.765  30.970  32.573  1.00  0.00    -0.248 NA
ATOM     59  C   UNL A   1      40.829  32.366  30.705  1.00  0.00     0.031 C 
ATOM     60  C   UNL A   1      45.314  29.204  32.095  1.00  0.00     0.029 A 
ATOM     61  C   UNL A   1      44.315  30.172  31.987  1.00  0.00     0.049 A 
ATOM     62  H   UNL A   1      44.284  31.765  30.634  1.00  0.00     0.167 HD
ATOM     63  C   UNL A   1      42.088  31.242  32.286  1.00  0.00     0.074 A 
ATOM     64  C   UNL A   1      42.045  32.262  31.247  1.00  0.00     0.031 C 
ATOM     65  C   UNL A   1      43.069  30.381  32.690  1.00  0.00     0.037 A 
BRANCH  52  66
ATOM     66  C   UNL A   1      45.567  31.738  28.055  1.00  0.00     0.064 A 
ATOM     67  C   UNL A   1      44.440  32.536  27.746  1.00  0.00     0.173 A 
ATOM     68  C   UNL A   1      46.775  32.147  27.449  1.00  0.00     0.173 A 
ATOM     69  F   UNL A   1      43.234  32.242  28.255  1.00  0.00    -0.203 F 
ATOM     70  C   UNL A   1      44.502  33.583  26.821  1.00  0.00     0.198 A 
ATOM     71  C   UNL A   1      46.841  33.225  26.565  1.00  0.00     0.198 A 
ATOM     72  F   UNL A   1      47.914  31.462  27.587  1.00  0.00    -0.203 F 
ATOM     73  F   UNL A   1      43.379  34.214  26.452  1.00  0.00    -0.200 F 
ATOM     74  C   UNL A   1      45.700  33.919  26.223  1.00  0.00     0.200 A 
ATOM     75  F   UNL A   1      48.009  33.522  25.979  1.00  0.00    -0.200 F 
ATOM     76  F   UNL A   1      45.751  34.871  25.282  1.00  0.00    -0.200 F 
ENDBRANCH  52  66
BRANCH  53  77
ATOM     77  C   UNL A   1      37.606  31.465  30.914  1.00  0.00     0.064 A 
ATOM     78  C   UNL A   1      36.728  31.498  32.011  1.00  0.00     0.173 A 
ATOM     79  C   UNL A   1      37.337  32.372  29.872  1.00  0.00     0.173 A 
ATOM     80  F   UNL A   1      36.929  30.690  33.063  1.00  0.00    -0.203 F 
ATOM     81  C   UNL A   1      35.675  32.416  32.084  1.00  0.00     0.198 A 
ATOM     82  C   UNL A   1      36.281  33.281  29.941  1.00  0.00     0.198 A 
ATOM     83  F   UNL A   1      38.153  32.460  28.811  1.00  0.00    -0.203 F 
ATOM     84  F   UNL A   1      34.907  32.467  33.182  1.00  0.00    -0.200 F 
ATOM     85  C   UNL A   1      35.462  33.316  31.055  1.00  0.00     0.200 A 
ATOM     86  F   UNL A   1      36.103  34.171  28.953  1.00  0.00    -0.200 F 
ATOM     87  F   UNL A   1      34.499  34.244  31.155  1.00  0.00    -0.200 F 
ENDBRANCH  53  77
BRANCH  65  88
ATOM     88  C   UNL A   1      42.747  29.471  33.838  1.00  0.00     0.064 A 
ATOM     89  C   UNL A   1      42.118  28.220  33.723  1.00  0.00     0.173 A 
ATOM     90  C   UNL A   1      43.153  29.875  35.118  1.00  0.00     0.173 A 
ATOM     91  F   UNL A   1      41.785  27.720  32.526  1.00  0.00    -0.203 F 
ATOM     92  C   UNL A   1      41.850  27.443  34.848  1.00  0.00     0.198 A 
ATOM     93  C   UNL A   1      42.924  29.077  36.234  1.00  0.00     0.198 A 
ATOM     94  F   UNL A   1      43.800  31.039  35.284  1.00  0.00    -0.203 F 
ATOM     95  F   UNL A   1      41.211  26.271  34.718  1.00  0.00    -0.200 F 
ATOM     96  C   UNL A   1      42.257  27.870  36.101  1.00  0.00     0.200 A 
ATOM     97  F   UNL A   1      43.362  29.474  37.436  1.00  0.00    -0.200 F 
ATOM     98  F   UNL A   1      42.024  27.111  37.180  1.00  0.00    -0.200 F 
ENDBRANCH  65  88
ENDBRANCH  39  40
ENDBRANCH  31  34
ENDBRANCH  29  30
ENDBRANCH  28  29
ENDBRANCH   1  28
TORSDOF 14
ENDMDL
