MODEL 1
REMARK VINA RESULT:     -13.2      0.000      0.000
REMARK SMILES Cc1cccc([C@@H](CCC[C@@H]2CCCO2)C(=O)NCCCCNC(=O)c2ccc(-c3c4nc(c(-c5c(F)c(F)c(F)c(F)c5F)c5ccc([nH]5)c(-c5c(F)c(F)c(F)c(F)c5F)c5nc(c(-c6c(F)c(F)c(F)c(F)c6F)c6ccc3[nH]6)C=C5)C=C4)cc2)c1
REMARK SMILES IDX 19 1 18 2 16 3 17 4 7 6 6 7 1 8 2 9 3 10 89 11 4 12 5 13
REMARK SMILES IDX 8 14 9 15 10 16 11 17 12 18 15 19 13 20 14 21 20 22 21 23
REMARK SMILES IDX 22 24 23 25 24 26 25 28 26 29 27 30 88 31 28 32 87 33 29 34
REMARK SMILES IDX 30 35 31 36 81 37 32 38 86 39 80 40 82 41 33 42 85 43 79 44
REMARK SMILES IDX 78 45 34 47 66 48 46 49 65 50 47 51 50 52 64 53 83 54 48 55
REMARK SMILES IDX 49 56 63 58 84 59 51 60 35 61 36 62 44 63 37 64 38 65 42 66
REMARK SMILES IDX 45 67 39 68 40 69 43 70 41 71 67 72 68 73 76 74 69 75 70 76
REMARK SMILES IDX 74 77 77 78 71 79 72 80 75 81 73 82 52 83 53 84 61 85 54 86
REMARK SMILES IDX 55 87 59 88 62 89 56 90 57 91 60 92 58 93
REMARK H PARENT 18 5 23 27 82 46 50 57
REMARK Flexibility Score: inf
ROOT
ATOM      1  C   UNL A   1      36.627  22.911  23.974  1.00  0.00     0.116 C 
ENDROOT
BRANCH   1   2
ATOM      2  N   UNL A   1      35.608  22.938  22.949  1.00  0.00    -0.356 N 
ATOM      3  C   UNL A   1      34.321  23.386  22.995  1.00  0.00     0.227 C 
ATOM      4  O   UNL A   1      33.746  23.509  21.905  1.00  0.00    -0.274 OA
ATOM      5  H   UNL A   1      35.889  22.575  22.078  1.00  0.00     0.163 HD
BRANCH   3   6
ATOM      6  C   UNL A   1      33.564  23.685  24.302  1.00  0.00     0.108 C 
BRANCH   6   7
ATOM      7  C   UNL A   1      33.614  25.163  24.704  1.00  0.00    -0.035 A 
ATOM      8  C   UNL A   1      34.003  28.501  22.857  1.00  0.00     0.044 C 
ATOM      9  C   UNL A   1      33.766  27.500  23.950  1.00  0.00    -0.051 A 
ATOM     10  C   UNL A   1      33.484  27.933  25.245  1.00  0.00     0.003 A 
ATOM     11  C   UNL A   1      33.797  26.124  23.685  1.00  0.00     0.008 A 
ATOM     12  C   UNL A   1      33.323  27.004  26.269  1.00  0.00     0.001 A 
ATOM     13  C   UNL A   1      33.425  25.635  26.007  1.00  0.00     0.004 A 
ENDBRANCH   6   7
BRANCH   6  14
ATOM     14  C   UNL A   1      32.317  22.825  24.638  1.00  0.00     0.018 C 
BRANCH  14  15
ATOM     15  C   UNL A   1      32.409  21.341  25.000  1.00  0.00     0.004 C 
BRANCH  15  16
ATOM     16  C   UNL A   1      32.494  20.331  23.851  1.00  0.00     0.032 C 
BRANCH  16  17
ATOM     17  C   UNL A   1      32.962  18.910  24.140  1.00  0.00     0.118 C 
ATOM     18  C   UNL A   1      34.414  18.709  24.519  1.00  0.00     0.034 C 
ATOM     19  O   UNL A   1      32.736  18.042  23.021  1.00  0.00    -0.378 OA
ATOM     20  C   UNL A   1      34.532  17.214  24.336  1.00  0.00     0.031 C 
ATOM     21  C   UNL A   1      33.719  16.994  23.074  1.00  0.00     0.160 C 
ENDBRANCH  16  17
ENDBRANCH  15  16
ENDBRANCH  14  15
ENDBRANCH   6  14
ENDBRANCH   3   6
ENDBRANCH   1   2
BRANCH   1  22
ATOM     22  C   UNL A   1      36.916  21.528  24.558  1.00  0.00     0.023 C 
BRANCH  22  23
ATOM     23  C   UNL A   1      38.168  21.464  25.439  1.00  0.00     0.023 C 
BRANCH  23  24
ATOM     24  C   UNL A   1      38.671  22.820  25.931  1.00  0.00     0.116 C 
BRANCH  24  25
ATOM     25  N   UNL A   1      40.077  22.892  26.285  1.00  0.00    -0.352 N 
ATOM     26  C   UNL A   1      40.863  23.992  26.613  1.00  0.00     0.251 C 
ATOM     27  H   UNL A   1      40.548  22.028  26.293  1.00  0.00     0.163 HD
ATOM     28  O   UNL A   1      42.062  23.844  26.734  1.00  0.00    -0.269 OA
BRANCH  26  29
ATOM     29  C   UNL A   1      40.245  25.314  26.957  1.00  0.00     0.039 A 
ATOM     30  C   UNL A   1      40.677  26.446  26.244  1.00  0.00     0.014 A 
ATOM     31  C   UNL A   1      39.394  25.491  28.040  1.00  0.00     0.014 A 
ATOM     32  C   UNL A   1      40.462  27.725  26.764  1.00  0.00     0.010 A 
ATOM     33  C   UNL A   1      39.276  26.738  28.620  1.00  0.00     0.010 A 
ATOM     34  C   UNL A   1      39.866  27.849  28.017  1.00  0.00    -0.014 A 
BRANCH  34  35
ATOM     35  C   UNL A   1      39.926  29.049  28.843  1.00  0.00     0.031 A 
ATOM     36  C   UNL A   1      38.879  30.088  28.765  1.00  0.00     0.074 A 
ATOM     37  C   UNL A   1      40.851  29.096  29.827  1.00  0.00     0.049 A 
ATOM     38  N   UNL A   1      38.992  31.275  29.261  1.00  0.00    -0.248 NA
ATOM     39  C   UNL A   1      37.605  29.866  28.098  1.00  0.00     0.031 C 
ATOM     40  C   UNL A   1      40.890  30.000  30.972  1.00  0.00     0.029 A 
ATOM     41  N   UNL A   1      42.088  28.431  29.867  1.00  0.00    -0.354 N 
ATOM     42  C   UNL A   1      37.751  31.870  29.227  1.00  0.00     0.074 A 
ATOM     43  C   UNL A   1      36.933  30.967  28.448  1.00  0.00     0.031 C 
ATOM     44  C   UNL A   1      42.157  30.083  31.407  1.00  0.00     0.029 A 
ATOM     45  C   UNL A   1      42.983  29.345  30.471  1.00  0.00     0.049 A 
ATOM     46  H   UNL A   1      42.288  27.523  29.544  1.00  0.00     0.167 HD
ATOM     47  C   UNL A   1      37.537  33.002  29.961  1.00  0.00     0.037 A 
ATOM     48  C   UNL A   1      44.010  29.878  29.746  1.00  0.00     0.037 A 
ATOM     49  C   UNL A   1      38.774  33.474  30.587  1.00  0.00     0.049 A 
ATOM     50  C   UNL A   1      43.929  31.379  29.558  1.00  0.00     0.074 A 
ATOM     51  C   UNL A   1      39.321  33.372  31.856  1.00  0.00     0.029 A 
ATOM     52  N   UNL A   1      39.797  33.920  29.768  1.00  0.00    -0.354 N 
ATOM     53  N   UNL A   1      42.935  32.119  29.966  1.00  0.00    -0.248 NA
ATOM     54  C   UNL A   1      44.924  32.151  28.809  1.00  0.00     0.031 C 
ATOM     55  C   UNL A   1      40.700  33.720  31.776  1.00  0.00     0.029 A 
ATOM     56  C   UNL A   1      40.987  34.038  30.460  1.00  0.00     0.049 A 
ATOM     57  H   UNL A   1      39.690  34.128  28.813  1.00  0.00     0.167 HD
ATOM     58  C   UNL A   1      43.108  33.398  29.520  1.00  0.00     0.074 A 
ATOM     59  C   UNL A   1      44.368  33.374  28.802  1.00  0.00     0.031 C 
ATOM     60  C   UNL A   1      42.195  34.385  29.733  1.00  0.00     0.037 A 
BRANCH  47  61
ATOM     61  C   UNL A   1      36.169  33.560  30.299  1.00  0.00     0.064 A 
ATOM     62  C   UNL A   1      35.347  34.115  29.293  1.00  0.00     0.173 A 
ATOM     63  C   UNL A   1      35.626  33.626  31.596  1.00  0.00     0.173 A 
ATOM     64  F   UNL A   1      35.669  34.028  27.997  1.00  0.00    -0.203 F 
ATOM     65  C   UNL A   1      34.152  34.784  29.580  1.00  0.00     0.198 A 
ATOM     66  C   UNL A   1      34.464  34.348  31.891  1.00  0.00     0.198 A 
ATOM     67  F   UNL A   1      36.158  32.936  32.611  1.00  0.00    -0.203 F 
ATOM     68  F   UNL A   1      33.418  35.292  28.579  1.00  0.00    -0.200 F 
ATOM     69  C   UNL A   1      33.733  34.939  30.884  1.00  0.00     0.200 A 
ATOM     70  F   UNL A   1      34.057  34.458  33.164  1.00  0.00    -0.200 F 
ATOM     71  F   UNL A   1      32.614  35.621  31.164  1.00  0.00    -0.200 F 
ENDBRANCH  47  61
BRANCH  48  72
ATOM     72  C   UNL A   1      44.560  28.917  28.753  1.00  0.00     0.064 A 
ATOM     73  C   UNL A   1      45.335  27.838  29.226  1.00  0.00     0.173 A 
ATOM     74  C   UNL A   1      44.036  28.818  27.459  1.00  0.00     0.173 A 
ATOM     75  F   UNL A   1      45.853  27.878  30.464  1.00  0.00    -0.203 F 
ATOM     76  C   UNL A   1      45.471  26.666  28.487  1.00  0.00     0.198 A 
ATOM     77  C   UNL A   1      44.193  27.649  26.713  1.00  0.00     0.198 A 
ATOM     78  F   UNL A   1      43.269  29.799  26.961  1.00  0.00    -0.203 F 
ATOM     79  F   UNL A   1      46.108  25.612  29.018  1.00  0.00    -0.200 F 
ATOM     80  C   UNL A   1      44.877  26.563  27.241  1.00  0.00     0.200 A 
ATOM     81  F   UNL A   1      43.593  27.538  25.520  1.00  0.00    -0.200 F 
ATOM     82  F   UNL A   1      44.925  25.406  26.567  1.00  0.00    -0.200 F 
ENDBRANCH  48  72
BRANCH  60  83
ATOM     83  C   UNL A   1      42.405  35.785  29.261  1.00  0.00     0.064 A 
ATOM     84  C   UNL A   1      41.860  36.243  28.053  1.00  0.00     0.173 A 
ATOM     85  C   UNL A   1      43.260  36.668  29.948  1.00  0.00     0.173 A 
ATOM     86  F   UNL A   1      41.062  35.450  27.321  1.00  0.00    -0.203 F 
ATOM     87  C   UNL A   1      42.138  37.521  27.570  1.00  0.00     0.198 A 
ATOM     88  C   UNL A   1      43.571  37.926  29.441  1.00  0.00     0.198 A 
ATOM     89  F   UNL A   1      43.791  36.333  31.134  1.00  0.00    -0.203 F 
ATOM     90  F   UNL A   1      41.566  37.942  26.434  1.00  0.00    -0.200 F 
ATOM     91  C   UNL A   1      43.003  38.356  28.256  1.00  0.00     0.200 A 
ATOM     92  F   UNL A   1      44.422  38.718  30.107  1.00  0.00    -0.200 F 
ATOM     93  F   UNL A   1      43.287  39.575  27.779  1.00  0.00    -0.200 F 
ENDBRANCH  60  83
ENDBRANCH  34  35
ENDBRANCH  26  29
ENDBRANCH  24  25
ENDBRANCH  23  24
ENDBRANCH  22  23
ENDBRANCH   1  22
TORSDOF 16
ENDMDL
MODEL 2
REMARK VINA RESULT:     -13.0      4.169     10.621
REMARK SMILES Cc1cccc([C@@H](CCC[C@@H]2CCCO2)C(=O)NCCCCNC(=O)c2ccc(-c3c4nc(c(-c5c(F)c(F)c(F)c(F)c5F)c5ccc([nH]5)c(-c5c(F)c(F)c(F)c(F)c5F)c5nc(c(-c6c(F)c(F)c(F)c(F)c6F)c6ccc3[nH]6)C=C5)C=C4)cc2)c1
REMARK SMILES IDX 19 1 18 2 16 3 17 4 7 6 6 7 1 8 2 9 3 10 89 11 4 12 5 13
REMARK SMILES IDX 8 14 9 15 10 16 11 17 12 18 15 19 13 20 14 21 20 22 21 23
REMARK SMILES IDX 22 24 23 25 24 26 25 28 26 29 27 30 88 31 28 32 87 33 29 34
REMARK SMILES IDX 30 35 31 36 81 37 32 38 86 39 80 40 82 41 33 42 85 43 79 44
REMARK SMILES IDX 78 45 34 47 66 48 46 49 65 50 47 51 50 52 64 53 83 54 48 55
REMARK SMILES IDX 49 56 63 58 84 59 51 60 35 61 36 62 44 63 37 64 38 65 42 66
REMARK SMILES IDX 45 67 39 68 40 69 43 70 41 71 67 72 68 73 76 74 69 75 70 76
REMARK SMILES IDX 74 77 77 78 71 79 72 80 75 81 73 82 52 83 53 84 61 85 54 86
REMARK SMILES IDX 55 87 59 88 62 89 56 90 57 91 60 92 58 93
REMARK H PARENT 18 5 23 27 82 46 50 57
REMARK Flexibility Score: inf
ROOT
ATOM      1  C   UNL A   1      32.354  28.264  26.830  1.00  0.00     0.116 C 
ENDROOT
BRANCH   1   2
ATOM      2  N   UNL A   1      31.369  27.212  26.958  1.00  0.00    -0.356 N 
ATOM      3  C   UNL A   1      30.949  26.281  26.054  1.00  0.00     0.227 C 
ATOM      4  O   UNL A   1      30.267  25.351  26.505  1.00  0.00    -0.274 OA
ATOM      5  H   UNL A   1      30.933  27.161  27.839  1.00  0.00     0.163 HD
BRANCH   3   6
ATOM      6  C   UNL A   1      31.233  26.365  24.543  1.00  0.00     0.108 C 
BRANCH   6   7
ATOM      7  C   UNL A   1      32.296  25.367  24.072  1.00  0.00    -0.035 A 
ATOM      8  C   UNL A   1      35.701  24.166  25.365  1.00  0.00     0.044 C 
ATOM      9  C   UNL A   1      34.448  24.272  24.545  1.00  0.00    -0.051 A 
ATOM     10  C   UNL A   1      34.235  23.399  23.479  1.00  0.00     0.003 A 
ATOM     11  C   UNL A   1      33.465  25.224  24.852  1.00  0.00     0.008 A 
ATOM     12  C   UNL A   1      33.101  23.537  22.684  1.00  0.00     0.001 A 
ATOM     13  C   UNL A   1      32.161  24.536  22.956  1.00  0.00     0.004 A 
ENDBRANCH   6   7
BRANCH   6  14
ATOM     14  C   UNL A   1      30.067  26.768  23.601  1.00  0.00     0.018 C 
BRANCH  14  15
ATOM     15  C   UNL A   1      30.092  28.042  22.754  1.00  0.00     0.004 C 
BRANCH  15  16
ATOM     16  C   UNL A   1      30.071  29.387  23.488  1.00  0.00     0.032 C 
BRANCH  16  17
ATOM     17  C   UNL A   1      29.057  30.446  23.075  1.00  0.00     0.118 C 
ATOM     18  C   UNL A   1      29.028  30.867  21.621  1.00  0.00     0.034 C 
ATOM     19  O   UNL A   1      29.228  31.660  23.820  1.00  0.00    -0.378 OA
ATOM     20  C   UNL A   1      28.212  32.133  21.726  1.00  0.00     0.031 C 
ATOM     21  C   UNL A   1      28.758  32.746  23.003  1.00  0.00     0.160 C 
ENDBRANCH  16  17
ENDBRANCH  15  16
ENDBRANCH  14  15
ENDBRANCH   6  14
ENDBRANCH   3   6
ENDBRANCH   1   2
BRANCH   1  22
ATOM     22  C   UNL A   1      31.776  29.672  26.676  1.00  0.00     0.023 C 
BRANCH  22  23
ATOM     23  C   UNL A   1      32.721  30.793  27.119  1.00  0.00     0.023 C 
BRANCH  23  24
ATOM     24  C   UNL A   1      34.093  30.319  27.599  1.00  0.00     0.116 C 
BRANCH  24  25
ATOM     25  N   UNL A   1      34.887  31.289  28.329  1.00  0.00    -0.352 N 
ATOM     26  C   UNL A   1      36.085  31.130  29.019  1.00  0.00     0.251 C 
ATOM     27  H   UNL A   1      34.521  32.203  28.339  1.00  0.00     0.163 HD
ATOM     28  O   UNL A   1      36.506  32.051  29.688  1.00  0.00    -0.269 OA
BRANCH  26  29
ATOM     29  C   UNL A   1      36.928  29.904  28.839  1.00  0.00     0.039 A 
ATOM     30  C   UNL A   1      37.143  29.084  29.960  1.00  0.00     0.014 A 
ATOM     31  C   UNL A   1      37.626  29.633  27.669  1.00  0.00     0.014 A 
ATOM     32  C   UNL A   1      38.212  28.183  29.974  1.00  0.00     0.010 A 
ATOM     33  C   UNL A   1      38.751  28.833  27.713  1.00  0.00     0.010 A 
ATOM     34  C   UNL A   1      39.083  28.158  28.888  1.00  0.00    -0.014 A 
BRANCH  34  35
ATOM     35  C   UNL A   1      40.421  27.579  28.917  1.00  0.00     0.031 A 
ATOM     36  C   UNL A   1      40.652  26.163  28.568  1.00  0.00     0.074 A 
ATOM     37  C   UNL A   1      41.471  28.415  29.073  1.00  0.00     0.049 A 
ATOM     38  N   UNL A   1      41.745  25.520  28.816  1.00  0.00    -0.248 NA
ATOM     39  C   UNL A   1      39.645  25.344  27.911  1.00  0.00     0.031 C 
ATOM     40  C   UNL A   1      42.878  28.141  28.800  1.00  0.00     0.029 A 
ATOM     41  N   UNL A   1      41.479  29.661  29.723  1.00  0.00    -0.354 N 
ATOM     42  C   UNL A   1      41.700  24.325  28.135  1.00  0.00     0.074 A 
ATOM     43  C   UNL A   1      40.349  24.244  27.625  1.00  0.00     0.031 C 
ATOM     44  C   UNL A   1      43.626  28.984  29.529  1.00  0.00     0.029 A 
ATOM     45  C   UNL A   1      42.724  29.725  30.391  1.00  0.00     0.049 A 
ATOM     46  H   UNL A   1      40.769  30.343  29.715  1.00  0.00     0.167 HD
ATOM     47  C   UNL A   1      42.848  23.601  27.986  1.00  0.00     0.037 A 
ATOM     48  C   UNL A   1      42.771  29.725  31.755  1.00  0.00     0.037 A 
ATOM     49  C   UNL A   1      43.958  24.202  28.731  1.00  0.00     0.049 A 
ATOM     50  C   UNL A   1      43.463  28.518  32.357  1.00  0.00     0.074 A 
ATOM     51  C   UNL A   1      45.031  25.010  28.392  1.00  0.00     0.029 A 
ATOM     52  N   UNL A   1      43.882  24.233  30.113  1.00  0.00    -0.354 N 
ATOM     53  N   UNL A   1      43.911  27.507  31.666  1.00  0.00    -0.248 NA
ATOM     54  C   UNL A   1      43.618  28.316  33.799  1.00  0.00     0.031 C 
ATOM     55  C   UNL A   1      45.568  25.562  29.591  1.00  0.00     0.029 A 
ATOM     56  C   UNL A   1      44.824  25.084  30.655  1.00  0.00     0.049 A 
ATOM     57  H   UNL A   1      43.236  23.712  30.643  1.00  0.00     0.167 HD
ATOM     58  C   UNL A   1      44.351  26.534  32.517  1.00  0.00     0.074 A 
ATOM     59  C   UNL A   1      44.152  27.084  33.844  1.00  0.00     0.031 C 
ATOM     60  C   UNL A   1      44.815  25.329  32.086  1.00  0.00     0.037 A 
BRANCH  47  61
ATOM     61  C   UNL A   1      43.031  22.475  26.989  1.00  0.00     0.064 A 
ATOM     62  C   UNL A   1      42.316  21.265  27.127  1.00  0.00     0.173 A 
ATOM     63  C   UNL A   1      43.928  22.500  25.904  1.00  0.00     0.173 A 
ATOM     64  F   UNL A   1      41.345  21.124  28.038  1.00  0.00    -0.203 F 
ATOM     65  C   UNL A   1      42.569  20.143  26.330  1.00  0.00     0.198 A 
ATOM     66  C   UNL A   1      44.227  21.361  25.146  1.00  0.00     0.198 A 
ATOM     67  F   UNL A   1      44.493  23.639  25.491  1.00  0.00    -0.203 F 
ATOM     68  F   UNL A   1      41.857  19.022  26.513  1.00  0.00    -0.200 F 
ATOM     69  C   UNL A   1      43.556  20.178  25.368  1.00  0.00     0.200 A 
ATOM     70  F   UNL A   1      45.168  21.427  24.193  1.00  0.00    -0.200 F 
ATOM     71  F   UNL A   1      43.833  19.091  24.636  1.00  0.00    -0.200 F 
ENDBRANCH  47  61
BRANCH  48  72
ATOM     72  C   UNL A   1      41.618  30.444  32.361  1.00  0.00     0.064 A 
ATOM     73  C   UNL A   1      41.596  31.851  32.286  1.00  0.00     0.173 A 
ATOM     74  C   UNL A   1      40.412  29.792  32.642  1.00  0.00     0.173 A 
ATOM     75  F   UNL A   1      42.724  32.525  32.009  1.00  0.00    -0.203 F 
ATOM     76  C   UNL A   1      40.401  32.561  32.363  1.00  0.00     0.198 A 
ATOM     77  C   UNL A   1      39.220  30.510  32.740  1.00  0.00     0.198 A 
ATOM     78  F   UNL A   1      40.362  28.453  32.700  1.00  0.00    -0.203 F 
ATOM     79  F   UNL A   1      40.398  33.887  32.162  1.00  0.00    -0.200 F 
ATOM     80  C   UNL A   1      39.209  31.887  32.564  1.00  0.00     0.200 A 
ATOM     81  F   UNL A   1      38.063  29.854  32.905  1.00  0.00    -0.200 F 
ATOM     82  F   UNL A   1      38.048  32.554  32.546  1.00  0.00    -0.200 F 
ENDBRANCH  48  72
BRANCH  60  83
ATOM     83  C   UNL A   1      45.315  24.282  33.025  1.00  0.00     0.064 A 
ATOM     84  C   UNL A   1      44.501  23.218  33.439  1.00  0.00     0.173 A 
ATOM     85  C   UNL A   1      46.582  24.386  33.628  1.00  0.00     0.173 A 
ATOM     86  F   UNL A   1      43.267  23.067  32.936  1.00  0.00    -0.203 F 
ATOM     87  C   UNL A   1      44.941  22.296  34.389  1.00  0.00     0.198 A 
ATOM     88  C   UNL A   1      47.001  23.491  34.609  1.00  0.00     0.198 A 
ATOM     89  F   UNL A   1      47.446  25.346  33.263  1.00  0.00    -0.203 F 
ATOM     90  F   UNL A   1      44.154  21.266  34.730  1.00  0.00    -0.200 F 
ATOM     91  C   UNL A   1      46.183  22.441  34.983  1.00  0.00     0.200 A 
ATOM     92  F   UNL A   1      48.199  23.652  35.187  1.00  0.00    -0.200 F 
ATOM     93  F   UNL A   1      46.594  21.568  35.911  1.00  0.00    -0.200 F 
ENDBRANCH  60  83
ENDBRANCH  34  35
ENDBRANCH  26  29
ENDBRANCH  24  25
ENDBRANCH  23  24
ENDBRANCH  22  23
ENDBRANCH   1  22
TORSDOF 16
ENDMDL
MODEL 3
REMARK VINA RESULT:     -13.0      4.086     10.166
REMARK SMILES Cc1cccc([C@@H](CCC[C@@H]2CCCO2)C(=O)NCCCCNC(=O)c2ccc(-c3c4nc(c(-c5c(F)c(F)c(F)c(F)c5F)c5ccc([nH]5)c(-c5c(F)c(F)c(F)c(F)c5F)c5nc(c(-c6c(F)c(F)c(F)c(F)c6F)c6ccc3[nH]6)C=C5)C=C4)cc2)c1
REMARK SMILES IDX 19 1 18 2 16 3 17 4 7 6 6 7 1 8 2 9 3 10 89 11 4 12 5 13
REMARK SMILES IDX 8 14 9 15 10 16 11 17 12 18 15 19 13 20 14 21 20 22 21 23
REMARK SMILES IDX 22 24 23 25 24 26 25 28 26 29 27 30 88 31 28 32 87 33 29 34
REMARK SMILES IDX 30 35 31 36 81 37 32 38 86 39 80 40 82 41 33 42 85 43 79 44
REMARK SMILES IDX 78 45 34 47 66 48 46 49 65 50 47 51 50 52 64 53 83 54 48 55
REMARK SMILES IDX 49 56 63 58 84 59 51 60 35 61 36 62 44 63 37 64 38 65 42 66
REMARK SMILES IDX 45 67 39 68 40 69 43 70 41 71 67 72 68 73 76 74 69 75 70 76
REMARK SMILES IDX 74 77 77 78 71 79 72 80 75 81 73 82 52 83 53 84 61 85 54 86
REMARK SMILES IDX 55 87 59 88 62 89 56 90 57 91 60 92 58 93
REMARK H PARENT 18 5 23 27 82 46 50 57
REMARK Flexibility Score: inf
ROOT
ATOM      1  C   UNL A   1      32.136  28.076  26.996  1.00  0.00     0.116 C 
ENDROOT
BRANCH   1   2
ATOM      2  N   UNL A   1      31.046  27.126  27.023  1.00  0.00    -0.356 N 
ATOM      3  C   UNL A   1      30.680  26.177  26.115  1.00  0.00     0.227 C 
ATOM      4  O   UNL A   1      29.850  25.343  26.501  1.00  0.00    -0.274 OA
ATOM      5  H   UNL A   1      30.478  27.173  27.826  1.00  0.00     0.163 HD
BRANCH   3   6
ATOM      6  C   UNL A   1      31.197  26.133  24.665  1.00  0.00     0.108 C 
BRANCH   6   7
ATOM      7  C   UNL A   1      30.656  27.274  23.797  1.00  0.00    -0.035 A 
ATOM      8  C   UNL A   1      27.212  28.822  23.125  1.00  0.00     0.044 C 
ATOM      9  C   UNL A   1      28.697  28.601  23.123  1.00  0.00    -0.051 A 
ATOM     10  C   UNL A   1      29.534  29.488  22.448  1.00  0.00     0.003 A 
ATOM     11  C   UNL A   1      29.266  27.523  23.815  1.00  0.00     0.008 A 
ATOM     12  C   UNL A   1      30.904  29.250  22.398  1.00  0.00     0.001 A 
ATOM     13  C   UNL A   1      31.453  28.132  23.033  1.00  0.00     0.004 A 
ENDBRANCH   6   7
BRANCH   6  14
ATOM     14  C   UNL A   1      32.617  25.563  24.413  1.00  0.00     0.018 C 
BRANCH  14  15
ATOM     15  C   UNL A   1      33.255  24.502  25.312  1.00  0.00     0.004 C 
BRANCH  15  16
ATOM     16  C   UNL A   1      34.709  24.717  25.747  1.00  0.00     0.032 C 
BRANCH  16  17
ATOM     17  C   UNL A   1      35.831  24.075  24.940  1.00  0.00     0.118 C 
ATOM     18  C   UNL A   1      35.446  23.218  23.754  1.00  0.00     0.034 C 
ATOM     19  O   UNL A   1      36.659  23.240  25.761  1.00  0.00    -0.378 OA
ATOM     20  C   UNL A   1      36.753  22.504  23.505  1.00  0.00     0.031 C 
ATOM     21  C   UNL A   1      37.221  22.218  24.920  1.00  0.00     0.160 C 
ENDBRANCH  16  17
ENDBRANCH  15  16
ENDBRANCH  14  15
ENDBRANCH   6  14
ENDBRANCH   3   6
ENDBRANCH   1   2
BRANCH   1  22
ATOM     22  C   UNL A   1      31.784  29.445  26.413  1.00  0.00     0.023 C 
BRANCH  22  23
ATOM     23  C   UNL A   1      32.785  30.553  26.755  1.00  0.00     0.023 C 
BRANCH  23  24
ATOM     24  C   UNL A   1      34.012  30.085  27.538  1.00  0.00     0.116 C 
BRANCH  24  25
ATOM     25  N   UNL A   1      34.638  31.072  28.398  1.00  0.00    -0.352 N 
ATOM     26  C   UNL A   1      35.785  30.981  29.180  1.00  0.00     0.251 C 
ATOM     27  H   UNL A   1      34.179  31.942  28.434  1.00  0.00     0.163 HD
ATOM     28  O   UNL A   1      36.052  31.887  29.942  1.00  0.00    -0.269 OA
BRANCH  26  29
ATOM     29  C   UNL A   1      36.764  29.860  28.996  1.00  0.00     0.039 A 
ATOM     30  C   UNL A   1      36.983  28.995  30.082  1.00  0.00     0.014 A 
ATOM     31  C   UNL A   1      37.568  29.737  27.871  1.00  0.00     0.014 A 
ATOM     32  C   UNL A   1      38.136  28.207  30.128  1.00  0.00     0.010 A 
ATOM     33  C   UNL A   1      38.764  29.053  27.957  1.00  0.00     0.010 A 
ATOM     34  C   UNL A   1      39.080  28.340  29.113  1.00  0.00    -0.014 A 
BRANCH  34  35
ATOM     35  C   UNL A   1      40.466  27.898  29.213  1.00  0.00     0.031 A 
ATOM     36  C   UNL A   1      40.897  26.593  28.672  1.00  0.00     0.074 A 
ATOM     37  C   UNL A   1      41.389  28.792  29.632  1.00  0.00     0.049 A 
ATOM     38  N   UNL A   1      42.025  26.027  28.945  1.00  0.00    -0.248 NA
ATOM     39  C   UNL A   1      40.067  25.807  27.771  1.00  0.00     0.031 C 
ATOM     40  C   UNL A   1      42.839  28.708  29.494  1.00  0.00     0.029 A 
ATOM     41  N   UNL A   1      41.183  29.900  30.470  1.00  0.00    -0.354 N 
ATOM     42  C   UNL A   1      42.192  24.970  28.079  1.00  0.00     0.074 A 
ATOM     43  C   UNL A   1      40.921  24.848  27.400  1.00  0.00     0.031 C 
ATOM     44  C   UNL A   1      43.403  29.480  30.436  1.00  0.00     0.029 A 
ATOM     45  C   UNL A   1      42.335  29.968  31.289  1.00  0.00     0.049 A 
ATOM     46  H   UNL A   1      40.404  30.501  30.485  1.00  0.00     0.167 HD
ATOM     47  C   UNL A   1      43.427  24.398  27.959  1.00  0.00     0.037 A 
ATOM     48  C   UNL A   1      42.237  29.735  32.630  1.00  0.00     0.037 A 
ATOM     49  C   UNL A   1      44.373  24.965  28.922  1.00  0.00     0.049 A 
ATOM     50  C   UNL A   1      42.998  28.514  33.110  1.00  0.00     0.074 A 
ATOM     51  C   UNL A   1      45.375  25.920  28.854  1.00  0.00     0.029 A 
ATOM     52  N   UNL A   1      44.149  24.747  30.271  1.00  0.00    -0.354 N 
ATOM     53  N   UNL A   1      43.631  27.687  32.325  1.00  0.00    -0.248 NA
ATOM     54  C   UNL A   1      43.023  28.081  34.508  1.00  0.00     0.031 C 
ATOM     55  C   UNL A   1      45.714  26.305  30.184  1.00  0.00     0.029 A 
ATOM     56  C   UNL A   1      44.923  25.578  31.056  1.00  0.00     0.049 A 
ATOM     57  H   UNL A   1      43.516  24.082  30.626  1.00  0.00     0.167 HD
ATOM     58  C   UNL A   1      44.090  26.629  33.055  1.00  0.00     0.074 A 
ATOM     59  C   UNL A   1      43.689  26.917  34.419  1.00  0.00     0.031 C 
ATOM     60  C   UNL A   1      44.734  25.568  32.496  1.00  0.00     0.037 A 
BRANCH  47  61
ATOM     61  C   UNL A   1      43.844  23.486  26.822  1.00  0.00     0.064 A 
ATOM     62  C   UNL A   1      43.327  22.176  26.722  1.00  0.00     0.173 A 
ATOM     63  C   UNL A   1      44.783  23.819  25.828  1.00  0.00     0.173 A 
ATOM     64  F   UNL A   1      42.343  21.746  27.522  1.00  0.00    -0.203 F 
ATOM     65  C   UNL A   1      43.802  21.247  25.789  1.00  0.00     0.198 A 
ATOM     66  C   UNL A   1      45.303  22.875  24.936  1.00  0.00     0.198 A 
ATOM     67  F   UNL A   1      45.178  25.082  25.636  1.00  0.00    -0.203 F 
ATOM     68  F   UNL A   1      43.272  20.017  25.747  1.00  0.00    -0.200 F 
ATOM     69  C   UNL A   1      44.821  21.584  24.925  1.00  0.00     0.200 A 
ATOM     70  F   UNL A   1      46.272  23.233  24.081  1.00  0.00    -0.200 F 
ATOM     71  F   UNL A   1      45.310  20.681  24.064  1.00  0.00    -0.200 F 
ENDBRANCH  47  61
BRANCH  48  72
ATOM     72  C   UNL A   1      40.951  30.221  33.197  1.00  0.00     0.064 A 
ATOM     73  C   UNL A   1      40.759  31.613  33.315  1.00  0.00     0.173 A 
ATOM     74  C   UNL A   1      39.816  29.405  33.249  1.00  0.00     0.173 A 
ATOM     75  F   UNL A   1      41.813  32.442  33.261  1.00  0.00    -0.203 F 
ATOM     76  C   UNL A   1      39.482  32.166  33.356  1.00  0.00     0.198 A 
ATOM     77  C   UNL A   1      38.538  29.963  33.312  1.00  0.00     0.198 A 
ATOM     78  F   UNL A   1      39.930  28.075  33.116  1.00  0.00    -0.203 F 
ATOM     79  F   UNL A   1      39.330  33.498  33.341  1.00  0.00    -0.200 F 
ATOM     80  C   UNL A   1      38.371  31.340  33.328  1.00  0.00     0.200 A 
ATOM     81  F   UNL A   1      37.463  29.165  33.254  1.00  0.00    -0.200 F 
ATOM     82  F   UNL A   1      37.141  31.869  33.272  1.00  0.00    -0.200 F 
ENDBRANCH  48  72
BRANCH  60  83
ATOM     83  C   UNL A   1      45.252  24.427  33.307  1.00  0.00     0.064 A 
ATOM     84  C   UNL A   1      46.595  24.358  33.703  1.00  0.00     0.173 A 
ATOM     85  C   UNL A   1      44.442  23.314  33.603  1.00  0.00     0.173 A 
ATOM     86  F   UNL A   1      47.440  25.363  33.430  1.00  0.00    -0.203 F 
ATOM     87  C   UNL A   1      47.095  23.245  34.379  1.00  0.00     0.198 A 
ATOM     88  C   UNL A   1      44.955  22.186  34.237  1.00  0.00     0.198 A 
ATOM     89  F   UNL A   1      43.135  23.310  33.301  1.00  0.00    -0.203 F 
ATOM     90  F   UNL A   1      48.373  23.230  34.781  1.00  0.00    -0.200 F 
ATOM     91  C   UNL A   1      46.280  22.155  34.632  1.00  0.00     0.200 A 
ATOM     92  F   UNL A   1      44.159  21.131  34.462  1.00  0.00    -0.200 F 
ATOM     93  F   UNL A   1      46.768  21.077  35.260  1.00  0.00    -0.200 F 
ENDBRANCH  60  83
ENDBRANCH  34  35
ENDBRANCH  26  29
ENDBRANCH  24  25
ENDBRANCH  23  24
ENDBRANCH  22  23
ENDBRANCH   1  22
TORSDOF 16
ENDMDL
