MODEL 1
REMARK VINA RESULT:     -14.3      0.000      0.000
REMARK SMILES Cc1cc(C(=O)NCCCCNC(=O)c2ccc(-c3c4nc(c(-c5c(F)c(F)c(F)c(F)c5F)c5ccc([nH]5)c(-c5c(F)c(F)c(F)c(F)c5F)c5nc(c(-c6c(F)c(F)c(F)c(F)c6F)c6ccc3[nH]6)C=C5)C=C4)cc2)ccc1NS(=O)(=O)c1ccc2c(c1)CCC2
REMARK SMILES IDX 9 1 8 2 7 3 5 4 6 5 4 7 1 8 2 9 3 10 80 11 79 12 78 13 81 14
REMARK SMILES IDX 82 16 83 17 84 18 85 19 86 20 90 21 87 22 89 23 88 24 91 25
REMARK SMILES IDX 93 26 92 27 10 28 11 29 12 30 13 31 14 33 15 34 16 35 77 36
REMARK SMILES IDX 17 37 76 38 18 39 19 40 20 41 70 42 21 43 75 44 69 45 71 46
REMARK SMILES IDX 22 47 74 48 68 49 67 50 23 52 55 53 35 54 54 55 36 56 39 57
REMARK SMILES IDX 53 58 72 59 37 60 38 61 52 63 73 64 40 65 24 66 25 67 33 68
REMARK SMILES IDX 26 69 27 70 31 71 34 72 28 73 29 74 32 75 30 76 56 77 57 78
REMARK SMILES IDX 65 79 58 80 59 81 63 82 66 83 60 84 61 85 64 86 62 87 41 88
REMARK SMILES IDX 42 89 50 90 43 91 44 92 48 93 51 94 45 95 46 96 49 97 47 98
REMARK H PARENT 7 6 81 15 12 32 71 51 39 62
REMARK Flexibility Score: inf
ROOT
ATOM      1  C   UNL A   1      37.315  20.964  24.926  1.00  0.00     0.023 C 
ENDROOT
BRANCH   1   2
ATOM      2  C   UNL A   1      36.246  22.004  25.287  1.00  0.00     0.116 C 
BRANCH   2   3
ATOM      3  N   UNL A   1      35.467  21.693  26.478  1.00  0.00    -0.352 N 
ATOM      4  C   UNL A   1      34.107  21.680  26.707  1.00  0.00     0.251 C 
ATOM      5  O   UNL A   1      33.692  21.410  27.831  1.00  0.00    -0.269 OA
ATOM      6  H   UNL A   1      36.010  21.449  27.263  1.00  0.00     0.163 HD
BRANCH   4   7
ATOM      7  C   UNL A   1      33.143  22.075  25.652  1.00  0.00     0.040 A 
ATOM      8  C   UNL A   1      30.548  24.808  25.233  1.00  0.00     0.046 C 
ATOM      9  C   UNL A   1      31.537  23.731  24.880  1.00  0.00    -0.026 A 
ATOM     10  C   UNL A   1      32.273  23.137  25.919  1.00  0.00     0.019 A 
ATOM     11  C   UNL A   1      31.759  23.292  23.565  1.00  0.00     0.052 A 
ATOM     12  C   UNL A   1      32.380  22.057  23.363  1.00  0.00     0.028 A 
ATOM     13  C   UNL A   1      33.078  21.447  24.411  1.00  0.00     0.016 A 
BRANCH  11  14
ATOM     14  N   UNL A   1      31.579  24.242  22.515  1.00  0.00    -0.279 N 
ATOM     15  H   UNL A   1      30.725  24.183  22.028  1.00  0.00     0.180 HD
BRANCH  14  16
ATOM     16  S   UNL A   1      32.618  25.439  22.004  1.00  0.00     0.261 S 
ATOM     17  O   UNL A   1      33.976  24.944  22.160  1.00  0.00    -0.201 OA
ATOM     18  O   UNL A   1      32.116  25.856  20.719  1.00  0.00    -0.201 OA
BRANCH  16  19
ATOM     19  C   UNL A   1      32.467  26.854  23.083  1.00  0.00     0.088 A 
ATOM     20  C   UNL A   1      31.352  27.708  23.070  1.00  0.00     0.022 A 
ATOM     21  C   UNL A   1      33.435  26.962  24.092  1.00  0.00     0.026 A 
ATOM     22  C   UNL A   1      31.083  28.520  24.177  1.00  0.00     0.005 A 
ATOM     23  C   UNL A   1      33.174  27.803  25.157  1.00  0.00    -0.043 A 
ATOM     24  C   UNL A   1      31.970  28.506  25.237  1.00  0.00    -0.045 A 
ATOM     25  C   UNL A   1      34.021  28.079  26.359  1.00  0.00     0.036 C 
ATOM     26  C   UNL A   1      31.825  29.161  26.577  1.00  0.00     0.036 C 
ATOM     27  C   UNL A   1      32.936  28.456  27.375  1.00  0.00     0.010 C 
ENDBRANCH  16  19
ENDBRANCH  14  16
ENDBRANCH  11  14
ENDBRANCH   4   7
ENDBRANCH   2   3
ENDBRANCH   1   2
BRANCH   1  28
ATOM     28  C   UNL A   1      38.677  21.125  25.597  1.00  0.00     0.023 C 
BRANCH  28  29
ATOM     29  C   UNL A   1      39.047  22.549  26.002  1.00  0.00     0.116 C 
BRANCH  29  30
ATOM     30  N   UNL A   1      40.439  22.743  26.396  1.00  0.00    -0.352 N 
ATOM     31  C   UNL A   1      41.097  23.903  26.778  1.00  0.00     0.251 C 
ATOM     32  H   UNL A   1      40.993  21.929  26.391  1.00  0.00     0.163 HD
ATOM     33  O   UNL A   1      42.299  23.866  27.025  1.00  0.00    -0.269 OA
BRANCH  31  34
ATOM     34  C   UNL A   1      40.334  25.152  27.035  1.00  0.00     0.039 A 
ATOM     35  C   UNL A   1      40.621  26.275  26.245  1.00  0.00     0.014 A 
ATOM     36  C   UNL A   1      39.531  25.290  28.161  1.00  0.00     0.014 A 
ATOM     37  C   UNL A   1      40.359  27.547  26.746  1.00  0.00     0.010 A 
ATOM     38  C   UNL A   1      39.379  26.543  28.715  1.00  0.00     0.010 A 
ATOM     39  C   UNL A   1      39.878  27.665  28.047  1.00  0.00    -0.014 A 
BRANCH  39  40
ATOM     40  C   UNL A   1      40.067  28.860  28.867  1.00  0.00     0.031 A 
ATOM     41  C   UNL A   1      39.023  29.899  28.970  1.00  0.00     0.074 A 
ATOM     42  C   UNL A   1      41.138  28.886  29.694  1.00  0.00     0.049 A 
ATOM     43  N   UNL A   1      39.209  31.076  29.464  1.00  0.00    -0.248 NA
ATOM     44  C   UNL A   1      37.672  29.701  28.463  1.00  0.00     0.031 C 
ATOM     45  C   UNL A   1      41.333  29.724  30.873  1.00  0.00     0.029 A 
ATOM     46  N   UNL A   1      42.377  28.243  29.515  1.00  0.00    -0.354 N 
ATOM     47  C   UNL A   1      37.976  31.674  29.616  1.00  0.00     0.074 A 
ATOM     48  C   UNL A   1      37.070  30.814  28.892  1.00  0.00     0.031 C 
ATOM     49  C   UNL A   1      42.644  29.779  31.154  1.00  0.00     0.029 A 
ATOM     50  C   UNL A   1      43.339  29.123  30.059  1.00  0.00     0.049 A 
ATOM     51  H   UNL A   1      42.539  27.366  29.100  1.00  0.00     0.167 HD
ATOM     52  C   UNL A   1      37.863  32.747  30.457  1.00  0.00     0.037 A 
ATOM     53  C   UNL A   1      44.277  29.727  29.272  1.00  0.00     0.037 A 
ATOM     54  C   UNL A   1      39.182  33.187  30.918  1.00  0.00     0.049 A 
ATOM     55  C   UNL A   1      44.235  31.235  29.304  1.00  0.00     0.074 A 
ATOM     56  C   UNL A   1      39.879  32.998  32.101  1.00  0.00     0.029 A 
ATOM     57  N   UNL A   1      40.100  33.689  29.999  1.00  0.00    -0.354 N 
ATOM     58  N   UNL A   1      43.197  31.925  29.688  1.00  0.00    -0.248 NA
ATOM     59  C   UNL A   1      45.339  32.084  28.861  1.00  0.00     0.031 C 
ATOM     60  C   UNL A   1      41.237  33.333  31.871  1.00  0.00     0.029 A 
ATOM     61  C   UNL A   1      41.363  33.745  30.557  1.00  0.00     0.049 A 
ATOM     62  H   UNL A   1      39.879  33.966  29.081  1.00  0.00     0.167 HD
ATOM     63  C   UNL A   1      43.451  33.260  29.520  1.00  0.00     0.074 A 
ATOM     64  C   UNL A   1      44.813  33.311  29.023  1.00  0.00     0.031 C 
ATOM     65  C   UNL A   1      42.505  34.208  29.783  1.00  0.00     0.037 A 
BRANCH  52  66
ATOM     66  C   UNL A   1      36.565  33.212  31.110  1.00  0.00     0.064 A 
ATOM     67  C   UNL A   1      35.615  33.956  30.370  1.00  0.00     0.173 A 
ATOM     68  C   UNL A   1      36.226  33.048  32.467  1.00  0.00     0.173 A 
ATOM     69  F   UNL A   1      35.712  34.094  29.042  1.00  0.00    -0.203 F 
ATOM     70  C   UNL A   1      34.515  34.590  30.963  1.00  0.00     0.198 A 
ATOM     71  C   UNL A   1      35.151  33.713  33.070  1.00  0.00     0.198 A 
ATOM     72  F   UNL A   1      36.870  32.185  33.254  1.00  0.00    -0.203 F 
ATOM     73  F   UNL A   1      33.668  35.300  30.205  1.00  0.00    -0.200 F 
ATOM     74  C   UNL A   1      34.305  34.500  32.322  1.00  0.00     0.200 A 
ATOM     75  F   UNL A   1      34.944  33.574  34.388  1.00  0.00    -0.200 F 
ATOM     76  F   UNL A   1      33.278  35.136  32.899  1.00  0.00    -0.200 F 
ENDBRANCH  52  66
BRANCH  53  77
ATOM     77  C   UNL A   1      44.653  28.927  28.077  1.00  0.00     0.064 A 
ATOM     78  C   UNL A   1      45.559  27.861  28.233  1.00  0.00     0.173 A 
ATOM     79  C   UNL A   1      43.885  28.957  26.906  1.00  0.00     0.173 A 
ATOM     80  F   UNL A   1      46.314  27.782  29.341  1.00  0.00    -0.203 F 
ATOM     81  C   UNL A   1      45.616  26.817  27.313  1.00  0.00     0.198 A 
ATOM     82  C   UNL A   1      43.951  27.912  25.981  1.00  0.00     0.198 A 
ATOM     83  F   UNL A   1      42.985  29.930  26.709  1.00  0.00    -0.203 F 
ATOM     84  F   UNL A   1      46.417  25.767  27.542  1.00  0.00    -0.200 F 
ATOM     85  C   UNL A   1      44.791  26.830  26.201  1.00  0.00     0.200 A 
ATOM     86  F   UNL A   1      43.127  27.905  24.924  1.00  0.00    -0.200 F 
ATOM     87  F   UNL A   1      44.773  25.782  25.367  1.00  0.00    -0.200 F 
ENDBRANCH  53  77
BRANCH  65  88
ATOM     88  C   UNL A   1      42.595  35.665  29.409  1.00  0.00     0.064 A 
ATOM     89  C   UNL A   1      43.388  36.599  30.096  1.00  0.00     0.173 A 
ATOM     90  C   UNL A   1      41.985  36.136  28.222  1.00  0.00     0.173 A 
ATOM     91  F   UNL A   1      44.106  36.247  31.170  1.00  0.00    -0.203 F 
ATOM     92  C   UNL A   1      43.516  37.921  29.660  1.00  0.00     0.198 A 
ATOM     93  C   UNL A   1      42.161  37.440  27.760  1.00  0.00     0.198 A 
ATOM     94  F   UNL A   1      41.224  35.334  27.462  1.00  0.00    -0.203 F 
ATOM     95  F   UNL A   1      44.256  38.784  30.371  1.00  0.00    -0.200 F 
ATOM     96  C   UNL A   1      42.915  38.337  28.487  1.00  0.00     0.200 A 
ATOM     97  F   UNL A   1      41.613  37.813  26.594  1.00  0.00    -0.200 F 
ATOM     98  F   UNL A   1      43.081  39.592  28.047  1.00  0.00    -0.200 F 
ENDBRANCH  65  88
ENDBRANCH  39  40
ENDBRANCH  31  34
ENDBRANCH  29  30
ENDBRANCH  28  29
ENDBRANCH   1  28
TORSDOF 14
ENDMDL
MODEL 2
REMARK VINA RESULT:     -14.2      3.749      9.997
REMARK SMILES Cc1cc(C(=O)NCCCCNC(=O)c2ccc(-c3c4nc(c(-c5c(F)c(F)c(F)c(F)c5F)c5ccc([nH]5)c(-c5c(F)c(F)c(F)c(F)c5F)c5nc(c(-c6c(F)c(F)c(F)c(F)c6F)c6ccc3[nH]6)C=C5)C=C4)cc2)ccc1NS(=O)(=O)c1ccc2c(c1)CCC2
REMARK SMILES IDX 9 1 8 2 7 3 5 4 6 5 4 7 1 8 2 9 3 10 80 11 79 12 78 13 81 14
REMARK SMILES IDX 82 16 83 17 84 18 85 19 86 20 90 21 87 22 89 23 88 24 91 25
REMARK SMILES IDX 93 26 92 27 10 28 11 29 12 30 13 31 14 33 15 34 16 35 77 36
REMARK SMILES IDX 17 37 76 38 18 39 19 40 20 41 70 42 21 43 75 44 69 45 71 46
REMARK SMILES IDX 22 47 74 48 68 49 67 50 23 52 55 53 35 54 54 55 36 56 39 57
REMARK SMILES IDX 53 58 72 59 37 60 38 61 52 63 73 64 40 65 24 66 25 67 33 68
REMARK SMILES IDX 26 69 27 70 31 71 34 72 28 73 29 74 32 75 30 76 56 77 57 78
REMARK SMILES IDX 65 79 58 80 59 81 63 82 66 83 60 84 61 85 64 86 62 87 41 88
REMARK SMILES IDX 42 89 50 90 43 91 44 92 48 93 51 94 45 95 46 96 49 97 47 98
REMARK H PARENT 7 6 81 15 12 32 71 51 39 62
REMARK Flexibility Score: inf
ROOT
ATOM      1  C   UNL A   1      33.520  28.892  26.447  1.00  0.00     0.023 C 
ENDROOT
BRANCH   1   2
ATOM      2  C   UNL A   1      32.906  29.574  25.215  1.00  0.00     0.116 C 
BRANCH   2   3
ATOM      3  N   UNL A   1      33.635  29.361  23.971  1.00  0.00    -0.352 N 
ATOM      4  C   UNL A   1      33.494  28.416  22.977  1.00  0.00     0.251 C 
ATOM      5  O   UNL A   1      34.270  28.428  22.025  1.00  0.00    -0.269 OA
ATOM      6  H   UNL A   1      34.359  30.009  23.812  1.00  0.00     0.163 HD
BRANCH   4   7
ATOM      7  C   UNL A   1      32.489  27.330  23.081  1.00  0.00     0.040 A 
ATOM      8  C   UNL A   1      32.495  23.570  22.592  1.00  0.00     0.046 C 
ATOM      9  C   UNL A   1      32.074  24.933  23.067  1.00  0.00    -0.026 A 
ATOM     10  C   UNL A   1      32.882  26.033  22.734  1.00  0.00     0.019 A 
ATOM     11  C   UNL A   1      30.913  25.158  23.825  1.00  0.00     0.052 A 
ATOM     12  C   UNL A   1      30.392  26.452  23.890  1.00  0.00     0.028 A 
ATOM     13  C   UNL A   1      31.185  27.544  23.518  1.00  0.00     0.016 A 
BRANCH  11  14
ATOM     14  N   UNL A   1      30.484  24.113  24.697  1.00  0.00    -0.279 N 
ATOM     15  H   UNL A   1      29.769  23.533  24.347  1.00  0.00     0.180 HD
BRANCH  14  16
ATOM     16  S   UNL A   1      31.031  23.740  26.225  1.00  0.00     0.261 S 
ATOM     17  O   UNL A   1      31.279  24.990  26.925  1.00  0.00    -0.201 OA
ATOM     18  O   UNL A   1      30.097  22.769  26.737  1.00  0.00    -0.201 OA
BRANCH  16  19
ATOM     19  C   UNL A   1      32.605  22.906  26.103  1.00  0.00     0.088 A 
ATOM     20  C   UNL A   1      32.728  21.563  25.710  1.00  0.00     0.022 A 
ATOM     21  C   UNL A   1      33.740  23.718  26.231  1.00  0.00     0.026 A 
ATOM     22  C   UNL A   1      33.953  21.087  25.231  1.00  0.00     0.005 A 
ATOM     23  C   UNL A   1      34.952  23.217  25.794  1.00  0.00    -0.043 A 
ATOM     24  C   UNL A   1      35.037  21.946  25.220  1.00  0.00    -0.045 A 
ATOM     25  C   UNL A   1      36.294  23.878  25.798  1.00  0.00     0.036 C 
ATOM     26  C   UNL A   1      36.393  21.722  24.623  1.00  0.00     0.036 C 
ATOM     27  C   UNL A   1      36.958  23.153  24.622  1.00  0.00     0.010 C 
ENDBRANCH  16  19
ENDBRANCH  14  16
ENDBRANCH  11  14
ENDBRANCH   4   7
ENDBRANCH   2   3
ENDBRANCH   1   2
BRANCH   1  28
ATOM     28  C   UNL A   1      33.802  29.786  27.652  1.00  0.00     0.023 C 
BRANCH  28  29
ATOM     29  C   UNL A   1      34.282  31.198  27.326  1.00  0.00     0.116 C 
BRANCH  29  30
ATOM     30  N   UNL A   1      34.940  31.902  28.423  1.00  0.00    -0.352 N 
ATOM     31  C   UNL A   1      35.969  31.482  29.252  1.00  0.00     0.251 C 
ATOM     32  H   UNL A   1      34.602  32.810  28.599  1.00  0.00     0.163 HD
ATOM     33  O   UNL A   1      36.353  32.212  30.161  1.00  0.00    -0.269 OA
BRANCH  31  34
ATOM     34  C   UNL A   1      36.710  30.228  28.957  1.00  0.00     0.039 A 
ATOM     35  C   UNL A   1      36.802  29.262  29.971  1.00  0.00     0.014 A 
ATOM     36  C   UNL A   1      37.485  30.098  27.811  1.00  0.00     0.014 A 
ATOM     37  C   UNL A   1      37.865  28.363  29.963  1.00  0.00     0.010 A 
ATOM     38  C   UNL A   1      38.604  29.294  27.857  1.00  0.00     0.010 A 
ATOM     39  C   UNL A   1      38.841  28.494  28.978  1.00  0.00    -0.014 A 
BRANCH  39  40
ATOM     40  C   UNL A   1      40.214  28.023  29.145  1.00  0.00     0.031 A 
ATOM     41  C   UNL A   1      40.641  26.696  28.656  1.00  0.00     0.074 A 
ATOM     42  C   UNL A   1      41.134  28.920  29.569  1.00  0.00     0.049 A 
ATOM     43  N   UNL A   1      41.749  26.120  28.978  1.00  0.00    -0.248 NA
ATOM     44  C   UNL A   1      39.806  25.880  27.787  1.00  0.00     0.031 C 
ATOM     45  C   UNL A   1      42.585  28.844  29.426  1.00  0.00     0.029 A 
ATOM     46  N   UNL A   1      40.924  30.042  30.393  1.00  0.00    -0.354 N 
ATOM     47  C   UNL A   1      41.914  25.026  28.155  1.00  0.00     0.074 A 
ATOM     48  C   UNL A   1      40.635  24.871  27.504  1.00  0.00     0.031 C 
ATOM     49  C   UNL A   1      43.153  29.662  30.327  1.00  0.00     0.029 A 
ATOM     50  C   UNL A   1      42.087  30.147  31.187  1.00  0.00     0.049 A 
ATOM     51  H   UNL A   1      40.134  30.628  30.411  1.00  0.00     0.167 HD
ATOM     52  C   UNL A   1      43.161  24.478  28.030  1.00  0.00     0.037 A 
ATOM     53  C   UNL A   1      42.045  29.962  32.540  1.00  0.00     0.037 A 
ATOM     54  C   UNL A   1      44.093  25.083  28.985  1.00  0.00     0.049 A 
ATOM     55  C   UNL A   1      42.928  28.845  33.040  1.00  0.00     0.074 A 
ATOM     56  C   UNL A   1      45.077  26.050  28.859  1.00  0.00     0.029 A 
ATOM     57  N   UNL A   1      43.885  24.912  30.351  1.00  0.00    -0.354 N 
ATOM     58  N   UNL A   1      43.374  27.879  32.285  1.00  0.00    -0.248 NA
ATOM     59  C   UNL A   1      43.335  28.699  34.435  1.00  0.00     0.031 C 
ATOM     60  C   UNL A   1      45.418  26.505  30.158  1.00  0.00     0.029 A 
ATOM     61  C   UNL A   1      44.657  25.801  31.075  1.00  0.00     0.049 A 
ATOM     62  H   UNL A   1      43.272  24.251  30.747  1.00  0.00     0.167 HD
ATOM     63  C   UNL A   1      44.072  26.987  33.055  1.00  0.00     0.074 A 
ATOM     64  C   UNL A   1      44.041  27.556  34.389  1.00  0.00     0.031 C 
ATOM     65  C   UNL A   1      44.594  25.841  32.528  1.00  0.00     0.037 A 
BRANCH  52  66
ATOM     66  C   UNL A   1      43.626  23.624  26.854  1.00  0.00     0.064 A 
ATOM     67  C   UNL A   1      43.241  22.266  26.756  1.00  0.00     0.173 A 
ATOM     68  C   UNL A   1      44.517  24.036  25.844  1.00  0.00     0.173 A 
ATOM     69  F   UNL A   1      42.300  21.744  27.553  1.00  0.00    -0.203 F 
ATOM     70  C   UNL A   1      43.802  21.379  25.827  1.00  0.00     0.198 A 
ATOM     71  C   UNL A   1      45.110  23.145  24.941  1.00  0.00     0.198 A 
ATOM     72  F   UNL A   1      44.798  25.323  25.636  1.00  0.00    -0.203 F 
ATOM     73  F   UNL A   1      43.409  20.099  25.806  1.00  0.00    -0.200 F 
ATOM     74  C   UNL A   1      44.767  21.812  24.944  1.00  0.00     0.200 A 
ATOM     75  F   UNL A   1      46.015  23.600  24.063  1.00  0.00    -0.200 F 
ATOM     76  F   UNL A   1      45.335  20.961  24.081  1.00  0.00    -0.200 F 
ENDBRANCH  52  66
BRANCH  53  77
ATOM     77  C   UNL A   1      40.741  30.334  33.150  1.00  0.00     0.064 A 
ATOM     78  C   UNL A   1      40.447  31.698  33.338  1.00  0.00     0.173 A 
ATOM     79  C   UNL A   1      39.675  29.427  33.204  1.00  0.00     0.173 A 
ATOM     80  F   UNL A   1      41.432  32.608  33.289  1.00  0.00    -0.203 F 
ATOM     81  C   UNL A   1      39.134  32.144  33.467  1.00  0.00     0.198 A 
ATOM     82  C   UNL A   1      38.361  29.879  33.342  1.00  0.00     0.198 A 
ATOM     83  F   UNL A   1      39.886  28.119  33.006  1.00  0.00    -0.203 F 
ATOM     84  F   UNL A   1      38.879  33.458  33.545  1.00  0.00    -0.200 F 
ATOM     85  C   UNL A   1      38.089  31.236  33.442  1.00  0.00     0.200 A 
ATOM     86  F   UNL A   1      37.346  29.004  33.280  1.00  0.00    -0.200 F 
ATOM     87  F   UNL A   1      36.822  31.669  33.467  1.00  0.00    -0.200 F 
ENDBRANCH  53  77
BRANCH  65  88
ATOM     88  C   UNL A   1      45.161  24.690  33.318  1.00  0.00     0.064 A 
ATOM     89  C   UNL A   1      44.464  23.494  33.562  1.00  0.00     0.173 A 
ATOM     90  C   UNL A   1      46.515  24.704  33.728  1.00  0.00     0.173 A 
ATOM     91  F   UNL A   1      43.212  23.315  33.123  1.00  0.00    -0.203 F 
ATOM     92  C   UNL A   1      45.061  22.415  34.219  1.00  0.00     0.198 A 
ATOM     93  C   UNL A   1      47.123  23.605  34.333  1.00  0.00     0.198 A 
ATOM     94  F   UNL A   1      47.294  25.778  33.528  1.00  0.00    -0.203 F 
ATOM     95  F   UNL A   1      44.343  21.308  34.462  1.00  0.00    -0.200 F 
ATOM     96  C   UNL A   1      46.392  22.464  34.592  1.00  0.00     0.200 A 
ATOM     97  F   UNL A   1      48.427  23.650  34.642  1.00  0.00    -0.200 F 
ATOM     98  F   UNL A   1      46.972  21.408  35.178  1.00  0.00    -0.200 F 
ENDBRANCH  65  88
ENDBRANCH  39  40
ENDBRANCH  31  34
ENDBRANCH  29  30
ENDBRANCH  28  29
ENDBRANCH   1  28
TORSDOF 14
ENDMDL
MODEL 3
REMARK VINA RESULT:     -14.2      0.632      1.684
REMARK SMILES Cc1cc(C(=O)NCCCCNC(=O)c2ccc(-c3c4nc(c(-c5c(F)c(F)c(F)c(F)c5F)c5ccc([nH]5)c(-c5c(F)c(F)c(F)c(F)c5F)c5nc(c(-c6c(F)c(F)c(F)c(F)c6F)c6ccc3[nH]6)C=C5)C=C4)cc2)ccc1NS(=O)(=O)c1ccc2c(c1)CCC2
REMARK SMILES IDX 9 1 8 2 7 3 5 4 6 5 4 7 1 8 2 9 3 10 80 11 79 12 78 13 81 14
REMARK SMILES IDX 82 16 83 17 84 18 85 19 86 20 90 21 87 22 89 23 88 24 91 25
REMARK SMILES IDX 93 26 92 27 10 28 11 29 12 30 13 31 14 33 15 34 16 35 77 36
REMARK SMILES IDX 17 37 76 38 18 39 19 40 20 41 70 42 21 43 75 44 69 45 71 46
REMARK SMILES IDX 22 47 74 48 68 49 67 50 23 52 55 53 35 54 54 55 36 56 39 57
REMARK SMILES IDX 53 58 72 59 37 60 38 61 52 63 73 64 40 65 24 66 25 67 33 68
REMARK SMILES IDX 26 69 27 70 31 71 34 72 28 73 29 74 32 75 30 76 56 77 57 78
REMARK SMILES IDX 65 79 58 80 59 81 63 82 66 83 60 84 61 85 64 86 62 87 41 88
REMARK SMILES IDX 42 89 50 90 43 91 44 92 48 93 51 94 45 95 46 96 49 97 47 98
REMARK H PARENT 7 6 81 15 12 32 71 51 39 62
REMARK Flexibility Score: inf
ROOT
ATOM      1  C   UNL A   1      36.664  21.319  24.707  1.00  0.00     0.023 C 
ENDROOT
BRANCH   1   2
ATOM      2  C   UNL A   1      35.546  21.608  25.719  1.00  0.00     0.116 C 
BRANCH   2   3
ATOM      3  N   UNL A   1      34.685  20.471  26.021  1.00  0.00    -0.352 N 
ATOM      4  C   UNL A   1      33.412  20.149  25.601  1.00  0.00     0.251 C 
ATOM      5  O   UNL A   1      32.878  19.131  26.033  1.00  0.00    -0.269 OA
ATOM      6  H   UNL A   1      35.085  19.815  26.637  1.00  0.00     0.163 HD
BRANCH   4   7
ATOM      7  C   UNL A   1      32.639  21.054  24.715  1.00  0.00     0.040 A 
ATOM      8  C   UNL A   1      30.761  24.320  25.141  1.00  0.00     0.046 C 
ATOM      9  C   UNL A   1      31.506  23.193  24.480  1.00  0.00    -0.026 A 
ATOM     10  C   UNL A   1      32.014  22.164  25.290  1.00  0.00     0.019 A 
ATOM     11  C   UNL A   1      31.717  23.120  23.093  1.00  0.00     0.052 A 
ATOM     12  C   UNL A   1      32.057  21.890  22.528  1.00  0.00     0.028 A 
ATOM     13  C   UNL A   1      32.524  20.852  23.342  1.00  0.00     0.016 A 
BRANCH  11  14
ATOM     14  N   UNL A   1      31.831  24.351  22.380  1.00  0.00    -0.279 N 
ATOM     15  H   UNL A   1      31.006  24.670  21.946  1.00  0.00     0.180 HD
BRANCH  14  16
ATOM     16  S   UNL A   1      33.170  25.322  22.186  1.00  0.00     0.261 S 
ATOM     17  O   UNL A   1      34.304  24.640  22.786  1.00  0.00    -0.201 OA
ATOM     18  O   UNL A   1      33.172  25.693  20.792  1.00  0.00    -0.201 OA
BRANCH  16  19
ATOM     19  C   UNL A   1      32.942  26.835  23.106  1.00  0.00     0.088 A 
ATOM     20  C   UNL A   1      31.879  27.722  22.867  1.00  0.00     0.022 A 
ATOM     21  C   UNL A   1      33.772  27.003  24.224  1.00  0.00     0.026 A 
ATOM     22  C   UNL A   1      31.504  28.641  23.852  1.00  0.00     0.005 A 
ATOM     23  C   UNL A   1      33.411  27.947  25.167  1.00  0.00    -0.043 A 
ATOM     24  C   UNL A   1      32.241  28.696  25.020  1.00  0.00    -0.045 A 
ATOM     25  C   UNL A   1      34.103  28.304  26.445  1.00  0.00     0.036 C 
ATOM     26  C   UNL A   1      31.950  29.476  26.266  1.00  0.00     0.036 C 
ATOM     27  C   UNL A   1      32.912  28.811  27.266  1.00  0.00     0.010 C 
ENDBRANCH  16  19
ENDBRANCH  14  16
ENDBRANCH  11  14
ENDBRANCH   4   7
ENDBRANCH   2   3
ENDBRANCH   1   2
BRANCH   1  28
ATOM     28  C   UNL A   1      38.095  21.375  25.236  1.00  0.00     0.023 C 
BRANCH  28  29
ATOM     29  C   UNL A   1      38.427  22.585  26.106  1.00  0.00     0.116 C 
BRANCH  29  30
ATOM     30  N   UNL A   1      39.789  22.619  26.632  1.00  0.00    -0.352 N 
ATOM     31  C   UNL A   1      40.549  23.701  27.048  1.00  0.00     0.251 C 
ATOM     32  H   UNL A   1      40.233  21.743  26.701  1.00  0.00     0.163 HD
ATOM     33  O   UNL A   1      41.708  23.525  27.415  1.00  0.00    -0.269 OA
BRANCH  31  34
ATOM     34  C   UNL A   1      39.930  25.044  27.199  1.00  0.00     0.039 A 
ATOM     35  C   UNL A   1      40.395  26.081  26.377  1.00  0.00     0.014 A 
ATOM     36  C   UNL A   1      39.087  25.336  28.264  1.00  0.00     0.014 A 
ATOM     37  C   UNL A   1      40.262  27.401  26.800  1.00  0.00     0.010 A 
ATOM     38  C   UNL A   1      39.056  26.627  28.749  1.00  0.00     0.010 A 
ATOM     39  C   UNL A   1      39.725  27.644  28.062  1.00  0.00    -0.014 A 
BRANCH  39  40
ATOM     40  C   UNL A   1      40.011  28.851  28.835  1.00  0.00     0.031 A 
ATOM     41  C   UNL A   1      39.017  29.935  28.971  1.00  0.00     0.074 A 
ATOM     42  C   UNL A   1      41.129  28.853  29.596  1.00  0.00     0.049 A 
ATOM     43  N   UNL A   1      39.279  31.116  29.420  1.00  0.00    -0.248 NA
ATOM     44  C   UNL A   1      37.631  29.780  28.551  1.00  0.00     0.031 C 
ATOM     45  C   UNL A   1      41.428  29.712  30.739  1.00  0.00     0.029 A 
ATOM     46  N   UNL A   1      42.329  28.155  29.363  1.00  0.00    -0.354 N 
ATOM     47  C   UNL A   1      38.082  31.767  29.628  1.00  0.00     0.074 A 
ATOM     48  C   UNL A   1      37.101  30.928  28.983  1.00  0.00     0.031 C 
ATOM     49  C   UNL A   1      42.756  29.720  30.940  1.00  0.00     0.029 A 
ATOM     50  C   UNL A   1      43.356  29.009  29.824  1.00  0.00     0.049 A 
ATOM     51  H   UNL A   1      42.430  27.262  28.964  1.00  0.00     0.167 HD
ATOM     52  C   UNL A   1      38.063  32.865  30.444  1.00  0.00     0.037 A 
ATOM     53  C   UNL A   1      44.268  29.552  28.966  1.00  0.00     0.037 A 
ATOM     54  C   UNL A   1      39.424  33.262  30.814  1.00  0.00     0.049 A 
ATOM     55  C   UNL A   1      44.289  31.062  28.959  1.00  0.00     0.074 A 
ATOM     56  C   UNL A   1      40.182  33.074  31.958  1.00  0.00     0.029 A 
ATOM     57  N   UNL A   1      40.304  33.702  29.829  1.00  0.00    -0.354 N 
ATOM     58  N   UNL A   1      43.304  31.803  29.384  1.00  0.00    -0.248 NA
ATOM     59  C   UNL A   1      45.397  31.852  28.427  1.00  0.00     0.031 C 
ATOM     60  C   UNL A   1      41.537  33.347  31.639  1.00  0.00     0.029 A 
ATOM     61  C   UNL A   1      41.600  33.720  30.309  1.00  0.00     0.049 A 
ATOM     62  H   UNL A   1      40.040  33.964  28.917  1.00  0.00     0.167 HD
ATOM     63  C   UNL A   1      43.601  33.122  29.164  1.00  0.00     0.074 A 
ATOM     64  C   UNL A   1      44.931  33.103  28.586  1.00  0.00     0.031 C 
ATOM     65  C   UNL A   1      42.711  34.114  29.456  1.00  0.00     0.037 A 
BRANCH  52  66
ATOM     66  C   UNL A   1      36.826  33.400  31.160  1.00  0.00     0.064 A 
ATOM     67  C   UNL A   1      36.647  33.178  32.546  1.00  0.00     0.173 A 
ATOM     68  C   UNL A   1      35.741  34.052  30.544  1.00  0.00     0.173 A 
ATOM     69  F   UNL A   1      37.631  32.691  33.312  1.00  0.00    -0.203 F 
ATOM     70  C   UNL A   1      35.445  33.453  33.212  1.00  0.00     0.198 A 
ATOM     71  C   UNL A   1      34.525  34.291  31.196  1.00  0.00     0.198 A 
ATOM     72  F   UNL A   1      35.829  34.553  29.310  1.00  0.00    -0.203 F 
ATOM     73  F   UNL A   1      35.335  33.195  34.522  1.00  0.00    -0.200 F 
ATOM     74  C   UNL A   1      34.369  33.975  32.526  1.00  0.00     0.200 A 
ATOM     75  F   UNL A   1      33.507  34.839  30.516  1.00  0.00    -0.200 F 
ATOM     76  F   UNL A   1      33.206  34.202  33.149  1.00  0.00    -0.200 F 
ENDBRANCH  52  66
BRANCH  53  77
ATOM     77  C   UNL A   1      44.539  28.707  27.774  1.00  0.00     0.064 A 
ATOM     78  C   UNL A   1      45.382  27.588  27.915  1.00  0.00     0.173 A 
ATOM     79  C   UNL A   1      43.724  28.764  26.637  1.00  0.00     0.173 A 
ATOM     80  F   UNL A   1      46.179  27.482  28.990  1.00  0.00    -0.203 F 
ATOM     81  C   UNL A   1      45.332  26.526  27.016  1.00  0.00     0.198 A 
ATOM     82  C   UNL A   1      43.682  27.700  25.733  1.00  0.00     0.198 A 
ATOM     83  F   UNL A   1      42.880  29.790  26.458  1.00  0.00    -0.203 F 
ATOM     84  F   UNL A   1      46.074  25.431  27.233  1.00  0.00    -0.200 F 
ATOM     85  C   UNL A   1      44.461  26.571  25.940  1.00  0.00     0.200 A 
ATOM     86  F   UNL A   1      42.813  27.726  24.713  1.00  0.00    -0.200 F 
ATOM     87  F   UNL A   1      44.339  25.510  25.130  1.00  0.00    -0.200 F 
ENDBRANCH  53  77
BRANCH  65  88
ATOM     88  C   UNL A   1      42.836  35.557  29.036  1.00  0.00     0.064 A 
ATOM     89  C   UNL A   1      42.203  36.097  27.904  1.00  0.00     0.173 A 
ATOM     90  C   UNL A   1      43.490  36.490  29.876  1.00  0.00     0.173 A 
ATOM     91  F   UNL A   1      41.457  35.336  27.093  1.00  0.00    -0.203 F 
ATOM     92  C   UNL A   1      42.268  37.461  27.604  1.00  0.00     0.198 A 
ATOM     93  C   UNL A   1      43.505  37.857  29.601  1.00  0.00     0.198 A 
ATOM     94  F   UNL A   1      44.110  36.103  31.000  1.00  0.00    -0.203 F 
ATOM     95  F   UNL A   1      41.678  37.922  26.491  1.00  0.00    -0.200 F 
ATOM     96  C   UNL A   1      42.906  38.341  28.457  1.00  0.00     0.200 A 
ATOM     97  F   UNL A   1      44.084  38.703  30.465  1.00  0.00    -0.200 F 
ATOM     98  F   UNL A   1      42.924  39.654  28.189  1.00  0.00    -0.200 F 
ENDBRANCH  65  88
ENDBRANCH  39  40
ENDBRANCH  31  34
ENDBRANCH  29  30
ENDBRANCH  28  29
ENDBRANCH   1  28
TORSDOF 14
ENDMDL
