MODEL 1
REMARK VINA RESULT:     -12.7      0.000      0.000
REMARK SMILES Cc1ccc(C[C@H](C(=O)NCCCCNC(=O)c2ccc(-c3c4nc(c(-c5c(F)c(F)c(F)c(F)c5F)c5ccc([nH]5)c(-c5c(F)c(F)c(F)c(F)c5F)c5nc(c(-c6c(F)c(F)c(F)c(F)c6F)c6ccc3[nH]6)C=C5)C=C4)cc2)[C@@H]2CCCC[C@@H]2O)cc1
REMARK SMILES IDX 12 1 11 2 10 3 8 4 9 5 7 7 6 8 5 9 1 10 2 11 3 12 89 13 4 14
REMARK SMILES IDX 88 15 81 16 82 17 86 18 83 19 85 20 84 21 87 22 13 24 14 25
REMARK SMILES IDX 15 26 16 27 17 29 18 30 19 31 80 32 20 33 79 34 21 35 22 36
REMARK SMILES IDX 23 37 73 38 24 39 78 40 72 41 74 42 25 43 77 44 71 45 70 46
REMARK SMILES IDX 26 48 58 49 38 50 57 51 39 52 42 53 56 54 75 55 40 56 41 57
REMARK SMILES IDX 55 59 76 60 43 61 27 62 28 63 36 64 29 65 30 66 34 67 37 68
REMARK SMILES IDX 31 69 32 70 35 71 33 72 59 73 60 74 68 75 61 76 62 77 66 78
REMARK SMILES IDX 69 79 63 80 64 81 67 82 65 83 44 84 45 85 53 86 46 87 47 88
REMARK SMILES IDX 51 89 54 90 48 91 49 92 52 93 50 94
REMARK H PARENT 10 6 87 23 15 28 74 47 42 58
REMARK Flexibility Score: inf
ROOT
ATOM      1  C   UNL A   1      33.981  28.709  27.233  1.00  0.00     0.023 C 
ENDROOT
BRANCH   1   2
ATOM      2  C   UNL A   1      33.856  28.373  25.750  1.00  0.00     0.116 C 
BRANCH   2   3
ATOM      3  N   UNL A   1      32.529  28.338  25.193  1.00  0.00    -0.356 N 
ATOM      4  C   UNL A   1      31.881  27.287  24.607  1.00  0.00     0.223 C 
ATOM      5  O   UNL A   1      30.705  27.502  24.287  1.00  0.00    -0.275 OA
ATOM      6  H   UNL A   1      32.021  29.180  25.241  1.00  0.00     0.163 HD
BRANCH   4   7
ATOM      7  C   UNL A   1      32.576  25.920  24.290  1.00  0.00     0.088 C 
BRANCH   7   8
ATOM      8  C   UNL A   1      32.660  24.999  25.546  1.00  0.00     0.049 C 
BRANCH   8   9
ATOM      9  C   UNL A   1      33.937  24.203  25.730  1.00  0.00    -0.047 A 
ATOM     10  C   UNL A   1      37.307  21.527  25.505  1.00  0.00     0.044 C 
ATOM     11  C   UNL A   1      36.199  22.522  25.700  1.00  0.00    -0.051 A 
ATOM     12  C   UNL A   1      35.067  22.172  26.441  1.00  0.00     0.004 A 
ATOM     13  C   UNL A   1      36.236  23.771  25.067  1.00  0.00     0.004 A 
ATOM     14  C   UNL A   1      33.955  23.019  26.482  1.00  0.00     0.004 A 
ATOM     15  C   UNL A   1      35.121  24.614  25.098  1.00  0.00     0.004 A 
ENDBRANCH   8   9
ENDBRANCH   7   8
BRANCH   7  16
ATOM     16  C   UNL A   1      31.770  25.238  23.096  1.00  0.00     0.030 C 
ATOM     17  C   UNL A   1      30.833  24.059  23.432  1.00  0.00     0.007 C 
ATOM     18  C   UNL A   1      32.700  24.789  21.934  1.00  0.00     0.118 C 
ATOM     19  C   UNL A   1      31.584  22.783  23.789  1.00  0.00     0.001 C 
ATOM     20  C   UNL A   1      33.442  23.483  22.237  1.00  0.00     0.032 C 
ATOM     21  C   UNL A   1      32.496  22.358  22.643  1.00  0.00     0.003 C 
BRANCH  18  22
ATOM     22  O   UNL A   1      33.663  25.784  21.610  1.00  0.00    -0.393 OA
ATOM     23  H   UNL A   1      34.542  25.377  21.561  1.00  0.00     0.210 HD
ENDBRANCH  18  22
ENDBRANCH   7  16
ENDBRANCH   4   7
ENDBRANCH   2   3
ENDBRANCH   1   2
BRANCH   1  24
ATOM     24  C   UNL A   1      33.533  30.115  27.628  1.00  0.00     0.023 C 
BRANCH  24  25
ATOM     25  C   UNL A   1      34.594  31.211  27.503  1.00  0.00     0.116 C 
BRANCH  25  26
ATOM     26  N   UNL A   1      35.097  31.671  28.804  1.00  0.00    -0.352 N 
ATOM     27  C   UNL A   1      36.095  31.181  29.638  1.00  0.00     0.251 C 
ATOM     28  H   UNL A   1      34.643  32.472  29.149  1.00  0.00     0.163 HD
ATOM     29  O   UNL A   1      36.471  31.823  30.600  1.00  0.00    -0.269 OA
BRANCH  27  30
ATOM     30  C   UNL A   1      36.798  29.932  29.261  1.00  0.00     0.039 A 
ATOM     31  C   UNL A   1      37.020  28.982  30.263  1.00  0.00     0.014 A 
ATOM     32  C   UNL A   1      37.521  29.903  28.081  1.00  0.00     0.014 A 
ATOM     33  C   UNL A   1      38.198  28.244  30.232  1.00  0.00     0.010 A 
ATOM     34  C   UNL A   1      38.758  29.296  28.126  1.00  0.00     0.010 A 
ATOM     35  C   UNL A   1      39.135  28.538  29.246  1.00  0.00    -0.014 A 
BRANCH  35  36
ATOM     36  C   UNL A   1      40.558  28.210  29.351  1.00  0.00     0.031 A 
ATOM     37  C   UNL A   1      41.039  26.901  28.852  1.00  0.00     0.074 A 
ATOM     38  C   UNL A   1      41.441  29.142  29.779  1.00  0.00     0.049 A 
ATOM     39  N   UNL A   1      42.230  26.435  29.006  1.00  0.00    -0.248 NA
ATOM     40  C   UNL A   1      40.148  25.970  28.170  1.00  0.00     0.031 C 
ATOM     41  C   UNL A   1      42.896  29.118  29.632  1.00  0.00     0.029 A 
ATOM     42  N   UNL A   1      41.203  30.226  30.647  1.00  0.00    -0.354 N 
ATOM     43  C   UNL A   1      42.334  25.266  28.285  1.00  0.00     0.074 A 
ATOM     44  C   UNL A   1      41.000  25.013  27.804  1.00  0.00     0.031 C 
ATOM     45  C   UNL A   1      43.441  29.887  30.587  1.00  0.00     0.029 A 
ATOM     46  C   UNL A   1      42.363  30.310  31.460  1.00  0.00     0.049 A 
ATOM     47  H   UNL A   1      40.404  30.799  30.683  1.00  0.00     0.167 HD
ATOM     48  C   UNL A   1      43.563  24.692  28.135  1.00  0.00     0.037 A 
ATOM     49  C   UNL A   1      42.299  30.046  32.798  1.00  0.00     0.037 A 
ATOM     50  C   UNL A   1      44.524  25.281  29.070  1.00  0.00     0.049 A 
ATOM     51  C   UNL A   1      43.105  28.847  33.257  1.00  0.00     0.074 A 
ATOM     52  C   UNL A   1      45.515  26.245  28.996  1.00  0.00     0.029 A 
ATOM     53  N   UNL A   1      44.312  25.061  30.420  1.00  0.00    -0.354 N 
ATOM     54  N   UNL A   1      43.778  28.053  32.470  1.00  0.00    -0.248 NA
ATOM     55  C   UNL A   1      43.111  28.390  34.650  1.00  0.00     0.031 C 
ATOM     56  C   UNL A   1      45.843  26.644  30.328  1.00  0.00     0.029 A 
ATOM     57  C   UNL A   1      45.063  25.912  31.205  1.00  0.00     0.049 A 
ATOM     58  H   UNL A   1      43.699  24.378  30.777  1.00  0.00     0.167 HD
ATOM     59  C   UNL A   1      44.218  26.977  33.195  1.00  0.00     0.074 A 
ATOM     60  C   UNL A   1      43.789  27.236  34.555  1.00  0.00     0.031 C 
ATOM     61  C   UNL A   1      44.851  25.907  32.640  1.00  0.00     0.037 A 
BRANCH  48  62
ATOM     62  C   UNL A   1      43.942  23.703  27.049  1.00  0.00     0.064 A 
ATOM     63  C   UNL A   1      44.804  24.099  26.002  1.00  0.00     0.173 A 
ATOM     64  C   UNL A   1      43.445  22.391  26.918  1.00  0.00     0.173 A 
ATOM     65  F   UNL A   1      45.418  25.289  26.015  1.00  0.00    -0.203 F 
ATOM     66  C   UNL A   1      45.064  23.289  24.889  1.00  0.00     0.198 A 
ATOM     67  C   UNL A   1      43.664  21.601  25.785  1.00  0.00     0.198 A 
ATOM     68  F   UNL A   1      42.779  21.780  27.897  1.00  0.00    -0.203 F 
ATOM     69  F   UNL A   1      45.890  23.726  23.928  1.00  0.00    -0.200 F 
ATOM     70  C   UNL A   1      44.468  22.052  24.766  1.00  0.00     0.200 A 
ATOM     71  F   UNL A   1      43.089  20.392  25.703  1.00  0.00    -0.200 F 
ATOM     72  F   UNL A   1      44.686  21.290  23.686  1.00  0.00    -0.200 F 
ENDBRANCH  48  62
BRANCH  49  73
ATOM     73  C   UNL A   1      41.020  30.481  33.415  1.00  0.00     0.064 A 
ATOM     74  C   UNL A   1      40.846  31.843  33.726  1.00  0.00     0.173 A 
ATOM     75  C   UNL A   1      39.879  29.672  33.383  1.00  0.00     0.173 A 
ATOM     76  F   UNL A   1      41.909  32.663  33.764  1.00  0.00    -0.203 F 
ATOM     77  C   UNL A   1      39.576  32.390  33.892  1.00  0.00     0.198 A 
ATOM     78  C   UNL A   1      38.609  30.221  33.559  1.00  0.00     0.198 A 
ATOM     79  F   UNL A   1      39.978  28.373  33.063  1.00  0.00    -0.203 F 
ATOM     80  F   UNL A   1      39.434  33.708  34.086  1.00  0.00    -0.200 F 
ATOM     81  C   UNL A   1      38.457  31.582  33.780  1.00  0.00     0.200 A 
ATOM     82  F   UNL A   1      37.526  29.445  33.417  1.00  0.00    -0.200 F 
ATOM     83  F   UNL A   1      37.230  32.119  33.843  1.00  0.00    -0.200 F 
ENDBRANCH  49  73
BRANCH  61  84
ATOM     84  C   UNL A   1      45.299  24.742  33.464  1.00  0.00     0.064 A 
ATOM     85  C   UNL A   1      46.641  24.584  33.841  1.00  0.00     0.173 A 
ATOM     86  C   UNL A   1      44.415  23.703  33.809  1.00  0.00     0.173 A 
ATOM     87  F   UNL A   1      47.548  25.526  33.537  1.00  0.00    -0.203 F 
ATOM     88  C   UNL A   1      47.071  23.455  34.536  1.00  0.00     0.198 A 
ATOM     89  C   UNL A   1      44.856  22.556  34.464  1.00  0.00     0.198 A 
ATOM     90  F   UNL A   1      43.104  23.792  33.539  1.00  0.00    -0.203 F 
ATOM     91  F   UNL A   1      48.353  23.355  34.917  1.00  0.00    -0.200 F 
ATOM     92  C   UNL A   1      46.183  22.435  34.832  1.00  0.00     0.200 A 
ATOM     93  F   UNL A   1      43.988  21.572  34.739  1.00  0.00    -0.200 F 
ATOM     94  F   UNL A   1      46.603  21.339  35.480  1.00  0.00    -0.200 F 
ENDBRANCH  61  84
ENDBRANCH  35  36
ENDBRANCH  27  30
ENDBRANCH  25  26
ENDBRANCH  24  25
ENDBRANCH   1  24
TORSDOF 15
ENDMDL
MODEL 2
REMARK VINA RESULT:     -12.7      1.197      1.830
REMARK SMILES Cc1ccc(C[C@H](C(=O)NCCCCNC(=O)c2ccc(-c3c4nc(c(-c5c(F)c(F)c(F)c(F)c5F)c5ccc([nH]5)c(-c5c(F)c(F)c(F)c(F)c5F)c5nc(c(-c6c(F)c(F)c(F)c(F)c6F)c6ccc3[nH]6)C=C5)C=C4)cc2)[C@@H]2CCCC[C@@H]2O)cc1
REMARK SMILES IDX 12 1 11 2 10 3 8 4 9 5 7 7 6 8 5 9 1 10 2 11 3 12 89 13 4 14
REMARK SMILES IDX 88 15 81 16 82 17 86 18 83 19 85 20 84 21 87 22 13 24 14 25
REMARK SMILES IDX 15 26 16 27 17 29 18 30 19 31 80 32 20 33 79 34 21 35 22 36
REMARK SMILES IDX 23 37 73 38 24 39 78 40 72 41 74 42 25 43 77 44 71 45 70 46
REMARK SMILES IDX 26 48 58 49 38 50 57 51 39 52 42 53 56 54 75 55 40 56 41 57
REMARK SMILES IDX 55 59 76 60 43 61 27 62 28 63 36 64 29 65 30 66 34 67 37 68
REMARK SMILES IDX 31 69 32 70 35 71 33 72 59 73 60 74 68 75 61 76 62 77 66 78
REMARK SMILES IDX 69 79 63 80 64 81 67 82 65 83 44 84 45 85 53 86 46 87 47 88
REMARK SMILES IDX 51 89 54 90 48 91 49 92 52 93 50 94
REMARK H PARENT 10 6 87 23 15 28 74 47 42 58
REMARK Flexibility Score: inf
ROOT
ATOM      1  C   UNL A   1      33.442  28.641  26.820  1.00  0.00     0.023 C 
ENDROOT
BRANCH   1   2
ATOM      2  C   UNL A   1      32.415  28.086  25.837  1.00  0.00     0.116 C 
BRANCH   2   3
ATOM      3  N   UNL A   1      32.797  28.025  24.451  1.00  0.00    -0.356 N 
ATOM      4  C   UNL A   1      33.090  26.923  23.697  1.00  0.00     0.223 C 
ATOM      5  O   UNL A   1      33.307  27.143  22.499  1.00  0.00    -0.275 OA
ATOM      6  H   UNL A   1      32.857  28.890  23.984  1.00  0.00     0.163 HD
BRANCH   4   7
ATOM      7  C   UNL A   1      33.211  25.482  24.297  1.00  0.00     0.088 C 
BRANCH   7   8
ATOM      8  C   UNL A   1      34.401  25.361  25.298  1.00  0.00     0.049 C 
BRANCH   8   9
ATOM      9  C   UNL A   1      35.408  24.257  25.038  1.00  0.00    -0.047 A 
ATOM     10  C   UNL A   1      37.732  20.636  24.822  1.00  0.00     0.044 C 
ATOM     11  C   UNL A   1      37.018  21.957  24.800  1.00  0.00    -0.051 A 
ATOM     12  C   UNL A   1      37.301  22.922  25.772  1.00  0.00     0.004 A 
ATOM     13  C   UNL A   1      35.995  22.204  23.876  1.00  0.00     0.004 A 
ATOM     14  C   UNL A   1      36.522  24.078  25.872  1.00  0.00     0.004 A 
ATOM     15  C   UNL A   1      35.209  23.356  23.982  1.00  0.00     0.004 A 
ENDBRANCH   8   9
ENDBRANCH   7   8
BRANCH   7  16
ATOM     16  C   UNL A   1      31.813  25.126  24.976  1.00  0.00     0.030 C 
ATOM     17  C   UNL A   1      31.822  24.631  26.437  1.00  0.00     0.007 C 
ATOM     18  C   UNL A   1      30.989  24.112  24.135  1.00  0.00     0.118 C 
ATOM     19  C   UNL A   1      32.369  23.217  26.585  1.00  0.00     0.001 C 
ATOM     20  C   UNL A   1      31.482  22.669  24.292  1.00  0.00     0.032 C 
ATOM     21  C   UNL A   1      31.553  22.235  25.752  1.00  0.00     0.003 C 
BRANCH  18  22
ATOM     22  O   UNL A   1      30.997  24.438  22.751  1.00  0.00    -0.393 OA
ATOM     23  H   UNL A   1      30.231  24.997  22.547  1.00  0.00     0.210 HD
ENDBRANCH  18  22
ENDBRANCH   7  16
ENDBRANCH   4   7
ENDBRANCH   2   3
ENDBRANCH   1   2
BRANCH   1  24
ATOM     24  C   UNL A   1      32.989  29.857  27.625  1.00  0.00     0.023 C 
BRANCH  24  25
ATOM     25  C   UNL A   1      33.565  31.203  27.178  1.00  0.00     0.116 C 
BRANCH  25  26
ATOM     26  N   UNL A   1      34.241  31.925  28.264  1.00  0.00    -0.352 N 
ATOM     27  C   UNL A   1      35.358  31.613  29.030  1.00  0.00     0.251 C 
ATOM     28  H   UNL A   1      33.826  32.787  28.492  1.00  0.00     0.163 HD
ATOM     29  O   UNL A   1      35.855  32.442  29.768  1.00  0.00    -0.269 OA
BRANCH  27  30
ATOM     30  C   UNL A   1      36.024  30.304  28.832  1.00  0.00     0.039 A 
ATOM     31  C   UNL A   1      36.316  29.543  29.969  1.00  0.00     0.014 A 
ATOM     32  C   UNL A   1      36.654  30.052  27.626  1.00  0.00     0.014 A 
ATOM     33  C   UNL A   1      37.485  28.790  29.982  1.00  0.00     0.010 A 
ATOM     34  C   UNL A   1      37.887  29.439  27.687  1.00  0.00     0.010 A 
ATOM     35  C   UNL A   1      38.345  28.886  28.892  1.00  0.00    -0.014 A 
BRANCH  35  36
ATOM     36  C   UNL A   1      39.770  28.555  28.948  1.00  0.00     0.031 A 
ATOM     37  C   UNL A   1      40.213  27.191  28.577  1.00  0.00     0.074 A 
ATOM     38  C   UNL A   1      40.683  29.519  29.211  1.00  0.00     0.049 A 
ATOM     39  N   UNL A   1      41.409  26.732  28.711  1.00  0.00    -0.248 NA
ATOM     40  C   UNL A   1      39.277  26.199  28.063  1.00  0.00     0.031 C 
ATOM     41  C   UNL A   1      42.126  29.461  28.980  1.00  0.00     0.029 A 
ATOM     42  N   UNL A   1      40.504  30.699  29.961  1.00  0.00    -0.354 N 
ATOM     43  C   UNL A   1      41.462  25.486  28.127  1.00  0.00     0.074 A 
ATOM     44  C   UNL A   1      40.100  25.195  27.760  1.00  0.00     0.031 C 
ATOM     45  C   UNL A   1      42.732  30.328  29.805  1.00  0.00     0.029 A 
ATOM     46  C   UNL A   1      41.712  30.863  30.686  1.00  0.00     0.049 A 
ATOM     47  H   UNL A   1      39.711  31.282  29.978  1.00  0.00     0.167 HD
ATOM     48  C   UNL A   1      42.677  24.883  27.970  1.00  0.00     0.037 A 
ATOM     49  C   UNL A   1      41.729  30.756  32.047  1.00  0.00     0.037 A 
ATOM     50  C   UNL A   1      43.697  25.566  28.770  1.00  0.00     0.049 A 
ATOM     51  C   UNL A   1      42.556  29.608  32.593  1.00  0.00     0.074 A 
ATOM     52  C   UNL A   1      44.686  26.502  28.524  1.00  0.00     0.029 A 
ATOM     53  N   UNL A   1      43.567  25.505  30.147  1.00  0.00    -0.354 N 
ATOM     54  N   UNL A   1      43.175  28.720  31.864  1.00  0.00    -0.248 NA
ATOM     55  C   UNL A   1      42.646  29.315  34.026  1.00  0.00     0.031 C 
ATOM     56  C   UNL A   1      45.098  27.049  29.779  1.00  0.00     0.029 A 
ATOM     57  C   UNL A   1      44.369  26.432  30.780  1.00  0.00     0.049 A 
ATOM     58  H   UNL A   1      42.974  24.876  30.617  1.00  0.00     0.167 HD
ATOM     59  C   UNL A   1      43.654  27.730  32.681  1.00  0.00     0.074 A 
ATOM     60  C   UNL A   1      43.311  28.151  34.025  1.00  0.00     0.031 C 
ATOM     61  C   UNL A   1      44.246  26.595  32.216  1.00  0.00     0.037 A 
BRANCH  48  62
ATOM     62  C   UNL A   1      42.984  23.771  26.985  1.00  0.00     0.064 A 
ATOM     63  C   UNL A   1      42.628  22.438  27.291  1.00  0.00     0.173 A 
ATOM     64  C   UNL A   1      43.690  23.913  25.774  1.00  0.00     0.173 A 
ATOM     65  F   UNL A   1      41.891  22.142  28.370  1.00  0.00    -0.203 F 
ATOM     66  C   UNL A   1      43.024  21.350  26.503  1.00  0.00     0.198 A 
ATOM     67  C   UNL A   1      44.127  22.824  25.013  1.00  0.00     0.198 A 
ATOM     68  F   UNL A   1      43.938  25.103  25.230  1.00  0.00    -0.203 F 
ATOM     69  F   UNL A   1      42.654  20.109  26.850  1.00  0.00    -0.200 F 
ATOM     70  C   UNL A   1      43.801  21.541  25.381  1.00  0.00     0.200 A 
ATOM     71  F   UNL A   1      44.863  23.042  23.913  1.00  0.00    -0.200 F 
ATOM     72  F   UNL A   1      44.211  20.500  24.644  1.00  0.00    -0.200 F 
ENDBRANCH  48  62
BRANCH  49  73
ATOM     73  C   UNL A   1      40.493  31.275  32.686  1.00  0.00     0.064 A 
ATOM     74  C   UNL A   1      40.336  32.667  32.827  1.00  0.00     0.173 A 
ATOM     75  C   UNL A   1      39.355  30.475  32.836  1.00  0.00     0.173 A 
ATOM     76  F   UNL A   1      41.396  33.479  32.687  1.00  0.00    -0.203 F 
ATOM     77  C   UNL A   1      39.078  33.238  33.005  1.00  0.00     0.198 A 
ATOM     78  C   UNL A   1      38.097  31.050  33.023  1.00  0.00     0.198 A 
ATOM     79  F   UNL A   1      39.436  29.145  32.682  1.00  0.00    -0.203 F 
ATOM     80  F   UNL A   1      38.945  34.570  33.034  1.00  0.00    -0.200 F 
ATOM     81  C   UNL A   1      37.957  32.428  33.074  1.00  0.00     0.200 A 
ATOM     82  F   UNL A   1      37.010  30.267  33.055  1.00  0.00    -0.200 F 
ATOM     83  F   UNL A   1      36.735  32.976  33.147  1.00  0.00    -0.200 F 
ENDBRANCH  49  73
BRANCH  61  84
ATOM     84  C   UNL A   1      44.738  25.529  33.141  1.00  0.00     0.064 A 
ATOM     85  C   UNL A   1      46.095  25.175  33.196  1.00  0.00     0.173 A 
ATOM     86  C   UNL A   1      43.850  24.765  33.921  1.00  0.00     0.173 A 
ATOM     87  F   UNL A   1      47.003  25.848  32.472  1.00  0.00    -0.203 F 
ATOM     88  C   UNL A   1      46.538  24.123  33.997  1.00  0.00     0.198 A 
ATOM     89  C   UNL A   1      44.289  23.686  34.685  1.00  0.00     0.198 A 
ATOM     90  F   UNL A   1      42.543  25.065  33.974  1.00  0.00    -0.203 F 
ATOM     91  F   UNL A   1      47.847  23.838  34.057  1.00  0.00    -0.200 F 
ATOM     92  C   UNL A   1      45.634  23.369  34.727  1.00  0.00     0.200 A 
ATOM     93  F   UNL A   1      43.403  22.960  35.380  1.00  0.00    -0.200 F 
ATOM     94  F   UNL A   1      46.059  22.343  35.478  1.00  0.00    -0.200 F 
ENDBRANCH  61  84
ENDBRANCH  35  36
ENDBRANCH  27  30
ENDBRANCH  25  26
ENDBRANCH  24  25
ENDBRANCH   1  24
TORSDOF 15
ENDMDL
MODEL 3
REMARK VINA RESULT:     -12.7      0.995      1.872
REMARK SMILES Cc1ccc(C[C@H](C(=O)NCCCCNC(=O)c2ccc(-c3c4nc(c(-c5c(F)c(F)c(F)c(F)c5F)c5ccc([nH]5)c(-c5c(F)c(F)c(F)c(F)c5F)c5nc(c(-c6c(F)c(F)c(F)c(F)c6F)c6ccc3[nH]6)C=C5)C=C4)cc2)[C@@H]2CCCC[C@@H]2O)cc1
REMARK SMILES IDX 12 1 11 2 10 3 8 4 9 5 7 7 6 8 5 9 1 10 2 11 3 12 89 13 4 14
REMARK SMILES IDX 88 15 81 16 82 17 86 18 83 19 85 20 84 21 87 22 13 24 14 25
REMARK SMILES IDX 15 26 16 27 17 29 18 30 19 31 80 32 20 33 79 34 21 35 22 36
REMARK SMILES IDX 23 37 73 38 24 39 78 40 72 41 74 42 25 43 77 44 71 45 70 46
REMARK SMILES IDX 26 48 58 49 38 50 57 51 39 52 42 53 56 54 75 55 40 56 41 57
REMARK SMILES IDX 55 59 76 60 43 61 27 62 28 63 36 64 29 65 30 66 34 67 37 68
REMARK SMILES IDX 31 69 32 70 35 71 33 72 59 73 60 74 68 75 61 76 62 77 66 78
REMARK SMILES IDX 69 79 63 80 64 81 67 82 65 83 44 84 45 85 53 86 46 87 47 88
REMARK SMILES IDX 51 89 54 90 48 91 49 92 52 93 50 94
REMARK H PARENT 10 6 87 23 15 28 74 47 42 58
REMARK Flexibility Score: inf
ROOT
ATOM      1  C   UNL A   1      33.544  28.765  26.925  1.00  0.00     0.023 C 
ENDROOT
BRANCH   1   2
ATOM      2  C   UNL A   1      32.596  28.313  25.819  1.00  0.00     0.116 C 
BRANCH   2   3
ATOM      3  N   UNL A   1      31.453  27.530  26.211  1.00  0.00    -0.356 N 
ATOM      4  C   UNL A   1      31.261  26.182  26.082  1.00  0.00     0.223 C 
ATOM      5  O   UNL A   1      30.217  25.746  26.583  1.00  0.00    -0.275 OA
ATOM      6  H   UNL A   1      30.713  28.029  26.626  1.00  0.00     0.163 HD
BRANCH   4   7
ATOM      7  C   UNL A   1      32.245  25.247  25.303  1.00  0.00     0.088 C 
BRANCH   7   8
ATOM      8  C   UNL A   1      32.525  23.918  26.070  1.00  0.00     0.049 C 
BRANCH   8   9
ATOM      9  C   UNL A   1      33.959  23.428  26.095  1.00  0.00    -0.047 A 
ATOM     10  C   UNL A   1      37.910  21.908  25.291  1.00  0.00     0.044 C 
ATOM     11  C   UNL A   1      36.579  22.461  25.710  1.00  0.00    -0.051 A 
ATOM     12  C   UNL A   1      35.556  21.596  26.113  1.00  0.00     0.004 A 
ATOM     13  C   UNL A   1      36.308  23.831  25.612  1.00  0.00     0.004 A 
ATOM     14  C   UNL A   1      34.263  22.079  26.333  1.00  0.00     0.004 A 
ATOM     15  C   UNL A   1      35.012  24.314  25.823  1.00  0.00     0.004 A 
ENDBRANCH   8   9
ENDBRANCH   7   8
BRANCH   7  16
ATOM     16  C   UNL A   1      31.620  24.989  23.859  1.00  0.00     0.030 C 
ATOM     17  C   UNL A   1      30.890  23.653  23.612  1.00  0.00     0.007 C 
ATOM     18  C   UNL A   1      32.661  25.181  22.721  1.00  0.00     0.118 C 
ATOM     19  C   UNL A   1      31.838  22.463  23.526  1.00  0.00     0.001 C 
ATOM     20  C   UNL A   1      33.607  23.984  22.572  1.00  0.00     0.032 C 
ATOM     21  C   UNL A   1      32.855  22.667  22.408  1.00  0.00     0.003 C 
BRANCH  18  22
ATOM     22  O   UNL A   1      33.447  26.349  22.911  1.00  0.00    -0.393 OA
ATOM     23  H   UNL A   1      34.263  26.116  23.382  1.00  0.00     0.210 HD
ENDBRANCH  18  22
ENDBRANCH   7  16
ENDBRANCH   4   7
ENDBRANCH   2   3
ENDBRANCH   1   2
BRANCH   1  24
ATOM     24  C   UNL A   1      33.164  30.069  27.623  1.00  0.00     0.023 C 
BRANCH  24  25
ATOM     25  C   UNL A   1      34.022  31.286  27.272  1.00  0.00     0.116 C 
BRANCH  25  26
ATOM     26  N   UNL A   1      34.649  31.902  28.449  1.00  0.00    -0.352 N 
ATOM     27  C   UNL A   1      35.701  31.493  29.260  1.00  0.00     0.251 C 
ATOM     28  H   UNL A   1      34.251  32.763  28.712  1.00  0.00     0.163 HD
ATOM     29  O   UNL A   1      36.177  32.247  30.086  1.00  0.00    -0.269 OA
BRANCH  27  30
ATOM     30  C   UNL A   1      36.332  30.176  29.009  1.00  0.00     0.039 A 
ATOM     31  C   UNL A   1      36.629  29.375  30.117  1.00  0.00     0.014 A 
ATOM     32  C   UNL A   1      36.931  29.945  27.783  1.00  0.00     0.014 A 
ATOM     33  C   UNL A   1      37.780  28.595  30.083  1.00  0.00     0.010 A 
ATOM     34  C   UNL A   1      38.150  29.303  27.800  1.00  0.00     0.010 A 
ATOM     35  C   UNL A   1      38.620  28.704  28.979  1.00  0.00    -0.014 A 
BRANCH  35  36
ATOM     36  C   UNL A   1      40.038  28.339  28.995  1.00  0.00     0.031 A 
ATOM     37  C   UNL A   1      40.433  26.953  28.657  1.00  0.00     0.074 A 
ATOM     38  C   UNL A   1      40.982  29.289  29.189  1.00  0.00     0.049 A 
ATOM     39  N   UNL A   1      41.622  26.468  28.764  1.00  0.00    -0.248 NA
ATOM     40  C   UNL A   1      39.456  25.967  28.214  1.00  0.00     0.031 C 
ATOM     41  C   UNL A   1      42.414  29.186  28.907  1.00  0.00     0.029 A 
ATOM     42  N   UNL A   1      40.860  30.498  29.901  1.00  0.00    -0.354 N 
ATOM     43  C   UNL A   1      41.624  25.201  28.223  1.00  0.00     0.074 A 
ATOM     44  C   UNL A   1      40.242  24.932  27.917  1.00  0.00     0.031 C 
ATOM     45  C   UNL A   1      43.072  30.066  29.678  1.00  0.00     0.029 A 
ATOM     46  C   UNL A   1      42.098  30.657  30.576  1.00  0.00     0.049 A 
ATOM     47  H   UNL A   1      40.083  31.102  29.926  1.00  0.00     0.167 HD
ATOM     48  C   UNL A   1      42.817  24.563  28.044  1.00  0.00     0.037 A 
ATOM     49  C   UNL A   1      42.164  30.598  31.938  1.00  0.00     0.037 A 
ATOM     50  C   UNL A   1      43.882  25.247  28.781  1.00  0.00     0.049 A 
ATOM     51  C   UNL A   1      42.982  29.449  32.495  1.00  0.00     0.074 A 
ATOM     52  C   UNL A   1      44.884  26.149  28.466  1.00  0.00     0.029 A 
ATOM     53  N   UNL A   1      43.803  25.238  30.163  1.00  0.00    -0.354 N 
ATOM     54  N   UNL A   1      43.553  28.521  31.776  1.00  0.00    -0.248 NA
ATOM     55  C   UNL A   1      43.119  29.205  33.933  1.00  0.00     0.031 C 
ATOM     56  C   UNL A   1      45.355  26.729  29.684  1.00  0.00     0.029 A 
ATOM     57  C   UNL A   1      44.650  26.167  30.733  1.00  0.00     0.049 A 
ATOM     58  H   UNL A   1      43.212  24.641  30.678  1.00  0.00     0.167 HD
ATOM     59  C   UNL A   1      44.037  27.548  32.610  1.00  0.00     0.074 A 
ATOM     60  C   UNL A   1      43.755  28.024  33.950  1.00  0.00     0.031 C 
ATOM     61  C   UNL A   1      44.585  26.383  32.166  1.00  0.00     0.037 A 
BRANCH  48  62
ATOM     62  C   UNL A   1      43.060  23.409  27.090  1.00  0.00     0.064 A 
ATOM     63  C   UNL A   1      42.523  22.134  27.372  1.00  0.00     0.173 A 
ATOM     64  C   UNL A   1      43.868  23.450  25.936  1.00  0.00     0.173 A 
ATOM     65  F   UNL A   1      41.676  21.942  28.392  1.00  0.00    -0.203 F 
ATOM     66  C   UNL A   1      42.842  20.996  26.620  1.00  0.00     0.198 A 
ATOM     67  C   UNL A   1      44.226  22.306  25.214  1.00  0.00     0.198 A 
ATOM     68  F   UNL A   1      44.299  24.594  25.408  1.00  0.00    -0.203 F 
ATOM     69  F   UNL A   1      42.299  19.813  26.943  1.00  0.00    -0.200 F 
ATOM     70  C   UNL A   1      43.720  21.077  25.560  1.00  0.00     0.200 A 
ATOM     71  F   UNL A   1      45.065  22.420  24.173  1.00  0.00    -0.200 F 
ATOM     72  F   UNL A   1      44.055  19.984  24.861  1.00  0.00    -0.200 F 
ENDBRANCH  48  62
BRANCH  49  73
ATOM     73  C   UNL A   1      40.965  31.170  32.603  1.00  0.00     0.064 A 
ATOM     74  C   UNL A   1      40.853  32.569  32.711  1.00  0.00     0.173 A 
ATOM     75  C   UNL A   1      39.810  30.409  32.811  1.00  0.00     0.173 A 
ATOM     76  F   UNL A   1      41.931  33.345  32.515  1.00  0.00    -0.203 F 
ATOM     77  C   UNL A   1      39.619  33.182  32.915  1.00  0.00     0.198 A 
ATOM     78  C   UNL A   1      38.576  31.025  33.023  1.00  0.00     0.198 A 
ATOM     79  F   UNL A   1      39.847  29.073  32.691  1.00  0.00    -0.203 F 
ATOM     80  F   UNL A   1      39.526  34.518  32.912  1.00  0.00    -0.200 F 
ATOM     81  C   UNL A   1      38.478  32.409  33.041  1.00  0.00     0.200 A 
ATOM     82  F   UNL A   1      37.468  30.277  33.111  1.00  0.00    -0.200 F 
ATOM     83  F   UNL A   1      37.276  32.994  33.139  1.00  0.00    -0.200 F 
ENDBRANCH  49  73
BRANCH  61  84
ATOM     84  C   UNL A   1      45.085  25.338  33.110  1.00  0.00     0.064 A 
ATOM     85  C   UNL A   1      44.214  24.639  33.959  1.00  0.00     0.173 A 
ATOM     86  C   UNL A   1      46.461  25.082  33.260  1.00  0.00     0.173 A 
ATOM     87  F   UNL A   1      42.889  24.838  33.886  1.00  0.00    -0.203 F 
ATOM     88  C   UNL A   1      44.693  23.727  34.898  1.00  0.00     0.198 A 
ATOM     89  C   UNL A   1      46.939  24.203  34.229  1.00  0.00     0.198 A 
ATOM     90  F   UNL A   1      47.365  25.661  32.456  1.00  0.00    -0.203 F 
ATOM     91  F   UNL A   1      43.830  23.046  35.666  1.00  0.00    -0.200 F 
ATOM     92  C   UNL A   1      46.055  23.522  35.044  1.00  0.00     0.200 A 
ATOM     93  F   UNL A   1      48.260  24.019  34.366  1.00  0.00    -0.200 F 
ATOM     94  F   UNL A   1      46.515  22.661  35.963  1.00  0.00    -0.200 F 
ENDBRANCH  61  84
ENDBRANCH  35  36
ENDBRANCH  27  30
ENDBRANCH  25  26
ENDBRANCH  24  25
ENDBRANCH   1  24
TORSDOF 15
ENDMDL
