MODEL 1
REMARK VINA RESULT:     -12.1      0.000      0.000
REMARK SMILES O=C(NCCCCNC(=O)[C@@H](NC(=O)c1ccncc1Cl)C1CC1)c1ccc(-c2c3nc(c(-c4c(F)c(F)c(F)c(F)c4F)c4ccc([nH]4)c(-c4c(F)c(F)c(F)c(F)c4F)c4nc(c(-c5c(F)c(F)c(F)c(F)c5F)c5ccc2[nH]5)C=C4)C=C3)cc1
REMARK SMILES IDX 5 1 4 2 3 3 1 4 2 5 25 7 26 8 87 9 27 10 86 11 28 12 29 13
REMARK SMILES IDX 30 14 80 15 31 16 85 17 79 18 81 19 32 20 84 21 78 22 77 23
REMARK SMILES IDX 33 25 65 26 45 27 64 28 46 29 49 30 63 31 82 32 47 33 48 34
REMARK SMILES IDX 62 36 83 37 50 38 34 39 35 40 43 41 36 42 37 43 41 44 44 45
REMARK SMILES IDX 38 46 39 47 42 48 40 49 66 50 67 51 75 52 68 53 69 54 73 55
REMARK SMILES IDX 76 56 70 57 71 58 74 59 72 60 51 61 52 62 60 63 53 64 54 65
REMARK SMILES IDX 58 66 61 67 55 68 56 69 59 70 57 71 6 72 7 73 8 74 9 75
REMARK SMILES IDX 10 77 11 78 12 79 13 80 14 82 15 83 16 84 20 85 17 86 19 87
REMARK SMILES IDX 21 88 18 89 22 90 23 91 24 92
REMARK H PARENT 3 6 81 24 49 35 8 76 12 81
REMARK Flexibility Score: inf
ROOT
ATOM      1  C   UNL A   1      31.539  32.124  26.879  1.00  0.00     0.023 C 
ENDROOT
BRANCH   1   2
ATOM      2  C   UNL A   1      32.761  32.946  27.263  1.00  0.00     0.116 C 
BRANCH   2   3
ATOM      3  N   UNL A   1      32.435  34.298  27.693  1.00  0.00    -0.352 N 
ATOM      4  O   UNL A   1      32.569  36.118  29.037  1.00  0.00    -0.269 OA
ATOM      5  C   UNL A   1      33.019  35.027  28.703  1.00  0.00     0.251 C 
ATOM      6  H   UNL A   1      31.708  34.745  27.201  1.00  0.00     0.163 HD
BRANCH   5   7
ATOM      7  C   UNL A   1      34.186  34.452  29.397  1.00  0.00     0.039 A 
ATOM      8  C   UNL A   1      35.466  34.643  28.874  1.00  0.00     0.014 A 
ATOM      9  C   UNL A   1      33.990  33.665  30.535  1.00  0.00     0.014 A 
ATOM     10  C   UNL A   1      36.533  33.933  29.404  1.00  0.00     0.010 A 
ATOM     11  C   UNL A   1      35.083  33.022  31.122  1.00  0.00     0.010 A 
ATOM     12  C   UNL A   1      36.357  33.130  30.544  1.00  0.00    -0.014 A 
BRANCH  12  13
ATOM     13  C   UNL A   1      37.547  32.484  31.150  1.00  0.00     0.031 A 
ATOM     14  C   UNL A   1      38.019  32.840  32.529  1.00  0.00     0.074 A 
ATOM     15  C   UNL A   1      38.169  31.522  30.440  1.00  0.00     0.049 A 
ATOM     16  N   UNL A   1      39.019  32.336  33.210  1.00  0.00    -0.248 NA
ATOM     17  C   UNL A   1      37.287  33.901  33.237  1.00  0.00     0.031 C 
ATOM     18  C   UNL A   1      37.800  31.109  29.084  1.00  0.00     0.029 A 
ATOM     19  N   UNL A   1      39.216  30.700  30.764  1.00  0.00    -0.354 N 
ATOM     20  C   UNL A   1      39.046  33.025  34.415  1.00  0.00     0.074 A 
ATOM     21  C   UNL A   1      37.976  33.998  34.368  1.00  0.00     0.031 C 
ATOM     22  C   UNL A   1      38.568  30.075  28.714  1.00  0.00     0.029 A 
ATOM     23  C   UNL A   1      39.526  29.798  29.776  1.00  0.00     0.049 A 
ATOM     24  H   UNL A   1      39.699  30.751  31.620  1.00  0.00     0.167 HD
ATOM     25  C   UNL A   1      39.886  32.850  35.464  1.00  0.00     0.037 A 
ATOM     26  C   UNL A   1      40.486  28.858  29.725  1.00  0.00     0.037 A 
ATOM     27  C   UNL A   1      40.938  31.866  35.506  1.00  0.00     0.049 A 
ATOM     28  C   UNL A   1      41.403  28.696  30.901  1.00  0.00     0.074 A 
ATOM     29  C   UNL A   1      41.828  31.596  36.533  1.00  0.00     0.029 A 
ATOM     30  N   UNL A   1      41.242  30.988  34.476  1.00  0.00    -0.354 N 
ATOM     31  N   UNL A   1      41.403  29.341  32.042  1.00  0.00    -0.248 NA
ATOM     32  C   UNL A   1      42.456  27.681  30.780  1.00  0.00     0.031 C 
ATOM     33  C   UNL A   1      42.694  30.582  36.109  1.00  0.00     0.029 A 
ATOM     34  C   UNL A   1      42.317  30.189  34.835  1.00  0.00     0.049 A 
ATOM     35  H   UNL A   1      40.766  30.940  33.616  1.00  0.00     0.167 HD
ATOM     36  C   UNL A   1      42.451  28.809  32.777  1.00  0.00     0.074 A 
ATOM     37  C   UNL A   1      43.042  27.764  31.965  1.00  0.00     0.031 C 
ATOM     38  C   UNL A   1      42.894  29.161  34.007  1.00  0.00     0.037 A 
BRANCH  25  39
ATOM     39  C   UNL A   1      39.716  33.745  36.657  1.00  0.00     0.064 A 
ATOM     40  C   UNL A   1      40.320  35.010  36.719  1.00  0.00     0.173 A 
ATOM     41  C   UNL A   1      38.878  33.365  37.717  1.00  0.00     0.173 A 
ATOM     42  F   UNL A   1      41.138  35.416  35.737  1.00  0.00    -0.203 F 
ATOM     43  C   UNL A   1      40.099  35.857  37.803  1.00  0.00     0.198 A 
ATOM     44  C   UNL A   1      38.641  34.225  38.788  1.00  0.00     0.198 A 
ATOM     45  F   UNL A   1      38.272  32.169  37.705  1.00  0.00    -0.203 F 
ATOM     46  F   UNL A   1      40.706  37.050  37.854  1.00  0.00    -0.200 F 
ATOM     47  C   UNL A   1      39.253  35.468  38.831  1.00  0.00     0.200 A 
ATOM     48  F   UNL A   1      37.815  33.851  39.775  1.00  0.00    -0.200 F 
ATOM     49  F   UNL A   1      39.030  36.289  39.866  1.00  0.00    -0.200 F 
ENDBRANCH  25  39
BRANCH  26  50
ATOM     50  C   UNL A   1      40.628  28.014  28.512  1.00  0.00     0.064 A 
ATOM     51  C   UNL A   1      41.398  28.438  27.422  1.00  0.00     0.173 A 
ATOM     52  C   UNL A   1      40.007  26.759  28.426  1.00  0.00     0.173 A 
ATOM     53  F   UNL A   1      41.998  29.637  27.451  1.00  0.00    -0.203 F 
ATOM     54  C   UNL A   1      41.528  27.646  26.283  1.00  0.00     0.198 A 
ATOM     55  C   UNL A   1      40.164  25.954  27.301  1.00  0.00     0.198 A 
ATOM     56  F   UNL A   1      39.266  26.305  29.447  1.00  0.00    -0.203 F 
ATOM     57  F   UNL A   1      42.235  28.092  25.237  1.00  0.00    -0.200 F 
ATOM     58  C   UNL A   1      40.917  26.401  26.227  1.00  0.00     0.200 A 
ATOM     59  F   UNL A   1      39.587  24.746  27.259  1.00  0.00    -0.200 F 
ATOM     60  F   UNL A   1      41.049  25.637  25.135  1.00  0.00    -0.200 F 
ENDBRANCH  26  50
BRANCH  38  61
ATOM     61  C   UNL A   1      44.067  28.398  34.544  1.00  0.00     0.064 A 
ATOM     62  C   UNL A   1      45.382  28.847  34.347  1.00  0.00     0.173 A 
ATOM     63  C   UNL A   1      43.876  27.209  35.263  1.00  0.00     0.173 A 
ATOM     64  F   UNL A   1      45.614  29.968  33.649  1.00  0.00    -0.203 F 
ATOM     65  C   UNL A   1      46.465  28.115  34.825  1.00  0.00     0.198 A 
ATOM     66  C   UNL A   1      44.961  26.495  35.763  1.00  0.00     0.198 A 
ATOM     67  F   UNL A   1      42.638  26.741  35.480  1.00  0.00    -0.203 F 
ATOM     68  F   UNL A   1      47.714  28.533  34.578  1.00  0.00    -0.200 F 
ATOM     69  C   UNL A   1      46.254  26.943  35.536  1.00  0.00     0.200 A 
ATOM     70  F   UNL A   1      44.756  25.366  36.456  1.00  0.00    -0.200 F 
ATOM     71  F   UNL A   1      47.299  26.238  35.991  1.00  0.00    -0.200 F 
ENDBRANCH  38  61
ENDBRANCH  12  13
ENDBRANCH   5   7
ENDBRANCH   2   3
ENDBRANCH   1   2
BRANCH   1  72
ATOM     72  C   UNL A   1      31.789  30.621  26.787  1.00  0.00     0.023 C 
BRANCH  72  73
ATOM     73  C   UNL A   1      31.599  30.053  25.385  1.00  0.00     0.116 C 
BRANCH  73  74
ATOM     74  N   UNL A   1      32.867  29.777  24.742  1.00  0.00    -0.354 N 
ATOM     75  C   UNL A   1      33.385  28.566  24.360  1.00  0.00     0.242 C 
ATOM     76  H   UNL A   1      33.431  30.562  24.555  1.00  0.00     0.163 HD
ATOM     77  O   UNL A   1      34.443  28.562  23.728  1.00  0.00    -0.273 OA
BRANCH  75  78
ATOM     78  C   UNL A   1      32.578  27.251  24.621  1.00  0.00     0.174 C 
BRANCH  78  79
ATOM     79  N   UNL A   1      32.053  26.855  23.296  1.00  0.00    -0.340 N 
ATOM     80  C   UNL A   1      31.121  27.118  22.347  1.00  0.00     0.253 C 
ATOM     81  H   UNL A   1      32.595  26.098  22.977  1.00  0.00     0.164 HD
ATOM     82  O   UNL A   1      31.069  26.381  21.360  1.00  0.00    -0.269 OA
BRANCH  80  83
ATOM     83  C   UNL A   1      30.104  28.151  22.443  1.00  0.00     0.061 A 
ATOM     84  C   UNL A   1      30.445  29.429  21.982  1.00  0.00     0.035 A 
ATOM     85  C   UNL A   1      28.909  27.947  23.118  1.00  0.00     0.072 A 
ATOM     86  C   UNL A   1      29.503  30.433  22.095  1.00  0.00     0.112 A 
ATOM     87  C   UNL A   1      28.029  29.016  23.168  1.00  0.00     0.132 A 
ATOM     88  Cl  UNL A   1      28.508  26.469  23.903  1.00  0.00    -0.082 Cl
ATOM     89  N   UNL A   1      28.288  30.244  22.649  1.00  0.00    -0.263 NA
ENDBRANCH  80  83
ENDBRANCH  78  79
BRANCH  78  90
ATOM     90  C   UNL A   1      33.377  26.416  25.583  1.00  0.00     0.021 C 
ATOM     91  C   UNL A   1      33.065  24.982  25.912  1.00  0.00     0.006 C 
ATOM     92  C   UNL A   1      34.400  25.348  25.315  1.00  0.00     0.006 C 
ENDBRANCH  78  90
ENDBRANCH  75  78
ENDBRANCH  73  74
ENDBRANCH  72  73
ENDBRANCH   1  72
TORSDOF 14
ENDMDL
MODEL 2
REMARK VINA RESULT:     -12.0      0.341      1.205
REMARK SMILES O=C(NCCCCNC(=O)[C@@H](NC(=O)c1ccncc1Cl)C1CC1)c1ccc(-c2c3nc(c(-c4c(F)c(F)c(F)c(F)c4F)c4ccc([nH]4)c(-c4c(F)c(F)c(F)c(F)c4F)c4nc(c(-c5c(F)c(F)c(F)c(F)c5F)c5ccc2[nH]5)C=C4)C=C3)cc1
REMARK SMILES IDX 5 1 4 2 3 3 1 4 2 5 25 7 26 8 87 9 27 10 86 11 28 12 29 13
REMARK SMILES IDX 30 14 80 15 31 16 85 17 79 18 81 19 32 20 84 21 78 22 77 23
REMARK SMILES IDX 33 25 65 26 45 27 64 28 46 29 49 30 63 31 82 32 47 33 48 34
REMARK SMILES IDX 62 36 83 37 50 38 34 39 35 40 43 41 36 42 37 43 41 44 44 45
REMARK SMILES IDX 38 46 39 47 42 48 40 49 66 50 67 51 75 52 68 53 69 54 73 55
REMARK SMILES IDX 76 56 70 57 71 58 74 59 72 60 51 61 52 62 60 63 53 64 54 65
REMARK SMILES IDX 58 66 61 67 55 68 56 69 59 70 57 71 6 72 7 73 8 74 9 75
REMARK SMILES IDX 10 77 11 78 12 79 13 80 14 82 15 83 16 84 20 85 17 86 19 87
REMARK SMILES IDX 21 88 18 89 22 90 23 91 24 92
REMARK H PARENT 3 6 81 24 49 35 8 76 12 81
REMARK Flexibility Score: inf
ROOT
ATOM      1  C   UNL A   1      31.394  32.135  26.868  1.00  0.00     0.023 C 
ENDROOT
BRANCH   1   2
ATOM      2  C   UNL A   1      32.634  32.927  27.264  1.00  0.00     0.116 C 
BRANCH   2   3
ATOM      3  N   UNL A   1      32.344  34.306  27.628  1.00  0.00    -0.352 N 
ATOM      4  O   UNL A   1      32.537  36.187  28.877  1.00  0.00    -0.269 OA
ATOM      5  C   UNL A   1      32.957  35.070  28.594  1.00  0.00     0.251 C 
ATOM      6  H   UNL A   1      31.622  34.745  27.122  1.00  0.00     0.163 HD
BRANCH   5   7
ATOM      7  C   UNL A   1      34.118  34.502  29.304  1.00  0.00     0.039 A 
ATOM      8  C   UNL A   1      35.396  34.633  28.756  1.00  0.00     0.014 A 
ATOM      9  C   UNL A   1      33.917  33.783  30.485  1.00  0.00     0.014 A 
ATOM     10  C   UNL A   1      36.452  33.924  29.311  1.00  0.00     0.010 A 
ATOM     11  C   UNL A   1      35.001  33.143  31.092  1.00  0.00     0.010 A 
ATOM     12  C   UNL A   1      36.270  33.188  30.494  1.00  0.00    -0.014 A 
BRANCH  12  13
ATOM     13  C   UNL A   1      37.451  32.544  31.119  1.00  0.00     0.031 A 
ATOM     14  C   UNL A   1      37.912  32.916  32.498  1.00  0.00     0.074 A 
ATOM     15  C   UNL A   1      38.074  31.569  30.428  1.00  0.00     0.049 A 
ATOM     16  N   UNL A   1      38.902  32.415  33.195  1.00  0.00    -0.248 NA
ATOM     17  C   UNL A   1      37.179  33.989  33.185  1.00  0.00     0.031 C 
ATOM     18  C   UNL A   1      37.716  31.139  29.074  1.00  0.00     0.029 A 
ATOM     19  N   UNL A   1      39.114  30.747  30.773  1.00  0.00    -0.354 N 
ATOM     20  C   UNL A   1      38.922  33.120  34.391  1.00  0.00     0.074 A 
ATOM     21  C   UNL A   1      37.857  34.098  34.321  1.00  0.00     0.031 C 
ATOM     22  C   UNL A   1      38.482  30.097  28.725  1.00  0.00     0.029 A 
ATOM     23  C   UNL A   1      39.428  29.829  29.800  1.00  0.00     0.049 A 
ATOM     24  H   UNL A   1      39.590  30.806  31.632  1.00  0.00     0.167 HD
ATOM     25  C   UNL A   1      39.752  32.955  35.450  1.00  0.00     0.037 A 
ATOM     26  C   UNL A   1      40.385  28.884  29.770  1.00  0.00     0.037 A 
ATOM     27  C   UNL A   1      40.799  31.966  35.515  1.00  0.00     0.049 A 
ATOM     28  C   UNL A   1      41.290  28.733  30.957  1.00  0.00     0.074 A 
ATOM     29  C   UNL A   1      41.678  31.705  36.554  1.00  0.00     0.029 A 
ATOM     30  N   UNL A   1      41.107  31.073  34.500  1.00  0.00    -0.354 N 
ATOM     31  N   UNL A   1      41.283  29.393  32.089  1.00  0.00    -0.248 NA
ATOM     32  C   UNL A   1      42.338  27.711  30.859  1.00  0.00     0.031 C 
ATOM     33  C   UNL A   1      42.542  30.682  36.151  1.00  0.00     0.029 A 
ATOM     34  C   UNL A   1      42.175  30.274  34.879  1.00  0.00     0.049 A 
ATOM     35  H   UNL A   1      40.639  31.017  33.636  1.00  0.00     0.167 HD
ATOM     36  C   UNL A   1      42.321  28.866  32.841  1.00  0.00     0.074 A 
ATOM     37  C   UNL A   1      42.914  27.807  32.048  1.00  0.00     0.031 C 
ATOM     38  C   UNL A   1      42.754  29.232  34.071  1.00  0.00     0.037 A 
BRANCH  25  39
ATOM     39  C   UNL A   1      39.575  33.867  36.630  1.00  0.00     0.064 A 
ATOM     40  C   UNL A   1      38.795  33.498  37.734  1.00  0.00     0.173 A 
ATOM     41  C   UNL A   1      40.257  35.092  36.688  1.00  0.00     0.173 A 
ATOM     42  F   UNL A   1      38.115  32.341  37.724  1.00  0.00    -0.203 F 
ATOM     43  C   UNL A   1      38.695  34.326  38.850  1.00  0.00     0.198 A 
ATOM     44  C   UNL A   1      40.173  35.908  37.815  1.00  0.00     0.198 A 
ATOM     45  F   UNL A   1      41.021  35.491  35.660  1.00  0.00    -0.203 F 
ATOM     46  F   UNL A   1      37.923  33.965  39.884  1.00  0.00    -0.200 F 
ATOM     47  C   UNL A   1      39.391  35.525  38.893  1.00  0.00     0.200 A 
ATOM     48  F   UNL A   1      40.855  37.061  37.858  1.00  0.00    -0.200 F 
ATOM     49  F   UNL A   1      39.304  36.314  39.973  1.00  0.00    -0.200 F 
ENDBRANCH  25  39
BRANCH  26  50
ATOM     50  C   UNL A   1      40.534  28.024  28.570  1.00  0.00     0.064 A 
ATOM     51  C   UNL A   1      41.321  28.426  27.485  1.00  0.00     0.173 A 
ATOM     52  C   UNL A   1      39.901  26.773  28.492  1.00  0.00     0.173 A 
ATOM     53  F   UNL A   1      41.933  29.620  27.506  1.00  0.00    -0.203 F 
ATOM     54  C   UNL A   1      41.458  27.618  26.358  1.00  0.00     0.198 A 
ATOM     55  C   UNL A   1      40.064  25.952  27.380  1.00  0.00     0.198 A 
ATOM     56  F   UNL A   1      39.142  26.340  29.509  1.00  0.00    -0.203 F 
ATOM     57  F   UNL A   1      42.183  28.044  25.315  1.00  0.00    -0.200 F 
ATOM     58  C   UNL A   1      40.835  26.379  26.309  1.00  0.00     0.200 A 
ATOM     59  F   UNL A   1      39.476  24.749  27.346  1.00  0.00    -0.200 F 
ATOM     60  F   UNL A   1      40.974  25.600  25.229  1.00  0.00    -0.200 F 
ENDBRANCH  26  50
BRANCH  38  61
ATOM     61  C   UNL A   1      43.919  28.470  34.629  1.00  0.00     0.064 A 
ATOM     62  C   UNL A   1      45.237  28.908  34.434  1.00  0.00     0.173 A 
ATOM     63  C   UNL A   1      43.715  27.295  35.365  1.00  0.00     0.173 A 
ATOM     64  F   UNL A   1      45.482  30.017  33.720  1.00  0.00    -0.203 F 
ATOM     65  C   UNL A   1      46.312  28.177  34.932  1.00  0.00     0.198 A 
ATOM     66  C   UNL A   1      44.791  26.582  35.884  1.00  0.00     0.198 A 
ATOM     67  F   UNL A   1      42.472  26.837  35.580  1.00  0.00    -0.203 F 
ATOM     68  F   UNL A   1      47.565  28.583  34.687  1.00  0.00    -0.200 F 
ATOM     69  C   UNL A   1      46.088  27.018  35.660  1.00  0.00     0.200 A 
ATOM     70  F   UNL A   1      44.574  25.465  36.594  1.00  0.00    -0.200 F 
ATOM     71  F   UNL A   1      47.125  26.313  36.134  1.00  0.00    -0.200 F 
ENDBRANCH  38  61
ENDBRANCH  12  13
ENDBRANCH   5   7
ENDBRANCH   2   3
ENDBRANCH   1   2
BRANCH   1  72
ATOM     72  C   UNL A   1      31.680  30.876  26.054  1.00  0.00     0.023 C 
BRANCH  72  73
ATOM     73  C   UNL A   1      32.900  30.099  26.536  1.00  0.00     0.116 C 
BRANCH  73  74
ATOM     74  N   UNL A   1      33.729  29.663  25.430  1.00  0.00    -0.354 N 
ATOM     75  C   UNL A   1      33.548  28.587  24.600  1.00  0.00     0.242 C 
ATOM     76  H   UNL A   1      34.527  30.211  25.252  1.00  0.00     0.163 HD
ATOM     77  O   UNL A   1      34.319  28.454  23.648  1.00  0.00    -0.273 OA
BRANCH  75  78
ATOM     78  C   UNL A   1      32.318  27.640  24.801  1.00  0.00     0.174 C 
BRANCH  78  79
ATOM     79  N   UNL A   1      31.923  27.232  23.435  1.00  0.00    -0.340 N 
ATOM     80  C   UNL A   1      31.039  27.436  22.427  1.00  0.00     0.253 C 
ATOM     81  H   UNL A   1      32.550  26.532  23.142  1.00  0.00     0.164 HD
ATOM     82  O   UNL A   1      31.121  26.721  21.427  1.00  0.00    -0.269 OA
BRANCH  80  83
ATOM     83  C   UNL A   1      29.932  28.376  22.468  1.00  0.00     0.061 A 
ATOM     84  C   UNL A   1      30.177  29.675  22.003  1.00  0.00     0.035 A 
ATOM     85  C   UNL A   1      28.734  28.073  23.098  1.00  0.00     0.072 A 
ATOM     86  C   UNL A   1      29.147  30.591  22.065  1.00  0.00     0.112 A 
ATOM     87  C   UNL A   1      27.761  29.060  23.099  1.00  0.00     0.132 A 
ATOM     88  Cl  UNL A   1      28.433  26.574  23.888  1.00  0.00    -0.082 Cl
ATOM     89  N   UNL A   1      27.932  30.301  22.574  1.00  0.00    -0.263 NA
ENDBRANCH  80  83
ENDBRANCH  78  79
BRANCH  78  90
ATOM     90  C   UNL A   1      32.620  26.753  25.977  1.00  0.00     0.021 C 
ATOM     91  C   UNL A   1      31.714  25.652  26.454  1.00  0.00     0.006 C 
ATOM     92  C   UNL A   1      33.120  25.336  26.014  1.00  0.00     0.006 C 
ENDBRANCH  78  90
ENDBRANCH  75  78
ENDBRANCH  73  74
ENDBRANCH  72  73
ENDBRANCH   1  72
TORSDOF 14
ENDMDL
MODEL 3
REMARK VINA RESULT:     -11.9      5.723     11.076
REMARK SMILES O=C(NCCCCNC(=O)[C@@H](NC(=O)c1ccncc1Cl)C1CC1)c1ccc(-c2c3nc(c(-c4c(F)c(F)c(F)c(F)c4F)c4ccc([nH]4)c(-c4c(F)c(F)c(F)c(F)c4F)c4nc(c(-c5c(F)c(F)c(F)c(F)c5F)c5ccc2[nH]5)C=C4)C=C3)cc1
REMARK SMILES IDX 5 1 4 2 3 3 1 4 2 5 25 7 26 8 87 9 27 10 86 11 28 12 29 13
REMARK SMILES IDX 30 14 80 15 31 16 85 17 79 18 81 19 32 20 84 21 78 22 77 23
REMARK SMILES IDX 33 25 65 26 45 27 64 28 46 29 49 30 63 31 82 32 47 33 48 34
REMARK SMILES IDX 62 36 83 37 50 38 34 39 35 40 43 41 36 42 37 43 41 44 44 45
REMARK SMILES IDX 38 46 39 47 42 48 40 49 66 50 67 51 75 52 68 53 69 54 73 55
REMARK SMILES IDX 76 56 70 57 71 58 74 59 72 60 51 61 52 62 60 63 53 64 54 65
REMARK SMILES IDX 58 66 61 67 55 68 56 69 59 70 57 71 6 72 7 73 8 74 9 75
REMARK SMILES IDX 10 77 11 78 12 79 13 80 14 82 15 83 16 84 20 85 17 86 19 87
REMARK SMILES IDX 21 88 18 89 22 90 23 91 24 92
REMARK H PARENT 3 6 81 24 49 35 8 76 12 81
REMARK Flexibility Score: inf
ROOT
ATOM      1  C   UNL A   1      37.963  19.962  24.998  1.00  0.00     0.023 C 
ENDROOT
BRANCH   1   2
ATOM      2  C   UNL A   1      39.175  20.306  25.855  1.00  0.00     0.116 C 
BRANCH   2   3
ATOM      3  N   UNL A   1      40.180  19.254  25.879  1.00  0.00    -0.352 N 
ATOM      4  O   UNL A   1      42.288  18.425  25.954  1.00  0.00    -0.269 OA
ATOM      5  C   UNL A   1      41.536  19.387  26.070  1.00  0.00     0.251 C 
ATOM      6  H   UNL A   1      39.850  18.336  25.744  1.00  0.00     0.163 HD
BRANCH   5   7
ATOM      7  C   UNL A   1      42.071  20.723  26.390  1.00  0.00     0.039 A 
ATOM      8  C   UNL A   1      42.280  21.084  27.723  1.00  0.00     0.014 A 
ATOM      9  C   UNL A   1      42.301  21.637  25.358  1.00  0.00     0.014 A 
ATOM     10  C   UNL A   1      42.581  22.402  28.033  1.00  0.00     0.010 A 
ATOM     11  C   UNL A   1      42.692  22.941  25.671  1.00  0.00     0.010 A 
ATOM     12  C   UNL A   1      42.808  23.339  27.012  1.00  0.00    -0.014 A 
BRANCH  12  13
ATOM     13  C   UNL A   1      43.245  24.707  27.385  1.00  0.00     0.031 A 
ATOM     14  C   UNL A   1      44.644  25.185  27.125  1.00  0.00     0.074 A 
ATOM     15  C   UNL A   1      42.328  25.534  27.924  1.00  0.00     0.049 A 
ATOM     16  N   UNL A   1      45.165  26.364  27.358  1.00  0.00    -0.248 NA
ATOM     17  C   UNL A   1      45.585  24.221  26.535  1.00  0.00     0.031 C 
ATOM     18  C   UNL A   1      40.944  25.165  28.233  1.00  0.00     0.029 A 
ATOM     19  N   UNL A   1      42.407  26.854  28.281  1.00  0.00    -0.354 N 
ATOM     20  C   UNL A   1      46.492  26.280  26.960  1.00  0.00     0.074 A 
ATOM     21  C   UNL A   1      46.706  24.929  26.488  1.00  0.00     0.031 C 
ATOM     22  C   UNL A   1      40.289  26.246  28.678  1.00  0.00     0.029 A 
ATOM     23  C   UNL A   1      41.221  27.364  28.750  1.00  0.00     0.049 A 
ATOM     24  H   UNL A   1      43.232  27.386  28.209  1.00  0.00     0.167 HD
ATOM     25  C   UNL A   1      47.439  27.250  26.984  1.00  0.00     0.037 A 
ATOM     26  C   UNL A   1      40.920  28.594  29.202  1.00  0.00     0.037 A 
ATOM     27  C   UNL A   1      47.211  28.597  27.442  1.00  0.00     0.049 A 
ATOM     28  C   UNL A   1      41.994  29.641  29.220  1.00  0.00     0.074 A 
ATOM     29  C   UNL A   1      48.100  29.659  27.483  1.00  0.00     0.029 A 
ATOM     30  N   UNL A   1      46.005  29.070  27.937  1.00  0.00    -0.354 N 
ATOM     31  N   UNL A   1      43.239  29.553  28.821  1.00  0.00    -0.248 NA
ATOM     32  C   UNL A   1      41.622  30.955  29.756  1.00  0.00     0.031 C 
ATOM     33  C   UNL A   1      47.443  30.761  28.039  1.00  0.00     0.029 A 
ATOM     34  C   UNL A   1      46.131  30.401  28.304  1.00  0.00     0.049 A 
ATOM     35  H   UNL A   1      45.180  28.539  28.018  1.00  0.00     0.167 HD
ATOM     36  C   UNL A   1      43.800  30.799  29.054  1.00  0.00     0.074 A 
ATOM     37  C   UNL A   1      42.748  31.635  29.597  1.00  0.00     0.031 C 
ATOM     38  C   UNL A   1      45.073  31.212  28.850  1.00  0.00     0.037 A 
BRANCH  25  39
ATOM     39  C   UNL A   1      48.820  26.896  26.510  1.00  0.00     0.064 A 
ATOM     40  C   UNL A   1      49.776  26.347  27.376  1.00  0.00     0.173 A 
ATOM     41  C   UNL A   1      49.163  27.037  25.157  1.00  0.00     0.173 A 
ATOM     42  F   UNL A   1      49.500  26.202  28.681  1.00  0.00    -0.203 F 
ATOM     43  C   UNL A   1      51.030  25.962  26.907  1.00  0.00     0.198 A 
ATOM     44  C   UNL A   1      50.410  26.628  24.686  1.00  0.00     0.198 A 
ATOM     45  F   UNL A   1      48.283  27.551  24.284  1.00  0.00    -0.203 F 
ATOM     46  F   UNL A   1      51.938  25.463  27.757  1.00  0.00    -0.200 F 
ATOM     47  C   UNL A   1      51.342  26.093  25.562  1.00  0.00     0.200 A 
ATOM     48  F   UNL A   1      50.706  26.747  23.385  1.00  0.00    -0.200 F 
ATOM     49  F   UNL A   1      52.544  25.709  25.111  1.00  0.00    -0.200 F 
ENDBRANCH  25  39
BRANCH  26  50
ATOM     50  C   UNL A   1      39.547  28.886  29.683  1.00  0.00     0.064 A 
ATOM     51  C   UNL A   1      39.171  28.621  31.005  1.00  0.00     0.173 A 
ATOM     52  C   UNL A   1      38.586  29.452  28.830  1.00  0.00     0.173 A 
ATOM     53  F   UNL A   1      40.049  28.066  31.853  1.00  0.00    -0.203 F 
ATOM     54  C   UNL A   1      37.880  28.894  31.454  1.00  0.00     0.198 A 
ATOM     55  C   UNL A   1      37.306  29.754  29.288  1.00  0.00     0.198 A 
ATOM     56  F   UNL A   1      38.899  29.732  27.557  1.00  0.00    -0.203 F 
ATOM     57  F   UNL A   1      37.533  28.592  32.712  1.00  0.00    -0.200 F 
ATOM     58  C   UNL A   1      36.951  29.467  30.597  1.00  0.00     0.200 A 
ATOM     59  F   UNL A   1      36.419  30.325  28.462  1.00  0.00    -0.200 F 
ATOM     60  F   UNL A   1      35.713  29.737  31.032  1.00  0.00    -0.200 F 
ENDBRANCH  26  50
BRANCH  38  61
ATOM     61  C   UNL A   1      45.386  32.633  29.208  1.00  0.00     0.064 A 
ATOM     62  C   UNL A   1      45.870  32.976  30.480  1.00  0.00     0.173 A 
ATOM     63  C   UNL A   1      45.202  33.662  28.273  1.00  0.00     0.173 A 
ATOM     64  F   UNL A   1      46.042  32.028  31.414  1.00  0.00    -0.203 F 
ATOM     65  C   UNL A   1      46.129  34.302  30.811  1.00  0.00     0.198 A 
ATOM     66  C   UNL A   1      45.488  34.984  28.600  1.00  0.00     0.198 A 
ATOM     67  F   UNL A   1      44.745  33.384  27.043  1.00  0.00    -0.203 F 
ATOM     68  F   UNL A   1      46.537  34.613  32.049  1.00  0.00    -0.200 F 
ATOM     69  C   UNL A   1      45.942  35.304  29.871  1.00  0.00     0.200 A 
ATOM     70  F   UNL A   1      45.315  35.950  27.688  1.00  0.00    -0.200 F 
ATOM     71  F   UNL A   1      46.188  36.581  30.194  1.00  0.00    -0.200 F 
ENDBRANCH  38  61
ENDBRANCH  12  13
ENDBRANCH   5   7
ENDBRANCH   2   3
ENDBRANCH   1   2
BRANCH   1  72
ATOM     72  C   UNL A   1      37.074  21.153  24.651  1.00  0.00     0.023 C 
BRANCH  72  73
ATOM     73  C   UNL A   1      35.721  21.131  25.352  1.00  0.00     0.116 C 
BRANCH  73  74
ATOM     74  N   UNL A   1      35.036  19.869  25.158  1.00  0.00    -0.354 N 
ATOM     75  C   UNL A   1      33.698  19.644  24.968  1.00  0.00     0.242 C 
ATOM     76  H   UNL A   1      35.608  19.067  25.165  1.00  0.00     0.163 HD
ATOM     77  O   UNL A   1      33.334  18.494  24.715  1.00  0.00    -0.273 OA
BRANCH  75  78
ATOM     78  C   UNL A   1      32.695  20.845  24.952  1.00  0.00     0.174 C 
BRANCH  78  79
ATOM     79  N   UNL A   1      32.757  21.413  26.316  1.00  0.00    -0.340 N 
ATOM     80  C   UNL A   1      32.543  22.521  27.069  1.00  0.00     0.253 C 
ATOM     81  H   UNL A   1      33.085  20.706  26.917  1.00  0.00     0.164 HD
ATOM     82  O   UNL A   1      32.839  22.480  28.264  1.00  0.00    -0.269 OA
BRANCH  80  83
ATOM     83  C   UNL A   1      32.078  23.799  26.556  1.00  0.00     0.061 A 
ATOM     84  C   UNL A   1      30.692  23.996  26.492  1.00  0.00     0.035 A 
ATOM     85  C   UNL A   1      32.943  24.722  25.987  1.00  0.00     0.072 A 
ATOM     86  C   UNL A   1      30.230  25.191  25.977  1.00  0.00     0.112 A 
ATOM     87  C   UNL A   1      32.379  25.893  25.506  1.00  0.00     0.132 A 
ATOM     88  Cl  UNL A   1      34.637  24.458  25.829  1.00  0.00    -0.082 Cl
ATOM     89  N   UNL A   1      31.047  26.158  25.512  1.00  0.00    -0.263 NA
ENDBRANCH  80  83
ENDBRANCH  78  79
BRANCH  78  90
ATOM     90  C   UNL A   1      32.876  21.566  23.644  1.00  0.00     0.021 C 
ATOM     91  C   UNL A   1      32.060  21.290  22.412  1.00  0.00     0.006 C 
ATOM     92  C   UNL A   1      32.058  22.666  23.027  1.00  0.00     0.006 C 
ENDBRANCH  78  90
ENDBRANCH  75  78
ENDBRANCH  73  74
ENDBRANCH  72  73
ENDBRANCH   1  72
TORSDOF 14
ENDMDL
