MODEL 1
REMARK VINA RESULT:     -14.2      0.000      0.000
REMARK SMILES O=C(NCCCCNC(=O)c1cc(N2C(=O)[C@H]3[C@@H]4C=C[C@@H]([C@@H]5C[C@H]45)[C@@H]3C2=O)ccc1Cl)c1ccc(-c2c3nc(c(-c4c(F)c(F)c(F)c(F)c4F)c4ccc([nH]4)c(-c4c(F)c(F)c(F)c(F)c4F)c4nc(c(-c5c(F)c(F)c(F)c(F)c5F)c5ccc2[nH]5)C=C4)C=C3)cc1
REMARK SMILES IDX 5 1 4 2 3 3 1 4 2 5 32 7 33 8 94 9 34 10 93 11 35 12 36 13
REMARK SMILES IDX 37 14 87 15 38 16 92 17 86 18 88 19 39 20 91 21 85 22 84 23
REMARK SMILES IDX 40 25 72 26 52 27 71 28 53 29 56 30 70 31 89 32 54 33 55 34
REMARK SMILES IDX 69 36 90 37 57 38 41 39 42 40 50 41 43 42 44 43 48 44 51 45
REMARK SMILES IDX 45 46 46 47 49 48 47 49 73 50 74 51 82 52 75 53 76 54 80 55
REMARK SMILES IDX 83 56 77 57 78 58 81 59 79 60 58 61 59 62 67 63 60 64 61 65
REMARK SMILES IDX 65 66 68 67 62 68 63 69 66 70 64 71 6 72 7 73 8 74 9 75
REMARK SMILES IDX 10 77 11 78 12 79 30 80 13 81 29 82 31 83 28 84 14 85 15 86
REMARK SMILES IDX 26 87 16 88 17 89 25 90 27 91 18 92 21 93 19 94 24 95 20 96
REMARK SMILES IDX 22 97 23 98
REMARK H PARENT 3 6 88 24 56 35 8 76
REMARK Flexibility Score: inf
ROOT
ATOM      1  C   UNL A   1      38.145  19.538  25.049  1.00  0.00     0.023 C 
ENDROOT
BRANCH   1   2
ATOM      2  C   UNL A   1      39.376  20.002  25.813  1.00  0.00     0.116 C 
BRANCH   2   3
ATOM      3  N   UNL A   1      40.424  18.993  25.875  1.00  0.00    -0.352 N 
ATOM      4  O   UNL A   1      42.540  18.202  25.987  1.00  0.00    -0.269 OA
ATOM      5  C   UNL A   1      41.772  19.150  26.107  1.00  0.00     0.251 C 
ATOM      6  H   UNL A   1      40.127  18.066  25.730  1.00  0.00     0.163 HD
BRANCH   5   7
ATOM      7  C   UNL A   1      42.295  20.485  26.468  1.00  0.00     0.039 A 
ATOM      8  C   UNL A   1      42.307  20.898  27.801  1.00  0.00     0.014 A 
ATOM      9  C   UNL A   1      42.749  21.341  25.462  1.00  0.00     0.014 A 
ATOM     10  C   UNL A   1      42.591  22.222  28.105  1.00  0.00     0.010 A 
ATOM     11  C   UNL A   1      43.146  22.642  25.787  1.00  0.00     0.010 A 
ATOM     12  C   UNL A   1      43.034  23.105  27.107  1.00  0.00    -0.014 A 
BRANCH  12  13
ATOM     13  C   UNL A   1      43.435  24.483  27.490  1.00  0.00     0.031 A 
ATOM     14  C   UNL A   1      44.875  24.913  27.487  1.00  0.00     0.074 A 
ATOM     15  C   UNL A   1      42.467  25.363  27.813  1.00  0.00     0.049 A 
ATOM     16  N   UNL A   1      45.385  26.085  27.779  1.00  0.00    -0.248 NA
ATOM     17  C   UNL A   1      45.876  23.902  27.118  1.00  0.00     0.031 C 
ATOM     18  C   UNL A   1      41.034  25.055  27.859  1.00  0.00     0.029 A 
ATOM     19  N   UNL A   1      42.530  26.691  28.143  1.00  0.00    -0.354 N 
ATOM     20  C   UNL A   1      46.761  25.947  27.644  1.00  0.00     0.074 A 
ATOM     21  C   UNL A   1      47.011  24.570  27.276  1.00  0.00     0.031 C 
ATOM     22  C   UNL A   1      40.353  26.171  28.145  1.00  0.00     0.029 A 
ATOM     23  C   UNL A   1      41.300  27.254  28.381  1.00  0.00     0.049 A 
ATOM     24  H   UNL A   1      43.375  27.193  28.204  1.00  0.00     0.167 HD
ATOM     25  C   UNL A   1      47.724  26.889  27.808  1.00  0.00     0.037 A 
ATOM     26  C   UNL A   1      40.968  28.498  28.770  1.00  0.00     0.037 A 
ATOM     27  C   UNL A   1      47.462  28.261  28.169  1.00  0.00     0.049 A 
ATOM     28  C   UNL A   1      42.060  29.507  28.982  1.00  0.00     0.074 A 
ATOM     29  C   UNL A   1      48.365  29.299  28.326  1.00  0.00     0.029 A 
ATOM     30  N   UNL A   1      46.206  28.785  28.438  1.00  0.00    -0.354 N 
ATOM     31  N   UNL A   1      43.353  29.373  28.816  1.00  0.00    -0.248 NA
ATOM     32  C   UNL A   1      41.644  30.838  29.438  1.00  0.00     0.031 C 
ATOM     33  C   UNL A   1      47.664  30.433  28.750  1.00  0.00     0.029 A 
ATOM     34  C   UNL A   1      46.314  30.122  28.790  1.00  0.00     0.049 A 
ATOM     35  H   UNL A   1      45.361  28.282  28.386  1.00  0.00     0.167 HD
ATOM     36  C   UNL A   1      43.905  30.609  29.123  1.00  0.00     0.074 A 
ATOM     37  C   UNL A   1      42.801  31.484  29.463  1.00  0.00     0.031 C 
ATOM     38  C   UNL A   1      45.207  30.984  29.124  1.00  0.00     0.037 A 
BRANCH  25  39
ATOM     39  C   UNL A   1      49.155  26.468  27.622  1.00  0.00     0.064 A 
ATOM     40  C   UNL A   1      49.727  26.321  26.349  1.00  0.00     0.173 A 
ATOM     41  C   UNL A   1      49.984  26.261  28.736  1.00  0.00     0.173 A 
ATOM     42  F   UNL A   1      48.979  26.501  25.248  1.00  0.00    -0.203 F 
ATOM     43  C   UNL A   1      51.063  25.956  26.199  1.00  0.00     0.198 A 
ATOM     44  C   UNL A   1      51.328  25.928  28.582  1.00  0.00     0.198 A 
ATOM     45  F   UNL A   1      49.495  26.397  29.978  1.00  0.00    -0.203 F 
ATOM     46  F   UNL A   1      51.573  25.777  24.972  1.00  0.00    -0.200 F 
ATOM     47  C   UNL A   1      51.864  25.768  27.314  1.00  0.00     0.200 A 
ATOM     48  F   UNL A   1      52.104  25.764  29.662  1.00  0.00    -0.200 F 
ATOM     49  F   UNL A   1      53.152  25.427  27.167  1.00  0.00    -0.200 F 
ENDBRANCH  25  39
BRANCH  26  50
ATOM     50  C   UNL A   1      39.541  28.846  28.993  1.00  0.00     0.064 A 
ATOM     51  C   UNL A   1      38.952  28.709  30.256  1.00  0.00     0.173 A 
ATOM     52  C   UNL A   1      38.739  29.330  27.947  1.00  0.00     0.173 A 
ATOM     53  F   UNL A   1      39.671  28.237  31.284  1.00  0.00    -0.203 F 
ATOM     54  C   UNL A   1      37.609  29.021  30.460  1.00  0.00     0.198 A 
ATOM     55  C   UNL A   1      37.408  29.675  28.160  1.00  0.00     0.198 A 
ATOM     56  F   UNL A   1      39.257  29.487  26.720  1.00  0.00    -0.203 F 
ATOM     57  F   UNL A   1      37.057  28.832  31.666  1.00  0.00    -0.200 F 
ATOM     58  C   UNL A   1      36.840  29.510  29.415  1.00  0.00     0.200 A 
ATOM     59  F   UNL A   1      36.675  30.167  27.152  1.00  0.00    -0.200 F 
ATOM     60  F   UNL A   1      35.551  29.815  29.614  1.00  0.00    -0.200 F 
ENDBRANCH  26  50
BRANCH  38  61
ATOM     61  C   UNL A   1      45.505  32.416  29.468  1.00  0.00     0.064 A 
ATOM     62  C   UNL A   1      45.793  32.819  30.780  1.00  0.00     0.173 A 
ATOM     63  C   UNL A   1      45.519  33.396  28.462  1.00  0.00     0.173 A 
ATOM     64  F   UNL A   1      45.775  31.925  31.781  1.00  0.00    -0.203 F 
ATOM     65  C   UNL A   1      46.048  34.154  31.079  1.00  0.00     0.198 A 
ATOM     66  C   UNL A   1      45.812  34.724  28.760  1.00  0.00     0.198 A 
ATOM     67  F   UNL A   1      45.256  33.064  27.190  1.00  0.00    -0.203 F 
ATOM     68  F   UNL A   1      46.258  34.527  32.350  1.00  0.00    -0.200 F 
ATOM     69  C   UNL A   1      46.065  35.104  30.068  1.00  0.00     0.200 A 
ATOM     70  F   UNL A   1      45.842  35.636  27.779  1.00  0.00    -0.200 F 
ATOM     71  F   UNL A   1      46.315  36.389  30.357  1.00  0.00    -0.200 F 
ENDBRANCH  38  61
ENDBRANCH  12  13
ENDBRANCH   5   7
ENDBRANCH   2   3
ENDBRANCH   1   2
BRANCH   1  72
ATOM     72  C   UNL A   1      37.296  20.656  24.449  1.00  0.00     0.023 C 
BRANCH  72  73
ATOM     73  C   UNL A   1      36.080  21.053  25.277  1.00  0.00     0.116 C 
BRANCH  73  74
ATOM     74  N   UNL A   1      35.128  19.966  25.433  1.00  0.00    -0.352 N 
ATOM     75  C   UNL A   1      33.788  19.956  25.151  1.00  0.00     0.252 C 
ATOM     76  H   UNL A   1      35.496  19.126  25.788  1.00  0.00     0.163 HD
ATOM     77  O   UNL A   1      33.105  18.966  25.390  1.00  0.00    -0.269 OA
BRANCH  75  78
ATOM     78  C   UNL A   1      33.142  21.163  24.614  1.00  0.00     0.060 A 
ATOM     79  C   UNL A   1      33.251  22.332  25.384  1.00  0.00     0.042 A 
ATOM     80  C   UNL A   1      32.421  21.159  23.414  1.00  0.00     0.053 A 
ATOM     81  C   UNL A   1      32.617  23.495  24.956  1.00  0.00     0.053 A 
ATOM     82  C   UNL A   1      31.859  22.347  22.950  1.00  0.00     0.023 A 
ATOM     83  Cl  UNL A   1      32.159  19.739  22.468  1.00  0.00    -0.083 Cl
ATOM     84  C   UNL A   1      31.939  23.501  23.726  1.00  0.00     0.028 A 
BRANCH  81  85
ATOM     85  N   UNL A   1      32.721  24.699  25.679  1.00  0.00    -0.250 N 
ATOM     86  C   UNL A   1      33.815  25.568  25.512  1.00  0.00     0.238 C 
ATOM     87  C   UNL A   1      31.590  25.357  26.206  1.00  0.00     0.238 C 
ATOM     88  O   UNL A   1      34.858  25.401  24.907  1.00  0.00    -0.274 OA
ATOM     89  C   UNL A   1      33.392  26.810  26.232  1.00  0.00     0.100 C 
ATOM     90  C   UNL A   1      31.899  26.774  25.893  1.00  0.00     0.100 C 
ATOM     91  O   UNL A   1      30.532  24.904  26.597  1.00  0.00    -0.274 OA
ATOM     92  C   UNL A   1      33.906  28.252  26.074  1.00  0.00     0.028 C 
ATOM     93  C   UNL A   1      31.281  28.138  26.148  1.00  0.00     0.028 C 
ATOM     94  C   UNL A   1      33.269  28.901  27.326  1.00  0.00    -0.026 C 
ATOM     95  C   UNL A   1      33.310  29.042  24.892  1.00  0.00     0.001 C 
ATOM     96  C   UNL A   1      31.921  28.787  27.383  1.00  0.00    -0.026 C 
ATOM     97  C   UNL A   1      31.774  28.997  24.924  1.00  0.00     0.001 C 
ATOM     98  C   UNL A   1      32.564  28.508  23.705  1.00  0.00     0.009 C 
ENDBRANCH  81  85
ENDBRANCH  75  78
ENDBRANCH  73  74
ENDBRANCH  72  73
ENDBRANCH   1  72
TORSDOF 12
ENDMDL
MODEL 2
REMARK VINA RESULT:     -14.2      5.303     10.681
REMARK SMILES O=C(NCCCCNC(=O)c1cc(N2C(=O)[C@H]3[C@@H]4C=C[C@@H]([C@@H]5C[C@H]45)[C@@H]3C2=O)ccc1Cl)c1ccc(-c2c3nc(c(-c4c(F)c(F)c(F)c(F)c4F)c4ccc([nH]4)c(-c4c(F)c(F)c(F)c(F)c4F)c4nc(c(-c5c(F)c(F)c(F)c(F)c5F)c5ccc2[nH]5)C=C4)C=C3)cc1
REMARK SMILES IDX 5 1 4 2 3 3 1 4 2 5 32 7 33 8 94 9 34 10 93 11 35 12 36 13
REMARK SMILES IDX 37 14 87 15 38 16 92 17 86 18 88 19 39 20 91 21 85 22 84 23
REMARK SMILES IDX 40 25 72 26 52 27 71 28 53 29 56 30 70 31 89 32 54 33 55 34
REMARK SMILES IDX 69 36 90 37 57 38 41 39 42 40 50 41 43 42 44 43 48 44 51 45
REMARK SMILES IDX 45 46 46 47 49 48 47 49 73 50 74 51 82 52 75 53 76 54 80 55
REMARK SMILES IDX 83 56 77 57 78 58 81 59 79 60 58 61 59 62 67 63 60 64 61 65
REMARK SMILES IDX 65 66 68 67 62 68 63 69 66 70 64 71 6 72 7 73 8 74 9 75
REMARK SMILES IDX 10 77 11 78 12 79 30 80 13 81 29 82 31 83 28 84 14 85 15 86
REMARK SMILES IDX 26 87 16 88 17 89 25 90 27 91 18 92 21 93 19 94 24 95 20 96
REMARK SMILES IDX 22 97 23 98
REMARK H PARENT 3 6 88 24 56 35 8 76
REMARK Flexibility Score: inf
ROOT
ATOM      1  C   UNL A   1      31.429  32.315  26.605  1.00  0.00     0.023 C 
ENDROOT
BRANCH   1   2
ATOM      2  C   UNL A   1      32.643  32.957  27.260  1.00  0.00     0.116 C 
BRANCH   2   3
ATOM      3  N   UNL A   1      32.405  34.326  27.691  1.00  0.00    -0.352 N 
ATOM      4  O   UNL A   1      32.601  36.151  29.013  1.00  0.00    -0.269 OA
ATOM      5  C   UNL A   1      33.022  35.046  28.689  1.00  0.00     0.251 C 
ATOM      6  H   UNL A   1      31.701  34.807  27.199  1.00  0.00     0.163 HD
BRANCH   5   7
ATOM      7  C   UNL A   1      34.181  34.460  29.394  1.00  0.00     0.039 A 
ATOM      8  C   UNL A   1      35.473  34.653  28.906  1.00  0.00     0.014 A 
ATOM      9  C   UNL A   1      33.970  33.684  30.537  1.00  0.00     0.014 A 
ATOM     10  C   UNL A   1      36.526  33.925  29.443  1.00  0.00     0.010 A 
ATOM     11  C   UNL A   1      35.052  33.041  31.148  1.00  0.00     0.010 A 
ATOM     12  C   UNL A   1      36.333  33.126  30.582  1.00  0.00    -0.014 A 
BRANCH  12  13
ATOM     13  C   UNL A   1      37.506  32.449  31.194  1.00  0.00     0.031 A 
ATOM     14  C   UNL A   1      37.999  32.816  32.565  1.00  0.00     0.074 A 
ATOM     15  C   UNL A   1      38.106  31.463  30.500  1.00  0.00     0.049 A 
ATOM     16  N   UNL A   1      38.998  32.307  33.245  1.00  0.00    -0.248 NA
ATOM     17  C   UNL A   1      37.291  33.898  33.265  1.00  0.00     0.031 C 
ATOM     18  C   UNL A   1      37.719  31.026  29.155  1.00  0.00     0.029 A 
ATOM     19  N   UNL A   1      39.149  30.636  30.827  1.00  0.00    -0.354 N 
ATOM     20  C   UNL A   1      39.047  33.013  34.440  1.00  0.00     0.074 A 
ATOM     21  C   UNL A   1      37.999  34.010  34.381  1.00  0.00     0.031 C 
ATOM     22  C   UNL A   1      38.477  29.982  28.796  1.00  0.00     0.029 A 
ATOM     23  C   UNL A   1      39.453  29.725  29.846  1.00  0.00     0.049 A 
ATOM     24  H   UNL A   1      39.634  30.691  31.683  1.00  0.00     0.167 HD
ATOM     25  C   UNL A   1      39.888  32.839  35.489  1.00  0.00     0.037 A 
ATOM     26  C   UNL A   1      40.427  28.800  29.785  1.00  0.00     0.037 A 
ATOM     27  C   UNL A   1      40.925  31.837  35.539  1.00  0.00     0.049 A 
ATOM     28  C   UNL A   1      41.368  28.658  30.946  1.00  0.00     0.074 A 
ATOM     29  C   UNL A   1      41.807  31.558  36.570  1.00  0.00     0.029 A 
ATOM     30  N   UNL A   1      41.228  30.957  34.510  1.00  0.00    -0.354 N 
ATOM     31  N   UNL A   1      41.380  29.307  32.085  1.00  0.00    -0.248 NA
ATOM     32  C   UNL A   1      42.431  27.655  30.812  1.00  0.00     0.031 C 
ATOM     33  C   UNL A   1      42.680  30.553  36.142  1.00  0.00     0.029 A 
ATOM     34  C   UNL A   1      42.301  30.155  34.870  1.00  0.00     0.049 A 
ATOM     35  H   UNL A   1      40.750  30.906  33.650  1.00  0.00     0.167 HD
ATOM     36  C   UNL A   1      42.435  28.776  32.813  1.00  0.00     0.074 A 
ATOM     37  C   UNL A   1      43.023  27.735  31.995  1.00  0.00     0.031 C 
ATOM     38  C   UNL A   1      42.877  29.121  34.047  1.00  0.00     0.037 A 
BRANCH  25  39
ATOM     39  C   UNL A   1      39.742  33.762  36.667  1.00  0.00     0.064 A 
ATOM     40  C   UNL A   1      40.381  35.011  36.714  1.00  0.00     0.173 A 
ATOM     41  C   UNL A   1      38.908  33.416  37.742  1.00  0.00     0.173 A 
ATOM     42  F   UNL A   1      41.195  35.391  35.717  1.00  0.00    -0.203 F 
ATOM     43  C   UNL A   1      40.212  35.864  37.803  1.00  0.00     0.198 A 
ATOM     44  C   UNL A   1      38.717  34.285  38.813  1.00  0.00     0.198 A 
ATOM     45  F   UNL A   1      38.264  32.239  37.747  1.00  0.00    -0.203 F 
ATOM     46  F   UNL A   1      40.870  37.031  37.846  1.00  0.00    -0.200 F 
ATOM     47  C   UNL A   1      39.375  35.505  38.847  1.00  0.00     0.200 A 
ATOM     48  F   UNL A   1      37.892  33.942  39.813  1.00  0.00    -0.200 F 
ATOM     49  F   UNL A   1      39.206  36.330  39.889  1.00  0.00    -0.200 F 
ENDBRANCH  25  39
BRANCH  26  50
ATOM     50  C   UNL A   1      40.562  27.949  28.574  1.00  0.00     0.064 A 
ATOM     51  C   UNL A   1      41.346  28.356  27.487  1.00  0.00     0.173 A 
ATOM     52  C   UNL A   1      39.913  26.707  28.482  1.00  0.00     0.173 A 
ATOM     53  F   UNL A   1      41.973  29.540  27.519  1.00  0.00    -0.203 F 
ATOM     54  C   UNL A   1      41.458  27.564  26.346  1.00  0.00     0.198 A 
ATOM     55  C   UNL A   1      40.055  25.901  27.357  1.00  0.00     0.198 A 
ATOM     56  F   UNL A   1      39.157  26.267  29.499  1.00  0.00    -0.203 F 
ATOM     57  F   UNL A   1      42.173  28.001  25.300  1.00  0.00    -0.200 F 
ATOM     58  C   UNL A   1      40.819  26.335  26.284  1.00  0.00     0.200 A 
ATOM     59  F   UNL A   1      39.453  24.705  27.311  1.00  0.00    -0.200 F 
ATOM     60  F   UNL A   1      40.933  25.572  25.188  1.00  0.00    -0.200 F 
ENDBRANCH  26  50
BRANCH  38  61
ATOM     61  C   UNL A   1      44.031  28.336  34.604  1.00  0.00     0.064 A 
ATOM     62  C   UNL A   1      45.360  28.751  34.435  1.00  0.00     0.173 A 
ATOM     63  C   UNL A   1      43.799  27.157  35.330  1.00  0.00     0.173 A 
ATOM     64  F   UNL A   1      45.637  29.861  33.732  1.00  0.00    -0.203 F 
ATOM     65  C   UNL A   1      46.415  27.999  34.943  1.00  0.00     0.198 A 
ATOM     66  C   UNL A   1      44.855  26.428  35.869  1.00  0.00     0.198 A 
ATOM     67  F   UNL A   1      42.548  26.717  35.526  1.00  0.00    -0.203 F 
ATOM     68  F   UNL A   1      47.680  28.382  34.715  1.00  0.00    -0.200 F 
ATOM     69  C   UNL A   1      46.163  26.842  35.666  1.00  0.00     0.200 A 
ATOM     70  F   UNL A   1      44.607  25.319  36.580  1.00  0.00    -0.200 F 
ATOM     71  F   UNL A   1      47.179  26.122  36.158  1.00  0.00    -0.200 F 
ENDBRANCH  38  61
ENDBRANCH  12  13
ENDBRANCH   5   7
ENDBRANCH   2   3
ENDBRANCH   1   2
BRANCH   1  72
ATOM     72  C   UNL A   1      31.336  30.800  26.757  1.00  0.00     0.023 C 
BRANCH  72  73
ATOM     73  C   UNL A   1      31.705  30.006  25.509  1.00  0.00     0.116 C 
BRANCH  73  74
ATOM     74  N   UNL A   1      30.877  30.343  24.364  1.00  0.00    -0.352 N 
ATOM     75  C   UNL A   1      30.261  29.502  23.477  1.00  0.00     0.252 C 
ATOM     76  H   UNL A   1      30.741  31.305  24.205  1.00  0.00     0.163 HD
ATOM     77  O   UNL A   1      29.632  29.948  22.522  1.00  0.00    -0.269 OA
BRANCH  75  78
ATOM     78  C   UNL A   1      30.400  28.046  23.628  1.00  0.00     0.060 A 
ATOM     79  C   UNL A   1      31.709  27.542  23.691  1.00  0.00     0.042 A 
ATOM     80  C   UNL A   1      29.296  27.186  23.675  1.00  0.00     0.053 A 
ATOM     81  C   UNL A   1      31.908  26.166  23.782  1.00  0.00     0.053 A 
ATOM     82  C   UNL A   1      29.501  25.819  23.850  1.00  0.00     0.023 A 
ATOM     83  Cl  UNL A   1      27.665  27.724  23.502  1.00  0.00    -0.083 Cl
ATOM     84  C   UNL A   1      30.799  25.311  23.881  1.00  0.00     0.028 A 
BRANCH  81  85
ATOM     85  N   UNL A   1      33.200  25.615  23.876  1.00  0.00    -0.250 N 
ATOM     86  C   UNL A   1      33.855  25.477  25.113  1.00  0.00     0.238 C 
ATOM     87  C   UNL A   1      33.715  24.740  22.897  1.00  0.00     0.238 C 
ATOM     88  O   UNL A   1      33.550  25.908  26.210  1.00  0.00    -0.274 OA
ATOM     89  C   UNL A   1      35.038  24.618  24.793  1.00  0.00     0.100 C 
ATOM     90  C   UNL A   1      34.388  23.719  23.736  1.00  0.00     0.100 C 
ATOM     91  O   UNL A   1      33.487  24.677  21.705  1.00  0.00    -0.274 OA
ATOM     92  C   UNL A   1      35.895  23.748  25.730  1.00  0.00     0.028 C 
ATOM     93  C   UNL A   1      35.237  22.477  23.525  1.00  0.00     0.028 C 
ATOM     94  C   UNL A   1      37.084  23.434  24.789  1.00  0.00    -0.026 C 
ATOM     95  C   UNL A   1      35.307  22.367  26.074  1.00  0.00     0.001 C 
ATOM     96  C   UNL A   1      36.727  22.830  23.631  1.00  0.00    -0.026 C 
ATOM     97  C   UNL A   1      34.926  21.601  24.796  1.00  0.00     0.001 C 
ATOM     98  C   UNL A   1      33.896  21.890  25.894  1.00  0.00     0.009 C 
ENDBRANCH  81  85
ENDBRANCH  75  78
ENDBRANCH  73  74
ENDBRANCH  72  73
ENDBRANCH   1  72
TORSDOF 12
ENDMDL
MODEL 3
REMARK VINA RESULT:     -14.2      5.216     10.617
REMARK SMILES O=C(NCCCCNC(=O)c1cc(N2C(=O)[C@H]3[C@@H]4C=C[C@@H]([C@@H]5C[C@H]45)[C@@H]3C2=O)ccc1Cl)c1ccc(-c2c3nc(c(-c4c(F)c(F)c(F)c(F)c4F)c4ccc([nH]4)c(-c4c(F)c(F)c(F)c(F)c4F)c4nc(c(-c5c(F)c(F)c(F)c(F)c5F)c5ccc2[nH]5)C=C4)C=C3)cc1
REMARK SMILES IDX 5 1 4 2 3 3 1 4 2 5 32 7 33 8 94 9 34 10 93 11 35 12 36 13
REMARK SMILES IDX 37 14 87 15 38 16 92 17 86 18 88 19 39 20 91 21 85 22 84 23
REMARK SMILES IDX 40 25 72 26 52 27 71 28 53 29 56 30 70 31 89 32 54 33 55 34
REMARK SMILES IDX 69 36 90 37 57 38 41 39 42 40 50 41 43 42 44 43 48 44 51 45
REMARK SMILES IDX 45 46 46 47 49 48 47 49 73 50 74 51 82 52 75 53 76 54 80 55
REMARK SMILES IDX 83 56 77 57 78 58 81 59 79 60 58 61 59 62 67 63 60 64 61 65
REMARK SMILES IDX 65 66 68 67 62 68 63 69 66 70 64 71 6 72 7 73 8 74 9 75
REMARK SMILES IDX 10 77 11 78 12 79 30 80 13 81 29 82 31 83 28 84 14 85 15 86
REMARK SMILES IDX 26 87 16 88 17 89 25 90 27 91 18 92 21 93 19 94 24 95 20 96
REMARK SMILES IDX 22 97 23 98
REMARK H PARENT 3 6 88 24 56 35 8 76
REMARK Flexibility Score: inf
ROOT
ATOM      1  C   UNL A   1      31.456  32.231  26.421  1.00  0.00     0.023 C 
ENDROOT
BRANCH   1   2
ATOM      2  C   UNL A   1      32.579  32.798  27.277  1.00  0.00     0.116 C 
BRANCH   2   3
ATOM      3  N   UNL A   1      32.361  34.184  27.662  1.00  0.00    -0.352 N 
ATOM      4  O   UNL A   1      32.596  36.053  28.914  1.00  0.00    -0.269 OA
ATOM      5  C   UNL A   1      33.002  34.933  28.624  1.00  0.00     0.251 C 
ATOM      6  H   UNL A   1      31.654  34.655  27.165  1.00  0.00     0.163 HD
BRANCH   5   7
ATOM      7  C   UNL A   1      34.166  34.361  29.330  1.00  0.00     0.039 A 
ATOM      8  C   UNL A   1      35.458  34.588  28.856  1.00  0.00     0.014 A 
ATOM      9  C   UNL A   1      33.962  33.565  30.460  1.00  0.00     0.014 A 
ATOM     10  C   UNL A   1      36.521  33.873  29.392  1.00  0.00     0.010 A 
ATOM     11  C   UNL A   1      35.051  32.936  31.071  1.00  0.00     0.010 A 
ATOM     12  C   UNL A   1      36.335  33.055  30.518  1.00  0.00    -0.014 A 
BRANCH  12  13
ATOM     13  C   UNL A   1      37.517  32.394  31.130  1.00  0.00     0.031 A 
ATOM     14  C   UNL A   1      37.999  32.760  32.506  1.00  0.00     0.074 A 
ATOM     15  C   UNL A   1      38.137  31.422  30.432  1.00  0.00     0.049 A 
ATOM     16  N   UNL A   1      39.003  32.263  33.186  1.00  0.00    -0.248 NA
ATOM     17  C   UNL A   1      37.270  33.825  33.209  1.00  0.00     0.031 C 
ATOM     18  C   UNL A   1      37.762  30.987  29.083  1.00  0.00     0.029 A 
ATOM     19  N   UNL A   1      39.192  30.611  30.759  1.00  0.00    -0.354 N 
ATOM     20  C   UNL A   1      39.036  32.963  34.386  1.00  0.00     0.074 A 
ATOM     21  C   UNL A   1      37.972  33.942  34.329  1.00  0.00     0.031 C 
ATOM     22  C   UNL A   1      38.538  29.959  28.721  1.00  0.00     0.029 A 
ATOM     23  C   UNL A   1      39.515  29.711  29.773  1.00  0.00     0.049 A 
ATOM     24  H   UNL A   1      39.672  30.668  31.617  1.00  0.00     0.167 HD
ATOM     25  C   UNL A   1      39.875  32.795  35.438  1.00  0.00     0.037 A 
ATOM     26  C   UNL A   1      40.504  28.802  29.710  1.00  0.00     0.037 A 
ATOM     27  C   UNL A   1      40.929  31.811  35.485  1.00  0.00     0.049 A 
ATOM     28  C   UNL A   1      41.443  28.669  30.875  1.00  0.00     0.074 A 
ATOM     29  C   UNL A   1      41.811  31.540  36.518  1.00  0.00     0.029 A 
ATOM     30  N   UNL A   1      41.250  30.942  34.452  1.00  0.00    -0.354 N 
ATOM     31  N   UNL A   1      41.439  29.311  32.017  1.00  0.00    -0.248 NA
ATOM     32  C   UNL A   1      42.523  27.684  30.738  1.00  0.00     0.031 C 
ATOM     33  C   UNL A   1      42.703  30.552  36.088  1.00  0.00     0.029 A 
ATOM     34  C   UNL A   1      42.335  30.156  34.812  1.00  0.00     0.049 A 
ATOM     35  H   UNL A   1      40.777  30.889  33.590  1.00  0.00     0.167 HD
ATOM     36  C   UNL A   1      42.500  28.793  32.746  1.00  0.00     0.074 A 
ATOM     37  C   UNL A   1      43.109  27.767  31.924  1.00  0.00     0.031 C 
ATOM     38  C   UNL A   1      42.931  29.136  33.985  1.00  0.00     0.037 A 
BRANCH  25  39
ATOM     39  C   UNL A   1      39.709  33.709  36.620  1.00  0.00     0.064 A 
ATOM     40  C   UNL A   1      40.327  34.968  36.678  1.00  0.00     0.173 A 
ATOM     41  C   UNL A   1      38.877  33.342  37.690  1.00  0.00     0.173 A 
ATOM     42  F   UNL A   1      41.138  35.368  35.686  1.00  0.00    -0.203 F 
ATOM     43  C   UNL A   1      40.140  35.811  37.771  1.00  0.00     0.198 A 
ATOM     44  C   UNL A   1      38.667  34.201  38.766  1.00  0.00     0.198 A 
ATOM     45  F   UNL A   1      38.253  32.155  37.685  1.00  0.00    -0.203 F 
ATOM     46  F   UNL A   1      40.778  36.989  37.824  1.00  0.00    -0.200 F 
ATOM     47  C   UNL A   1      39.305  35.431  38.810  1.00  0.00     0.200 A 
ATOM     48  F   UNL A   1      37.845  33.838  39.760  1.00  0.00    -0.200 F 
ATOM     49  F   UNL A   1      39.118  36.247  39.857  1.00  0.00    -0.200 F 
ENDBRANCH  25  39
BRANCH  26  50
ATOM     50  C   UNL A   1      40.657  27.961  28.494  1.00  0.00     0.064 A 
ATOM     51  C   UNL A   1      41.422  28.397  27.405  1.00  0.00     0.173 A 
ATOM     52  C   UNL A   1      40.046  26.701  28.401  1.00  0.00     0.173 A 
ATOM     53  F   UNL A   1      42.013  29.600  27.439  1.00  0.00    -0.203 F 
ATOM     54  C   UNL A   1      41.552  27.615  26.259  1.00  0.00     0.198 A 
ATOM     55  C   UNL A   1      40.206  25.905  27.270  1.00  0.00     0.198 A 
ATOM     56  F   UNL A   1      39.310  26.233  29.420  1.00  0.00    -0.203 F 
ATOM     57  F   UNL A   1      42.247  28.078  25.211  1.00  0.00    -0.200 F 
ATOM     58  C   UNL A   1      40.951  26.367  26.195  1.00  0.00     0.200 A 
ATOM     59  F   UNL A   1      39.641  24.691  27.223  1.00  0.00    -0.200 F 
ATOM     60  F   UNL A   1      41.081  25.613  25.096  1.00  0.00    -0.200 F 
ENDBRANCH  26  50
BRANCH  38  61
ATOM     61  C   UNL A   1      44.096  28.367  34.540  1.00  0.00     0.064 A 
ATOM     62  C   UNL A   1      45.418  28.809  34.385  1.00  0.00     0.173 A 
ATOM     63  C   UNL A   1      43.881  27.177  35.254  1.00  0.00     0.173 A 
ATOM     64  F   UNL A   1      45.679  29.931  33.696  1.00  0.00    -0.203 F 
ATOM     65  C   UNL A   1      46.483  28.071  34.893  1.00  0.00     0.198 A 
ATOM     66  C   UNL A   1      44.947  26.462  35.792  1.00  0.00     0.198 A 
ATOM     67  F   UNL A   1      42.637  26.712  35.436  1.00  0.00    -0.203 F 
ATOM     68  F   UNL A   1      47.742  28.480  34.678  1.00  0.00    -0.200 F 
ATOM     69  C   UNL A   1      46.248  26.903  35.602  1.00  0.00     0.200 A 
ATOM     70  F   UNL A   1      44.715  25.342  36.490  1.00  0.00    -0.200 F 
ATOM     71  F   UNL A   1      47.274  26.196  36.093  1.00  0.00    -0.200 F 
ENDBRANCH  38  61
ENDBRANCH  12  13
ENDBRANCH   5   7
ENDBRANCH   2   3
ENDBRANCH   1   2
BRANCH   1  72
ATOM     72  C   UNL A   1      31.275  30.718  26.510  1.00  0.00     0.023 C 
BRANCH  72  73
ATOM     73  C   UNL A   1      32.563  29.910  26.395  1.00  0.00     0.116 C 
BRANCH  73  74
ATOM     74  N   UNL A   1      33.141  29.963  25.063  1.00  0.00    -0.352 N 
ATOM     75  C   UNL A   1      32.854  29.185  23.974  1.00  0.00     0.252 C 
ATOM     76  H   UNL A   1      33.832  30.650  24.925  1.00  0.00     0.163 HD
ATOM     77  O   UNL A   1      33.473  29.321  22.924  1.00  0.00    -0.269 OA
BRANCH  75  78
ATOM     78  C   UNL A   1      31.834  28.130  24.075  1.00  0.00     0.060 A 
ATOM     79  C   UNL A   1      32.288  26.845  24.412  1.00  0.00     0.042 A 
ATOM     80  C   UNL A   1      30.478  28.368  23.819  1.00  0.00     0.053 A 
ATOM     81  C   UNL A   1      31.379  25.792  24.472  1.00  0.00     0.053 A 
ATOM     82  C   UNL A   1      29.562  27.328  23.963  1.00  0.00     0.023 A 
ATOM     83  Cl  UNL A   1      29.863  29.896  23.302  1.00  0.00    -0.083 Cl
ATOM     84  C   UNL A   1      30.013  26.044  24.266  1.00  0.00     0.028 A 
BRANCH  81  85
ATOM     85  N   UNL A   1      31.782  24.492  24.833  1.00  0.00    -0.250 N 
ATOM     86  C   UNL A   1      32.442  23.645  23.925  1.00  0.00     0.238 C 
ATOM     87  C   UNL A   1      32.018  24.126  26.175  1.00  0.00     0.238 C 
ATOM     88  O   UNL A   1      32.630  23.778  22.729  1.00  0.00    -0.274 OA
ATOM     89  C   UNL A   1      32.922  22.515  24.780  1.00  0.00     0.100 C 
ATOM     90  C   UNL A   1      33.250  23.310  26.047  1.00  0.00     0.100 C 
ATOM     91  O   UNL A   1      31.514  24.541  27.200  1.00  0.00    -0.274 OA
ATOM     92  C   UNL A   1      34.053  21.504  24.518  1.00  0.00     0.028 C 
ATOM     93  C   UNL A   1      34.146  22.485  26.955  1.00  0.00     0.028 C 
ATOM     94  C   UNL A   1      33.757  20.476  25.638  1.00  0.00    -0.026 C 
ATOM     95  C   UNL A   1      35.475  22.006  24.830  1.00  0.00     0.001 C 
ATOM     96  C   UNL A   1      33.751  21.003  26.884  1.00  0.00    -0.026 C 
ATOM     97  C   UNL A   1      35.555  22.573  26.256  1.00  0.00     0.001 C 
ATOM     98  C   UNL A   1      35.934  23.420  25.036  1.00  0.00     0.009 C 
ENDBRANCH  81  85
ENDBRANCH  75  78
ENDBRANCH  73  74
ENDBRANCH  72  73
ENDBRANCH   1  72
TORSDOF 12
ENDMDL
