MODEL 1
REMARK VINA RESULT:     -11.0      0.000      0.000
REMARK SMILES CCCC[C@H](C(=O)NCCCCNC(=O)c1ccc(-c2c3nc(c(-c4c(F)c(F)c(F)c(F)c4F)c4ccc([nH]4)c(-c4c(F)c(F)c(F)c(F)c4F)c4nc(c(-c5c(F)c(F)c(F)c(F)c5F)c5ccc2[nH]5)C=C4)C=C3)cc1)c1ccccn1
REMARK SMILES IDX 10 1 9 2 8 3 6 4 7 5 5 7 4 8 3 9 2 10 1 11 79 12 80 13 84 14
REMARK SMILES IDX 81 15 83 16 82 17 11 18 12 19 13 20 14 21 15 23 16 24 17 25
REMARK SMILES IDX 78 26 18 27 77 28 19 29 20 30 21 31 71 32 22 33 76 34 70 35
REMARK SMILES IDX 72 36 23 37 75 38 69 39 68 40 24 42 56 43 36 44 55 45 37 46
REMARK SMILES IDX 40 47 54 48 73 49 38 50 39 51 53 53 74 54 41 55 25 56 26 57
REMARK SMILES IDX 34 58 27 59 28 60 32 61 35 62 29 63 30 64 33 65 31 66 57 67
REMARK SMILES IDX 58 68 66 69 59 70 60 71 64 72 67 73 61 74 62 75 65 76 63 77
REMARK SMILES IDX 42 78 43 79 51 80 44 81 45 82 49 83 52 84 46 85 47 86 50 87
REMARK SMILES IDX 48 88
REMARK H PARENT 8 6 13 22 72 41 40 52
REMARK Flexibility Score: inf
ROOT
ATOM      1  C   UNL A   1      31.406  30.429  25.855  1.00  0.00     0.023 C 
ENDROOT
BRANCH   1   2
ATOM      2  C   UNL A   1      32.821  29.838  25.843  1.00  0.00     0.116 C 
BRANCH   2   3
ATOM      3  N   UNL A   1      33.290  29.708  24.480  1.00  0.00    -0.356 N 
ATOM      4  C   UNL A   1      33.538  28.570  23.768  1.00  0.00     0.229 C 
ATOM      5  O   UNL A   1      34.332  28.709  22.829  1.00  0.00    -0.274 OA
ATOM      6  H   UNL A   1      33.450  30.554  24.003  1.00  0.00     0.163 HD
BRANCH   4   7
ATOM      7  C   UNL A   1      32.800  27.225  24.039  1.00  0.00     0.127 C 
BRANCH   7   8
ATOM      8  C   UNL A   1      33.440  26.680  25.362  1.00  0.00     0.020 C 
BRANCH   8   9
ATOM      9  C   UNL A   1      34.266  25.395  25.443  1.00  0.00     0.001 C 
BRANCH   9  10
ATOM     10  C   UNL A   1      33.511  24.100  25.703  1.00  0.00    -0.003 C 
ATOM     11  C   UNL A   1      32.293  24.319  26.580  1.00  0.00     0.004 C 
ENDBRANCH   9  10
ENDBRANCH   8   9
ENDBRANCH   7   8
BRANCH   7  12
ATOM     12  C   UNL A   1      31.288  27.354  23.869  1.00  0.00     0.053 A 
ATOM     13  C   UNL A   1      30.331  26.474  24.354  1.00  0.00     0.024 A 
ATOM     14  N   UNL A   1      30.885  28.371  23.066  1.00  0.00    -0.260 NA
ATOM     15  C   UNL A   1      28.982  26.637  24.010  1.00  0.00     0.003 A 
ATOM     16  C   UNL A   1      29.572  28.567  22.810  1.00  0.00     0.111 A 
ATOM     17  C   UNL A   1      28.586  27.719  23.243  1.00  0.00     0.020 A 
ENDBRANCH   7  12
ENDBRANCH   4   7
ENDBRANCH   2   3
ENDBRANCH   1   2
BRANCH   1  18
ATOM     18  C   UNL A   1      31.283  31.823  26.454  1.00  0.00     0.023 C 
BRANCH  18  19
ATOM     19  C   UNL A   1      32.558  32.350  27.078  1.00  0.00     0.116 C 
BRANCH  19  20
ATOM     20  N   UNL A   1      32.452  33.734  27.516  1.00  0.00    -0.352 N 
ATOM     21  C   UNL A   1      33.209  34.412  28.443  1.00  0.00     0.251 C 
ATOM     22  H   UNL A   1      31.738  34.260  27.089  1.00  0.00     0.163 HD
ATOM     23  O   UNL A   1      32.900  35.539  28.796  1.00  0.00    -0.269 OA
BRANCH  21  24
ATOM     24  C   UNL A   1      34.391  33.744  29.029  1.00  0.00     0.039 A 
ATOM     25  C   UNL A   1      35.661  34.260  28.770  1.00  0.00     0.014 A 
ATOM     26  C   UNL A   1      34.240  32.625  29.851  1.00  0.00     0.014 A 
ATOM     27  C   UNL A   1      36.775  33.673  29.373  1.00  0.00     0.010 A 
ATOM     28  C   UNL A   1      35.328  32.130  30.551  1.00  0.00     0.010 A 
ATOM     29  C   UNL A   1      36.613  32.618  30.284  1.00  0.00    -0.014 A 
BRANCH  29  30
ATOM     30  C   UNL A   1      37.780  31.945  30.904  1.00  0.00     0.031 A 
ATOM     31  C   UNL A   1      38.203  32.337  32.296  1.00  0.00     0.074 A 
ATOM     32  C   UNL A   1      38.476  31.026  30.211  1.00  0.00     0.049 A 
ATOM     33  N   UNL A   1      39.214  31.908  33.007  1.00  0.00    -0.248 NA
ATOM     34  C   UNL A   1      37.408  33.381  32.963  1.00  0.00     0.031 C 
ATOM     35  C   UNL A   1      38.198  30.609  28.835  1.00  0.00     0.029 A 
ATOM     36  N   UNL A   1      39.566  30.274  30.572  1.00  0.00    -0.354 N 
ATOM     37  C   UNL A   1      39.182  32.643  34.186  1.00  0.00     0.074 A 
ATOM     38  C   UNL A   1      38.108  33.600  34.064  1.00  0.00     0.031 C 
ATOM     39  C   UNL A   1      39.068  29.649  28.482  1.00  0.00     0.029 A 
ATOM     40  C   UNL A   1      39.986  29.408  29.592  1.00  0.00     0.049 A 
ATOM     41  H   UNL A   1      40.004  30.348  31.450  1.00  0.00     0.167 HD
ATOM     42  C   UNL A   1      39.951  32.504  35.290  1.00  0.00     0.037 A 
ATOM     43  C   UNL A   1      40.996  28.518  29.598  1.00  0.00     0.037 A 
ATOM     44  C   UNL A   1      40.993  31.522  35.420  1.00  0.00     0.049 A 
ATOM     45  C   UNL A   1      41.827  28.372  30.845  1.00  0.00     0.074 A 
ATOM     46  C   UNL A   1      41.800  31.258  36.511  1.00  0.00     0.029 A 
ATOM     47  N   UNL A   1      41.368  30.640  34.418  1.00  0.00    -0.354 N 
ATOM     48  N   UNL A   1      41.742  29.020  31.981  1.00  0.00    -0.248 NA
ATOM     49  C   UNL A   1      42.886  27.354  30.814  1.00  0.00     0.031 C 
ATOM     50  C   UNL A   1      42.698  30.247  36.151  1.00  0.00     0.029 A 
ATOM     51  C   UNL A   1      42.406  29.837  34.860  1.00  0.00     0.049 A 
ATOM     52  H   UNL A   1      40.958  30.591  33.524  1.00  0.00     0.167 HD
ATOM     53  C   UNL A   1      42.704  28.463  32.814  1.00  0.00     0.074 A 
ATOM     54  C   UNL A   1      43.352  27.414  32.053  1.00  0.00     0.031 C 
ATOM     55  C   UNL A   1      43.022  28.786  34.092  1.00  0.00     0.037 A 
BRANCH  42  56
ATOM     56  C   UNL A   1      39.683  33.430  36.444  1.00  0.00     0.064 A 
ATOM     57  C   UNL A   1      38.801  33.082  37.481  1.00  0.00     0.173 A 
ATOM     58  C   UNL A   1      40.324  34.674  36.524  1.00  0.00     0.173 A 
ATOM     59  F   UNL A   1      38.147  31.911  37.448  1.00  0.00    -0.203 F 
ATOM     60  C   UNL A   1      38.545  33.960  38.531  1.00  0.00     0.198 A 
ATOM     61  C   UNL A   1      40.095  35.534  37.595  1.00  0.00     0.198 A 
ATOM     62  F   UNL A   1      41.178  35.058  35.562  1.00  0.00    -0.203 F 
ATOM     63  F   UNL A   1      37.650  33.631  39.474  1.00  0.00    -0.200 F 
ATOM     64  C   UNL A   1      39.198  35.181  38.591  1.00  0.00     0.200 A 
ATOM     65  F   UNL A   1      40.738  36.708  37.659  1.00  0.00    -0.200 F 
ATOM     66  F   UNL A   1      38.957  36.022  39.607  1.00  0.00    -0.200 F 
ENDBRANCH  42  56
BRANCH  43  67
ATOM     67  C   UNL A   1      41.245  27.664  28.407  1.00  0.00     0.064 A 
ATOM     68  C   UNL A   1      42.138  28.068  27.403  1.00  0.00     0.173 A 
ATOM     69  C   UNL A   1      40.587  26.437  28.236  1.00  0.00     0.173 A 
ATOM     70  F   UNL A   1      42.780  29.241  27.512  1.00  0.00    -0.203 F 
ATOM     71  C   UNL A   1      42.341  27.294  26.263  1.00  0.00     0.198 A 
ATOM     72  C   UNL A   1      40.815  25.648  27.110  1.00  0.00     0.198 A 
ATOM     73  F   UNL A   1      39.730  25.999  29.168  1.00  0.00    -0.203 F 
ATOM     74  F   UNL A   1      43.157  27.733  25.295  1.00  0.00    -0.200 F 
ATOM     75  C   UNL A   1      41.682  26.083  26.119  1.00  0.00     0.200 A 
ATOM     76  F   UNL A   1      40.190  24.470  26.982  1.00  0.00    -0.200 F 
ATOM     77  F   UNL A   1      41.877  25.338  25.022  1.00  0.00    -0.200 F 
ENDBRANCH  43  67
BRANCH  55  78
ATOM     78  C   UNL A   1      44.072  27.953  34.770  1.00  0.00     0.064 A 
ATOM     79  C   UNL A   1      45.422  28.331  34.794  1.00  0.00     0.173 A 
ATOM     80  C   UNL A   1      43.710  26.768  35.432  1.00  0.00     0.173 A 
ATOM     81  F   UNL A   1      45.822  29.448  34.168  1.00  0.00    -0.203 F 
ATOM     82  C   UNL A   1      46.377  27.533  35.420  1.00  0.00     0.198 A 
ATOM     83  C   UNL A   1      44.661  25.994  36.089  1.00  0.00     0.198 A 
ATOM     84  F   UNL A   1      42.430  26.367  35.450  1.00  0.00    -0.203 F 
ATOM     85  F   UNL A   1      47.670  27.881  35.374  1.00  0.00    -0.200 F 
ATOM     86  C   UNL A   1      45.995  26.370  36.072  1.00  0.00     0.200 A 
ATOM     87  F   UNL A   1      44.287  24.882  36.735  1.00  0.00    -0.200 F 
ATOM     88  F   UNL A   1      46.916  25.607  36.676  1.00  0.00    -0.200 F 
ENDBRANCH  55  78
ENDBRANCH  29  30
ENDBRANCH  21  24
ENDBRANCH  19  20
ENDBRANCH  18  19
ENDBRANCH   1  18
TORSDOF 15
ENDMDL
MODEL 2
REMARK VINA RESULT:     -11.0      0.710      2.296
REMARK SMILES CCCC[C@H](C(=O)NCCCCNC(=O)c1ccc(-c2c3nc(c(-c4c(F)c(F)c(F)c(F)c4F)c4ccc([nH]4)c(-c4c(F)c(F)c(F)c(F)c4F)c4nc(c(-c5c(F)c(F)c(F)c(F)c5F)c5ccc2[nH]5)C=C4)C=C3)cc1)c1ccccn1
REMARK SMILES IDX 10 1 9 2 8 3 6 4 7 5 5 7 4 8 3 9 2 10 1 11 79 12 80 13 84 14
REMARK SMILES IDX 81 15 83 16 82 17 11 18 12 19 13 20 14 21 15 23 16 24 17 25
REMARK SMILES IDX 78 26 18 27 77 28 19 29 20 30 21 31 71 32 22 33 76 34 70 35
REMARK SMILES IDX 72 36 23 37 75 38 69 39 68 40 24 42 56 43 36 44 55 45 37 46
REMARK SMILES IDX 40 47 54 48 73 49 38 50 39 51 53 53 74 54 41 55 25 56 26 57
REMARK SMILES IDX 34 58 27 59 28 60 32 61 35 62 29 63 30 64 33 65 31 66 57 67
REMARK SMILES IDX 58 68 66 69 59 70 60 71 64 72 67 73 61 74 62 75 65 76 63 77
REMARK SMILES IDX 42 78 43 79 51 80 44 81 45 82 49 83 52 84 46 85 47 86 50 87
REMARK SMILES IDX 48 88
REMARK H PARENT 8 6 13 22 72 41 40 52
REMARK Flexibility Score: inf
ROOT
ATOM      1  C   UNL A   1      31.442  30.388  25.773  1.00  0.00     0.023 C 
ENDROOT
BRANCH   1   2
ATOM      2  C   UNL A   1      32.876  29.848  25.712  1.00  0.00     0.116 C 
BRANCH   2   3
ATOM      3  N   UNL A   1      33.284  29.687  24.332  1.00  0.00    -0.356 N 
ATOM      4  C   UNL A   1      33.432  28.534  23.616  1.00  0.00     0.229 C 
ATOM      5  O   UNL A   1      34.197  28.621  22.647  1.00  0.00    -0.274 OA
ATOM      6  H   UNL A   1      33.480  30.520  23.847  1.00  0.00     0.163 HD
BRANCH   4   7
ATOM      7  C   UNL A   1      32.621  27.239  23.919  1.00  0.00     0.127 C 
BRANCH   7   8
ATOM      8  C   UNL A   1      31.388  27.307  22.954  1.00  0.00     0.020 C 
BRANCH   8   9
ATOM      9  C   UNL A   1      29.945  27.495  23.427  1.00  0.00     0.001 C 
BRANCH   9  10
ATOM     10  C   UNL A   1      29.192  28.705  22.895  1.00  0.00    -0.003 C 
ATOM     11  C   UNL A   1      30.094  29.630  22.101  1.00  0.00     0.004 C 
ENDBRANCH   9  10
ENDBRANCH   8   9
ENDBRANCH   7   8
BRANCH   7  12
ATOM     12  C   UNL A   1      33.515  26.004  23.997  1.00  0.00     0.053 A 
ATOM     13  C   UNL A   1      33.664  25.037  23.013  1.00  0.00     0.024 A 
ATOM     14  N   UNL A   1      34.114  25.803  25.198  1.00  0.00    -0.260 NA
ATOM     15  C   UNL A   1      34.414  23.880  23.267  1.00  0.00     0.003 A 
ATOM     16  C   UNL A   1      34.903  24.725  25.402  1.00  0.00     0.111 A 
ATOM     17  C   UNL A   1      35.069  23.727  24.476  1.00  0.00     0.020 A 
ENDBRANCH   7  12
ENDBRANCH   4   7
ENDBRANCH   2   3
ENDBRANCH   1   2
BRANCH   1  18
ATOM     18  C   UNL A   1      31.286  31.763  26.405  1.00  0.00     0.023 C 
BRANCH  18  19
ATOM     19  C   UNL A   1      32.550  32.308  27.037  1.00  0.00     0.116 C 
BRANCH  19  20
ATOM     20  N   UNL A   1      32.416  33.683  27.497  1.00  0.00    -0.352 N 
ATOM     21  C   UNL A   1      33.155  34.360  28.437  1.00  0.00     0.251 C 
ATOM     22  H   UNL A   1      31.693  34.201  27.075  1.00  0.00     0.163 HD
ATOM     23  O   UNL A   1      32.822  35.475  28.806  1.00  0.00    -0.269 OA
BRANCH  21  24
ATOM     24  C   UNL A   1      34.348  33.707  29.018  1.00  0.00     0.039 A 
ATOM     25  C   UNL A   1      35.616  34.131  28.621  1.00  0.00     0.014 A 
ATOM     26  C   UNL A   1      34.210  32.693  29.968  1.00  0.00     0.014 A 
ATOM     27  C   UNL A   1      36.745  33.563  29.213  1.00  0.00     0.010 A 
ATOM     28  C   UNL A   1      35.324  32.228  30.649  1.00  0.00     0.010 A 
ATOM     29  C   UNL A   1      36.605  32.623  30.246  1.00  0.00    -0.014 A 
BRANCH  29  30
ATOM     30  C   UNL A   1      37.785  31.969  30.861  1.00  0.00     0.031 A 
ATOM     31  C   UNL A   1      38.213  32.375  32.248  1.00  0.00     0.074 A 
ATOM     32  C   UNL A   1      38.488  31.054  30.169  1.00  0.00     0.049 A 
ATOM     33  N   UNL A   1      39.235  31.963  32.955  1.00  0.00    -0.248 NA
ATOM     34  C   UNL A   1      37.410  33.413  32.915  1.00  0.00     0.031 C 
ATOM     35  C   UNL A   1      38.205  30.626  28.798  1.00  0.00     0.029 A 
ATOM     36  N   UNL A   1      39.589  30.318  30.527  1.00  0.00    -0.354 N 
ATOM     37  C   UNL A   1      39.202  32.705  34.129  1.00  0.00     0.074 A 
ATOM     38  C   UNL A   1      38.115  33.648  34.008  1.00  0.00     0.031 C 
ATOM     39  C   UNL A   1      39.085  29.674  28.445  1.00  0.00     0.029 A 
ATOM     40  C   UNL A   1      40.013  29.452  29.549  1.00  0.00     0.049 A 
ATOM     41  H   UNL A   1      40.033  30.404  31.401  1.00  0.00     0.167 HD
ATOM     42  C   UNL A   1      39.980  32.583  35.229  1.00  0.00     0.037 A 
ATOM     43  C   UNL A   1      41.034  28.574  29.553  1.00  0.00     0.037 A 
ATOM     44  C   UNL A   1      41.035  31.615  35.357  1.00  0.00     0.049 A 
ATOM     45  C   UNL A   1      41.876  28.446  30.795  1.00  0.00     0.074 A 
ATOM     46  C   UNL A   1      41.854  31.367  36.443  1.00  0.00     0.029 A 
ATOM     47  N   UNL A   1      41.415  30.731  34.357  1.00  0.00    -0.354 N 
ATOM     48  N   UNL A   1      41.791  29.101  31.928  1.00  0.00    -0.248 NA
ATOM     49  C   UNL A   1      42.948  27.442  30.763  1.00  0.00     0.031 C 
ATOM     50  C   UNL A   1      42.762  30.366  36.083  1.00  0.00     0.029 A 
ATOM     51  C   UNL A   1      42.465  29.944  34.797  1.00  0.00     0.049 A 
ATOM     52  H   UNL A   1      40.998  30.671  33.466  1.00  0.00     0.167 HD
ATOM     53  C   UNL A   1      42.766  28.561  32.757  1.00  0.00     0.074 A 
ATOM     54  C   UNL A   1      43.422  27.516  31.998  1.00  0.00     0.031 C 
ATOM     55  C   UNL A   1      43.089  28.896  34.031  1.00  0.00     0.037 A 
BRANCH  42  56
ATOM     56  C   UNL A   1      39.709  33.512  36.378  1.00  0.00     0.064 A 
ATOM     57  C   UNL A   1      40.326  34.772  36.471  1.00  0.00     0.173 A 
ATOM     58  C   UNL A   1      38.813  33.149  37.393  1.00  0.00     0.173 A 
ATOM     59  F   UNL A   1      41.204  35.165  35.537  1.00  0.00    -0.203 F 
ATOM     60  C   UNL A   1      40.082  35.613  37.554  1.00  0.00     0.198 A 
ATOM     61  C   UNL A   1      38.542  34.008  38.455  1.00  0.00     0.198 A 
ATOM     62  F   UNL A   1      38.194  31.959  37.355  1.00  0.00    -0.203 F 
ATOM     63  F   UNL A   1      40.732  36.781  37.652  1.00  0.00    -0.200 F 
ATOM     64  C   UNL A   1      39.185  35.233  38.541  1.00  0.00     0.200 A 
ATOM     65  F   UNL A   1      37.664  33.646  39.401  1.00  0.00    -0.200 F 
ATOM     66  F   UNL A   1      38.945  36.046  39.579  1.00  0.00    -0.200 F 
ENDBRANCH  42  56
BRANCH  43  67
ATOM     67  C   UNL A   1      41.286  27.716  28.365  1.00  0.00     0.064 A 
ATOM     68  C   UNL A   1      42.188  28.112  27.367  1.00  0.00     0.173 A 
ATOM     69  C   UNL A   1      40.621  26.493  28.193  1.00  0.00     0.173 A 
ATOM     70  F   UNL A   1      42.837  29.281  27.478  1.00  0.00    -0.203 F 
ATOM     71  C   UNL A   1      42.393  27.335  26.230  1.00  0.00     0.198 A 
ATOM     72  C   UNL A   1      40.851  25.700  27.070  1.00  0.00     0.198 A 
ATOM     73  F   UNL A   1      39.755  26.063  29.121  1.00  0.00    -0.203 F 
ATOM     74  F   UNL A   1      43.219  27.765  25.266  1.00  0.00    -0.200 F 
ATOM     75  C   UNL A   1      41.727  26.127  26.084  1.00  0.00     0.200 A 
ATOM     76  F   UNL A   1      40.219  24.526  26.941  1.00  0.00    -0.200 F 
ATOM     77  F   UNL A   1      41.924  25.379  24.990  1.00  0.00    -0.200 F 
ENDBRANCH  43  67
BRANCH  55  78
ATOM     78  C   UNL A   1      44.155  28.080  34.706  1.00  0.00     0.064 A 
ATOM     79  C   UNL A   1      45.506  28.454  34.682  1.00  0.00     0.173 A 
ATOM     80  C   UNL A   1      43.807  26.918  35.415  1.00  0.00     0.173 A 
ATOM     81  F   UNL A   1      45.892  29.549  34.011  1.00  0.00    -0.203 F 
ATOM     82  C   UNL A   1      46.475  27.672  35.307  1.00  0.00     0.198 A 
ATOM     83  C   UNL A   1      44.773  26.162  36.070  1.00  0.00     0.198 A 
ATOM     84  F   UNL A   1      42.527  26.523  35.480  1.00  0.00    -0.203 F 
ATOM     85  F   UNL A   1      47.767  28.014  35.216  1.00  0.00    -0.200 F 
ATOM     86  C   UNL A   1      46.107  26.532  36.005  1.00  0.00     0.200 A 
ATOM     87  F   UNL A   1      44.413  25.071  36.760  1.00  0.00    -0.200 F 
ATOM     88  F   UNL A   1      47.041  25.784  36.609  1.00  0.00    -0.200 F 
ENDBRANCH  55  78
ENDBRANCH  29  30
ENDBRANCH  21  24
ENDBRANCH  19  20
ENDBRANCH  18  19
ENDBRANCH   1  18
TORSDOF 15
ENDMDL
MODEL 3
REMARK VINA RESULT:     -10.9      1.197      2.207
REMARK SMILES CCCC[C@H](C(=O)NCCCCNC(=O)c1ccc(-c2c3nc(c(-c4c(F)c(F)c(F)c(F)c4F)c4ccc([nH]4)c(-c4c(F)c(F)c(F)c(F)c4F)c4nc(c(-c5c(F)c(F)c(F)c(F)c5F)c5ccc2[nH]5)C=C4)C=C3)cc1)c1ccccn1
REMARK SMILES IDX 10 1 9 2 8 3 6 4 7 5 5 7 4 8 3 9 2 10 1 11 79 12 80 13 84 14
REMARK SMILES IDX 81 15 83 16 82 17 11 18 12 19 13 20 14 21 15 23 16 24 17 25
REMARK SMILES IDX 78 26 18 27 77 28 19 29 20 30 21 31 71 32 22 33 76 34 70 35
REMARK SMILES IDX 72 36 23 37 75 38 69 39 68 40 24 42 56 43 36 44 55 45 37 46
REMARK SMILES IDX 40 47 54 48 73 49 38 50 39 51 53 53 74 54 41 55 25 56 26 57
REMARK SMILES IDX 34 58 27 59 28 60 32 61 35 62 29 63 30 64 33 65 31 66 57 67
REMARK SMILES IDX 58 68 66 69 59 70 60 71 64 72 67 73 61 74 62 75 65 76 63 77
REMARK SMILES IDX 42 78 43 79 51 80 44 81 45 82 49 83 52 84 46 85 47 86 50 87
REMARK SMILES IDX 48 88
REMARK H PARENT 8 6 13 22 72 41 40 52
REMARK Flexibility Score: inf
ROOT
ATOM      1  C   UNL A   1      31.684  30.609  26.903  1.00  0.00     0.023 C 
ENDROOT
BRANCH   1   2
ATOM      2  C   UNL A   1      32.362  29.854  25.753  1.00  0.00     0.116 C 
BRANCH   2   3
ATOM      3  N   UNL A   1      31.772  28.539  25.611  1.00  0.00    -0.356 N 
ATOM      4  C   UNL A   1      30.969  28.069  24.611  1.00  0.00     0.229 C 
ATOM      5  O   UNL A   1      30.251  27.113  24.930  1.00  0.00    -0.274 OA
ATOM      6  H   UNL A   1      31.977  27.901  26.331  1.00  0.00     0.163 HD
BRANCH   4   7
ATOM      7  C   UNL A   1      31.029  28.612  23.153  1.00  0.00     0.127 C 
BRANCH   7   8
ATOM      8  C   UNL A   1      31.177  27.334  22.258  1.00  0.00     0.020 C 
BRANCH   8   9
ATOM      9  C   UNL A   1      32.453  26.494  22.175  1.00  0.00     0.001 C 
BRANCH   9  10
ATOM     10  C   UNL A   1      32.303  24.987  22.309  1.00  0.00    -0.003 C 
ATOM     11  C   UNL A   1      31.000  24.604  22.986  1.00  0.00     0.004 C 
ENDBRANCH   9  10
ENDBRANCH   8   9
ENDBRANCH   7   8
BRANCH   7  12
ATOM     12  C   UNL A   1      29.953  29.662  22.885  1.00  0.00     0.053 A 
ATOM     13  C   UNL A   1      29.384  30.511  23.824  1.00  0.00     0.024 A 
ATOM     14  N   UNL A   1      29.446  29.656  21.626  1.00  0.00    -0.260 NA
ATOM     15  C   UNL A   1      28.307  31.335  23.471  1.00  0.00     0.003 A 
ATOM     16  C   UNL A   1      28.463  30.516  21.276  1.00  0.00     0.111 A 
ATOM     17  C   UNL A   1      27.849  31.360  22.166  1.00  0.00     0.020 A 
ENDBRANCH   7  12
ENDBRANCH   4   7
ENDBRANCH   2   3
ENDBRANCH   1   2
BRANCH   1  18
ATOM     18  C   UNL A   1      31.473  32.098  26.675  1.00  0.00     0.023 C 
BRANCH  18  19
ATOM     19  C   UNL A   1      32.711  32.945  26.884  1.00  0.00     0.116 C 
BRANCH  19  20
ATOM     20  N   UNL A   1      32.444  34.186  27.597  1.00  0.00    -0.352 N 
ATOM     21  C   UNL A   1      33.060  34.695  28.715  1.00  0.00     0.251 C 
ATOM     22  H   UNL A   1      31.719  34.739  27.226  1.00  0.00     0.163 HD
ATOM     23  O   UNL A   1      32.621  35.690  29.270  1.00  0.00    -0.269 OA
BRANCH  21  24
ATOM     24  C   UNL A   1      34.250  34.003  29.255  1.00  0.00     0.039 A 
ATOM     25  C   UNL A   1      35.520  34.480  28.929  1.00  0.00     0.014 A 
ATOM     26  C   UNL A   1      34.108  32.901  30.100  1.00  0.00     0.014 A 
ATOM     27  C   UNL A   1      36.645  33.871  29.487  1.00  0.00     0.010 A 
ATOM     28  C   UNL A   1      35.214  32.385  30.756  1.00  0.00     0.010 A 
ATOM     29  C   UNL A   1      36.498  32.833  30.421  1.00  0.00    -0.014 A 
BRANCH  29  30
ATOM     30  C   UNL A   1      37.674  32.137  30.996  1.00  0.00     0.031 A 
ATOM     31  C   UNL A   1      38.135  32.492  32.386  1.00  0.00     0.074 A 
ATOM     32  C   UNL A   1      38.346  31.229  30.264  1.00  0.00     0.049 A 
ATOM     33  N   UNL A   1      39.159  32.038  33.061  1.00  0.00    -0.248 NA
ATOM     34  C   UNL A   1      37.364  33.526  33.097  1.00  0.00     0.031 C 
ATOM     35  C   UNL A   1      38.030  30.848  28.886  1.00  0.00     0.029 A 
ATOM     36  N   UNL A   1      39.438  30.461  30.579  1.00  0.00    -0.354 N 
ATOM     37  C   UNL A   1      39.162  32.745  34.258  1.00  0.00     0.074 A 
ATOM     38  C   UNL A   1      38.094  33.712  34.185  1.00  0.00     0.031 C 
ATOM     39  C   UNL A   1      38.884  29.890  28.488  1.00  0.00     0.029 A 
ATOM     40  C   UNL A   1      39.827  29.616  29.569  1.00  0.00     0.049 A 
ATOM     41  H   UNL A   1      39.898  30.511  31.448  1.00  0.00     0.167 HD
ATOM     42  C   UNL A   1      39.957  32.574  35.339  1.00  0.00     0.037 A 
ATOM     43  C   UNL A   1      40.829  28.718  29.529  1.00  0.00     0.037 A 
ATOM     44  C   UNL A   1      40.994  31.581  35.420  1.00  0.00     0.049 A 
ATOM     45  C   UNL A   1      41.690  28.535  30.751  1.00  0.00     0.074 A 
ATOM     46  C   UNL A   1      41.825  31.284  36.483  1.00  0.00     0.029 A 
ATOM     47  N   UNL A   1      41.337  30.720  34.387  1.00  0.00    -0.354 N 
ATOM     48  N   UNL A   1      41.638  29.157  31.904  1.00  0.00    -0.248 NA
ATOM     49  C   UNL A   1      42.739  27.511  30.669  1.00  0.00     0.031 C 
ATOM     50  C   UNL A   1      42.706  30.276  36.077  1.00  0.00     0.029 A 
ATOM     51  C   UNL A   1      42.379  29.900  34.785  1.00  0.00     0.049 A 
ATOM     52  H   UNL A   1      40.904  30.696  33.503  1.00  0.00     0.167 HD
ATOM     53  C   UNL A   1      42.616  28.572  32.699  1.00  0.00     0.074 A 
ATOM     54  C   UNL A   1      43.236  27.538  31.897  1.00  0.00     0.031 C 
ATOM     55  C   UNL A   1      42.967  28.862  33.976  1.00  0.00     0.037 A 
BRANCH  42  56
ATOM     56  C   UNL A   1      39.725  33.473  36.520  1.00  0.00     0.064 A 
ATOM     57  C   UNL A   1      38.861  33.110  37.568  1.00  0.00     0.173 A 
ATOM     58  C   UNL A   1      40.382  34.707  36.617  1.00  0.00     0.173 A 
ATOM     59  F   UNL A   1      38.193  31.947  37.520  1.00  0.00    -0.203 F 
ATOM     60  C   UNL A   1      38.639  33.964  38.645  1.00  0.00     0.198 A 
ATOM     61  C   UNL A   1      40.187  35.543  37.714  1.00  0.00     0.198 A 
ATOM     62  F   UNL A   1      41.220  35.106  35.647  1.00  0.00    -0.203 F 
ATOM     63  F   UNL A   1      37.761  33.622  39.599  1.00  0.00    -0.200 F 
ATOM     64  C   UNL A   1      39.307  35.176  38.721  1.00  0.00     0.200 A 
ATOM     65  F   UNL A   1      40.845  36.707  37.793  1.00  0.00    -0.200 F 
ATOM     66  F   UNL A   1      39.098  35.994  39.761  1.00  0.00    -0.200 F 
ENDBRANCH  42  56
BRANCH  43  67
ATOM     67  C   UNL A   1      41.042  27.892  28.311  1.00  0.00     0.064 A 
ATOM     68  C   UNL A   1      40.440  26.633  28.178  1.00  0.00     0.173 A 
ATOM     69  C   UNL A   1      41.864  28.333  27.263  1.00  0.00     0.173 A 
ATOM     70  F   UNL A   1      39.658  26.159  29.160  1.00  0.00    -0.203 F 
ATOM     71  C   UNL A   1      40.673  25.834  27.061  1.00  0.00     0.198 A 
ATOM     72  C   UNL A   1      42.072  27.547  26.131  1.00  0.00     0.198 A 
ATOM     73  F   UNL A   1      42.459  29.532  27.335  1.00  0.00    -0.203 F 
ATOM     74  F   UNL A   1      40.128  24.613  26.987  1.00  0.00    -0.200 F 
ATOM     75  C   UNL A   1      41.486  26.294  26.036  1.00  0.00     0.200 A 
ATOM     76  F   UNL A   1      42.844  28.002  25.135  1.00  0.00    -0.200 F 
ATOM     77  F   UNL A   1      41.710  25.526  24.961  1.00  0.00    -0.200 F 
ENDBRANCH  43  67
BRANCH  55  78
ATOM     78  C   UNL A   1      44.027  28.005  34.608  1.00  0.00     0.064 A 
ATOM     79  C   UNL A   1      43.724  26.794  35.245  1.00  0.00     0.173 A 
ATOM     80  C   UNL A   1      45.375  28.395  34.546  1.00  0.00     0.173 A 
ATOM     81  F   UNL A   1      42.451  26.381  35.339  1.00  0.00    -0.203 F 
ATOM     82  C   UNL A   1      44.725  26.024  35.833  1.00  0.00     0.198 A 
ATOM     83  C   UNL A   1      46.377  27.605  35.101  1.00  0.00     0.198 A 
ATOM     84  F   UNL A   1      45.722  29.540  33.938  1.00  0.00    -0.203 F 
ATOM     85  F   UNL A   1      44.404  24.903  36.492  1.00  0.00    -0.200 F 
ATOM     86  C   UNL A   1      46.050  26.427  35.754  1.00  0.00     0.200 A 
ATOM     87  F   UNL A   1      47.657  27.986  35.007  1.00  0.00    -0.200 F 
ATOM     88  F   UNL A   1      47.012  25.683  36.318  1.00  0.00    -0.200 F 
ENDBRANCH  55  78
ENDBRANCH  29  30
ENDBRANCH  21  24
ENDBRANCH  19  20
ENDBRANCH  18  19
ENDBRANCH   1  18
TORSDOF 15
ENDMDL
