MODEL 1
REMARK VINA RESULT:     -12.8      0.000      0.000
REMARK SMILES CC1(C)C(C(=O)N2CCOC[C@H]2C(=O)NCCCCNC(=O)c2ccc(-c3c4nc(c(-c5c(F)c(F)c(F)c(F)c5F)c5ccc([nH]5)c(-c5c(F)c(F)c(F)c(F)c5F)c5nc(c(-c6c(F)c(F)c(F)c(F)c6F)c6ccc3[nH]6)C=C5)C=C4)cc2)C1(C)C
REMARK SMILES IDX 17 1 16 2 15 3 13 4 14 5 12 7 7 8 8 9 9 10 11 11 10 12 5 13
REMARK SMILES IDX 6 14 4 15 1 16 2 17 3 18 86 19 87 20 88 21 18 22 19 23 20 24
REMARK SMILES IDX 21 25 22 27 23 28 24 29 85 30 25 31 84 32 26 33 27 34 28 35
REMARK SMILES IDX 78 36 29 37 83 38 77 39 79 40 30 41 82 42 76 43 75 44 31 46
REMARK SMILES IDX 63 47 43 48 62 49 44 50 47 51 61 52 80 53 45 54 46 55 60 57
REMARK SMILES IDX 81 58 48 59 32 60 33 61 41 62 34 63 35 64 39 65 42 66 36 67
REMARK SMILES IDX 37 68 40 69 38 70 64 71 65 72 73 73 66 74 67 75 71 76 74 77
REMARK SMILES IDX 68 78 69 79 72 80 70 81 49 82 50 83 58 84 51 85 52 86 56 87
REMARK SMILES IDX 59 88 53 89 54 90 57 91 55 92
REMARK H PARENT 15 6 20 26 79 45 47 56
REMARK Flexibility Score: inf
ROOT
ATOM      1  C   UNL A   1      32.279  30.334  26.660  1.00  0.00     0.023 C 
ENDROOT
BRANCH   1   2
ATOM      2  C   UNL A   1      31.842  29.734  25.318  1.00  0.00     0.116 C 
BRANCH   2   3
ATOM      3  N   UNL A   1      32.954  29.569  24.400  1.00  0.00    -0.354 N 
ATOM      4  C   UNL A   1      33.219  28.770  23.333  1.00  0.00     0.245 C 
ATOM      5  O   UNL A   1      34.301  29.013  22.779  1.00  0.00    -0.273 OA
ATOM      6  H   UNL A   1      33.697  30.184  24.598  1.00  0.00     0.163 HD
BRANCH   4   7
ATOM      7  C   UNL A   1      32.331  27.609  22.802  1.00  0.00     0.200 C 
ATOM      8  N   UNL A   1      32.381  26.334  23.551  1.00  0.00    -0.326 N 
ATOM      9  C   UNL A   1      31.498  26.293  24.685  1.00  0.00     0.149 C 
ATOM     10  C   UNL A   1      30.062  26.656  24.288  1.00  0.00     0.181 C 
ATOM     11  C   UNL A   1      30.880  27.976  22.468  1.00  0.00     0.195 C 
ATOM     12  O   UNL A   1      29.990  27.908  23.592  1.00  0.00    -0.377 OA
BRANCH   8  13
ATOM     13  C   UNL A   1      33.183  25.311  23.082  1.00  0.00     0.227 C 
ATOM     14  O   UNL A   1      33.874  25.475  22.077  1.00  0.00    -0.275 OA
BRANCH  13  15
ATOM     15  C   UNL A   1      33.271  23.941  23.690  1.00  0.00     0.091 C 
ATOM     16  C   UNL A   1      33.597  21.467  24.301  1.00  0.00     0.012 C 
ATOM     17  C   UNL A   1      34.254  22.829  24.059  1.00  0.00    -0.017 C 
ATOM     18  C   UNL A   1      35.636  22.601  23.497  1.00  0.00     0.012 C 
ATOM     19  C   UNL A   1      33.997  23.947  25.065  1.00  0.00    -0.017 C 
ATOM     20  C   UNL A   1      33.177  23.690  26.307  1.00  0.00     0.012 C 
ATOM     21  C   UNL A   1      35.044  25.014  25.326  1.00  0.00     0.012 C 
ENDBRANCH  13  15
ENDBRANCH   8  13
ENDBRANCH   4   7
ENDBRANCH   2   3
ENDBRANCH   1   2
BRANCH   1  22
ATOM     22  C   UNL A   1      31.817  31.762  26.903  1.00  0.00     0.023 C 
BRANCH  22  23
ATOM     23  C   UNL A   1      32.900  32.689  27.433  1.00  0.00     0.116 C 
BRANCH  23  24
ATOM     24  N   UNL A   1      32.455  34.051  27.701  1.00  0.00    -0.352 N 
ATOM     25  C   UNL A   1      33.004  34.951  28.594  1.00  0.00     0.251 C 
ATOM     26  H   UNL A   1      31.676  34.364  27.187  1.00  0.00     0.163 HD
ATOM     27  O   UNL A   1      32.511  36.051  28.773  1.00  0.00    -0.269 OA
BRANCH  25  28
ATOM     28  C   UNL A   1      34.180  34.513  29.375  1.00  0.00     0.039 A 
ATOM     29  C   UNL A   1      33.978  33.857  30.590  1.00  0.00     0.014 A 
ATOM     30  C   UNL A   1      35.459  34.620  28.823  1.00  0.00     0.014 A 
ATOM     31  C   UNL A   1      35.055  33.219  31.206  1.00  0.00     0.010 A 
ATOM     32  C   UNL A   1      36.503  33.899  29.384  1.00  0.00     0.010 A 
ATOM     33  C   UNL A   1      36.312  33.189  30.580  1.00  0.00    -0.014 A 
BRANCH  33  34
ATOM     34  C   UNL A   1      37.445  32.423  31.155  1.00  0.00     0.031 A 
ATOM     35  C   UNL A   1      37.948  32.752  32.531  1.00  0.00     0.074 A 
ATOM     36  C   UNL A   1      38.072  31.490  30.410  1.00  0.00     0.049 A 
ATOM     37  N   UNL A   1      38.958  32.243  33.189  1.00  0.00    -0.248 NA
ATOM     38  C   UNL A   1      37.246  33.828  33.247  1.00  0.00     0.031 C 
ATOM     39  C   UNL A   1      37.724  31.126  29.035  1.00  0.00     0.029 A 
ATOM     40  N   UNL A   1      39.138  30.678  30.708  1.00  0.00    -0.354 N 
ATOM     41  C   UNL A   1      39.025  32.953  34.380  1.00  0.00     0.074 A 
ATOM     42  C   UNL A   1      38.000  33.972  34.324  1.00  0.00     0.031 C 
ATOM     43  C   UNL A   1      38.530  30.134  28.627  1.00  0.00     0.029 A 
ATOM     44  C   UNL A   1      39.471  29.813  29.695  1.00  0.00     0.049 A 
ATOM     45  H   UNL A   1      39.618  30.712  31.567  1.00  0.00     0.167 HD
ATOM     46  C   UNL A   1      39.843  32.754  35.440  1.00  0.00     0.037 A 
ATOM     47  C   UNL A   1      40.423  28.862  29.643  1.00  0.00     0.037 A 
ATOM     48  C   UNL A   1      40.832  31.712  35.508  1.00  0.00     0.049 A 
ATOM     49  C   UNL A   1      41.311  28.646  30.837  1.00  0.00     0.074 A 
ATOM     50  C   UNL A   1      41.653  31.367  36.566  1.00  0.00     0.029 A 
ATOM     51  N   UNL A   1      41.132  30.845  34.466  1.00  0.00    -0.354 N 
ATOM     52  N   UNL A   1      41.309  29.265  31.992  1.00  0.00    -0.248 NA
ATOM     53  C   UNL A   1      42.331  27.594  30.720  1.00  0.00     0.031 C 
ATOM     54  C   UNL A   1      42.480  30.316  36.151  1.00  0.00     0.029 A 
ATOM     55  C   UNL A   1      42.144  29.979  34.850  1.00  0.00     0.049 A 
ATOM     56  H   UNL A   1      40.692  30.845  33.586  1.00  0.00     0.167 HD
ATOM     57  C   UNL A   1      42.305  28.662  32.749  1.00  0.00     0.074 A 
ATOM     58  C   UNL A   1      42.882  27.620  31.925  1.00  0.00     0.031 C 
ATOM     59  C   UNL A   1      42.703  28.945  34.015  1.00  0.00     0.037 A 
BRANCH  46  60
ATOM     60  C   UNL A   1      39.689  33.685  36.607  1.00  0.00     0.064 A 
ATOM     61  C   UNL A   1      38.881  33.359  37.708  1.00  0.00     0.173 A 
ATOM     62  C   UNL A   1      40.339  34.928  36.617  1.00  0.00     0.173 A 
ATOM     63  F   UNL A   1      38.224  32.190  37.741  1.00  0.00    -0.203 F 
ATOM     64  C   UNL A   1      38.692  34.262  38.751  1.00  0.00     0.198 A 
ATOM     65  C   UNL A   1      40.175  35.814  37.679  1.00  0.00     0.198 A 
ATOM     66  F   UNL A   1      41.126  35.288  35.592  1.00  0.00    -0.203 F 
ATOM     67  F   UNL A   1      37.857  33.958  39.755  1.00  0.00    -0.200 F 
ATOM     68  C   UNL A   1      39.341  35.486  38.737  1.00  0.00     0.200 A 
ATOM     69  F   UNL A   1      40.811  36.993  37.669  1.00  0.00    -0.200 F 
ATOM     70  F   UNL A   1      39.153  36.357  39.737  1.00  0.00    -0.200 F 
ENDBRANCH  46  60
BRANCH  47  71
ATOM     71  C   UNL A   1      40.539  27.998  28.441  1.00  0.00     0.064 A 
ATOM     72  C   UNL A   1      41.315  28.405  27.345  1.00  0.00     0.173 A 
ATOM     73  C   UNL A   1      39.901  26.753  28.362  1.00  0.00     0.173 A 
ATOM     74  F   UNL A   1      41.927  29.598  27.368  1.00  0.00    -0.203 F 
ATOM     75  C   UNL A   1      41.441  27.604  26.214  1.00  0.00     0.198 A 
ATOM     76  C   UNL A   1      40.046  25.942  27.238  1.00  0.00     0.198 A 
ATOM     77  F   UNL A   1      39.152  26.317  29.384  1.00  0.00    -0.203 F 
ATOM     78  F   UNL A   1      42.163  28.031  25.169  1.00  0.00    -0.200 F 
ATOM     79  C   UNL A   1      40.811  26.370  26.162  1.00  0.00     0.200 A 
ATOM     80  F   UNL A   1      39.446  24.744  27.196  1.00  0.00    -0.200 F 
ATOM     81  F   UNL A   1      40.939  25.594  25.077  1.00  0.00    -0.200 F 
ENDBRANCH  47  71
BRANCH  59  82
ATOM     82  C   UNL A   1      43.794  28.096  34.595  1.00  0.00     0.064 A 
ATOM     83  C   UNL A   1      45.140  28.490  34.539  1.00  0.00     0.173 A 
ATOM     84  C   UNL A   1      43.487  26.893  35.248  1.00  0.00     0.173 A 
ATOM     85  F   UNL A   1      45.486  29.623  33.911  1.00  0.00    -0.203 F 
ATOM     86  C   UNL A   1      46.139  27.697  35.096  1.00  0.00     0.198 A 
ATOM     87  C   UNL A   1      44.486  26.117  35.829  1.00  0.00     0.198 A 
ATOM     88  F   UNL A   1      42.215  26.476  35.334  1.00  0.00    -0.203 F 
ATOM     89  F   UNL A   1      47.422  28.070  34.992  1.00  0.00    -0.200 F 
ATOM     90  C   UNL A   1      45.811  26.516  35.746  1.00  0.00     0.200 A 
ATOM     91  F   UNL A   1      44.166  24.983  36.467  1.00  0.00    -0.200 F 
ATOM     92  F   UNL A   1      46.775  25.758  36.288  1.00  0.00    -0.200 F 
ENDBRANCH  59  82
ENDBRANCH  33  34
ENDBRANCH  25  28
ENDBRANCH  23  24
ENDBRANCH  22  23
ENDBRANCH   1  22
TORSDOF 13
ENDMDL
MODEL 2
REMARK VINA RESULT:     -12.7      0.090      1.603
REMARK SMILES CC1(C)C(C(=O)N2CCOC[C@H]2C(=O)NCCCCNC(=O)c2ccc(-c3c4nc(c(-c5c(F)c(F)c(F)c(F)c5F)c5ccc([nH]5)c(-c5c(F)c(F)c(F)c(F)c5F)c5nc(c(-c6c(F)c(F)c(F)c(F)c6F)c6ccc3[nH]6)C=C5)C=C4)cc2)C1(C)C
REMARK SMILES IDX 17 1 16 2 15 3 13 4 14 5 12 7 7 8 8 9 9 10 11 11 10 12 5 13
REMARK SMILES IDX 6 14 4 15 1 16 2 17 3 18 86 19 87 20 88 21 18 22 19 23 20 24
REMARK SMILES IDX 21 25 22 27 23 28 24 29 85 30 25 31 84 32 26 33 27 34 28 35
REMARK SMILES IDX 78 36 29 37 83 38 77 39 79 40 30 41 82 42 76 43 75 44 31 46
REMARK SMILES IDX 63 47 43 48 62 49 44 50 47 51 61 52 80 53 45 54 46 55 60 57
REMARK SMILES IDX 81 58 48 59 32 60 33 61 41 62 34 63 35 64 39 65 42 66 36 67
REMARK SMILES IDX 37 68 40 69 38 70 64 71 65 72 73 73 66 74 67 75 71 76 74 77
REMARK SMILES IDX 68 78 69 79 72 80 70 81 49 82 50 83 58 84 51 85 52 86 56 87
REMARK SMILES IDX 59 88 53 89 54 90 57 91 55 92
REMARK H PARENT 15 6 20 26 79 45 47 56
REMARK Flexibility Score: inf
ROOT
ATOM      1  C   UNL A   1      32.305  30.349  26.700  1.00  0.00     0.023 C 
ENDROOT
BRANCH   1   2
ATOM      2  C   UNL A   1      31.880  29.720  25.367  1.00  0.00     0.116 C 
BRANCH   2   3
ATOM      3  N   UNL A   1      32.990  29.588  24.441  1.00  0.00    -0.354 N 
ATOM      4  C   UNL A   1      33.250  28.832  23.343  1.00  0.00     0.245 C 
ATOM      5  O   UNL A   1      34.332  29.094  22.797  1.00  0.00    -0.273 OA
ATOM      6  H   UNL A   1      33.734  30.194  24.662  1.00  0.00     0.163 HD
BRANCH   4   7
ATOM      7  C   UNL A   1      32.359  27.695  22.769  1.00  0.00     0.200 C 
ATOM      8  N   UNL A   1      32.387  26.399  23.482  1.00  0.00    -0.326 N 
ATOM      9  C   UNL A   1      31.490  26.334  24.603  1.00  0.00     0.149 C 
ATOM     10  C   UNL A   1      30.063  26.722  24.199  1.00  0.00     0.181 C 
ATOM     11  C   UNL A   1      30.915  28.084  22.427  1.00  0.00     0.195 C 
ATOM     12  O   UNL A   1      30.011  27.993  23.538  1.00  0.00    -0.377 OA
BRANCH   8  13
ATOM     13  C   UNL A   1      33.186  25.382  22.994  1.00  0.00     0.227 C 
ATOM     14  O   UNL A   1      33.880  25.562  21.994  1.00  0.00    -0.275 OA
BRANCH  13  15
ATOM     15  C   UNL A   1      33.267  23.999  23.574  1.00  0.00     0.091 C 
ATOM     16  C   UNL A   1      33.590  21.514  24.140  1.00  0.00     0.012 C 
ATOM     17  C   UNL A   1      34.246  22.884  23.941  1.00  0.00    -0.017 C 
ATOM     18  C   UNL A   1      35.640  22.672  23.404  1.00  0.00     0.012 C 
ATOM     19  C   UNL A   1      33.963  23.978  24.965  1.00  0.00    -0.017 C 
ATOM     20  C   UNL A   1      33.118  23.692  26.183  1.00  0.00     0.012 C 
ATOM     21  C   UNL A   1      35.000  25.044  25.271  1.00  0.00     0.012 C 
ENDBRANCH  13  15
ENDBRANCH   8  13
ENDBRANCH   4   7
ENDBRANCH   2   3
ENDBRANCH   1   2
BRANCH   1  22
ATOM     22  C   UNL A   1      31.858  31.788  26.899  1.00  0.00     0.023 C 
BRANCH  22  23
ATOM     23  C   UNL A   1      32.925  32.701  27.483  1.00  0.00     0.116 C 
BRANCH  23  24
ATOM     24  N   UNL A   1      32.481  34.065  27.742  1.00  0.00    -0.352 N 
ATOM     25  C   UNL A   1      33.031  34.971  28.628  1.00  0.00     0.251 C 
ATOM     26  H   UNL A   1      31.703  34.375  27.226  1.00  0.00     0.163 HD
ATOM     27  O   UNL A   1      32.540  36.073  28.800  1.00  0.00    -0.269 OA
BRANCH  25  28
ATOM     28  C   UNL A   1      34.206  34.537  29.413  1.00  0.00     0.039 A 
ATOM     29  C   UNL A   1      34.004  33.886  30.631  1.00  0.00     0.014 A 
ATOM     30  C   UNL A   1      35.486  34.641  28.862  1.00  0.00     0.014 A 
ATOM     31  C   UNL A   1      35.080  33.251  31.251  1.00  0.00     0.010 A 
ATOM     32  C   UNL A   1      36.530  33.923  29.428  1.00  0.00     0.010 A 
ATOM     33  C   UNL A   1      36.338  33.219  30.627  1.00  0.00    -0.014 A 
BRANCH  33  34
ATOM     34  C   UNL A   1      37.470  32.456  31.206  1.00  0.00     0.031 A 
ATOM     35  C   UNL A   1      37.966  32.786  32.585  1.00  0.00     0.074 A 
ATOM     36  C   UNL A   1      38.103  31.525  30.464  1.00  0.00     0.049 A 
ATOM     37  N   UNL A   1      38.975  32.280  33.247  1.00  0.00    -0.248 NA
ATOM     38  C   UNL A   1      37.258  33.860  33.297  1.00  0.00     0.031 C 
ATOM     39  C   UNL A   1      37.762  31.160  29.088  1.00  0.00     0.029 A 
ATOM     40  N   UNL A   1      39.170  30.716  30.767  1.00  0.00    -0.354 N 
ATOM     41  C   UNL A   1      39.034  32.990  34.438  1.00  0.00     0.074 A 
ATOM     42  C   UNL A   1      38.007  34.006  34.378  1.00  0.00     0.031 C 
ATOM     43  C   UNL A   1      38.572  30.170  28.683  1.00  0.00     0.029 A 
ATOM     44  C   UNL A   1      39.510  29.852  29.755  1.00  0.00     0.049 A 
ATOM     45  H   UNL A   1      39.646  30.751  31.628  1.00  0.00     0.167 HD
ATOM     46  C   UNL A   1      39.849  32.793  35.502  1.00  0.00     0.037 A 
ATOM     47  C   UNL A   1      40.464  28.904  29.707  1.00  0.00     0.037 A 
ATOM     48  C   UNL A   1      40.841  31.753  35.574  1.00  0.00     0.049 A 
ATOM     49  C   UNL A   1      41.348  28.690  30.905  1.00  0.00     0.074 A 
ATOM     50  C   UNL A   1      41.658  31.411  36.635  1.00  0.00     0.029 A 
ATOM     51  N   UNL A   1      41.148  30.887  34.534  1.00  0.00    -0.354 N 
ATOM     52  N   UNL A   1      41.340  29.309  32.060  1.00  0.00    -0.248 NA
ATOM     53  C   UNL A   1      42.371  27.640  30.792  1.00  0.00     0.031 C 
ATOM     54  C   UNL A   1      42.489  30.363  36.224  1.00  0.00     0.029 A 
ATOM     55  C   UNL A   1      42.160  30.024  34.921  1.00  0.00     0.049 A 
ATOM     56  H   UNL A   1      40.711  30.887  33.651  1.00  0.00     0.167 HD
ATOM     57  C   UNL A   1      42.333  28.708  32.821  1.00  0.00     0.074 A 
ATOM     58  C   UNL A   1      42.917  27.668  32.000  1.00  0.00     0.031 C 
ATOM     59  C   UNL A   1      42.725  28.992  34.088  1.00  0.00     0.037 A 
BRANCH  46  60
ATOM     60  C   UNL A   1      39.687  33.724  36.668  1.00  0.00     0.064 A 
ATOM     61  C   UNL A   1      38.880  33.393  37.768  1.00  0.00     0.173 A 
ATOM     62  C   UNL A   1      40.330  34.971  36.678  1.00  0.00     0.173 A 
ATOM     63  F   UNL A   1      38.231  32.219  37.801  1.00  0.00    -0.203 F 
ATOM     64  C   UNL A   1      38.683  34.295  38.811  1.00  0.00     0.198 A 
ATOM     65  C   UNL A   1      40.158  35.856  37.739  1.00  0.00     0.198 A 
ATOM     66  F   UNL A   1      41.115  35.336  35.654  1.00  0.00    -0.203 F 
ATOM     67  F   UNL A   1      37.850  33.985  39.814  1.00  0.00    -0.200 F 
ATOM     68  C   UNL A   1      39.325  35.523  38.797  1.00  0.00     0.200 A 
ATOM     69  F   UNL A   1      40.786  37.039  37.730  1.00  0.00    -0.200 F 
ATOM     70  F   UNL A   1      39.130  36.394  39.797  1.00  0.00    -0.200 F 
ENDBRANCH  46  60
BRANCH  47  71
ATOM     71  C   UNL A   1      40.588  28.040  28.505  1.00  0.00     0.064 A 
ATOM     72  C   UNL A   1      39.918  26.809  28.443  1.00  0.00     0.173 A 
ATOM     73  C   UNL A   1      41.352  28.424  27.395  1.00  0.00     0.173 A 
ATOM     74  F   UNL A   1      39.190  26.392  29.489  1.00  0.00    -0.203 F 
ATOM     75  C   UNL A   1      40.015  25.991  27.320  1.00  0.00     0.198 A 
ATOM     76  C   UNL A   1      41.432  27.614  26.263  1.00  0.00     0.198 A 
ATOM     77  F   UNL A   1      42.008  29.593  27.403  1.00  0.00    -0.203 F 
ATOM     78  F   UNL A   1      39.389  24.807  27.300  1.00  0.00    -0.200 F 
ATOM     79  C   UNL A   1      40.768  26.396  26.228  1.00  0.00     0.200 A 
ATOM     80  F   UNL A   1      42.150  28.014  25.205  1.00  0.00    -0.200 F 
ATOM     81  F   UNL A   1      40.855  25.613  25.145  1.00  0.00    -0.200 F 
ENDBRANCH  47  71
BRANCH  59  82
ATOM     82  C   UNL A   1      43.816  28.146  34.674  1.00  0.00     0.064 A 
ATOM     83  C   UNL A   1      43.545  26.905  35.267  1.00  0.00     0.173 A 
ATOM     84  C   UNL A   1      45.154  28.566  34.606  1.00  0.00     0.173 A 
ATOM     85  F   UNL A   1      42.282  26.468  35.371  1.00  0.00    -0.203 F 
ATOM     86  C   UNL A   1      44.572  26.125  35.792  1.00  0.00     0.198 A 
ATOM     87  C   UNL A   1      46.180  27.771  35.107  1.00  0.00     0.198 A 
ATOM     88  F   UNL A   1      45.466  29.743  34.043  1.00  0.00    -0.203 F 
ATOM     89  F   UNL A   1      44.286  24.962  36.395  1.00  0.00    -0.200 F 
ATOM     90  C   UNL A   1      45.888  26.555  35.705  1.00  0.00     0.200 A 
ATOM     91  F   UNL A   1      47.452  28.181  35.011  1.00  0.00    -0.200 F 
ATOM     92  F   UNL A   1      46.876  25.798  36.206  1.00  0.00    -0.200 F 
ENDBRANCH  59  82
ENDBRANCH  33  34
ENDBRANCH  25  28
ENDBRANCH  23  24
ENDBRANCH  22  23
ENDBRANCH   1  22
TORSDOF 13
ENDMDL
MODEL 3
REMARK VINA RESULT:     -12.7      5.328     10.600
REMARK SMILES CC1(C)C(C(=O)N2CCOC[C@H]2C(=O)NCCCCNC(=O)c2ccc(-c3c4nc(c(-c5c(F)c(F)c(F)c(F)c5F)c5ccc([nH]5)c(-c5c(F)c(F)c(F)c(F)c5F)c5nc(c(-c6c(F)c(F)c(F)c(F)c6F)c6ccc3[nH]6)C=C5)C=C4)cc2)C1(C)C
REMARK SMILES IDX 17 1 16 2 15 3 13 4 14 5 12 7 7 8 8 9 9 10 11 11 10 12 5 13
REMARK SMILES IDX 6 14 4 15 1 16 2 17 3 18 86 19 87 20 88 21 18 22 19 23 20 24
REMARK SMILES IDX 21 25 22 27 23 28 24 29 85 30 25 31 84 32 26 33 27 34 28 35
REMARK SMILES IDX 78 36 29 37 83 38 77 39 79 40 30 41 82 42 76 43 75 44 31 46
REMARK SMILES IDX 63 47 43 48 62 49 44 50 47 51 61 52 80 53 45 54 46 55 60 57
REMARK SMILES IDX 81 58 48 59 32 60 33 61 41 62 34 63 35 64 39 65 42 66 36 67
REMARK SMILES IDX 37 68 40 69 38 70 64 71 65 72 73 73 66 74 67 75 71 76 74 77
REMARK SMILES IDX 68 78 69 79 72 80 70 81 49 82 50 83 58 84 51 85 52 86 56 87
REMARK SMILES IDX 59 88 53 89 54 90 57 91 55 92
REMARK H PARENT 15 6 20 26 79 45 47 56
REMARK Flexibility Score: inf
ROOT
ATOM      1  C   UNL A   1      38.954  22.769  26.251  1.00  0.00     0.023 C 
ENDROOT
BRANCH   1   2
ATOM      2  C   UNL A   1      37.669  23.451  25.765  1.00  0.00     0.116 C 
BRANCH   2   3
ATOM      3  N   UNL A   1      37.386  23.163  24.371  1.00  0.00    -0.354 N 
ATOM      4  C   UNL A   1      36.294  23.249  23.566  1.00  0.00     0.245 C 
ATOM      5  O   UNL A   1      36.517  22.953  22.383  1.00  0.00    -0.273 OA
ATOM      6  H   UNL A   1      38.176  22.824  23.891  1.00  0.00     0.163 HD
BRANCH   4   7
ATOM      7  C   UNL A   1      34.852  23.635  24.000  1.00  0.00     0.200 C 
ATOM      8  N   UNL A   1      33.935  24.098  22.935  1.00  0.00    -0.326 N 
ATOM      9  C   UNL A   1      33.279  23.031  22.231  1.00  0.00     0.149 C 
ATOM     10  C   UNL A   1      32.576  22.072  23.200  1.00  0.00     0.181 C 
ATOM     11  C   UNL A   1      34.140  22.635  24.920  1.00  0.00     0.195 C 
ATOM     12  O   UNL A   1      33.459  21.584  24.219  1.00  0.00    -0.377 OA
BRANCH   8  13
ATOM     13  C   UNL A   1      33.743  25.455  22.759  1.00  0.00     0.227 C 
ATOM     14  O   UNL A   1      33.653  25.928  21.627  1.00  0.00    -0.275 OA
BRANCH  13  15
ATOM     15  C   UNL A   1      33.665  26.463  23.870  1.00  0.00     0.091 C 
ATOM     16  C   UNL A   1      33.653  28.505  25.430  1.00  0.00     0.012 C 
ATOM     17  C   UNL A   1      32.934  27.728  24.322  1.00  0.00    -0.017 C 
ATOM     18  C   UNL A   1      32.180  28.710  23.461  1.00  0.00     0.012 C 
ATOM     19  C   UNL A   1      32.331  26.369  24.664  1.00  0.00    -0.017 C 
ATOM     20  C   UNL A   1      32.377  25.841  26.078  1.00  0.00     0.012 C 
ATOM     21  C   UNL A   1      31.094  25.863  23.945  1.00  0.00     0.012 C 
ENDBRANCH  13  15
ENDBRANCH   8  13
ENDBRANCH   4   7
ENDBRANCH   2   3
ENDBRANCH   1   2
BRANCH   1  22
ATOM     22  C   UNL A   1      39.215  21.396  25.653  1.00  0.00     0.023 C 
BRANCH  22  23
ATOM     23  C   UNL A   1      39.654  20.346  26.661  1.00  0.00     0.116 C 
BRANCH  23  24
ATOM     24  N   UNL A   1      40.549  19.327  26.126  1.00  0.00    -0.352 N 
ATOM     25  C   UNL A   1      41.915  19.423  25.944  1.00  0.00     0.251 C 
ATOM     26  H   UNL A   1      40.132  18.474  25.865  1.00  0.00     0.163 HD
ATOM     27  O   UNL A   1      42.556  18.520  25.436  1.00  0.00    -0.269 OA
BRANCH  25  28
ATOM     28  C   UNL A   1      42.571  20.689  26.334  1.00  0.00     0.039 A 
ATOM     29  C   UNL A   1      42.986  21.572  25.335  1.00  0.00     0.014 A 
ATOM     30  C   UNL A   1      42.629  21.056  27.681  1.00  0.00     0.014 A 
ATOM     31  C   UNL A   1      43.369  22.866  25.686  1.00  0.00     0.010 A 
ATOM     32  C   UNL A   1      42.912  22.372  28.015  1.00  0.00     0.010 A 
ATOM     33  C   UNL A   1      43.282  23.292  27.022  1.00  0.00    -0.014 A 
BRANCH  33  34
ATOM     34  C   UNL A   1      43.573  24.695  27.407  1.00  0.00     0.031 A 
ATOM     35  C   UNL A   1      44.994  25.179  27.449  1.00  0.00     0.074 A 
ATOM     36  C   UNL A   1      42.570  25.506  27.798  1.00  0.00     0.049 A 
ATOM     37  N   UNL A   1      45.463  26.345  27.814  1.00  0.00    -0.248 NA
ATOM     38  C   UNL A   1      46.030  24.207  27.069  1.00  0.00     0.031 C 
ATOM     39  C   UNL A   1      41.156  25.135  27.869  1.00  0.00     0.029 A 
ATOM     40  N   UNL A   1      42.590  26.815  28.213  1.00  0.00    -0.354 N 
ATOM     41  C   UNL A   1      46.844  26.235  27.729  1.00  0.00     0.074 A 
ATOM     42  C   UNL A   1      47.139  24.872  27.347  1.00  0.00     0.031 C 
ATOM     43  C   UNL A   1      40.440  26.203  28.256  1.00  0.00     0.029 A 
ATOM     44  C   UNL A   1      41.346  27.323  28.492  1.00  0.00     0.049 A 
ATOM     45  H   UNL A   1      43.419  27.339  28.301  1.00  0.00     0.167 HD
ATOM     46  C   UNL A   1      47.783  27.192  27.920  1.00  0.00     0.037 A 
ATOM     47  C   UNL A   1      40.980  28.558  28.883  1.00  0.00     0.037 A 
ATOM     48  C   UNL A   1      47.483  28.557  28.258  1.00  0.00     0.049 A 
ATOM     49  C   UNL A   1      42.036  29.611  29.074  1.00  0.00     0.074 A 
ATOM     50  C   UNL A   1      48.350  29.626  28.389  1.00  0.00     0.029 A 
ATOM     51  N   UNL A   1      46.208  29.039  28.520  1.00  0.00    -0.354 N 
ATOM     52  N   UNL A   1      43.333  29.522  28.908  1.00  0.00    -0.248 NA
ATOM     53  C   UNL A   1      41.575  30.940  29.502  1.00  0.00     0.031 C 
ATOM     54  C   UNL A   1      47.605  30.748  28.770  1.00  0.00     0.029 A 
ATOM     55  C   UNL A   1      46.268  30.388  28.834  1.00  0.00     0.049 A 
ATOM     56  H   UNL A   1      45.383  28.503  28.487  1.00  0.00     0.167 HD
ATOM     57  C   UNL A   1      43.841  30.784  29.183  1.00  0.00     0.074 A 
ATOM     58  C   UNL A   1      42.710  31.625  29.516  1.00  0.00     0.031 C 
ATOM     59  C   UNL A   1      45.129  31.209  29.160  1.00  0.00     0.037 A 
BRANCH  46  60
ATOM     60  C   UNL A   1      49.218  26.783  27.759  1.00  0.00     0.064 A 
ATOM     61  C   UNL A   1      50.026  26.479  28.866  1.00  0.00     0.173 A 
ATOM     62  C   UNL A   1      49.800  26.713  26.484  1.00  0.00     0.173 A 
ATOM     63  F   UNL A   1      49.524  26.546  30.108  1.00  0.00    -0.203 F 
ATOM     64  C   UNL A   1      51.374  26.168  28.707  1.00  0.00     0.198 A 
ATOM     65  C   UNL A   1      51.140  26.368  26.327  1.00  0.00     0.198 A 
ATOM     66  F   UNL A   1      49.072  26.989  25.392  1.00  0.00    -0.203 F 
ATOM     67  F   UNL A   1      52.143  25.954  29.784  1.00  0.00    -0.200 F 
ATOM     68  C   UNL A   1      51.929  26.109  27.438  1.00  0.00     0.200 A 
ATOM     69  F   UNL A   1      51.673  26.302  25.099  1.00  0.00    -0.200 F 
ATOM     70  F   UNL A   1      53.228  25.818  27.285  1.00  0.00    -0.200 F 
ENDBRANCH  46  60
BRANCH  47  71
ATOM     71  C   UNL A   1      39.541  28.883  29.055  1.00  0.00     0.064 A 
ATOM     72  C   UNL A   1      38.934  28.781  30.316  1.00  0.00     0.173 A 
ATOM     73  C   UNL A   1      38.748  29.315  27.983  1.00  0.00     0.173 A 
ATOM     74  F   UNL A   1      39.649  28.353  31.367  1.00  0.00    -0.203 F 
ATOM     75  C   UNL A   1      37.589  29.089  30.496  1.00  0.00     0.198 A 
ATOM     76  C   UNL A   1      37.406  29.644  28.168  1.00  0.00     0.198 A 
ATOM     77  F   UNL A   1      39.281  29.433  26.759  1.00  0.00    -0.203 F 
ATOM     78  F   UNL A   1      37.028  28.953  31.705  1.00  0.00    -0.200 F 
ATOM     79  C   UNL A   1      36.826  29.526  29.423  1.00  0.00     0.200 A 
ATOM     80  F   UNL A   1      36.675  30.078  27.132  1.00  0.00    -0.200 F 
ATOM     81  F   UNL A   1      35.534  29.831  29.598  1.00  0.00    -0.200 F 
ENDBRANCH  47  71
BRANCH  59  82
ATOM     82  C   UNL A   1      45.380  32.653  29.474  1.00  0.00     0.064 A 
ATOM     83  C   UNL A   1      45.332  33.640  28.478  1.00  0.00     0.173 A 
ATOM     84  C   UNL A   1      45.634  33.060  30.793  1.00  0.00     0.173 A 
ATOM     85  F   UNL A   1      45.109  33.300  27.201  1.00  0.00    -0.203 F 
ATOM     86  C   UNL A   1      45.552  34.979  28.789  1.00  0.00     0.198 A 
ATOM     87  C   UNL A   1      45.826  34.403  31.104  1.00  0.00     0.198 A 
ATOM     88  F   UNL A   1      45.685  32.154  31.781  1.00  0.00    -0.203 F 
ATOM     89  F   UNL A   1      45.545  35.901  27.816  1.00  0.00    -0.200 F 
ATOM     90  C   UNL A   1      45.791  35.360  30.102  1.00  0.00     0.200 A 
ATOM     91  F   UNL A   1      46.045  34.770  32.374  1.00  0.00    -0.200 F 
ATOM     92  F   UNL A   1      45.997  36.651  30.400  1.00  0.00    -0.200 F 
ENDBRANCH  59  82
ENDBRANCH  33  34
ENDBRANCH  25  28
ENDBRANCH  23  24
ENDBRANCH  22  23
ENDBRANCH   1  22
TORSDOF 13
ENDMDL
