MODEL 1
REMARK VINA RESULT:     -12.0      0.000      0.000
REMARK SMILES O=C(CSc1nc2cnccc2n1CCC(F)(F)F)NCCCCNC(=O)c1ccc(-c2c3nc(c(-c4c(F)c(F)c(F)c(F)c4F)c4ccc([nH]4)c(-c4c(F)c(F)c(F)c(F)c4F)c4nc(c(-c5c(F)c(F)c(F)c(F)c5F)c5ccc2[nH]5)C=C4)C=C3)cc1
REMARK SMILES IDX 21 1 20 2 1 3 2 4 3 6 4 7 5 8 6 9 13 10 7 11 12 12 8 13
REMARK SMILES IDX 11 14 9 15 10 16 14 17 15 18 16 19 17 20 18 21 19 22 22 23
REMARK SMILES IDX 23 24 24 25 25 26 26 27 27 29 28 30 29 31 90 32 30 33 89 34
REMARK SMILES IDX 31 35 32 36 33 37 83 38 34 39 88 40 82 41 84 42 35 43 87 44
REMARK SMILES IDX 81 45 80 46 36 48 68 49 48 50 67 51 49 52 52 53 66 54 85 55
REMARK SMILES IDX 50 56 51 57 65 59 86 60 53 61 37 62 38 63 46 64 39 65 40 66
REMARK SMILES IDX 44 67 47 68 41 69 42 70 45 71 43 72 69 73 70 74 78 75 71 76
REMARK SMILES IDX 72 77 76 78 79 79 73 80 74 81 77 82 75 83 54 84 55 85 63 86
REMARK SMILES IDX 56 87 57 88 61 89 64 90 58 91 59 92 62 93 60 94
REMARK H PARENT 20 5 25 28 84 47 52 58
REMARK Flexibility Score: inf
ROOT
ATOM      1  C   UNL A   1      40.060  22.117  26.866  1.00  0.00     0.116 C 
ENDROOT
BRANCH   1   2
ATOM      2  N   UNL A   1      39.010  21.588  26.027  1.00  0.00    -0.355 N 
ATOM      3  O   UNL A   1      37.713  23.491  25.971  1.00  0.00    -0.274 OA
ATOM      4  C   UNL A   1      37.919  22.322  25.632  1.00  0.00     0.230 C 
ATOM      5  H   UNL A   1      39.081  20.654  25.723  1.00  0.00     0.163 HD
BRANCH   4   6
ATOM      6  C   UNL A   1      36.905  21.544  24.831  1.00  0.00     0.178 C 
BRANCH   6   7
ATOM      7  S   UNL A   1      35.857  22.604  23.815  1.00  0.00    -0.078 SA
BRANCH   7   8
ATOM      8  C   UNL A   1      34.386  22.774  24.712  1.00  0.00     0.169 A 
ATOM      9  N   UNL A   1      34.138  23.857  25.412  1.00  0.00    -0.221 NA
ATOM     10  N   UNL A   1      33.292  21.937  24.656  1.00  0.00    -0.318 N 
ATOM     11  C   UNL A   1      32.854  23.717  25.875  1.00  0.00     0.108 A 
ATOM     12  C   UNL A   1      32.302  22.514  25.440  1.00  0.00     0.072 A 
ATOM     13  C   UNL A   1      32.085  24.567  26.676  1.00  0.00     0.141 A 
ATOM     14  C   UNL A   1      31.014  22.122  25.815  1.00  0.00     0.049 A 
ATOM     15  N   UNL A   1      30.826  24.210  27.048  1.00  0.00    -0.262 NA
ATOM     16  C   UNL A   1      30.337  23.022  26.629  1.00  0.00     0.113 A 
BRANCH  10  17
ATOM     17  C   UNL A   1      33.166  20.633  24.036  1.00  0.00     0.134 C 
BRANCH  17  18
ATOM     18  C   UNL A   1      33.822  19.450  24.740  1.00  0.00     0.137 C 
BRANCH  18  19
ATOM     19  C   UNL A   1      33.622  18.125  24.045  1.00  0.00     0.390 C 
ATOM     20  F   UNL A   1      34.803  17.513  23.812  1.00  0.00    -0.171 F 
ATOM     21  F   UNL A   1      32.888  17.296  24.820  1.00  0.00    -0.171 F 
ATOM     22  F   UNL A   1      32.966  18.268  22.880  1.00  0.00    -0.171 F 
ENDBRANCH  18  19
ENDBRANCH  17  18
ENDBRANCH  10  17
ENDBRANCH   7   8
ENDBRANCH   6   7
ENDBRANCH   4   6
ENDBRANCH   1   2
BRANCH   1  23
ATOM     23  C   UNL A   1      41.100  21.052  27.206  1.00  0.00     0.023 C 
BRANCH  23  24
ATOM     24  C   UNL A   1      41.297  19.962  26.142  1.00  0.00     0.023 C 
BRANCH  24  25
ATOM     25  C   UNL A   1      42.643  19.238  26.194  1.00  0.00     0.116 C 
BRANCH  25  26
ATOM     26  N   UNL A   1      43.459  19.433  25.015  1.00  0.00    -0.352 N 
ATOM     27  C   UNL A   1      44.272  20.428  24.557  1.00  0.00     0.251 C 
ATOM     28  H   UNL A   1      43.416  18.667  24.397  1.00  0.00     0.163 HD
ATOM     29  O   UNL A   1      44.939  20.163  23.553  1.00  0.00    -0.269 OA
BRANCH  27  30
ATOM     30  C   UNL A   1      44.355  21.802  25.121  1.00  0.00     0.039 A 
ATOM     31  C   UNL A   1      45.207  22.213  26.146  1.00  0.00     0.014 A 
ATOM     32  C   UNL A   1      43.410  22.720  24.621  1.00  0.00     0.014 A 
ATOM     33  C   UNL A   1      45.031  23.456  26.746  1.00  0.00     0.010 A 
ATOM     34  C   UNL A   1      43.242  23.968  25.203  1.00  0.00     0.010 A 
ATOM     35  C   UNL A   1      44.009  24.303  26.313  1.00  0.00    -0.014 A 
BRANCH  35  36
ATOM     36  C   UNL A   1      43.793  25.544  27.045  1.00  0.00     0.031 A 
ATOM     37  C   UNL A   1      44.777  26.631  26.777  1.00  0.00     0.074 A 
ATOM     38  C   UNL A   1      42.737  25.730  27.861  1.00  0.00     0.049 A 
ATOM     39  N   UNL A   1      45.563  27.219  27.621  1.00  0.00    -0.248 NA
ATOM     40  C   UNL A   1      44.973  27.053  25.383  1.00  0.00     0.031 C 
ATOM     41  C   UNL A   1      41.568  24.870  28.059  1.00  0.00     0.029 A 
ATOM     42  N   UNL A   1      42.451  26.810  28.640  1.00  0.00    -0.354 N 
ATOM     43  C   UNL A   1      46.259  28.186  26.897  1.00  0.00     0.074 A 
ATOM     44  C   UNL A   1      45.936  27.969  25.511  1.00  0.00     0.031 C 
ATOM     45  C   UNL A   1      40.607  25.564  28.710  1.00  0.00     0.029 A 
ATOM     46  C   UNL A   1      41.140  26.861  29.088  1.00  0.00     0.049 A 
ATOM     47  H   UNL A   1      43.119  27.497  28.866  1.00  0.00     0.167 HD
ATOM     48  C   UNL A   1      46.920  29.206  27.512  1.00  0.00     0.037 A 
ATOM     49  C   UNL A   1      40.527  27.926  29.662  1.00  0.00     0.037 A 
ATOM     50  C   UNL A   1      47.184  28.913  28.895  1.00  0.00     0.049 A 
ATOM     51  C   UNL A   1      41.592  28.810  30.201  1.00  0.00     0.074 A 
ATOM     52  C   UNL A   1      47.916  27.941  29.550  1.00  0.00     0.029 A 
ATOM     53  N   UNL A   1      46.379  29.476  29.853  1.00  0.00    -0.354 N 
ATOM     54  N   UNL A   1      42.351  28.492  31.214  1.00  0.00    -0.248 NA
ATOM     55  C   UNL A   1      42.121  29.846  29.324  1.00  0.00     0.031 C 
ATOM     56  C   UNL A   1      47.150  27.627  30.710  1.00  0.00     0.029 A 
ATOM     57  C   UNL A   1      46.035  28.465  30.714  1.00  0.00     0.049 A 
ATOM     58  H   UNL A   1      46.102  30.419  29.911  1.00  0.00     0.167 HD
ATOM     59  C   UNL A   1      43.610  28.958  30.868  1.00  0.00     0.074 A 
ATOM     60  C   UNL A   1      43.392  29.852  29.733  1.00  0.00     0.031 C 
ATOM     61  C   UNL A   1      44.742  28.360  31.342  1.00  0.00     0.037 A 
BRANCH  48  62
ATOM     62  C   UNL A   1      47.054  30.598  26.950  1.00  0.00     0.064 A 
ATOM     63  C   UNL A   1      48.307  31.245  26.983  1.00  0.00     0.173 A 
ATOM     64  C   UNL A   1      45.946  31.423  26.669  1.00  0.00     0.173 A 
ATOM     65  F   UNL A   1      49.425  30.556  27.258  1.00  0.00    -0.203 F 
ATOM     66  C   UNL A   1      48.425  32.628  26.828  1.00  0.00     0.198 A 
ATOM     67  C   UNL A   1      46.075  32.796  26.464  1.00  0.00     0.198 A 
ATOM     68  F   UNL A   1      44.691  30.959  26.696  1.00  0.00    -0.203 F 
ATOM     69  F   UNL A   1      49.617  33.217  26.993  1.00  0.00    -0.200 F 
ATOM     70  C   UNL A   1      47.308  33.403  26.576  1.00  0.00     0.200 A 
ATOM     71  F   UNL A   1      44.978  33.534  26.239  1.00  0.00    -0.200 F 
ATOM     72  F   UNL A   1      47.409  34.736  26.492  1.00  0.00    -0.200 F 
ENDBRANCH  48  62
BRANCH  49  73
ATOM     73  C   UNL A   1      39.127  28.379  29.466  1.00  0.00     0.064 A 
ATOM     74  C   UNL A   1      38.267  28.580  30.559  1.00  0.00     0.173 A 
ATOM     75  C   UNL A   1      38.685  28.886  28.227  1.00  0.00     0.173 A 
ATOM     76  F   UNL A   1      38.628  28.171  31.785  1.00  0.00    -0.203 F 
ATOM     77  C   UNL A   1      37.054  29.266  30.424  1.00  0.00     0.198 A 
ATOM     78  C   UNL A   1      37.472  29.562  28.092  1.00  0.00     0.198 A 
ATOM     79  F   UNL A   1      39.463  28.823  27.137  1.00  0.00    -0.203 F 
ATOM     80  F   UNL A   1      36.291  29.493  31.502  1.00  0.00    -0.200 F 
ATOM     81  C   UNL A   1      36.663  29.765  29.192  1.00  0.00     0.200 A 
ATOM     82  F   UNL A   1      37.124  30.070  26.901  1.00  0.00    -0.200 F 
ATOM     83  F   UNL A   1      35.533  30.475  29.075  1.00  0.00    -0.200 F 
ENDBRANCH  49  73
BRANCH  61  84
ATOM     84  C   UNL A   1      44.597  27.312  32.408  1.00  0.00     0.064 A 
ATOM     85  C   UNL A   1      44.438  27.610  33.772  1.00  0.00     0.173 A 
ATOM     86  C   UNL A   1      44.425  25.978  32.017  1.00  0.00     0.173 A 
ATOM     87  F   UNL A   1      44.480  28.874  34.210  1.00  0.00    -0.203 F 
ATOM     88  C   UNL A   1      44.155  26.614  34.704  1.00  0.00     0.198 A 
ATOM     89  C   UNL A   1      44.107  24.989  32.945  1.00  0.00     0.198 A 
ATOM     90  F   UNL A   1      44.502  25.642  30.720  1.00  0.00    -0.203 F 
ATOM     91  F   UNL A   1      44.007  26.928  36.000  1.00  0.00    -0.200 F 
ATOM     92  C   UNL A   1      43.980  25.306  34.288  1.00  0.00     0.200 A 
ATOM     93  F   UNL A   1      43.884  23.734  32.531  1.00  0.00    -0.200 F 
ATOM     94  F   UNL A   1      43.654  24.356  35.176  1.00  0.00    -0.200 F 
ENDBRANCH  61  84
ENDBRANCH  35  36
ENDBRANCH  27  30
ENDBRANCH  25  26
ENDBRANCH  24  25
ENDBRANCH  23  24
ENDBRANCH   1  23
TORSDOF 16
ENDMDL
MODEL 2
REMARK VINA RESULT:     -11.6      3.669      5.356
REMARK SMILES O=C(CSc1nc2cnccc2n1CCC(F)(F)F)NCCCCNC(=O)c1ccc(-c2c3nc(c(-c4c(F)c(F)c(F)c(F)c4F)c4ccc([nH]4)c(-c4c(F)c(F)c(F)c(F)c4F)c4nc(c(-c5c(F)c(F)c(F)c(F)c5F)c5ccc2[nH]5)C=C4)C=C3)cc1
REMARK SMILES IDX 21 1 20 2 1 3 2 4 3 6 4 7 5 8 6 9 13 10 7 11 12 12 8 13
REMARK SMILES IDX 11 14 9 15 10 16 14 17 15 18 16 19 17 20 18 21 19 22 22 23
REMARK SMILES IDX 23 24 24 25 25 26 26 27 27 29 28 30 29 31 90 32 30 33 89 34
REMARK SMILES IDX 31 35 32 36 33 37 83 38 34 39 88 40 82 41 84 42 35 43 87 44
REMARK SMILES IDX 81 45 80 46 36 48 68 49 48 50 67 51 49 52 52 53 66 54 85 55
REMARK SMILES IDX 50 56 51 57 65 59 86 60 53 61 37 62 38 63 46 64 39 65 40 66
REMARK SMILES IDX 44 67 47 68 41 69 42 70 45 71 43 72 69 73 70 74 78 75 71 76
REMARK SMILES IDX 72 77 76 78 79 79 73 80 74 81 77 82 75 83 54 84 55 85 63 86
REMARK SMILES IDX 56 87 57 88 61 89 64 90 58 91 59 92 62 93 60 94
REMARK H PARENT 20 5 25 28 84 47 52 58
REMARK Flexibility Score: inf
ROOT
ATOM      1  C   UNL A   1      36.231  22.897  26.111  1.00  0.00     0.116 C 
ENDROOT
BRANCH   1   2
ATOM      2  N   UNL A   1      35.426  23.936  25.514  1.00  0.00    -0.355 N 
ATOM      3  O   UNL A   1      34.826  22.771  23.619  1.00  0.00    -0.274 OA
ATOM      4  C   UNL A   1      34.772  23.788  24.315  1.00  0.00     0.230 C 
ATOM      5  H   UNL A   1      35.340  24.794  25.990  1.00  0.00     0.163 HD
BRANCH   4   6
ATOM      6  C   UNL A   1      34.061  25.031  23.838  1.00  0.00     0.178 C 
BRANCH   6   7
ATOM      7  S   UNL A   1      33.433  26.039  25.196  1.00  0.00    -0.078 SA
BRANCH   7   8
ATOM      8  C   UNL A   1      32.103  26.920  24.522  1.00  0.00     0.169 A 
ATOM      9  N   UNL A   1      30.976  26.321  24.216  1.00  0.00    -0.221 NA
ATOM     10  N   UNL A   1      32.004  28.290  24.409  1.00  0.00    -0.318 N 
ATOM     11  C   UNL A   1      30.112  27.318  23.841  1.00  0.00     0.108 A 
ATOM     12  C   UNL A   1      30.731  28.564  23.928  1.00  0.00     0.072 A 
ATOM     13  C   UNL A   1      28.783  27.248  23.411  1.00  0.00     0.141 A 
ATOM     14  C   UNL A   1      30.067  29.738  23.560  1.00  0.00     0.049 A 
ATOM     15  N   UNL A   1      28.114  28.377  23.055  1.00  0.00    -0.262 NA
ATOM     16  C   UNL A   1      28.758  29.563  23.125  1.00  0.00     0.113 A 
BRANCH  10  17
ATOM     17  C   UNL A   1      33.022  29.303  24.603  1.00  0.00     0.134 C 
BRANCH  17  18
ATOM     18  C   UNL A   1      33.431  29.630  26.035  1.00  0.00     0.137 C 
BRANCH  18  19
ATOM     19  C   UNL A   1      32.433  30.473  26.789  1.00  0.00     0.390 C 
ATOM     20  F   UNL A   1      31.630  29.708  27.560  1.00  0.00    -0.171 F 
ATOM     21  F   UNL A   1      33.073  31.335  27.610  1.00  0.00    -0.171 F 
ATOM     22  F   UNL A   1      31.671  31.206  25.958  1.00  0.00    -0.171 F 
ENDBRANCH  18  19
ENDBRANCH  17  18
ENDBRANCH  10  17
ENDBRANCH   7   8
ENDBRANCH   6   7
ENDBRANCH   4   6
ENDBRANCH   1   2
BRANCH   1  23
ATOM     23  C   UNL A   1      37.710  23.066  25.772  1.00  0.00     0.023 C 
BRANCH  23  24
ATOM     24  C   UNL A   1      38.478  21.762  25.510  1.00  0.00     0.023 C 
BRANCH  24  25
ATOM     25  C   UNL A   1      39.706  21.542  26.393  1.00  0.00     0.116 C 
BRANCH  25  26
ATOM     26  N   UNL A   1      40.946  21.983  25.792  1.00  0.00    -0.352 N 
ATOM     27  C   UNL A   1      41.729  23.096  25.898  1.00  0.00     0.251 C 
ATOM     28  H   UNL A   1      41.311  21.326  25.155  1.00  0.00     0.163 HD
ATOM     29  O   UNL A   1      42.821  23.045  25.327  1.00  0.00    -0.269 OA
BRANCH  27  30
ATOM     30  C   UNL A   1      41.339  24.364  26.571  1.00  0.00     0.039 A 
ATOM     31  C   UNL A   1      40.746  25.466  25.956  1.00  0.00     0.014 A 
ATOM     32  C   UNL A   1      41.703  24.465  27.929  1.00  0.00     0.014 A 
ATOM     33  C   UNL A   1      40.642  26.676  26.635  1.00  0.00     0.010 A 
ATOM     34  C   UNL A   1      41.585  25.665  28.616  1.00  0.00     0.010 A 
ATOM     35  C   UNL A   1      41.120  26.787  27.941  1.00  0.00    -0.014 A 
BRANCH  35  36
ATOM     36  C   UNL A   1      41.092  28.101  28.571  1.00  0.00     0.031 A 
ATOM     37  C   UNL A   1      42.228  29.003  28.235  1.00  0.00     0.074 A 
ATOM     38  C   UNL A   1      40.073  28.506  29.355  1.00  0.00     0.049 A 
ATOM     39  N   UNL A   1      43.092  29.532  29.041  1.00  0.00    -0.248 NA
ATOM     40  C   UNL A   1      42.490  29.280  26.814  1.00  0.00     0.031 C 
ATOM     41  C   UNL A   1      38.788  27.848  29.602  1.00  0.00     0.029 A 
ATOM     42  N   UNL A   1      39.951  29.674  30.044  1.00  0.00    -0.354 N 
ATOM     43  C   UNL A   1      43.927  30.323  28.255  1.00  0.00     0.074 A 
ATOM     44  C   UNL A   1      43.578  30.049  26.885  1.00  0.00     0.031 C 
ATOM     45  C   UNL A   1      37.940  28.727  30.183  1.00  0.00     0.029 A 
ATOM     46  C   UNL A   1      38.660  29.955  30.467  1.00  0.00     0.049 A 
ATOM     47  H   UNL A   1      40.713  30.270  30.225  1.00  0.00     0.167 HD
ATOM     48  C   UNL A   1      44.732  31.279  28.798  1.00  0.00     0.037 A 
ATOM     49  C   UNL A   1      38.213  31.143  30.947  1.00  0.00     0.037 A 
ATOM     50  C   UNL A   1      44.945  31.059  30.203  1.00  0.00     0.049 A 
ATOM     51  C   UNL A   1      39.397  31.897  31.432  1.00  0.00     0.074 A 
ATOM     52  C   UNL A   1      45.521  30.044  30.943  1.00  0.00     0.029 A 
ATOM     53  N   UNL A   1      44.231  31.810  31.104  1.00  0.00    -0.354 N 
ATOM     54  N   UNL A   1      40.097  31.550  32.478  1.00  0.00    -0.248 NA
ATOM     55  C   UNL A   1      40.078  32.770  30.485  1.00  0.00     0.031 C 
ATOM     56  C   UNL A   1      44.713  29.940  32.113  1.00  0.00     0.029 A 
ATOM     57  C   UNL A   1      43.736  30.933  32.035  1.00  0.00     0.049 A 
ATOM     58  H   UNL A   1      44.099  32.786  31.084  1.00  0.00     0.167 HD
ATOM     59  C   UNL A   1      41.413  31.794  32.115  1.00  0.00     0.074 A 
ATOM     60  C   UNL A   1      41.334  32.618  30.911  1.00  0.00     0.031 C 
ATOM     61  C   UNL A   1      42.441  31.072  32.650  1.00  0.00     0.037 A 
BRANCH  48  62
ATOM     62  C   UNL A   1      45.075  32.586  28.132  1.00  0.00     0.064 A 
ATOM     63  C   UNL A   1      44.066  33.550  27.928  1.00  0.00     0.173 A 
ATOM     64  C   UNL A   1      46.273  32.794  27.419  1.00  0.00     0.173 A 
ATOM     65  F   UNL A   1      42.880  33.440  28.545  1.00  0.00    -0.203 F 
ATOM     66  C   UNL A   1      44.221  34.596  27.014  1.00  0.00     0.198 A 
ATOM     67  C   UNL A   1      46.442  33.867  26.546  1.00  0.00     0.198 A 
ATOM     68  F   UNL A   1      47.278  31.910  27.448  1.00  0.00    -0.203 F 
ATOM     69  F   UNL A   1      43.191  35.414  26.759  1.00  0.00    -0.200 F 
ATOM     70  C   UNL A   1      45.406  34.749  26.319  1.00  0.00     0.200 A 
ATOM     71  F   UNL A   1      47.591  33.989  25.866  1.00  0.00    -0.200 F 
ATOM     72  F   UNL A   1      45.534  35.710  25.394  1.00  0.00    -0.200 F 
ENDBRANCH  48  62
BRANCH  49  73
ATOM     73  C   UNL A   1      36.897  31.783  30.697  1.00  0.00     0.064 A 
ATOM     74  C   UNL A   1      35.996  32.029  31.746  1.00  0.00     0.173 A 
ATOM     75  C   UNL A   1      36.609  32.413  29.470  1.00  0.00     0.173 A 
ATOM     76  F   UNL A   1      36.218  31.508  32.962  1.00  0.00    -0.203 F 
ATOM     77  C   UNL A   1      34.891  32.873  31.583  1.00  0.00     0.198 A 
ATOM     78  C   UNL A   1      35.502  33.246  29.305  1.00  0.00     0.198 A 
ATOM     79  F   UNL A   1      37.446  32.313  28.427  1.00  0.00    -0.203 F 
ATOM     80  F   UNL A   1      34.089  33.135  32.625  1.00  0.00    -0.200 F 
ATOM     81  C   UNL A   1      34.651  33.489  30.365  1.00  0.00     0.200 A 
ATOM     82  F   UNL A   1      35.304  33.863  28.131  1.00  0.00    -0.200 F 
ATOM     83  F   UNL A   1      33.629  34.344  30.226  1.00  0.00    -0.200 F 
ENDBRANCH  49  73
BRANCH  61  84
ATOM     84  C   UNL A   1      42.137  30.145  33.792  1.00  0.00     0.064 A 
ATOM     85  C   UNL A   1      41.706  28.818  33.621  1.00  0.00     0.173 A 
ATOM     86  C   UNL A   1      42.473  30.550  35.091  1.00  0.00     0.173 A 
ATOM     87  F   UNL A   1      41.470  28.323  32.401  1.00  0.00    -0.203 F 
ATOM     88  C   UNL A   1      41.584  27.950  34.704  1.00  0.00     0.198 A 
ATOM     89  C   UNL A   1      42.384  29.670  36.167  1.00  0.00     0.198 A 
ATOM     90  F   UNL A   1      42.951  31.785  35.308  1.00  0.00    -0.203 F 
ATOM     91  F   UNL A   1      41.172  26.688  34.510  1.00  0.00    -0.200 F 
ATOM     92  C   UNL A   1      41.932  28.374  35.974  1.00  0.00     0.200 A 
ATOM     93  F   UNL A   1      42.775  30.067  37.386  1.00  0.00    -0.200 F 
ATOM     94  F   UNL A   1      41.866  27.523  37.008  1.00  0.00    -0.200 F 
ENDBRANCH  61  84
ENDBRANCH  35  36
ENDBRANCH  27  30
ENDBRANCH  25  26
ENDBRANCH  24  25
ENDBRANCH  23  24
ENDBRANCH   1  23
TORSDOF 16
ENDMDL
MODEL 3
REMARK VINA RESULT:     -11.6      4.989     10.260
REMARK SMILES O=C(CSc1nc2cnccc2n1CCC(F)(F)F)NCCCCNC(=O)c1ccc(-c2c3nc(c(-c4c(F)c(F)c(F)c(F)c4F)c4ccc([nH]4)c(-c4c(F)c(F)c(F)c(F)c4F)c4nc(c(-c5c(F)c(F)c(F)c(F)c5F)c5ccc2[nH]5)C=C4)C=C3)cc1
REMARK SMILES IDX 21 1 20 2 1 3 2 4 3 6 4 7 5 8 6 9 13 10 7 11 12 12 8 13
REMARK SMILES IDX 11 14 9 15 10 16 14 17 15 18 16 19 17 20 18 21 19 22 22 23
REMARK SMILES IDX 23 24 24 25 25 26 26 27 27 29 28 30 29 31 90 32 30 33 89 34
REMARK SMILES IDX 31 35 32 36 33 37 83 38 34 39 88 40 82 41 84 42 35 43 87 44
REMARK SMILES IDX 81 45 80 46 36 48 68 49 48 50 67 51 49 52 52 53 66 54 85 55
REMARK SMILES IDX 50 56 51 57 65 59 86 60 53 61 37 62 38 63 46 64 39 65 40 66
REMARK SMILES IDX 44 67 47 68 41 69 42 70 45 71 43 72 69 73 70 74 78 75 71 76
REMARK SMILES IDX 72 77 76 78 79 79 73 80 74 81 77 82 75 83 54 84 55 85 63 86
REMARK SMILES IDX 56 87 57 88 61 89 64 90 58 91 59 92 62 93 60 94
REMARK H PARENT 20 5 25 28 84 47 52 58
REMARK Flexibility Score: inf
ROOT
ATOM      1  C   UNL A   1      34.869  32.376  28.253  1.00  0.00     0.116 C 
ENDROOT
BRANCH   1   2
ATOM      2  N   UNL A   1      33.751  31.512  27.958  1.00  0.00    -0.355 N 
ATOM      3  O   UNL A   1      34.981  29.675  27.311  1.00  0.00    -0.274 OA
ATOM      4  C   UNL A   1      33.893  30.219  27.519  1.00  0.00     0.230 C 
ATOM      5  H   UNL A   1      32.841  31.869  28.077  1.00  0.00     0.163 HD
BRANCH   4   6
ATOM      6  C   UNL A   1      32.593  29.529  27.189  1.00  0.00     0.178 C 
BRANCH   6   7
ATOM      7  S   UNL A   1      31.760  30.255  25.763  1.00  0.00    -0.078 SA
BRANCH   7   8
ATOM      8  C   UNL A   1      31.997  29.117  24.478  1.00  0.00     0.169 A 
ATOM      9  N   UNL A   1      33.178  28.592  24.244  1.00  0.00    -0.221 NA
ATOM     10  N   UNL A   1      31.012  28.523  23.721  1.00  0.00    -0.318 N 
ATOM     11  C   UNL A   1      32.981  27.651  23.266  1.00  0.00     0.108 A 
ATOM     12  C   UNL A   1      31.638  27.598  22.897  1.00  0.00     0.072 A 
ATOM     13  C   UNL A   1      33.894  26.801  22.633  1.00  0.00     0.141 A 
ATOM     14  C   UNL A   1      31.191  26.742  21.886  1.00  0.00     0.049 A 
ATOM     15  N   UNL A   1      33.481  25.954  21.653  1.00  0.00    -0.262 NA
ATOM     16  C   UNL A   1      32.176  25.953  21.304  1.00  0.00     0.113 A 
BRANCH  10  17
ATOM     17  C   UNL A   1      29.600  28.839  23.641  1.00  0.00     0.134 C 
BRANCH  17  18
ATOM     18  C   UNL A   1      29.212  30.225  23.135  1.00  0.00     0.137 C 
BRANCH  18  19
ATOM     19  C   UNL A   1      27.739  30.394  22.855  1.00  0.00     0.390 C 
ATOM     20  F   UNL A   1      27.043  29.298  23.226  1.00  0.00    -0.171 F 
ATOM     21  F   UNL A   1      27.246  31.438  23.559  1.00  0.00    -0.171 F 
ATOM     22  F   UNL A   1      27.503  30.643  21.555  1.00  0.00    -0.171 F 
ENDBRANCH  18  19
ENDBRANCH  17  18
ENDBRANCH  10  17
ENDBRANCH   7   8
ENDBRANCH   6   7
ENDBRANCH   4   6
ENDBRANCH   1   2
BRANCH   1  23
ATOM     23  C   UNL A   1      34.555  33.835  27.932  1.00  0.00     0.023 C 
BRANCH  23  24
ATOM     24  C   UNL A   1      33.249  34.374  28.534  1.00  0.00     0.023 C 
BRANCH  24  25
ATOM     25  C   UNL A   1      33.412  35.560  29.486  1.00  0.00     0.116 C 
BRANCH  25  26
ATOM     26  N   UNL A   1      32.865  35.331  30.805  1.00  0.00    -0.352 N 
ATOM     27  C   UNL A   1      33.349  34.830  31.978  1.00  0.00     0.251 C 
ATOM     28  H   UNL A   1      31.919  35.599  30.872  1.00  0.00     0.163 HD
ATOM     29  O   UNL A   1      32.607  34.936  32.959  1.00  0.00    -0.269 OA
BRANCH  27  30
ATOM     30  C   UNL A   1      34.643  34.115  32.142  1.00  0.00     0.039 A 
ATOM     31  C   UNL A   1      35.884  34.713  32.359  1.00  0.00     0.014 A 
ATOM     32  C   UNL A   1      34.591  32.719  31.960  1.00  0.00     0.014 A 
ATOM     33  C   UNL A   1      37.051  33.961  32.263  1.00  0.00     0.010 A 
ATOM     34  C   UNL A   1      35.750  31.961  31.881  1.00  0.00     0.010 A 
ATOM     35  C   UNL A   1      36.981  32.600  31.962  1.00  0.00    -0.014 A 
BRANCH  35  36
ATOM     36  C   UNL A   1      38.232  31.879  31.761  1.00  0.00     0.031 A 
ATOM     37  C   UNL A   1      39.050  31.652  32.985  1.00  0.00     0.074 A 
ATOM     38  C   UNL A   1      38.599  31.387  30.562  1.00  0.00     0.049 A 
ATOM     39  N   UNL A   1      40.259  32.051  33.220  1.00  0.00    -0.248 NA
ATOM     40  C   UNL A   1      38.412  30.975  34.124  1.00  0.00     0.031 C 
ATOM     41  C   UNL A   1      37.823  31.317  29.322  1.00  0.00     0.029 A 
ATOM     42  N   UNL A   1      39.757  30.751  30.228  1.00  0.00    -0.354 N 
ATOM     43  C   UNL A   1      40.594  31.558  34.480  1.00  0.00     0.074 A 
ATOM     44  C   UNL A   1      39.389  30.997  35.033  1.00  0.00     0.031 C 
ATOM     45  C   UNL A   1      38.434  30.475  28.458  1.00  0.00     0.029 A 
ATOM     46  C   UNL A   1      39.702  30.057  29.029  1.00  0.00     0.049 A 
ATOM     47  H   UNL A   1      40.563  30.780  30.792  1.00  0.00     0.167 HD
ATOM     48  C   UNL A   1      41.886  31.497  34.907  1.00  0.00     0.037 A 
ATOM     49  C   UNL A   1      40.607  29.150  28.584  1.00  0.00     0.037 A 
ATOM     50  C   UNL A   1      42.740  32.370  34.148  1.00  0.00     0.049 A 
ATOM     51  C   UNL A   1      41.881  29.408  29.302  1.00  0.00     0.074 A 
ATOM     52  C   UNL A   1      42.789  33.737  33.951  1.00  0.00     0.029 A 
ATOM     53  N   UNL A   1      43.529  31.828  33.164  1.00  0.00    -0.354 N 
ATOM     54  N   UNL A   1      42.612  30.474  29.118  1.00  0.00    -0.248 NA
ATOM     55  C   UNL A   1      42.104  28.708  30.560  1.00  0.00     0.031 C 
ATOM     56  C   UNL A   1      43.160  33.896  32.584  1.00  0.00     0.029 A 
ATOM     57  C   UNL A   1      43.368  32.622  32.057  1.00  0.00     0.049 A 
ATOM     58  H   UNL A   1      44.097  31.027  33.237  1.00  0.00     0.167 HD
ATOM     59  C   UNL A   1      43.057  30.817  30.385  1.00  0.00     0.074 A 
ATOM     60  C   UNL A   1      42.780  29.651  31.220  1.00  0.00     0.031 C 
ATOM     61  C   UNL A   1      43.343  32.112  30.709  1.00  0.00     0.037 A 
BRANCH  48  62
ATOM     62  C   UNL A   1      42.439  30.419  35.804  1.00  0.00     0.064 A 
ATOM     63  C   UNL A   1      43.343  30.763  36.830  1.00  0.00     0.173 A 
ATOM     64  C   UNL A   1      42.356  29.046  35.496  1.00  0.00     0.173 A 
ATOM     65  F   UNL A   1      43.514  32.044  37.191  1.00  0.00    -0.203 F 
ATOM     66  C   UNL A   1      44.160  29.808  37.442  1.00  0.00     0.198 A 
ATOM     67  C   UNL A   1      43.136  28.090  36.145  1.00  0.00     0.198 A 
ATOM     68  F   UNL A   1      41.607  28.590  34.484  1.00  0.00    -0.203 F 
ATOM     69  F   UNL A   1      45.093  30.196  38.322  1.00  0.00    -0.200 F 
ATOM     70  C   UNL A   1      44.060  28.473  37.093  1.00  0.00     0.200 A 
ATOM     71  F   UNL A   1      43.039  26.803  35.780  1.00  0.00    -0.200 F 
ATOM     72  F   UNL A   1      44.887  27.566  37.630  1.00  0.00    -0.200 F 
ENDBRANCH  48  62
BRANCH  49  73
ATOM     73  C   UNL A   1      40.338  27.888  27.849  1.00  0.00     0.064 A 
ATOM     74  C   UNL A   1      41.027  27.574  26.665  1.00  0.00     0.173 A 
ATOM     75  C   UNL A   1      39.601  26.840  28.435  1.00  0.00     0.173 A 
ATOM     76  F   UNL A   1      41.791  28.499  26.064  1.00  0.00    -0.203 F 
ATOM     77  C   UNL A   1      40.998  26.286  26.117  1.00  0.00     0.198 A 
ATOM     78  C   UNL A   1      39.566  25.558  27.883  1.00  0.00     0.198 A 
ATOM     79  F   UNL A   1      38.975  27.006  29.609  1.00  0.00    -0.203 F 
ATOM     80  F   UNL A   1      41.719  26.009  25.022  1.00  0.00    -0.200 F 
ATOM     81  C   UNL A   1      40.275  25.277  26.733  1.00  0.00     0.200 A 
ATOM     82  F   UNL A   1      38.891  24.584  28.510  1.00  0.00    -0.200 F 
ATOM     83  F   UNL A   1      40.298  24.030  26.244  1.00  0.00    -0.200 F 
ENDBRANCH  49  73
BRANCH  61  84
ATOM     84  C   UNL A   1      43.362  33.132  29.605  1.00  0.00     0.064 A 
ATOM     85  C   UNL A   1      42.268  33.957  29.294  1.00  0.00     0.173 A 
ATOM     86  C   UNL A   1      44.580  33.411  28.973  1.00  0.00     0.173 A 
ATOM     87  F   UNL A   1      41.101  33.824  29.933  1.00  0.00    -0.203 F 
ATOM     88  C   UNL A   1      42.381  34.991  28.366  1.00  0.00     0.198 A 
ATOM     89  C   UNL A   1      44.700  34.467  28.072  1.00  0.00     0.198 A 
ATOM     90  F   UNL A   1      45.675  32.698  29.278  1.00  0.00    -0.203 F 
ATOM     91  F   UNL A   1      41.321  35.764  28.089  1.00  0.00    -0.200 F 
ATOM     92  C   UNL A   1      43.600  35.250  27.763  1.00  0.00     0.200 A 
ATOM     93  F   UNL A   1      45.894  34.750  27.534  1.00  0.00    -0.200 F 
ATOM     94  F   UNL A   1      43.723  36.278  26.912  1.00  0.00    -0.200 F 
ENDBRANCH  61  84
ENDBRANCH  35  36
ENDBRANCH  27  30
ENDBRANCH  25  26
ENDBRANCH  24  25
ENDBRANCH  23  24
ENDBRANCH   1  23
TORSDOF 16
ENDMDL
