MODEL 1
REMARK VINA RESULT:     -13.7      0.000      0.000
REMARK SMILES O=C(CCC(=O)Nc1cccc2c1C(=O)c1ccccc1C2=O)NCCCCNC(=O)c1ccc(-c2c3nc(c(-c4c(F)c(F)c(F)c(F)c4F)c4ccc([nH]4)c(-c4c(F)c(F)c(F)c(F)c4F)c4nc(c(-c5c(F)c(F)c(F)c(F)c5F)c5ccc2[nH]5)C=C4)C=C3)cc1
REMARK SMILES IDX 26 1 25 2 24 3 1 4 2 5 3 7 4 8 5 9 6 10 7 11 8 13 9 14 13 15
REMARK SMILES IDX 10 16 12 17 14 18 11 19 22 20 15 21 16 22 21 23 23 24 17 25
REMARK SMILES IDX 20 26 18 27 19 28 27 29 28 30 29 31 30 32 31 34 32 35 33 36
REMARK SMILES IDX 94 37 34 38 93 39 35 40 36 41 37 42 87 43 38 44 92 45 86 46
REMARK SMILES IDX 88 47 39 48 91 49 85 50 84 51 40 53 72 54 52 55 71 56 53 57
REMARK SMILES IDX 56 58 70 59 89 60 54 61 55 62 69 64 90 65 57 66 41 67 42 68
REMARK SMILES IDX 50 69 43 70 44 71 48 72 51 73 45 74 46 75 49 76 47 77 73 78
REMARK SMILES IDX 74 79 82 80 75 81 76 82 80 83 83 84 77 85 78 86 81 87 79 88
REMARK SMILES IDX 58 89 59 90 67 91 60 92 61 93 65 94 68 95 62 96 63 97 66 98
REMARK SMILES IDX 64 99
REMARK H PARENT 24 6 7 12 29 33 88 52 56 63
REMARK Flexibility Score: inf
ROOT
ATOM      1  C   UNL A   1      32.827  29.925  26.927  1.00  0.00     0.023 C 
ENDROOT
BRANCH   1   2
ATOM      2  C   UNL A   1      32.994  29.374  25.520  1.00  0.00     0.116 C 
BRANCH   2   3
ATOM      3  N   UNL A   1      31.995  28.453  25.027  1.00  0.00    -0.356 N 
ATOM      4  O   UNL A   1      33.205  26.548  24.550  1.00  0.00    -0.275 OA
ATOM      5  C   UNL A   1      32.261  27.098  25.101  1.00  0.00     0.220 C 
ATOM      6  H   UNL A   1      31.147  28.781  24.648  1.00  0.00     0.163 HD
BRANCH   5   7
ATOM      7  C   UNL A   1      31.435  26.363  26.129  1.00  0.00     0.110 C 
BRANCH   7   8
ATOM      8  C   UNL A   1      30.935  25.055  25.489  1.00  0.00     0.110 C 
BRANCH   8   9
ATOM      9  C   UNL A   1      30.914  23.969  26.527  1.00  0.00     0.224 C 
ATOM     10  O   UNL A   1      29.912  23.847  27.249  1.00  0.00    -0.275 OA
ATOM     11  N   UNL A   1      31.885  23.049  26.731  1.00  0.00    -0.325 N 
ATOM     12  H   UNL A   1      31.612  22.432  27.448  1.00  0.00     0.169 HD
BRANCH  11  13
ATOM     13  C   UNL A   1      33.167  22.683  26.251  1.00  0.00     0.053 A 
ATOM     14  C   UNL A   1      34.092  23.731  26.463  1.00  0.00     0.027 A 
ATOM     15  C   UNL A   1      33.662  21.509  25.641  1.00  0.00     0.057 A 
ATOM     16  C   UNL A   1      35.452  23.601  26.197  1.00  0.00     0.003 A 
ATOM     17  C   UNL A   1      35.057  21.336  25.497  1.00  0.00     0.036 A 
ATOM     18  C   UNL A   1      32.945  20.685  24.634  1.00  0.00     0.196 C 
ATOM     19  C   UNL A   1      35.944  22.383  25.761  1.00  0.00     0.013 A 
ATOM     20  C   UNL A   1      35.615  20.051  25.001  1.00  0.00     0.194 C 
ATOM     21  O   UNL A   1      32.293  21.226  23.751  1.00  0.00    -0.288 OA
ATOM     22  C   UNL A   1      33.350  19.289  24.417  1.00  0.00     0.034 A 
ATOM     23  C   UNL A   1      34.687  18.973  24.614  1.00  0.00     0.034 A 
ATOM     24  O   UNL A   1      36.826  19.880  24.931  1.00  0.00    -0.289 OA
ATOM     25  C   UNL A   1      32.481  18.340  23.871  1.00  0.00     0.013 A 
ATOM     26  C   UNL A   1      35.152  17.681  24.345  1.00  0.00     0.013 A 
ATOM     27  C   UNL A   1      32.935  17.043  23.621  1.00  0.00     0.001 A 
ATOM     28  C   UNL A   1      34.267  16.712  23.868  1.00  0.00     0.001 A 
ENDBRANCH  11  13
ENDBRANCH   8   9
ENDBRANCH   7   8
ENDBRANCH   5   7
ENDBRANCH   2   3
ENDBRANCH   1   2
BRANCH   1  29
ATOM     29  C   UNL A   1      32.243  31.328  26.957  1.00  0.00     0.023 C 
BRANCH  29  30
ATOM     30  C   UNL A   1      33.176  32.395  27.517  1.00  0.00     0.116 C 
BRANCH  30  31
ATOM     31  N   UNL A   1      32.607  33.732  27.621  1.00  0.00    -0.352 N 
ATOM     32  C   UNL A   1      33.050  34.728  28.475  1.00  0.00     0.251 C 
ATOM     33  H   UNL A   1      31.843  33.946  27.037  1.00  0.00     0.163 HD
ATOM     34  O   UNL A   1      32.519  35.821  28.550  1.00  0.00    -0.269 OA
BRANCH  32  35
ATOM     35  C   UNL A   1      34.195  34.379  29.347  1.00  0.00     0.039 A 
ATOM     36  C   UNL A   1      33.955  33.624  30.496  1.00  0.00     0.014 A 
ATOM     37  C   UNL A   1      35.494  34.580  28.872  1.00  0.00     0.014 A 
ATOM     38  C   UNL A   1      35.026  32.988  31.125  1.00  0.00     0.010 A 
ATOM     39  C   UNL A   1      36.543  33.878  29.453  1.00  0.00     0.010 A 
ATOM     40  C   UNL A   1      36.318  33.064  30.578  1.00  0.00    -0.014 A 
BRANCH  40  41
ATOM     41  C   UNL A   1      37.447  32.288  31.155  1.00  0.00     0.031 A 
ATOM     42  C   UNL A   1      37.934  32.599  32.541  1.00  0.00     0.074 A 
ATOM     43  C   UNL A   1      38.078  31.354  30.413  1.00  0.00     0.049 A 
ATOM     44  N   UNL A   1      38.941  32.086  33.200  1.00  0.00    -0.248 NA
ATOM     45  C   UNL A   1      37.212  33.652  33.273  1.00  0.00     0.031 C 
ATOM     46  C   UNL A   1      37.743  30.996  29.034  1.00  0.00     0.029 A 
ATOM     47  N   UNL A   1      39.138  30.536  30.718  1.00  0.00    -0.354 N 
ATOM     48  C   UNL A   1      38.988  32.770  34.407  1.00  0.00     0.074 A 
ATOM     49  C   UNL A   1      37.943  33.770  34.370  1.00  0.00     0.031 C 
ATOM     50  C   UNL A   1      38.553  30.004  28.628  1.00  0.00     0.029 A 
ATOM     51  C   UNL A   1      39.486  29.677  29.702  1.00  0.00     0.049 A 
ATOM     52  H   UNL A   1      39.605  30.561  31.584  1.00  0.00     0.167 HD
ATOM     53  C   UNL A   1      39.807  32.565  35.464  1.00  0.00     0.037 A 
ATOM     54  C   UNL A   1      40.443  28.732  29.648  1.00  0.00     0.037 A 
ATOM     55  C   UNL A   1      40.813  31.539  35.522  1.00  0.00     0.049 A 
ATOM     56  C   UNL A   1      41.327  28.508  30.847  1.00  0.00     0.074 A 
ATOM     57  C   UNL A   1      41.641  31.204  36.578  1.00  0.00     0.029 A 
ATOM     58  N   UNL A   1      41.120  30.677  34.481  1.00  0.00    -0.354 N 
ATOM     59  N   UNL A   1      41.318  29.117  32.006  1.00  0.00    -0.248 NA
ATOM     60  C   UNL A   1      42.351  27.460  30.728  1.00  0.00     0.031 C 
ATOM     61  C   UNL A   1      42.475  30.161  36.164  1.00  0.00     0.029 A 
ATOM     62  C   UNL A   1      42.136  29.818  34.865  1.00  0.00     0.049 A 
ATOM     63  H   UNL A   1      40.680  30.675  33.600  1.00  0.00     0.167 HD
ATOM     64  C   UNL A   1      42.309  28.511  32.765  1.00  0.00     0.074 A 
ATOM     65  C   UNL A   1      42.896  27.477  31.937  1.00  0.00     0.031 C 
ATOM     66  C   UNL A   1      42.699  28.786  34.033  1.00  0.00     0.037 A 
BRANCH  53  67
ATOM     67  C   UNL A   1      39.641  33.464  36.653  1.00  0.00     0.064 A 
ATOM     68  C   UNL A   1      40.320  34.689  36.746  1.00  0.00     0.173 A 
ATOM     69  C   UNL A   1      38.771  33.114  37.694  1.00  0.00     0.173 A 
ATOM     70  F   UNL A   1      41.176  35.062  35.783  1.00  0.00    -0.203 F 
ATOM     71  C   UNL A   1      40.152  35.517  37.852  1.00  0.00     0.198 A 
ATOM     72  C   UNL A   1      38.584  33.958  38.785  1.00  0.00     0.198 A 
ATOM     73  F   UNL A   1      38.098  31.954  37.652  1.00  0.00    -0.203 F 
ATOM     74  F   UNL A   1      40.847  36.660  37.942  1.00  0.00    -0.200 F 
ATOM     75  C   UNL A   1      39.279  35.155  38.866  1.00  0.00     0.200 A 
ATOM     76  F   UNL A   1      37.731  33.613  39.760  1.00  0.00    -0.200 F 
ATOM     77  F   UNL A   1      39.112  35.958  39.927  1.00  0.00    -0.200 F 
ENDBRANCH  53  67
BRANCH  54  78
ATOM     78  C   UNL A   1      40.587  27.885  28.435  1.00  0.00     0.064 A 
ATOM     79  C   UNL A   1      41.376  28.314  27.357  1.00  0.00     0.173 A 
ATOM     80  C   UNL A   1      39.942  26.647  28.320  1.00  0.00     0.173 A 
ATOM     81  F   UNL A   1      41.994  29.502  27.411  1.00  0.00    -0.203 F 
ATOM     82  C   UNL A   1      41.502  27.540  26.204  1.00  0.00     0.198 A 
ATOM     83  C   UNL A   1      40.088  25.864  27.176  1.00  0.00     0.198 A 
ATOM     84  F   UNL A   1      39.176  26.194  29.322  1.00  0.00    -0.203 F 
ATOM     85  F   UNL A   1      42.231  27.992  25.174  1.00  0.00    -0.200 F 
ATOM     86  C   UNL A   1      40.863  26.314  26.117  1.00  0.00     0.200 A 
ATOM     87  F   UNL A   1      39.475  24.674  27.098  1.00  0.00    -0.200 F 
ATOM     88  F   UNL A   1      40.986  25.569  25.010  1.00  0.00    -0.200 F 
ENDBRANCH  54  78
BRANCH  66  89
ATOM     89  C   UNL A   1      43.784  27.935  34.623  1.00  0.00     0.064 A 
ATOM     90  C   UNL A   1      45.127  28.333  34.594  1.00  0.00     0.173 A 
ATOM     91  C   UNL A   1      43.466  26.733  35.275  1.00  0.00     0.173 A 
ATOM     92  F   UNL A   1      45.482  29.467  33.971  1.00  0.00    -0.203 F 
ATOM     93  C   UNL A   1      46.118  27.549  35.181  1.00  0.00     0.198 A 
ATOM     94  C   UNL A   1      44.454  25.966  35.884  1.00  0.00     0.198 A 
ATOM     95  F   UNL A   1      42.194  26.314  35.337  1.00  0.00    -0.203 F 
ATOM     96  F   UNL A   1      47.401  27.929  35.109  1.00  0.00    -0.200 F 
ATOM     97  C   UNL A   1      45.779  26.372  35.832  1.00  0.00     0.200 A 
ATOM     98  F   UNL A   1      44.125  24.836  36.524  1.00  0.00    -0.200 F 
ATOM     99  F   UNL A   1      46.733  25.624  36.405  1.00  0.00    -0.200 F 
ENDBRANCH  66  89
ENDBRANCH  40  41
ENDBRANCH  32  35
ENDBRANCH  30  31
ENDBRANCH  29  30
ENDBRANCH   1  29
TORSDOF 14
ENDMDL
MODEL 2
REMARK VINA RESULT:     -13.6      4.916      8.482
REMARK SMILES O=C(CCC(=O)Nc1cccc2c1C(=O)c1ccccc1C2=O)NCCCCNC(=O)c1ccc(-c2c3nc(c(-c4c(F)c(F)c(F)c(F)c4F)c4ccc([nH]4)c(-c4c(F)c(F)c(F)c(F)c4F)c4nc(c(-c5c(F)c(F)c(F)c(F)c5F)c5ccc2[nH]5)C=C4)C=C3)cc1
REMARK SMILES IDX 26 1 25 2 24 3 1 4 2 5 3 7 4 8 5 9 6 10 7 11 8 13 9 14 13 15
REMARK SMILES IDX 10 16 12 17 14 18 11 19 22 20 15 21 16 22 21 23 23 24 17 25
REMARK SMILES IDX 20 26 18 27 19 28 27 29 28 30 29 31 30 32 31 34 32 35 33 36
REMARK SMILES IDX 94 37 34 38 93 39 35 40 36 41 37 42 87 43 38 44 92 45 86 46
REMARK SMILES IDX 88 47 39 48 91 49 85 50 84 51 40 53 72 54 52 55 71 56 53 57
REMARK SMILES IDX 56 58 70 59 89 60 54 61 55 62 69 64 90 65 57 66 41 67 42 68
REMARK SMILES IDX 50 69 43 70 44 71 48 72 51 73 45 74 46 75 49 76 47 77 73 78
REMARK SMILES IDX 74 79 82 80 75 81 76 82 80 83 83 84 77 85 78 86 81 87 79 88
REMARK SMILES IDX 58 89 59 90 67 91 60 92 61 93 65 94 68 95 62 96 63 97 66 98
REMARK SMILES IDX 64 99
REMARK H PARENT 24 6 7 12 29 33 88 52 56 63
REMARK Flexibility Score: inf
ROOT
ATOM      1  C   UNL A   1      34.002  34.475  29.514  1.00  0.00     0.023 C 
ENDROOT
BRANCH   1   2
ATOM      2  C   UNL A   1      33.898  34.995  30.938  1.00  0.00     0.116 C 
BRANCH   2   3
ATOM      3  N   UNL A   1      34.800  34.449  31.929  1.00  0.00    -0.356 N 
ATOM      4  O   UNL A   1      33.454  33.044  33.168  1.00  0.00    -0.275 OA
ATOM      5  C   UNL A   1      34.471  33.242  32.517  1.00  0.00     0.220 C 
ATOM      6  H   UNL A   1      35.626  34.925  32.178  1.00  0.00     0.163 HD
BRANCH   5   7
ATOM      7  C   UNL A   1      35.348  32.089  32.091  1.00  0.00     0.110 C 
BRANCH   7   8
ATOM      8  C   UNL A   1      36.803  32.439  32.456  1.00  0.00     0.110 C 
BRANCH   8   9
ATOM      9  C   UNL A   1      37.062  32.059  33.886  1.00  0.00     0.224 C 
ATOM     10  O   UNL A   1      36.507  32.704  34.789  1.00  0.00    -0.275 OA
ATOM     11  N   UNL A   1      37.826  31.023  34.305  1.00  0.00    -0.325 N 
ATOM     12  H   UNL A   1      37.806  30.973  35.288  1.00  0.00     0.169 HD
BRANCH  11  13
ATOM     13  C   UNL A   1      38.644  29.987  33.791  1.00  0.00     0.053 A 
ATOM     14  C   UNL A   1      37.910  29.174  32.898  1.00  0.00     0.027 A 
ATOM     15  C   UNL A   1      40.002  29.650  33.993  1.00  0.00     0.057 A 
ATOM     16  C   UNL A   1      38.496  28.152  32.155  1.00  0.00     0.003 A 
ATOM     17  C   UNL A   1      40.616  28.704  33.143  1.00  0.00     0.036 A 
ATOM     18  C   UNL A   1      40.729  29.712  35.288  1.00  0.00     0.196 C 
ATOM     19  C   UNL A   1      39.862  27.950  32.239  1.00  0.00     0.013 A 
ATOM     20  C   UNL A   1      42.077  28.440  33.230  1.00  0.00     0.194 C 
ATOM     21  O   UNL A   1      40.177  29.352  36.318  1.00  0.00    -0.288 OA
ATOM     22  C   UNL A   1      42.197  29.776  35.293  1.00  0.00     0.034 A 
ATOM     23  C   UNL A   1      42.868  29.147  34.253  1.00  0.00     0.034 A 
ATOM     24  O   UNL A   1      42.620  27.664  32.455  1.00  0.00    -0.289 OA
ATOM     25  C   UNL A   1      42.914  30.293  36.375  1.00  0.00     0.013 A 
ATOM     26  C   UNL A   1      44.266  29.101  34.244  1.00  0.00     0.013 A 
ATOM     27  C   UNL A   1      44.310  30.268  36.361  1.00  0.00     0.001 A 
ATOM     28  C   UNL A   1      44.985  29.683  35.291  1.00  0.00     0.001 A 
ENDBRANCH  11  13
ENDBRANCH   8   9
ENDBRANCH   7   8
ENDBRANCH   5   7
ENDBRANCH   2   3
ENDBRANCH   1   2
BRANCH   1  29
ATOM     29  C   UNL A   1      35.428  34.157  29.093  1.00  0.00     0.023 C 
BRANCH  29  30
ATOM     30  C   UNL A   1      35.559  33.010  28.098  1.00  0.00     0.116 C 
BRANCH  30  31
ATOM     31  N   UNL A   1      34.346  32.237  27.869  1.00  0.00    -0.352 N 
ATOM     32  C   UNL A   1      34.274  30.855  27.818  1.00  0.00     0.251 C 
ATOM     33  H   UNL A   1      33.508  32.738  27.738  1.00  0.00     0.163 HD
ATOM     34  O   UNL A   1      33.241  30.254  27.589  1.00  0.00    -0.269 OA
BRANCH  32  35
ATOM     35  C   UNL A   1      35.549  30.127  28.011  1.00  0.00     0.039 A 
ATOM     36  C   UNL A   1      36.472  30.104  26.965  1.00  0.00     0.014 A 
ATOM     37  C   UNL A   1      35.905  29.714  29.298  1.00  0.00     0.014 A 
ATOM     38  C   UNL A   1      37.794  29.749  27.235  1.00  0.00     0.010 A 
ATOM     39  C   UNL A   1      37.239  29.441  29.577  1.00  0.00     0.010 A 
ATOM     40  C   UNL A   1      38.200  29.469  28.551  1.00  0.00    -0.014 A 
BRANCH  40  41
ATOM     41  C   UNL A   1      39.627  29.218  28.881  1.00  0.00     0.031 A 
ATOM     42  C   UNL A   1      40.407  30.248  29.647  1.00  0.00     0.074 A 
ATOM     43  C   UNL A   1      40.241  28.103  28.435  1.00  0.00     0.049 A 
ATOM     44  N   UNL A   1      41.674  30.251  29.978  1.00  0.00    -0.248 NA
ATOM     45  C   UNL A   1      39.673  31.451  30.070  1.00  0.00     0.031 C 
ATOM     46  C   UNL A   1      39.615  27.051  27.631  1.00  0.00     0.029 A 
ATOM     47  N   UNL A   1      41.535  27.668  28.595  1.00  0.00    -0.354 N 
ATOM     48  C   UNL A   1      41.890  31.462  30.621  1.00  0.00     0.074 A 
ATOM     49  C   UNL A   1      40.641  32.191  30.589  1.00  0.00     0.031 C 
ATOM     50  C   UNL A   1      40.512  26.077  27.405  1.00  0.00     0.029 A 
ATOM     51  C   UNL A   1      41.785  26.447  28.016  1.00  0.00     0.049 A 
ATOM     52  H   UNL A   1      42.219  28.183  29.080  1.00  0.00     0.167 HD
ATOM     53  C   UNL A   1      43.020  31.915  31.213  1.00  0.00     0.037 A 
ATOM     54  C   UNL A   1      42.911  25.709  27.988  1.00  0.00     0.037 A 
ATOM     55  C   UNL A   1      44.248  31.171  31.290  1.00  0.00     0.049 A 
ATOM     56  C   UNL A   1      44.148  26.225  28.674  1.00  0.00     0.074 A 
ATOM     57  C   UNL A   1      45.423  31.513  31.933  1.00  0.00     0.029 A 
ATOM     58  N   UNL A   1      44.455  29.929  30.708  1.00  0.00    -0.354 N 
ATOM     59  N   UNL A   1      44.322  27.342  29.335  1.00  0.00    -0.248 NA
ATOM     60  C   UNL A   1      45.345  25.373  28.611  1.00  0.00     0.031 C 
ATOM     61  C   UNL A   1      46.355  30.494  31.712  1.00  0.00     0.029 A 
ATOM     62  C   UNL A   1      45.745  29.497  30.967  1.00  0.00     0.049 A 
ATOM     63  H   UNL A   1      43.783  29.429  30.190  1.00  0.00     0.167 HD
ATOM     64  C   UNL A   1      45.632  27.316  29.793  1.00  0.00     0.074 A 
ATOM     65  C   UNL A   1      46.208  26.066  29.341  1.00  0.00     0.031 C 
ATOM     66  C   UNL A   1      46.298  28.245  30.522  1.00  0.00     0.037 A 
BRANCH  53  67
ATOM     67  C   UNL A   1      42.976  33.278  31.837  1.00  0.00     0.064 A 
ATOM     68  C   UNL A   1      43.357  34.424  31.121  1.00  0.00     0.173 A 
ATOM     69  C   UNL A   1      42.517  33.444  33.150  1.00  0.00     0.173 A 
ATOM     70  F   UNL A   1      43.818  34.315  29.867  1.00  0.00    -0.203 F 
ATOM     71  C   UNL A   1      43.306  35.684  31.710  1.00  0.00     0.198 A 
ATOM     72  C   UNL A   1      42.440  34.710  33.726  1.00  0.00     0.198 A 
ATOM     73  F   UNL A   1      42.139  32.381  33.876  1.00  0.00    -0.203 F 
ATOM     74  F   UNL A   1      43.720  36.758  31.025  1.00  0.00    -0.200 F 
ATOM     75  C   UNL A   1      42.839  35.827  33.008  1.00  0.00     0.200 A 
ATOM     76  F   UNL A   1      41.979  34.849  34.977  1.00  0.00    -0.200 F 
ATOM     77  F   UNL A   1      42.783  37.042  33.571  1.00  0.00    -0.200 F 
ENDBRANCH  53  67
BRANCH  54  78
ATOM     78  C   UNL A   1      42.912  24.376  27.331  1.00  0.00     0.064 A 
ATOM     79  C   UNL A   1      43.295  24.244  25.988  1.00  0.00     0.173 A 
ATOM     80  C   UNL A   1      42.529  23.216  28.017  1.00  0.00     0.173 A 
ATOM     81  F   UNL A   1      43.646  25.329  25.282  1.00  0.00    -0.203 F 
ATOM     82  C   UNL A   1      43.279  23.003  25.352  1.00  0.00     0.198 A 
ATOM     83  C   UNL A   1      42.536  21.972  27.387  1.00  0.00     0.198 A 
ATOM     84  F   UNL A   1      42.154  23.289  29.302  1.00  0.00    -0.203 F 
ATOM     85  F   UNL A   1      43.612  22.912  24.058  1.00  0.00    -0.200 F 
ATOM     86  C   UNL A   1      42.906  21.868  26.055  1.00  0.00     0.200 A 
ATOM     87  F   UNL A   1      42.182  20.875  28.071  1.00  0.00    -0.200 F 
ATOM     88  F   UNL A   1      42.893  20.675  25.444  1.00  0.00    -0.200 F 
ENDBRANCH  54  78
BRANCH  66  89
ATOM     89  C   UNL A   1      47.712  27.932  30.913  1.00  0.00     0.064 A 
ATOM     90  C   UNL A   1      48.790  28.231  30.069  1.00  0.00     0.173 A 
ATOM     91  C   UNL A   1      47.993  27.380  32.172  1.00  0.00     0.173 A 
ATOM     92  F   UNL A   1      48.571  28.748  28.851  1.00  0.00    -0.203 F 
ATOM     93  C   UNL A   1      50.100  27.970  30.464  1.00  0.00     0.198 A 
ATOM     94  C   UNL A   1      49.304  27.145  32.574  1.00  0.00     0.198 A 
ATOM     95  F   UNL A   1      46.995  27.083  33.018  1.00  0.00    -0.203 F 
ATOM     96  F   UNL A   1      51.114  28.229  29.627  1.00  0.00    -0.200 F 
ATOM     97  C   UNL A   1      50.356  27.436  31.718  1.00  0.00     0.200 A 
ATOM     98  F   UNL A   1      49.551  26.641  33.791  1.00  0.00    -0.200 F 
ATOM     99  F   UNL A   1      51.618  27.195  32.100  1.00  0.00    -0.200 F 
ENDBRANCH  66  89
ENDBRANCH  40  41
ENDBRANCH  32  35
ENDBRANCH  30  31
ENDBRANCH  29  30
ENDBRANCH   1  29
TORSDOF 14
ENDMDL
MODEL 3
REMARK VINA RESULT:     -13.6      5.014      9.763
REMARK SMILES O=C(CCC(=O)Nc1cccc2c1C(=O)c1ccccc1C2=O)NCCCCNC(=O)c1ccc(-c2c3nc(c(-c4c(F)c(F)c(F)c(F)c4F)c4ccc([nH]4)c(-c4c(F)c(F)c(F)c(F)c4F)c4nc(c(-c5c(F)c(F)c(F)c(F)c5F)c5ccc2[nH]5)C=C4)C=C3)cc1
REMARK SMILES IDX 26 1 25 2 24 3 1 4 2 5 3 7 4 8 5 9 6 10 7 11 8 13 9 14 13 15
REMARK SMILES IDX 10 16 12 17 14 18 11 19 22 20 15 21 16 22 21 23 23 24 17 25
REMARK SMILES IDX 20 26 18 27 19 28 27 29 28 30 29 31 30 32 31 34 32 35 33 36
REMARK SMILES IDX 94 37 34 38 93 39 35 40 36 41 37 42 87 43 38 44 92 45 86 46
REMARK SMILES IDX 88 47 39 48 91 49 85 50 84 51 40 53 72 54 52 55 71 56 53 57
REMARK SMILES IDX 56 58 70 59 89 60 54 61 55 62 69 64 90 65 57 66 41 67 42 68
REMARK SMILES IDX 50 69 43 70 44 71 48 72 51 73 45 74 46 75 49 76 47 77 73 78
REMARK SMILES IDX 74 79 82 80 75 81 76 82 80 83 83 84 77 85 78 86 81 87 79 88
REMARK SMILES IDX 58 89 59 90 67 91 60 92 61 93 65 94 68 95 62 96 63 97 66 98
REMARK SMILES IDX 64 99
REMARK H PARENT 24 6 7 12 29 33 88 52 56 63
REMARK Flexibility Score: inf
ROOT
ATOM      1  C   UNL A   1      38.000  23.177  25.632  1.00  0.00     0.023 C 
ENDROOT
BRANCH   1   2
ATOM      2  C   UNL A   1      37.017  23.635  24.568  1.00  0.00     0.116 C 
BRANCH   2   3
ATOM      3  N   UNL A   1      35.629  23.789  24.945  1.00  0.00    -0.356 N 
ATOM      4  O   UNL A   1      34.488  22.691  23.268  1.00  0.00    -0.275 OA
ATOM      5  C   UNL A   1      34.713  22.876  24.457  1.00  0.00     0.220 C 
ATOM      6  H   UNL A   1      35.344  24.525  25.534  1.00  0.00     0.163 HD
BRANCH   5   7
ATOM      7  C   UNL A   1      34.173  21.927  25.499  1.00  0.00     0.110 C 
BRANCH   7   8
ATOM      8  C   UNL A   1      34.202  22.648  26.859  1.00  0.00     0.110 C 
BRANCH   8   9
ATOM      9  C   UNL A   1      32.807  22.729  27.411  1.00  0.00     0.224 C 
ATOM     10  O   UNL A   1      32.540  22.119  28.459  1.00  0.00    -0.275 OA
ATOM     11  N   UNL A   1      31.791  23.457  26.895  1.00  0.00    -0.325 N 
ATOM     12  H   UNL A   1      30.992  23.362  27.462  1.00  0.00     0.169 HD
BRANCH  11  13
ATOM     13  C   UNL A   1      31.500  24.313  25.804  1.00  0.00     0.053 A 
ATOM     14  C   UNL A   1      30.998  23.568  24.711  1.00  0.00     0.027 A 
ATOM     15  C   UNL A   1      31.604  25.711  25.629  1.00  0.00     0.057 A 
ATOM     16  C   UNL A   1      30.519  24.166  23.549  1.00  0.00     0.003 A 
ATOM     17  C   UNL A   1      30.997  26.318  24.506  1.00  0.00     0.036 A 
ATOM     18  C   UNL A   1      32.709  26.569  26.130  1.00  0.00     0.196 C 
ATOM     19  C   UNL A   1      30.470  25.547  23.467  1.00  0.00     0.013 A 
ATOM     20  C   UNL A   1      30.957  27.798  24.373  1.00  0.00     0.194 C 
ATOM     21  O   UNL A   1      33.866  26.175  26.071  1.00  0.00    -0.288 OA
ATOM     22  C   UNL A   1      32.494  28.015  26.282  1.00  0.00     0.034 A 
ATOM     23  C   UNL A   1      31.605  28.625  25.407  1.00  0.00     0.034 A 
ATOM     24  O   UNL A   1      30.380  28.326  23.431  1.00  0.00    -0.289 OA
ATOM     25  C   UNL A   1      33.264  28.793  27.150  1.00  0.00     0.013 A 
ATOM     26  C   UNL A   1      31.418  30.010  25.447  1.00  0.00     0.013 A 
ATOM     27  C   UNL A   1      33.066  30.174  27.208  1.00  0.00     0.001 A 
ATOM     28  C   UNL A   1      32.136  30.780  26.364  1.00  0.00     0.001 A 
ENDBRANCH  11  13
ENDBRANCH   8   9
ENDBRANCH   7   8
ENDBRANCH   5   7
ENDBRANCH   2   3
ENDBRANCH   1   2
BRANCH   1  29
ATOM     29  C   UNL A   1      38.337  21.697  25.541  1.00  0.00     0.023 C 
BRANCH  29  30
ATOM     30  C   UNL A   1      39.489  21.248  26.433  1.00  0.00     0.116 C 
BRANCH  30  31
ATOM     31  N   UNL A   1      40.112  19.985  26.063  1.00  0.00    -0.352 N 
ATOM     32  C   UNL A   1      41.474  19.730  26.072  1.00  0.00     0.251 C 
ATOM     33  H   UNL A   1      39.517  19.252  25.781  1.00  0.00     0.163 HD
ATOM     34  O   UNL A   1      41.949  18.666  25.722  1.00  0.00    -0.269 OA
BRANCH  32  35
ATOM     35  C   UNL A   1      42.345  20.850  26.493  1.00  0.00     0.039 A 
ATOM     36  C   UNL A   1      42.821  21.730  25.520  1.00  0.00     0.014 A 
ATOM     37  C   UNL A   1      42.453  21.150  27.854  1.00  0.00     0.014 A 
ATOM     38  C   UNL A   1      43.329  22.968  25.915  1.00  0.00     0.010 A 
ATOM     39  C   UNL A   1      42.883  22.416  28.236  1.00  0.00     0.010 A 
ATOM     40  C   UNL A   1      43.312  23.343  27.269  1.00  0.00    -0.014 A 
BRANCH  40  41
ATOM     41  C   UNL A   1      43.725  24.705  27.698  1.00  0.00     0.031 A 
ATOM     42  C   UNL A   1      42.680  25.722  28.056  1.00  0.00     0.074 A 
ATOM     43  C   UNL A   1      45.029  25.051  27.698  1.00  0.00     0.049 A 
ATOM     44  N   UNL A   1      42.826  26.979  28.389  1.00  0.00    -0.248 NA
ATOM     45  C   UNL A   1      41.279  25.276  28.000  1.00  0.00     0.031 C 
ATOM     46  C   UNL A   1      46.140  24.177  27.316  1.00  0.00     0.029 A 
ATOM     47  N   UNL A   1      45.641  26.235  28.031  1.00  0.00    -0.354 N 
ATOM     48  C   UNL A   1      41.541  27.476  28.556  1.00  0.00     0.074 A 
ATOM     49  C   UNL A   1      40.625  26.403  28.237  1.00  0.00     0.031 C 
ATOM     50  C   UNL A   1      47.297  24.841  27.476  1.00  0.00     0.029 A 
ATOM     51  C   UNL A   1      47.012  26.196  27.938  1.00  0.00     0.049 A 
ATOM     52  H   UNL A   1      45.143  27.037  28.312  1.00  0.00     0.167 HD
ATOM     53  C   UNL A   1      41.157  28.706  28.967  1.00  0.00     0.037 A 
ATOM     54  C   UNL A   1      47.932  27.144  28.203  1.00  0.00     0.037 A 
ATOM     55  C   UNL A   1      42.066  29.759  29.334  1.00  0.00     0.049 A 
ATOM     56  C   UNL A   1      47.478  28.497  28.682  1.00  0.00     0.074 A 
ATOM     57  C   UNL A   1      41.773  31.014  29.834  1.00  0.00     0.029 A 
ATOM     58  N   UNL A   1      43.447  29.673  29.245  1.00  0.00    -0.354 N 
ATOM     59  N   UNL A   1      46.262  28.934  28.898  1.00  0.00    -0.248 NA
ATOM     60  C   UNL A   1      48.529  29.489  28.956  1.00  0.00     0.031 C 
ATOM     61  C   UNL A   1      42.977  31.703  30.016  1.00  0.00     0.029 A 
ATOM     62  C   UNL A   1      44.020  30.860  29.670  1.00  0.00     0.049 A 
ATOM     63  H   UNL A   1      43.945  28.885  28.929  1.00  0.00     0.167 HD
ATOM     64  C   UNL A   1      46.400  30.235  29.362  1.00  0.00     0.074 A 
ATOM     65  C   UNL A   1      47.821  30.516  29.404  1.00  0.00     0.031 C 
ATOM     66  C   UNL A   1      45.436  31.118  29.719  1.00  0.00     0.037 A 
BRANCH  53  67
ATOM     67  C   UNL A   1      39.684  28.979  29.055  1.00  0.00     0.064 A 
ATOM     68  C   UNL A   1      38.937  29.339  27.922  1.00  0.00     0.173 A 
ATOM     69  C   UNL A   1      39.008  28.847  30.275  1.00  0.00     0.173 A 
ATOM     70  F   UNL A   1      39.541  29.493  26.735  1.00  0.00    -0.203 F 
ATOM     71  C   UNL A   1      37.570  29.582  28.017  1.00  0.00     0.198 A 
ATOM     72  C   UNL A   1      37.635  29.063  30.359  1.00  0.00     0.198 A 
ATOM     73  F   UNL A   1      39.677  28.504  31.386  1.00  0.00    -0.203 F 
ATOM     74  F   UNL A   1      36.885  29.971  26.932  1.00  0.00    -0.200 F 
ATOM     75  C   UNL A   1      36.919  29.436  29.232  1.00  0.00     0.200 A 
ATOM     76  F   UNL A   1      37.005  28.912  31.532  1.00  0.00    -0.200 F 
ATOM     77  F   UNL A   1      35.601  29.664  29.319  1.00  0.00    -0.200 F 
ENDBRANCH  53  67
BRANCH  54  78
ATOM     78  C   UNL A   1      49.379  26.834  28.073  1.00  0.00     0.064 A 
ATOM     79  C   UNL A   1      50.128  26.446  29.193  1.00  0.00     0.173 A 
ATOM     80  C   UNL A   1      50.044  26.923  26.842  1.00  0.00     0.173 A 
ATOM     81  F   UNL A   1      49.541  26.369  30.396  1.00  0.00    -0.203 F 
ATOM     82  C   UNL A   1      51.491  26.173  29.090  1.00  0.00     0.198 A 
ATOM     83  C   UNL A   1      51.402  26.628  26.736  1.00  0.00     0.198 A 
ATOM     84  F   UNL A   1      49.372  27.290  25.742  1.00  0.00    -0.203 F 
ATOM     85  F   UNL A   1      52.191  25.843  30.184  1.00  0.00    -0.200 F 
ATOM     86  C   UNL A   1      52.125  26.259  27.860  1.00  0.00     0.200 A 
ATOM     87  F   UNL A   1      52.011  26.703  25.544  1.00  0.00    -0.200 F 
ATOM     88  F   UNL A   1      53.436  25.995  27.760  1.00  0.00    -0.200 F 
ENDBRANCH  54  78
BRANCH  66  89
ATOM     89  C   UNL A   1      45.879  32.458  30.226  1.00  0.00     0.064 A 
ATOM     90  C   UNL A   1      46.028  33.556  29.367  1.00  0.00     0.173 A 
ATOM     91  C   UNL A   1      46.102  32.658  31.597  1.00  0.00     0.173 A 
ATOM     92  F   UNL A   1      45.839  33.411  28.047  1.00  0.00    -0.203 F 
ATOM     93  C   UNL A   1      46.403  34.803  29.861  1.00  0.00     0.198 A 
ATOM     94  C   UNL A   1      46.451  33.912  32.090  1.00  0.00     0.198 A 
ATOM     95  F   UNL A   1      45.965  31.641  32.460  1.00  0.00    -0.203 F 
ATOM     96  F   UNL A   1      46.577  35.830  29.017  1.00  0.00    -0.200 F 
ATOM     97  C   UNL A   1      46.606  34.981  31.221  1.00  0.00     0.200 A 
ATOM     98  F   UNL A   1      46.633  34.087  33.406  1.00  0.00    -0.200 F 
ATOM     99  F   UNL A   1      46.956  36.185  31.694  1.00  0.00    -0.200 F 
ENDBRANCH  66  89
ENDBRANCH  40  41
ENDBRANCH  32  35
ENDBRANCH  30  31
ENDBRANCH  29  30
ENDBRANCH   1  29
TORSDOF 14
ENDMDL
