MODEL 1
REMARK VINA RESULT:     -13.5      0.000      0.000
REMARK SMILES CC(=O)Nc1ccc(/C=N/c2ccccc2C(=O)NCCCCNC(=O)c2ccc(-c3c4nc(c(-c5c(F)c(F)c(F)c(F)c5F)c5ccc([nH]5)c(-c5c(F)c(F)c(F)c(F)c5F)c5nc(c(-c6c(F)c(F)c(F)c(F)c6F)c6ccc3[nH]6)C=C5)C=C4)cc2)cc1
REMARK SMILES IDX 21 1 20 2 19 3 17 4 18 5 16 7 11 8 12 9 13 10 15 11 14 12
REMARK SMILES IDX 10 13 9 14 8 15 5 16 6 17 91 18 7 19 90 20 4 21 1 22 2 23
REMARK SMILES IDX 3 24 22 26 23 27 24 28 25 29 26 31 27 32 28 33 89 34 29 35
REMARK SMILES IDX 88 36 30 37 31 38 32 39 82 40 33 41 87 42 81 43 83 44 34 45
REMARK SMILES IDX 86 46 80 47 79 48 35 50 67 51 47 52 66 53 48 54 51 55 65 56
REMARK SMILES IDX 84 57 49 58 50 59 64 61 85 62 52 63 36 64 37 65 45 66 38 67
REMARK SMILES IDX 39 68 43 69 46 70 40 71 41 72 44 73 42 74 68 75 69 76 77 77
REMARK SMILES IDX 70 78 71 79 75 80 78 81 72 82 73 83 76 84 74 85 53 86 54 87
REMARK SMILES IDX 62 88 55 89 56 90 60 91 63 92 57 93 58 94 61 95 59 96
REMARK H PARENT 19 6 4 25 24 30 83 49 51 60
REMARK Flexibility Score: inf
ROOT
ATOM      1  C   UNL A   1      32.864  27.092  26.252  1.00  0.00     0.023 C 
ENDROOT
BRANCH   1   2
ATOM      2  C   UNL A   1      32.929  25.573  26.382  1.00  0.00     0.116 C 
BRANCH   2   3
ATOM      3  N   UNL A   1      31.756  24.946  26.937  1.00  0.00    -0.352 N 
ATOM      4  C   UNL A   1      31.106  23.810  26.524  1.00  0.00     0.253 C 
ATOM      5  O   UNL A   1      30.214  23.367  27.252  1.00  0.00    -0.269 OA
ATOM      6  H   UNL A   1      31.366  25.397  27.721  1.00  0.00     0.163 HD
BRANCH   4   7
ATOM      7  C   UNL A   1      31.335  23.153  25.211  1.00  0.00     0.065 A 
ATOM      8  C   UNL A   1      31.081  23.705  23.943  1.00  0.00     0.076 A 
ATOM      9  C   UNL A   1      31.398  22.946  22.801  1.00  0.00     0.029 A 
ATOM     10  C   UNL A   1      31.981  21.682  22.901  1.00  0.00     0.002 A 
ATOM     11  C   UNL A   1      31.938  21.880  25.297  1.00  0.00     0.016 A 
ATOM     12  C   UNL A   1      32.253  21.148  24.153  1.00  0.00     0.001 A 
BRANCH   8  13
ATOM     13  N   UNL A   1      30.437  24.928  23.713  1.00  0.00    -0.255 NA
ATOM     14  C   UNL A   1      31.132  25.930  23.278  1.00  0.00     0.119 C 
BRANCH  14  15
ATOM     15  C   UNL A   1      30.466  27.226  23.019  1.00  0.00    -0.007 A 
ATOM     16  C   UNL A   1      29.131  29.582  22.262  1.00  0.00     0.041 A 
ATOM     17  C   UNL A   1      30.505  29.431  22.027  1.00  0.00     0.027 A 
ATOM     18  C   UNL A   1      28.462  28.582  22.975  1.00  0.00     0.027 A 
ATOM     19  C   UNL A   1      31.168  28.258  22.391  1.00  0.00     0.012 A 
ATOM     20  C   UNL A   1      29.124  27.400  23.348  1.00  0.00     0.012 A 
BRANCH  16  21
ATOM     21  N   UNL A   1      28.534  30.712  21.673  1.00  0.00    -0.326 N 
ATOM     22  C   UNL A   1      28.796  32.496  23.422  1.00  0.00     0.114 C 
ATOM     23  C   UNL A   1      28.315  31.988  22.095  1.00  0.00     0.221 C 
ATOM     24  O   UNL A   1      27.676  32.737  21.347  1.00  0.00    -0.275 OA
ATOM     25  H   UNL A   1      28.203  30.544  20.762  1.00  0.00     0.169 HD
ENDBRANCH  16  21
ENDBRANCH  14  15
ENDBRANCH   8  13
ENDBRANCH   4   7
ENDBRANCH   2   3
ENDBRANCH   1   2
BRANCH   1  26
ATOM     26  C   UNL A   1      33.656  27.810  25.151  1.00  0.00     0.023 C 
BRANCH  26  27
ATOM     27  C   UNL A   1      33.709  29.335  25.084  1.00  0.00     0.116 C 
BRANCH  27  28
ATOM     28  N   UNL A   1      32.899  30.043  26.047  1.00  0.00    -0.352 N 
ATOM     29  C   UNL A   1      33.320  30.847  27.069  1.00  0.00     0.251 C 
ATOM     30  H   UNL A   1      31.925  29.936  25.956  1.00  0.00     0.163 HD
ATOM     31  O   UNL A   1      32.570  31.677  27.570  1.00  0.00    -0.269 OA
BRANCH  29  32
ATOM     32  C   UNL A   1      34.650  30.715  27.654  1.00  0.00     0.039 A 
ATOM     33  C   UNL A   1      35.477  31.845  27.628  1.00  0.00     0.014 A 
ATOM     34  C   UNL A   1      35.119  29.482  28.099  1.00  0.00     0.014 A 
ATOM     35  C   UNL A   1      36.775  31.761  28.118  1.00  0.00     0.010 A 
ATOM     36  C   UNL A   1      36.413  29.404  28.604  1.00  0.00     0.010 A 
ATOM     37  C   UNL A   1      37.237  30.545  28.633  1.00  0.00    -0.014 A 
BRANCH  37  38
ATOM     38  C   UNL A   1      38.550  30.429  29.298  1.00  0.00     0.031 A 
ATOM     39  C   UNL A   1      39.557  29.452  28.791  1.00  0.00     0.074 A 
ATOM     40  C   UNL A   1      38.730  31.071  30.466  1.00  0.00     0.049 A 
ATOM     41  N   UNL A   1      40.553  28.892  29.425  1.00  0.00    -0.248 NA
ATOM     42  C   UNL A   1      39.407  29.030  27.391  1.00  0.00     0.031 C 
ATOM     43  C   UNL A   1      37.806  32.050  31.039  1.00  0.00     0.029 A 
ATOM     44  N   UNL A   1      39.710  30.930  31.415  1.00  0.00    -0.354 N 
ATOM     45  C   UNL A   1      41.114  28.003  28.522  1.00  0.00     0.074 A 
ATOM     46  C   UNL A   1      40.372  28.125  27.283  1.00  0.00     0.031 C 
ATOM     47  C   UNL A   1      38.223  32.369  32.274  1.00  0.00     0.029 A 
ATOM     48  C   UNL A   1      39.407  31.577  32.588  1.00  0.00     0.049 A 
ATOM     49  H   UNL A   1      40.540  30.421  31.270  1.00  0.00     0.167 HD
ATOM     50  C   UNL A   1      42.141  27.146  28.730  1.00  0.00     0.037 A 
ATOM     51  C   UNL A   1      39.972  31.478  33.804  1.00  0.00     0.037 A 
ATOM     52  C   UNL A   1      42.884  27.062  29.960  1.00  0.00     0.049 A 
ATOM     53  C   UNL A   1      41.133  30.553  34.001  1.00  0.00     0.074 A 
ATOM     54  C   UNL A   1      43.966  26.256  30.266  1.00  0.00     0.029 A 
ATOM     55  N   UNL A   1      42.619  27.824  31.089  1.00  0.00    -0.354 N 
ATOM     56  N   UNL A   1      41.652  29.694  33.157  1.00  0.00    -0.248 NA
ATOM     57  C   UNL A   1      41.785  30.576  35.316  1.00  0.00     0.031 C 
ATOM     58  C   UNL A   1      44.347  26.521  31.587  1.00  0.00     0.029 A 
ATOM     59  C   UNL A   1      43.516  27.507  32.094  1.00  0.00     0.049 A 
ATOM     60  H   UNL A   1      41.899  28.490  31.164  1.00  0.00     0.167 HD
ATOM     61  C   UNL A   1      42.693  29.079  33.834  1.00  0.00     0.074 A 
ATOM     62  C   UNL A   1      42.738  29.668  35.157  1.00  0.00     0.031 C 
ATOM     63  C   UNL A   1      43.538  28.114  33.398  1.00  0.00     0.037 A 
BRANCH  50  64
ATOM     64  C   UNL A   1      42.490  26.204  27.623  1.00  0.00     0.064 A 
ATOM     65  C   UNL A   1      41.816  24.990  27.447  1.00  0.00     0.173 A 
ATOM     66  C   UNL A   1      43.496  26.543  26.705  1.00  0.00     0.173 A 
ATOM     67  F   UNL A   1      40.859  24.617  28.309  1.00  0.00    -0.203 F 
ATOM     68  C   UNL A   1      42.143  24.140  26.393  1.00  0.00     0.198 A 
ATOM     69  C   UNL A   1      43.809  25.698  25.644  1.00  0.00     0.198 A 
ATOM     70  F   UNL A   1      44.170  27.695  26.836  1.00  0.00    -0.203 F 
ATOM     71  F   UNL A   1      41.504  22.969  26.254  1.00  0.00    -0.200 F 
ATOM     72  C   UNL A   1      43.135  24.496  25.490  1.00  0.00     0.200 A 
ATOM     73  F   UNL A   1      44.767  26.046  24.773  1.00  0.00    -0.200 F 
ATOM     74  F   UNL A   1      43.446  23.679  24.476  1.00  0.00    -0.200 F 
ENDBRANCH  50  64
BRANCH  51  75
ATOM     75  C   UNL A   1      39.386  32.236  34.933  1.00  0.00     0.064 A 
ATOM     76  C   UNL A   1      38.595  31.597  35.896  1.00  0.00     0.173 A 
ATOM     77  C   UNL A   1      39.657  33.602  35.100  1.00  0.00     0.173 A 
ATOM     78  F   UNL A   1      38.303  30.296  35.764  1.00  0.00    -0.203 F 
ATOM     79  C   UNL A   1      38.095  32.300  36.989  1.00  0.00     0.198 A 
ATOM     80  C   UNL A   1      39.171  34.299  36.202  1.00  0.00     0.198 A 
ATOM     81  F   UNL A   1      40.419  34.249  34.206  1.00  0.00    -0.203 F 
ATOM     82  F   UNL A   1      37.330  31.673  37.892  1.00  0.00    -0.200 F 
ATOM     83  C   UNL A   1      38.389  33.648  37.145  1.00  0.00     0.200 A 
ATOM     84  F   UNL A   1      39.467  35.596  36.357  1.00  0.00    -0.200 F 
ATOM     85  F   UNL A   1      37.920  34.319  38.206  1.00  0.00    -0.200 F 
ENDBRANCH  51  75
BRANCH  63  86
ATOM     86  C   UNL A   1      44.593  27.662  34.355  1.00  0.00     0.064 A 
ATOM     87  C   UNL A   1      44.381  26.572  35.208  1.00  0.00     0.173 A 
ATOM     88  C   UNL A   1      45.837  28.305  34.391  1.00  0.00     0.173 A 
ATOM     89  F   UNL A   1      43.198  25.940  35.214  1.00  0.00    -0.203 F 
ATOM     90  C   UNL A   1      45.382  26.144  36.077  1.00  0.00     0.198 A 
ATOM     91  C   UNL A   1      46.839  27.870  35.253  1.00  0.00     0.198 A 
ATOM     92  F   UNL A   1      46.078  29.355  33.592  1.00  0.00    -0.203 F 
ATOM     93  F   UNL A   1      45.154  25.115  36.903  1.00  0.00    -0.200 F 
ATOM     94  C   UNL A   1      46.609  26.791  36.095  1.00  0.00     0.200 A 
ATOM     95  F   UNL A   1      48.024  28.494  35.272  1.00  0.00    -0.200 F 
ATOM     96  F   UNL A   1      47.571  26.379  36.933  1.00  0.00    -0.200 F 
ENDBRANCH  63  86
ENDBRANCH  37  38
ENDBRANCH  29  32
ENDBRANCH  27  28
ENDBRANCH  26  27
ENDBRANCH   1  26
TORSDOF 14
ENDMDL
MODEL 2
REMARK VINA RESULT:     -13.3      1.070      2.061
REMARK SMILES CC(=O)Nc1ccc(/C=N/c2ccccc2C(=O)NCCCCNC(=O)c2ccc(-c3c4nc(c(-c5c(F)c(F)c(F)c(F)c5F)c5ccc([nH]5)c(-c5c(F)c(F)c(F)c(F)c5F)c5nc(c(-c6c(F)c(F)c(F)c(F)c6F)c6ccc3[nH]6)C=C5)C=C4)cc2)cc1
REMARK SMILES IDX 21 1 20 2 19 3 17 4 18 5 16 7 11 8 12 9 13 10 15 11 14 12
REMARK SMILES IDX 10 13 9 14 8 15 5 16 6 17 91 18 7 19 90 20 4 21 1 22 2 23
REMARK SMILES IDX 3 24 22 26 23 27 24 28 25 29 26 31 27 32 28 33 89 34 29 35
REMARK SMILES IDX 88 36 30 37 31 38 32 39 82 40 33 41 87 42 81 43 83 44 34 45
REMARK SMILES IDX 86 46 80 47 79 48 35 50 67 51 47 52 66 53 48 54 51 55 65 56
REMARK SMILES IDX 84 57 49 58 50 59 64 61 85 62 52 63 36 64 37 65 45 66 38 67
REMARK SMILES IDX 39 68 43 69 46 70 40 71 41 72 44 73 42 74 68 75 69 76 77 77
REMARK SMILES IDX 70 78 71 79 75 80 78 81 72 82 73 83 76 84 74 85 53 86 54 87
REMARK SMILES IDX 62 88 55 89 56 90 60 91 63 92 57 93 58 94 61 95 59 96
REMARK H PARENT 19 6 4 25 24 30 83 49 51 60
REMARK Flexibility Score: inf
ROOT
ATOM      1  C   UNL A   1      33.719  27.917  23.500  1.00  0.00     0.023 C 
ENDROOT
BRANCH   1   2
ATOM      2  C   UNL A   1      33.931  26.520  24.074  1.00  0.00     0.116 C 
BRANCH   2   3
ATOM      3  N   UNL A   1      33.710  25.430  23.157  1.00  0.00    -0.352 N 
ATOM      4  C   UNL A   1      32.778  24.425  23.217  1.00  0.00     0.253 C 
ATOM      5  O   UNL A   1      32.666  23.691  22.232  1.00  0.00    -0.269 OA
ATOM      6  H   UNL A   1      34.313  25.403  22.379  1.00  0.00     0.163 HD
BRANCH   4   7
ATOM      7  C   UNL A   1      31.982  24.101  24.430  1.00  0.00     0.065 A 
ATOM      8  C   UNL A   1      30.948  24.877  24.984  1.00  0.00     0.076 A 
ATOM      9  C   UNL A   1      30.276  24.391  26.120  1.00  0.00     0.029 A 
ATOM     10  C   UNL A   1      30.591  23.154  26.684  1.00  0.00     0.002 A 
ATOM     11  C   UNL A   1      32.281  22.846  25.001  1.00  0.00     0.016 A 
ATOM     12  C   UNL A   1      31.596  22.379  26.123  1.00  0.00     0.001 A 
BRANCH   8  13
ATOM     13  N   UNL A   1      30.588  26.161  24.554  1.00  0.00    -0.255 NA
ATOM     14  C   UNL A   1      29.518  26.305  23.839  1.00  0.00     0.119 C 
BRANCH  14  15
ATOM     15  C   UNL A   1      29.116  27.655  23.386  1.00  0.00    -0.007 A 
ATOM     16  C   UNL A   1      28.301  30.100  22.261  1.00  0.00     0.041 A 
ATOM     17  C   UNL A   1      29.650  29.717  22.241  1.00  0.00     0.027 A 
ATOM     18  C   UNL A   1      27.388  29.290  22.944  1.00  0.00     0.027 A 
ATOM     19  C   UNL A   1      30.056  28.499  22.789  1.00  0.00     0.012 A 
ATOM     20  C   UNL A   1      27.790  28.065  23.501  1.00  0.00     0.012 A 
BRANCH  16  21
ATOM     21  N   UNL A   1      27.982  31.243  21.505  1.00  0.00    -0.326 N 
ATOM     22  C   UNL A   1      28.778  33.142  22.943  1.00  0.00     0.114 C 
ATOM     23  C   UNL A   1      28.117  32.581  21.719  1.00  0.00     0.221 C 
ATOM     24  O   UNL A   1      27.653  33.347  20.867  1.00  0.00    -0.275 OA
ATOM     25  H   UNL A   1      27.573  31.030  20.635  1.00  0.00     0.169 HD
ENDBRANCH  16  21
ENDBRANCH  14  15
ENDBRANCH   8  13
ENDBRANCH   4   7
ENDBRANCH   2   3
ENDBRANCH   1   2
BRANCH   1  26
ATOM     26  C   UNL A   1      33.185  29.047  24.390  1.00  0.00     0.023 C 
BRANCH  26  27
ATOM     27  C   UNL A   1      33.628  29.181  25.846  1.00  0.00     0.116 C 
BRANCH  27  28
ATOM     28  N   UNL A   1      33.034  30.263  26.595  1.00  0.00    -0.352 N 
ATOM     29  C   UNL A   1      33.669  31.204  27.356  1.00  0.00     0.251 C 
ATOM     30  H   UNL A   1      32.053  30.333  26.551  1.00  0.00     0.163 HD
ATOM     31  O   UNL A   1      33.125  32.269  27.626  1.00  0.00    -0.269 OA
BRANCH  29  32
ATOM     32  C   UNL A   1      34.987  30.966  27.934  1.00  0.00     0.039 A 
ATOM     33  C   UNL A   1      35.903  32.025  27.901  1.00  0.00     0.014 A 
ATOM     34  C   UNL A   1      35.357  29.700  28.379  1.00  0.00     0.014 A 
ATOM     35  C   UNL A   1      37.192  31.837  28.385  1.00  0.00     0.010 A 
ATOM     36  C   UNL A   1      36.643  29.518  28.877  1.00  0.00     0.010 A 
ATOM     37  C   UNL A   1      37.557  30.588  28.900  1.00  0.00    -0.014 A 
BRANCH  37  38
ATOM     38  C   UNL A   1      38.860  30.367  29.558  1.00  0.00     0.031 A 
ATOM     39  C   UNL A   1      39.808  29.355  29.009  1.00  0.00     0.074 A 
ATOM     40  C   UNL A   1      39.076  30.948  30.751  1.00  0.00     0.049 A 
ATOM     41  N   UNL A   1      40.768  28.710  29.618  1.00  0.00    -0.248 NA
ATOM     42  C   UNL A   1      39.635  29.001  27.593  1.00  0.00     0.031 C 
ATOM     43  C   UNL A   1      38.211  31.956  31.366  1.00  0.00     0.029 A 
ATOM     44  N   UNL A   1      40.045  30.710  31.692  1.00  0.00    -0.354 N 
ATOM     45  C   UNL A   1      41.277  27.829  28.679  1.00  0.00     0.074 A 
ATOM     46  C   UNL A   1      40.545  28.045  27.447  1.00  0.00     0.031 C 
ATOM     47  C   UNL A   1      38.644  32.198  32.612  1.00  0.00     0.029 A 
ATOM     48  C   UNL A   1      39.778  31.325  32.892  1.00  0.00     0.049 A 
ATOM     49  H   UNL A   1      40.843  30.160  31.526  1.00  0.00     0.167 HD
ATOM     50  C   UNL A   1      42.251  26.904  28.850  1.00  0.00     0.037 A 
ATOM     51  C   UNL A   1      40.335  31.142  34.102  1.00  0.00     0.037 A 
ATOM     52  C   UNL A   1      42.986  26.725  30.074  1.00  0.00     0.049 A 
ATOM     53  C   UNL A   1      41.439  30.142  34.259  1.00  0.00     0.074 A 
ATOM     54  C   UNL A   1      44.018  25.845  30.345  1.00  0.00     0.029 A 
ATOM     55  N   UNL A   1      42.765  27.453  31.234  1.00  0.00    -0.354 N 
ATOM     56  N   UNL A   1      41.907  29.290  33.379  1.00  0.00    -0.248 NA
ATOM     57  C   UNL A   1      42.089  30.072  35.573  1.00  0.00     0.031 C 
ATOM     58  C   UNL A   1      44.412  26.031  31.676  1.00  0.00     0.029 A 
ATOM     59  C   UNL A   1      43.640  27.042  32.225  1.00  0.00     0.049 A 
ATOM     60  H   UNL A   1      42.085  28.158  31.338  1.00  0.00     0.167 HD
ATOM     61  C   UNL A   1      42.909  28.587  34.029  1.00  0.00     0.074 A 
ATOM     62  C   UNL A   1      42.987  29.116  35.376  1.00  0.00     0.031 C 
ATOM     63  C   UNL A   1      43.696  27.593  33.553  1.00  0.00     0.037 A 
BRANCH  50  64
ATOM     64  C   UNL A   1      42.545  25.990  27.704  1.00  0.00     0.064 A 
ATOM     65  C   UNL A   1      41.829  24.805  27.502  1.00  0.00     0.173 A 
ATOM     66  C   UNL A   1      43.541  26.329  26.775  1.00  0.00     0.173 A 
ATOM     67  F   UNL A   1      40.879  24.433  28.374  1.00  0.00    -0.203 F 
ATOM     68  C   UNL A   1      42.105  23.981  26.414  1.00  0.00     0.198 A 
ATOM     69  C   UNL A   1      43.804  25.511  25.680  1.00  0.00     0.198 A 
ATOM     70  F   UNL A   1      44.256  27.453  26.929  1.00  0.00    -0.203 F 
ATOM     71  F   UNL A   1      41.425  22.837  26.250  1.00  0.00    -0.200 F 
ATOM     72  C   UNL A   1      43.088  24.337  25.501  1.00  0.00     0.200 A 
ATOM     73  F   UNL A   1      44.753  25.857  24.799  1.00  0.00    -0.200 F 
ATOM     74  F   UNL A   1      43.350  23.545  24.453  1.00  0.00    -0.200 F 
ENDBRANCH  50  64
BRANCH  51  75
ATOM     75  C   UNL A   1      39.793  31.885  35.262  1.00  0.00     0.064 A 
ATOM     76  C   UNL A   1      40.215  33.190  35.542  1.00  0.00     0.173 A 
ATOM     77  C   UNL A   1      38.799  31.323  36.076  1.00  0.00     0.173 A 
ATOM     78  F   UNL A   1      41.173  33.757  34.796  1.00  0.00    -0.203 F 
ATOM     79  C   UNL A   1      39.661  33.909  36.598  1.00  0.00     0.198 A 
ATOM     80  C   UNL A   1      38.233  32.048  37.121  1.00  0.00     0.198 A 
ATOM     81  F   UNL A   1      38.358  30.079  35.836  1.00  0.00    -0.203 F 
ATOM     82  F   UNL A   1      40.088  35.151  36.858  1.00  0.00    -0.200 F 
ATOM     83  C   UNL A   1      38.666  33.340  37.382  1.00  0.00     0.200 A 
ATOM     84  F   UNL A   1      37.264  31.502  37.867  1.00  0.00    -0.200 F 
ATOM     85  F   UNL A   1      38.122  34.038  38.389  1.00  0.00    -0.200 F 
ENDBRANCH  51  75
BRANCH  63  86
ATOM     86  C   UNL A   1      44.721  27.039  34.489  1.00  0.00     0.064 A 
ATOM     87  C   UNL A   1      45.996  27.611  34.590  1.00  0.00     0.173 A 
ATOM     88  C   UNL A   1      44.411  25.950  35.314  1.00  0.00     0.173 A 
ATOM     89  F   UNL A   1      46.336  28.645  33.807  1.00  0.00    -0.203 F 
ATOM     90  C   UNL A   1      46.933  27.103  35.485  1.00  0.00     0.198 A 
ATOM     91  C   UNL A   1      45.347  25.451  36.214  1.00  0.00     0.198 A 
ATOM     92  F   UNL A   1      43.202  25.373  35.244  1.00  0.00    -0.203 F 
ATOM     93  F   UNL A   1      48.155  27.646  35.553  1.00  0.00    -0.200 F 
ATOM     94  C   UNL A   1      46.606  26.027  36.298  1.00  0.00     0.200 A 
ATOM     95  F   UNL A   1      45.032  24.411  36.999  1.00  0.00    -0.200 F 
ATOM     96  F   UNL A   1      47.511  25.537  37.157  1.00  0.00    -0.200 F 
ENDBRANCH  63  86
ENDBRANCH  37  38
ENDBRANCH  29  32
ENDBRANCH  27  28
ENDBRANCH  26  27
ENDBRANCH   1  26
TORSDOF 14
ENDMDL
MODEL 3
REMARK VINA RESULT:     -13.1      1.673      4.669
REMARK SMILES CC(=O)Nc1ccc(/C=N/c2ccccc2C(=O)NCCCCNC(=O)c2ccc(-c3c4nc(c(-c5c(F)c(F)c(F)c(F)c5F)c5ccc([nH]5)c(-c5c(F)c(F)c(F)c(F)c5F)c5nc(c(-c6c(F)c(F)c(F)c(F)c6F)c6ccc3[nH]6)C=C5)C=C4)cc2)cc1
REMARK SMILES IDX 21 1 20 2 19 3 17 4 18 5 16 7 11 8 12 9 13 10 15 11 14 12
REMARK SMILES IDX 10 13 9 14 8 15 5 16 6 17 91 18 7 19 90 20 4 21 1 22 2 23
REMARK SMILES IDX 3 24 22 26 23 27 24 28 25 29 26 31 27 32 28 33 89 34 29 35
REMARK SMILES IDX 88 36 30 37 31 38 32 39 82 40 33 41 87 42 81 43 83 44 34 45
REMARK SMILES IDX 86 46 80 47 79 48 35 50 67 51 47 52 66 53 48 54 51 55 65 56
REMARK SMILES IDX 84 57 49 58 50 59 64 61 85 62 52 63 36 64 37 65 45 66 38 67
REMARK SMILES IDX 39 68 43 69 46 70 40 71 41 72 44 73 42 74 68 75 69 76 77 77
REMARK SMILES IDX 70 78 71 79 75 80 78 81 72 82 73 83 76 84 74 85 53 86 54 87
REMARK SMILES IDX 62 88 55 89 56 90 60 91 63 92 57 93 58 94 61 95 59 96
REMARK H PARENT 19 6 4 25 24 30 83 49 51 60
REMARK Flexibility Score: inf
ROOT
ATOM      1  C   UNL A   1      31.765  27.443  26.888  1.00  0.00     0.023 C 
ENDROOT
BRANCH   1   2
ATOM      2  C   UNL A   1      31.198  26.076  26.517  1.00  0.00     0.116 C 
BRANCH   2   3
ATOM      3  N   UNL A   1      30.126  26.088  25.554  1.00  0.00    -0.352 N 
ATOM      4  C   UNL A   1      30.195  26.168  24.186  1.00  0.00     0.253 C 
ATOM      5  O   UNL A   1      29.150  25.996  23.552  1.00  0.00    -0.269 OA
ATOM      6  H   UNL A   1      29.218  26.033  25.931  1.00  0.00     0.163 HD
BRANCH   4   7
ATOM      7  C   UNL A   1      31.418  26.555  23.436  1.00  0.00     0.065 A 
ATOM      8  C   UNL A   1      32.397  25.685  22.924  1.00  0.00     0.076 A 
ATOM      9  C   UNL A   1      33.474  26.232  22.203  1.00  0.00     0.029 A 
ATOM     10  C   UNL A   1      33.573  27.603  21.963  1.00  0.00     0.002 A 
ATOM     11  C   UNL A   1      31.523  27.938  23.173  1.00  0.00     0.016 A 
ATOM     12  C   UNL A   1      32.595  28.458  22.448  1.00  0.00     0.001 A 
BRANCH   8  13
ATOM     13  N   UNL A   1      32.446  24.304  23.158  1.00  0.00    -0.255 NA
ATOM     14  C   UNL A   1      33.530  23.791  23.644  1.00  0.00     0.119 C 
BRANCH  14  15
ATOM     15  C   UNL A   1      33.597  22.336  23.908  1.00  0.00    -0.007 A 
ATOM     16  C   UNL A   1      33.612  19.630  24.674  1.00  0.00     0.041 A 
ATOM     17  C   UNL A   1      34.730  20.444  24.900  1.00  0.00     0.027 A 
ATOM     18  C   UNL A   1      32.531  20.164  23.965  1.00  0.00     0.027 A 
ATOM     19  C   UNL A   1      34.722  21.791  24.532  1.00  0.00     0.012 A 
ATOM     20  C   UNL A   1      32.517  21.517  23.587  1.00  0.00     0.012 A 
BRANCH  16  21
ATOM     21  N   UNL A   1      33.657  18.355  25.267  1.00  0.00    -0.326 N 
ATOM     22  C   UNL A   1      34.085  16.818  23.327  1.00  0.00     0.114 C 
ATOM     23  C   UNL A   1      33.824  17.095  24.778  1.00  0.00     0.221 C 
ATOM     24  O   UNL A   1      33.734  16.154  25.575  1.00  0.00    -0.275 OA
ATOM     25  H   UNL A   1      33.544  18.378  26.244  1.00  0.00     0.169 HD
ENDBRANCH  16  21
ENDBRANCH  14  15
ENDBRANCH   8  13
ENDBRANCH   4   7
ENDBRANCH   2   3
ENDBRANCH   1   2
BRANCH   1  26
ATOM     26  C   UNL A   1      33.160  27.860  26.402  1.00  0.00     0.023 C 
BRANCH  26  27
ATOM     27  C   UNL A   1      33.421  29.269  25.869  1.00  0.00     0.116 C 
BRANCH  27  28
ATOM     28  N   UNL A   1      32.812  30.351  26.607  1.00  0.00    -0.352 N 
ATOM     29  C   UNL A   1      33.434  31.309  27.356  1.00  0.00     0.251 C 
ATOM     30  H   UNL A   1      31.830  30.407  26.563  1.00  0.00     0.163 HD
ATOM     31  O   UNL A   1      32.876  32.369  27.615  1.00  0.00    -0.269 OA
BRANCH  29  32
ATOM     32  C   UNL A   1      34.756  31.096  27.936  1.00  0.00     0.039 A 
ATOM     33  C   UNL A   1      35.683  32.139  27.819  1.00  0.00     0.014 A 
ATOM     34  C   UNL A   1      35.117  29.860  28.464  1.00  0.00     0.014 A 
ATOM     35  C   UNL A   1      36.976  31.970  28.300  1.00  0.00     0.010 A 
ATOM     36  C   UNL A   1      36.406  29.698  28.960  1.00  0.00     0.010 A 
ATOM     37  C   UNL A   1      37.333  30.756  28.898  1.00  0.00    -0.014 A 
BRANCH  37  38
ATOM     38  C   UNL A   1      38.641  30.566  29.556  1.00  0.00     0.031 A 
ATOM     39  C   UNL A   1      39.611  29.573  29.009  1.00  0.00     0.074 A 
ATOM     40  C   UNL A   1      38.844  31.155  30.747  1.00  0.00     0.049 A 
ATOM     41  N   UNL A   1      40.585  28.952  29.620  1.00  0.00    -0.248 NA
ATOM     42  C   UNL A   1      39.445  29.211  27.594  1.00  0.00     0.031 C 
ATOM     43  C   UNL A   1      37.957  32.145  31.360  1.00  0.00     0.029 A 
ATOM     44  N   UNL A   1      39.818  30.941  31.688  1.00  0.00    -0.354 N 
ATOM     45  C   UNL A   1      41.113  28.079  28.682  1.00  0.00     0.074 A 
ATOM     46  C   UNL A   1      40.376  28.276  27.450  1.00  0.00     0.031 C 
ATOM     47  C   UNL A   1      38.386  32.400  32.605  1.00  0.00     0.029 A 
ATOM     48  C   UNL A   1      39.539  31.553  32.887  1.00  0.00     0.049 A 
ATOM     49  H   UNL A   1      40.629  30.408  31.523  1.00  0.00     0.167 HD
ATOM     50  C   UNL A   1      42.108  27.177  28.856  1.00  0.00     0.037 A 
ATOM     51  C   UNL A   1      40.100  31.386  34.097  1.00  0.00     0.037 A 
ATOM     52  C   UNL A   1      42.847  27.018  30.080  1.00  0.00     0.049 A 
ATOM     53  C   UNL A   1      41.226  30.412  34.256  1.00  0.00     0.074 A 
ATOM     54  C   UNL A   1      43.899  26.162  30.353  1.00  0.00     0.029 A 
ATOM     55  N   UNL A   1      42.610  27.744  31.238  1.00  0.00    -0.354 N 
ATOM     56  N   UNL A   1      41.713  29.568  33.378  1.00  0.00    -0.248 NA
ATOM     57  C   UNL A   1      41.878  30.360  35.570  1.00  0.00     0.031 C 
ATOM     58  C   UNL A   1      44.289  26.360  31.683  1.00  0.00     0.029 A 
ATOM     59  C   UNL A   1      43.495  27.356  32.229  1.00  0.00     0.049 A 
ATOM     60  H   UNL A   1      41.915  28.434  31.340  1.00  0.00     0.167 HD
ATOM     61  C   UNL A   1      42.731  28.889  34.030  1.00  0.00     0.074 A 
ATOM     62  C   UNL A   1      42.798  29.424  35.375  1.00  0.00     0.031 C 
ATOM     63  C   UNL A   1      43.539  27.911  33.556  1.00  0.00     0.037 A 
BRANCH  50  64
ATOM     64  C   UNL A   1      42.422  26.267  27.713  1.00  0.00     0.064 A 
ATOM     65  C   UNL A   1      43.440  26.555  26.796  1.00  0.00     0.173 A 
ATOM     66  C   UNL A   1      41.709  25.068  27.556  1.00  0.00     0.173 A 
ATOM     67  F   UNL A   1      44.136  27.698  26.897  1.00  0.00    -0.203 F 
ATOM     68  C   UNL A   1      43.730  25.679  25.753  1.00  0.00     0.198 A 
ATOM     69  C   UNL A   1      42.012  24.187  26.521  1.00  0.00     0.198 A 
ATOM     70  F   UNL A   1      40.724  24.751  28.408  1.00  0.00    -0.203 F 
ATOM     71  F   UNL A   1      44.691  25.984  24.870  1.00  0.00    -0.200 F 
ATOM     72  C   UNL A   1      43.019  24.494  25.619  1.00  0.00     0.200 A 
ATOM     73  F   UNL A   1      41.326  23.043  26.395  1.00  0.00    -0.200 F 
ATOM     74  F   UNL A   1      43.302  23.651  24.617  1.00  0.00    -0.200 F 
ENDBRANCH  50  64
BRANCH  51  75
ATOM     75  C   UNL A   1      39.543  32.121  35.255  1.00  0.00     0.064 A 
ATOM     76  C   UNL A   1      38.667  31.496  36.150  1.00  0.00     0.173 A 
ATOM     77  C   UNL A   1      39.925  33.444  35.519  1.00  0.00     0.173 A 
ATOM     78  F   UNL A   1      38.267  30.236  35.925  1.00  0.00    -0.203 F 
ATOM     79  C   UNL A   1      38.191  32.170  37.272  1.00  0.00     0.198 A 
ATOM     80  C   UNL A   1      39.462  34.112  36.650  1.00  0.00     0.198 A 
ATOM     81  F   UNL A   1      40.771  34.076  34.692  1.00  0.00    -0.203 F 
ATOM     82  F   UNL A   1      37.343  31.559  38.109  1.00  0.00    -0.200 F 
ATOM     83  C   UNL A   1      38.595  33.474  37.525  1.00  0.00     0.200 A 
ATOM     84  F   UNL A   1      39.864  35.365  36.898  1.00  0.00    -0.200 F 
ATOM     85  F   UNL A   1      38.148  34.117  38.612  1.00  0.00    -0.200 F 
ENDBRANCH  51  75
BRANCH  63  86
ATOM     86  C   UNL A   1      44.577  27.384  34.493  1.00  0.00     0.064 A 
ATOM     87  C   UNL A   1      45.823  28.010  34.624  1.00  0.00     0.173 A 
ATOM     88  C   UNL A   1      44.307  26.263  35.289  1.00  0.00     0.173 A 
ATOM     89  F   UNL A   1      46.126  29.075  33.868  1.00  0.00    -0.203 F 
ATOM     90  C   UNL A   1      46.772  27.524  35.519  1.00  0.00     0.198 A 
ATOM     91  C   UNL A   1      45.253  25.786  36.190  1.00  0.00     0.198 A 
ATOM     92  F   UNL A   1      43.126  25.634  35.191  1.00  0.00    -0.203 F 
ATOM     93  F   UNL A   1      47.967  28.121  35.615  1.00  0.00    -0.200 F 
ATOM     94  C   UNL A   1      46.484  26.416  36.304  1.00  0.00     0.200 A 
ATOM     95  F   UNL A   1      44.976  24.716  36.948  1.00  0.00    -0.200 F 
ATOM     96  F   UNL A   1      47.399  25.949  37.164  1.00  0.00    -0.200 F 
ENDBRANCH  63  86
ENDBRANCH  37  38
ENDBRANCH  29  32
ENDBRANCH  27  28
ENDBRANCH  26  27
ENDBRANCH   1  26
TORSDOF 14
ENDMDL
