MODEL 1
REMARK VINA RESULT:     -13.5      0.000      0.000
REMARK SMILES C[C@H]1C[N@H+]2CCC[C@@H]2CN1c1cc(Cl)ccc1C(=O)NCCCCNC(=O)c1ccc(-c2c3nc(c(-c4c(F)c(F)c(F)c(F)c4F)c4ccc([nH]4)c(-c4c(F)c(F)c(F)c(F)c4F)c4nc(c(-c5c(F)c(F)c(F)c(F)c5F)c5ccc2[nH]5)C=C4)C=C3)cc1
REMARK SMILES IDX 23 1 22 2 21 3 20 4 18 5 19 6 17 8 11 9 12 10 13 11 16 12
REMARK SMILES IDX 14 13 15 14 10 15 1 16 2 17 3 18 4 19 9 20 5 21 8 22 6 24
REMARK SMILES IDX 7 25 24 26 25 27 26 28 27 30 28 31 29 32 90 33 30 34 89 35
REMARK SMILES IDX 31 36 32 37 33 38 83 39 34 40 88 41 82 42 84 43 35 44 87 45
REMARK SMILES IDX 81 46 80 47 36 49 68 50 48 51 67 52 49 53 52 54 66 55 85 56
REMARK SMILES IDX 50 57 51 58 65 60 86 61 53 62 37 63 38 64 46 65 39 66 40 67
REMARK SMILES IDX 44 68 47 69 41 70 42 71 45 72 43 73 69 74 70 75 78 76 71 77
REMARK SMILES IDX 72 78 76 79 79 80 73 81 74 82 77 83 75 84 54 85 55 86 63 87
REMARK SMILES IDX 56 88 57 89 61 90 64 91 58 92 59 93 62 94 60 95
REMARK H PARENT 20 7 4 23 25 29 84 48 52 59
REMARK Flexibility Score: inf
ROOT
ATOM      1  C   UNL A   1      32.364  29.695  25.122  1.00  0.00     0.023 C 
ENDROOT
BRANCH   1   2
ATOM      2  C   UNL A   1      33.608  28.925  24.661  1.00  0.00     0.023 C 
BRANCH   2   3
ATOM      3  C   UNL A   1      33.880  28.896  23.162  1.00  0.00     0.116 C 
BRANCH   3   4
ATOM      4  N   UNL A   1      34.000  27.608  22.532  1.00  0.00    -0.352 N 
ATOM      5  C   UNL A   1      33.015  26.727  22.133  1.00  0.00     0.253 C 
ATOM      6  O   UNL A   1      33.359  25.904  21.275  1.00  0.00    -0.269 OA
ATOM      7  H   UNL A   1      34.922  27.310  22.361  1.00  0.00     0.163 HD
BRANCH   5   8
ATOM      8  C   UNL A   1      31.633  26.576  22.721  1.00  0.00     0.063 A 
ATOM      9  C   UNL A   1      31.102  25.559  23.554  1.00  0.00     0.052 A 
ATOM     10  C   UNL A   1      29.762  25.693  24.002  1.00  0.00     0.047 A 
ATOM     11  C   UNL A   1      28.968  26.783  23.656  1.00  0.00     0.043 A 
ATOM     12  C   UNL A   1      30.800  27.681  22.401  1.00  0.00     0.017 A 
ATOM     13  Cl  UNL A   1      27.350  26.888  24.232  1.00  0.00    -0.084 Cl
ATOM     14  C   UNL A   1      29.485  27.787  22.858  1.00  0.00     0.021 A 
BRANCH   9  15
ATOM     15  N   UNL A   1      31.831  24.455  24.003  1.00  0.00    -0.357 N 
ATOM     16  C   UNL A   1      32.977  25.730  25.869  1.00  0.00     0.037 C 
ATOM     17  C   UNL A   1      33.100  24.638  24.787  1.00  0.00     0.134 C 
ATOM     18  C   UNL A   1      33.514  23.286  25.467  1.00  0.00     0.287 C 
ATOM     19  N   UNL A   1      33.520  22.156  24.526  1.00  0.00    -0.329 N 
ATOM     20  C   UNL A   1      31.874  23.316  23.046  1.00  0.00     0.182 C 
ATOM     21  C   UNL A   1      33.716  20.848  25.151  1.00  0.00     0.262 C 
ATOM     22  C   UNL A   1      32.218  22.059  23.844  1.00  0.00     0.203 C 
ATOM     23  H   UNL A   1      34.301  22.356  23.901  1.00  0.00     0.348 HD
ATOM     24  C   UNL A   1      32.952  19.874  24.242  1.00  0.00     0.068 C 
ATOM     25  C   UNL A   1      32.370  20.741  23.123  1.00  0.00     0.073 C 
ENDBRANCH   9  15
ENDBRANCH   5   8
ENDBRANCH   3   4
ENDBRANCH   2   3
ENDBRANCH   1   2
BRANCH   1  26
ATOM     26  C   UNL A   1      32.207  29.979  26.621  1.00  0.00     0.116 C 
BRANCH  26  27
ATOM     27  N   UNL A   1      32.249  31.381  27.005  1.00  0.00    -0.352 N 
ATOM     28  C   UNL A   1      33.290  32.143  27.502  1.00  0.00     0.251 C 
ATOM     29  H   UNL A   1      31.398  31.864  26.893  1.00  0.00     0.163 HD
ATOM     30  O   UNL A   1      33.096  33.329  27.735  1.00  0.00    -0.269 OA
BRANCH  28  31
ATOM     31  C   UNL A   1      34.617  31.550  27.820  1.00  0.00     0.039 A 
ATOM     32  C   UNL A   1      35.699  32.430  27.974  1.00  0.00     0.014 A 
ATOM     33  C   UNL A   1      34.821  30.183  28.011  1.00  0.00     0.014 A 
ATOM     34  C   UNL A   1      36.921  31.962  28.459  1.00  0.00     0.010 A 
ATOM     35  C   UNL A   1      36.017  29.725  28.566  1.00  0.00     0.010 A 
ATOM     36  C   UNL A   1      37.059  30.619  28.838  1.00  0.00    -0.014 A 
BRANCH  36  37
ATOM     37  C   UNL A   1      38.235  30.181  29.632  1.00  0.00     0.031 A 
ATOM     38  C   UNL A   1      38.454  30.670  31.031  1.00  0.00     0.074 A 
ATOM     39  C   UNL A   1      39.139  29.377  29.037  1.00  0.00     0.049 A 
ATOM     40  N   UNL A   1      39.420  30.379  31.865  1.00  0.00    -0.248 NA
ATOM     41  C   UNL A   1      37.475  31.633  31.558  1.00  0.00     0.031 C 
ATOM     42  C   UNL A   1      39.070  28.915  27.646  1.00  0.00     0.029 A 
ATOM     43  N   UNL A   1      40.291  28.805  29.513  1.00  0.00    -0.354 N 
ATOM     44  C   UNL A   1      39.161  31.112  33.016  1.00  0.00     0.074 A 
ATOM     45  C   UNL A   1      37.983  31.910  32.751  1.00  0.00     0.031 C 
ATOM     46  C   UNL A   1      40.110  28.107  27.394  1.00  0.00     0.029 A 
ATOM     47  C   UNL A   1      40.933  28.009  28.593  1.00  0.00     0.049 A 
ATOM     48  H   UNL A   1      40.628  28.951  30.426  1.00  0.00     0.167 HD
ATOM     49  C   UNL A   1      39.832  31.095  34.193  1.00  0.00     0.037 A 
ATOM     50  C   UNL A   1      42.053  27.272  28.711  1.00  0.00     0.037 A 
ATOM     51  C   UNL A   1      41.007  30.298  34.439  1.00  0.00     0.049 A 
ATOM     52  C   UNL A   1      42.753  27.243  30.043  1.00  0.00     0.074 A 
ATOM     53  C   UNL A   1      41.760  30.194  35.594  1.00  0.00     0.029 A 
ATOM     54  N   UNL A   1      41.597  29.459  33.501  1.00  0.00    -0.354 N 
ATOM     55  N   UNL A   1      42.454  27.883  31.147  1.00  0.00    -0.248 NA
ATOM     56  C   UNL A   1      43.932  26.373  30.152  1.00  0.00     0.031 C 
ATOM     57  C   UNL A   1      42.819  29.312  35.349  1.00  0.00     0.029 A 
ATOM     58  C   UNL A   1      42.704  28.835  34.053  1.00  0.00     0.049 A 
ATOM     59  H   UNL A   1      41.276  29.328  32.580  1.00  0.00     0.167 HD
ATOM     60  C   UNL A   1      43.390  27.480  32.087  1.00  0.00     0.074 A 
ATOM     61  C   UNL A   1      44.251  26.516  31.430  1.00  0.00     0.031 C 
ATOM     62  C   UNL A   1      43.536  27.876  33.375  1.00  0.00     0.037 A 
BRANCH  49  63
ATOM     63  C   UNL A   1      39.297  31.948  35.307  1.00  0.00     0.064 A 
ATOM     64  C   UNL A   1      38.474  31.403  36.306  1.00  0.00     0.173 A 
ATOM     65  C   UNL A   1      39.628  33.307  35.402  1.00  0.00     0.173 A 
ATOM     66  F   UNL A   1      38.119  30.110  36.257  1.00  0.00    -0.203 F 
ATOM     67  C   UNL A   1      37.982  32.193  37.342  1.00  0.00     0.198 A 
ATOM     68  C   UNL A   1      39.155  34.089  36.454  1.00  0.00     0.198 A 
ATOM     69  F   UNL A   1      40.415  33.878  34.478  1.00  0.00    -0.203 F 
ATOM     70  F   UNL A   1      37.160  31.659  38.256  1.00  0.00    -0.200 F 
ATOM     71  C   UNL A   1      38.327  33.533  37.419  1.00  0.00     0.200 A 
ATOM     72  F   UNL A   1      39.497  35.382  36.533  1.00  0.00    -0.200 F 
ATOM     73  F   UNL A   1      37.855  34.292  38.418  1.00  0.00    -0.200 F 
ENDBRANCH  49  63
BRANCH  50  74
ATOM     74  C   UNL A   1      42.551  26.470  27.562  1.00  0.00     0.064 A 
ATOM     75  C   UNL A   1      42.050  25.186  27.307  1.00  0.00     0.173 A 
ATOM     76  C   UNL A   1      43.543  26.962  26.702  1.00  0.00     0.173 A 
ATOM     77  F   UNL A   1      41.110  24.663  28.109  1.00  0.00    -0.203 F 
ATOM     78  C   UNL A   1      42.544  24.412  26.259  1.00  0.00     0.198 A 
ATOM     79  C   UNL A   1      44.015  26.200  25.633  1.00  0.00     0.198 A 
ATOM     80  F   UNL A   1      44.049  28.190  26.891  1.00  0.00    -0.203 F 
ATOM     81  F   UNL A   1      42.085  23.167  26.074  1.00  0.00    -0.200 F 
ATOM     82  C   UNL A   1      43.523  24.921  25.420  1.00  0.00     0.200 A 
ATOM     83  F   UNL A   1      44.950  26.702  24.816  1.00  0.00    -0.200 F 
ATOM     84  F   UNL A   1      43.999  24.177  24.412  1.00  0.00    -0.200 F 
ENDBRANCH  50  74
BRANCH  62  85
ATOM     85  C   UNL A   1      44.654  27.248  34.150  1.00  0.00     0.064 A 
ATOM     86  C   UNL A   1      45.930  27.829  34.199  1.00  0.00     0.173 A 
ATOM     87  C   UNL A   1      44.444  26.057  34.862  1.00  0.00     0.173 A 
ATOM     88  F   UNL A   1      46.182  28.959  33.520  1.00  0.00    -0.203 F 
ATOM     89  C   UNL A   1      46.964  27.225  34.907  1.00  0.00     0.198 A 
ATOM     90  C   UNL A   1      45.474  25.471  35.592  1.00  0.00     0.198 A 
ATOM     91  F   UNL A   1      43.241  25.465  34.849  1.00  0.00    -0.203 F 
ATOM     92  F   UNL A   1      48.188  27.769  34.895  1.00  0.00    -0.200 F 
ATOM     93  C   UNL A   1      46.734  26.050  35.606  1.00  0.00     0.200 A 
ATOM     94  F   UNL A   1      45.248  24.340  36.275  1.00  0.00    -0.200 F 
ATOM     95  F   UNL A   1      47.731  25.469  36.286  1.00  0.00    -0.200 F 
ENDBRANCH  62  85
ENDBRANCH  36  37
ENDBRANCH  28  31
ENDBRANCH  26  27
ENDBRANCH   1  26
TORSDOF 12
ENDMDL
MODEL 2
REMARK VINA RESULT:     -13.4      1.428      1.956
REMARK SMILES C[C@H]1C[N@H+]2CCC[C@@H]2CN1c1cc(Cl)ccc1C(=O)NCCCCNC(=O)c1ccc(-c2c3nc(c(-c4c(F)c(F)c(F)c(F)c4F)c4ccc([nH]4)c(-c4c(F)c(F)c(F)c(F)c4F)c4nc(c(-c5c(F)c(F)c(F)c(F)c5F)c5ccc2[nH]5)C=C4)C=C3)cc1
REMARK SMILES IDX 23 1 22 2 21 3 20 4 18 5 19 6 17 8 11 9 12 10 13 11 16 12
REMARK SMILES IDX 14 13 15 14 10 15 1 16 2 17 3 18 4 19 9 20 5 21 8 22 6 24
REMARK SMILES IDX 7 25 24 26 25 27 26 28 27 30 28 31 29 32 90 33 30 34 89 35
REMARK SMILES IDX 31 36 32 37 33 38 83 39 34 40 88 41 82 42 84 43 35 44 87 45
REMARK SMILES IDX 81 46 80 47 36 49 68 50 48 51 67 52 49 53 52 54 66 55 85 56
REMARK SMILES IDX 50 57 51 58 65 60 86 61 53 62 37 63 38 64 46 65 39 66 40 67
REMARK SMILES IDX 44 68 47 69 41 70 42 71 45 72 43 73 69 74 70 75 78 76 71 77
REMARK SMILES IDX 72 78 76 79 79 80 73 81 74 82 77 83 75 84 54 85 55 86 63 87
REMARK SMILES IDX 56 88 57 89 61 90 64 91 58 92 59 93 62 94 60 95
REMARK H PARENT 20 7 4 23 25 29 84 48 52 59
REMARK Flexibility Score: inf
ROOT
ATOM      1  C   UNL A   1      32.531  29.692  25.364  1.00  0.00     0.023 C 
ENDROOT
BRANCH   1   2
ATOM      2  C   UNL A   1      33.537  28.560  25.124  1.00  0.00     0.023 C 
BRANCH   2   3
ATOM      3  C   UNL A   1      33.537  27.417  26.132  1.00  0.00     0.116 C 
BRANCH   3   4
ATOM      4  N   UNL A   1      32.371  26.577  26.185  1.00  0.00    -0.352 N 
ATOM      5  C   UNL A   1      31.963  25.578  25.322  1.00  0.00     0.253 C 
ATOM      6  O   UNL A   1      31.168  24.760  25.800  1.00  0.00    -0.269 OA
ATOM      7  H   UNL A   1      31.774  26.737  26.950  1.00  0.00     0.163 HD
BRANCH   5   8
ATOM      8  C   UNL A   1      32.271  25.465  23.849  1.00  0.00     0.063 A 
ATOM      9  C   UNL A   1      33.214  24.648  23.173  1.00  0.00     0.052 A 
ATOM     10  C   UNL A   1      33.263  24.714  21.757  1.00  0.00     0.047 A 
ATOM     11  C   UNL A   1      32.419  25.542  21.022  1.00  0.00     0.043 A 
ATOM     12  C   UNL A   1      31.416  26.285  23.066  1.00  0.00     0.017 A 
ATOM     13  Cl  UNL A   1      32.527  25.576  19.305  1.00  0.00    -0.084 Cl
ATOM     14  C   UNL A   1      31.486  26.327  21.672  1.00  0.00     0.021 A 
BRANCH   9  15
ATOM     15  N   UNL A   1      34.067  23.745  23.813  1.00  0.00    -0.357 N 
ATOM     16  C   UNL A   1      32.527  21.760  23.477  1.00  0.00     0.037 C 
ATOM     17  C   UNL A   1      33.532  22.471  24.405  1.00  0.00     0.134 C 
ATOM     18  C   UNL A   1      34.714  21.490  24.729  1.00  0.00     0.287 C 
ATOM     19  N   UNL A   1      35.790  22.132  25.498  1.00  0.00    -0.329 N 
ATOM     20  C   UNL A   1      35.140  24.381  24.624  1.00  0.00     0.182 C 
ATOM     21  C   UNL A   1      36.992  21.313  25.660  1.00  0.00     0.262 C 
ATOM     22  C   UNL A   1      36.252  23.347  24.806  1.00  0.00     0.203 C 
ATOM     23  H   UNL A   1      35.373  22.309  26.411  1.00  0.00     0.348 HD
ATOM     24  C   UNL A   1      38.138  22.331  25.742  1.00  0.00     0.068 C 
ATOM     25  C   UNL A   1      37.467  23.702  25.627  1.00  0.00     0.073 C 
ENDBRANCH   9  15
ENDBRANCH   5   8
ENDBRANCH   3   4
ENDBRANCH   2   3
ENDBRANCH   1   2
BRANCH   1  26
ATOM     26  C   UNL A   1      32.188  30.056  26.814  1.00  0.00     0.116 C 
BRANCH  26  27
ATOM     27  N   UNL A   1      32.291  31.467  27.150  1.00  0.00    -0.352 N 
ATOM     28  C   UNL A   1      33.371  32.206  27.597  1.00  0.00     0.251 C 
ATOM     29  H   UNL A   1      31.456  31.979  27.043  1.00  0.00     0.163 HD
ATOM     30  O   UNL A   1      33.226  33.405  27.796  1.00  0.00    -0.269 OA
BRANCH  28  31
ATOM     31  C   UNL A   1      34.683  31.574  27.903  1.00  0.00     0.039 A 
ATOM     32  C   UNL A   1      35.796  32.419  28.022  1.00  0.00     0.014 A 
ATOM     33  C   UNL A   1      34.845  30.204  28.115  1.00  0.00     0.014 A 
ATOM     34  C   UNL A   1      37.011  31.919  28.494  1.00  0.00     0.010 A 
ATOM     35  C   UNL A   1      36.034  29.716  28.658  1.00  0.00     0.010 A 
ATOM     36  C   UNL A   1      37.111  30.579  28.895  1.00  0.00    -0.014 A 
BRANCH  36  37
ATOM     37  C   UNL A   1      38.285  30.116  29.676  1.00  0.00     0.031 A 
ATOM     38  C   UNL A   1      38.531  30.601  31.073  1.00  0.00     0.074 A 
ATOM     39  C   UNL A   1      39.165  29.292  29.072  1.00  0.00     0.049 A 
ATOM     40  N   UNL A   1      39.499  30.289  31.896  1.00  0.00    -0.248 NA
ATOM     41  C   UNL A   1      37.579  31.586  31.609  1.00  0.00     0.031 C 
ATOM     42  C   UNL A   1      39.070  28.831  27.682  1.00  0.00     0.029 A 
ATOM     43  N   UNL A   1      40.310  28.695  29.535  1.00  0.00    -0.354 N 
ATOM     44  C   UNL A   1      39.269  31.028  33.049  1.00  0.00     0.074 A 
ATOM     45  C   UNL A   1      38.107  31.852  32.797  1.00  0.00     0.031 C 
ATOM     46  C   UNL A   1      40.089  28.000  27.420  1.00  0.00     0.029 A 
ATOM     47  C   UNL A   1      40.923  27.885  28.609  1.00  0.00     0.049 A 
ATOM     48  H   UNL A   1      40.659  28.834  30.445  1.00  0.00     0.167 HD
ATOM     49  C   UNL A   1      39.953  30.998  34.218  1.00  0.00     0.037 A 
ATOM     50  C   UNL A   1      42.028  27.123  28.715  1.00  0.00     0.037 A 
ATOM     51  C   UNL A   1      41.112  30.174  34.452  1.00  0.00     0.049 A 
ATOM     52  C   UNL A   1      42.742  27.079  30.039  1.00  0.00     0.074 A 
ATOM     53  C   UNL A   1      41.876  30.055  35.599  1.00  0.00     0.029 A 
ATOM     54  N   UNL A   1      41.674  29.323  33.508  1.00  0.00    -0.354 N 
ATOM     55  N   UNL A   1      42.469  27.726  31.146  1.00  0.00    -0.248 NA
ATOM     56  C   UNL A   1      43.902  26.184  30.136  1.00  0.00     0.031 C 
ATOM     57  C   UNL A   1      42.913  29.149  35.343  1.00  0.00     0.029 A 
ATOM     58  C   UNL A   1      42.773  28.675  34.049  1.00  0.00     0.049 A 
ATOM     59  H   UNL A   1      41.339  29.199  32.591  1.00  0.00     0.167 HD
ATOM     60  C   UNL A   1      43.407  27.304  32.076  1.00  0.00     0.074 A 
ATOM     61  C   UNL A   1      44.239  26.320  31.410  1.00  0.00     0.031 C 
ATOM     62  C   UNL A   1      43.576  27.697  33.362  1.00  0.00     0.037 A 
BRANCH  49  63
ATOM     63  C   UNL A   1      39.449  31.862  35.337  1.00  0.00     0.064 A 
ATOM     64  C   UNL A   1      38.580  31.351  36.315  1.00  0.00     0.173 A 
ATOM     65  C   UNL A   1      39.856  33.199  35.460  1.00  0.00     0.173 A 
ATOM     66  F   UNL A   1      38.152  30.082  36.238  1.00  0.00    -0.203 F 
ATOM     67  C   UNL A   1      38.116  32.152  37.355  1.00  0.00     0.198 A 
ATOM     68  C   UNL A   1      39.412  33.990  36.517  1.00  0.00     0.198 A 
ATOM     69  F   UNL A   1      40.691  33.738  34.558  1.00  0.00    -0.203 F 
ATOM     70  F   UNL A   1      37.250  31.653  38.248  1.00  0.00    -0.200 F 
ATOM     71  C   UNL A   1      38.537  33.468  37.459  1.00  0.00     0.200 A 
ATOM     72  F   UNL A   1      39.826  35.260  36.623  1.00  0.00    -0.200 F 
ATOM     73  F   UNL A   1      38.092  34.238  38.463  1.00  0.00    -0.200 F 
ENDBRANCH  49  63
BRANCH  50  74
ATOM     74  C   UNL A   1      42.495  26.309  27.562  1.00  0.00     0.064 A 
ATOM     75  C   UNL A   1      41.951  25.044  27.303  1.00  0.00     0.173 A 
ATOM     76  C   UNL A   1      43.501  26.772  26.700  1.00  0.00     0.173 A 
ATOM     77  F   UNL A   1      40.996  24.550  28.106  1.00  0.00    -0.203 F 
ATOM     78  C   UNL A   1      42.415  24.258  26.250  1.00  0.00     0.198 A 
ATOM     79  C   UNL A   1      43.944  25.999  25.627  1.00  0.00     0.198 A 
ATOM     80  F   UNL A   1      44.049  27.981  26.893  1.00  0.00    -0.203 F 
ATOM     81  F   UNL A   1      41.914  23.030  26.062  1.00  0.00    -0.200 F 
ATOM     82  C   UNL A   1      43.408  24.738  25.410  1.00  0.00     0.200 A 
ATOM     83  F   UNL A   1      44.893  26.472  24.809  1.00  0.00    -0.200 F 
ATOM     84  F   UNL A   1      43.856  23.982  24.398  1.00  0.00    -0.200 F 
ENDBRANCH  50  74
BRANCH  62  85
ATOM     85  C   UNL A   1      44.689  27.045  34.125  1.00  0.00     0.064 A 
ATOM     86  C   UNL A   1      45.977  27.599  34.160  1.00  0.00     0.173 A 
ATOM     87  C   UNL A   1      44.461  25.859  34.840  1.00  0.00     0.173 A 
ATOM     88  F   UNL A   1      46.246  28.723  33.478  1.00  0.00    -0.203 F 
ATOM     89  C   UNL A   1      47.005  26.973  34.857  1.00  0.00     0.198 A 
ATOM     90  C   UNL A   1      45.485  25.250  35.558  1.00  0.00     0.198 A 
ATOM     91  F   UNL A   1      43.244  25.293  34.839  1.00  0.00    -0.203 F 
ATOM     92  F   UNL A   1      48.241  27.490  34.831  1.00  0.00    -0.200 F 
ATOM     93  C   UNL A   1      46.757  25.802  35.559  1.00  0.00     0.200 A 
ATOM     94  F   UNL A   1      45.243  24.125  36.244  1.00  0.00    -0.200 F 
ATOM     95  F   UNL A   1      47.749  25.200  36.228  1.00  0.00    -0.200 F 
ENDBRANCH  62  85
ENDBRANCH  36  37
ENDBRANCH  28  31
ENDBRANCH  26  27
ENDBRANCH   1  26
TORSDOF 12
ENDMDL
MODEL 3
REMARK VINA RESULT:     -13.4      1.424      2.516
REMARK SMILES C[C@H]1C[N@H+]2CCC[C@@H]2CN1c1cc(Cl)ccc1C(=O)NCCCCNC(=O)c1ccc(-c2c3nc(c(-c4c(F)c(F)c(F)c(F)c4F)c4ccc([nH]4)c(-c4c(F)c(F)c(F)c(F)c4F)c4nc(c(-c5c(F)c(F)c(F)c(F)c5F)c5ccc2[nH]5)C=C4)C=C3)cc1
REMARK SMILES IDX 23 1 22 2 21 3 20 4 18 5 19 6 17 8 11 9 12 10 13 11 16 12
REMARK SMILES IDX 14 13 15 14 10 15 1 16 2 17 3 18 4 19 9 20 5 21 8 22 6 24
REMARK SMILES IDX 7 25 24 26 25 27 26 28 27 30 28 31 29 32 90 33 30 34 89 35
REMARK SMILES IDX 31 36 32 37 33 38 83 39 34 40 88 41 82 42 84 43 35 44 87 45
REMARK SMILES IDX 81 46 80 47 36 49 68 50 48 51 67 52 49 53 52 54 66 55 85 56
REMARK SMILES IDX 50 57 51 58 65 60 86 61 53 62 37 63 38 64 46 65 39 66 40 67
REMARK SMILES IDX 44 68 47 69 41 70 42 71 45 72 43 73 69 74 70 75 78 76 71 77
REMARK SMILES IDX 72 78 76 79 79 80 73 81 74 82 77 83 75 84 54 85 55 86 63 87
REMARK SMILES IDX 56 88 57 89 61 90 64 91 58 92 59 93 62 94 60 95
REMARK H PARENT 20 7 4 23 25 29 84 48 52 59
REMARK Flexibility Score: inf
ROOT
ATOM      1  C   UNL A   1      32.640  29.701  25.337  1.00  0.00     0.023 C 
ENDROOT
BRANCH   1   2
ATOM      2  C   UNL A   1      33.540  28.479  25.116  1.00  0.00     0.023 C 
BRANCH   2   3
ATOM      3  C   UNL A   1      33.515  27.404  26.196  1.00  0.00     0.116 C 
BRANCH   3   4
ATOM      4  N   UNL A   1      32.360  26.550  26.257  1.00  0.00    -0.352 N 
ATOM      5  C   UNL A   1      31.956  25.548  25.396  1.00  0.00     0.253 C 
ATOM      6  O   UNL A   1      31.175  24.719  25.879  1.00  0.00    -0.269 OA
ATOM      7  H   UNL A   1      31.767  26.701  27.029  1.00  0.00     0.163 HD
BRANCH   5   8
ATOM      8  C   UNL A   1      32.252  25.442  23.920  1.00  0.00     0.063 A 
ATOM      9  C   UNL A   1      33.193  24.632  23.233  1.00  0.00     0.052 A 
ATOM     10  C   UNL A   1      33.229  24.703  21.817  1.00  0.00     0.047 A 
ATOM     11  C   UNL A   1      32.375  25.530  21.092  1.00  0.00     0.043 A 
ATOM     12  C   UNL A   1      31.386  26.260  23.147  1.00  0.00     0.017 A 
ATOM     13  Cl  UNL A   1      32.469  25.571  19.374  1.00  0.00    -0.084 Cl
ATOM     14  C   UNL A   1      31.444  26.309  21.753  1.00  0.00     0.021 A 
BRANCH   9  15
ATOM     15  N   UNL A   1      34.055  23.730  23.862  1.00  0.00    -0.357 N 
ATOM     16  C   UNL A   1      32.511  21.744  23.553  1.00  0.00     0.037 C 
ATOM     17  C   UNL A   1      33.530  22.457  24.465  1.00  0.00     0.134 C 
ATOM     18  C   UNL A   1      34.717  21.478  24.773  1.00  0.00     0.287 C 
ATOM     19  N   UNL A   1      35.804  22.122  25.525  1.00  0.00    -0.329 N 
ATOM     20  C   UNL A   1      35.140  24.368  24.656  1.00  0.00     0.182 C 
ATOM     21  C   UNL A   1      37.008  21.304  25.671  1.00  0.00     0.262 C 
ATOM     22  C   UNL A   1      36.255  23.336  24.823  1.00  0.00     0.203 C 
ATOM     23  H   UNL A   1      35.400  22.301  26.444  1.00  0.00     0.348 HD
ATOM     24  C   UNL A   1      38.155  22.322  25.734  1.00  0.00     0.068 C 
ATOM     25  C   UNL A   1      37.482  23.693  25.626  1.00  0.00     0.073 C 
ENDBRANCH   9  15
ENDBRANCH   5   8
ENDBRANCH   3   4
ENDBRANCH   2   3
ENDBRANCH   1   2
BRANCH   1  26
ATOM     26  C   UNL A   1      32.249  30.057  26.777  1.00  0.00     0.116 C 
BRANCH  26  27
ATOM     27  N   UNL A   1      32.345  31.465  27.126  1.00  0.00    -0.352 N 
ATOM     28  C   UNL A   1      33.417  32.202  27.593  1.00  0.00     0.251 C 
ATOM     29  H   UNL A   1      31.510  31.976  27.012  1.00  0.00     0.163 HD
ATOM     30  O   UNL A   1      33.267  33.399  27.799  1.00  0.00    -0.269 OA
BRANCH  28  31
ATOM     31  C   UNL A   1      34.727  31.571  27.911  1.00  0.00     0.039 A 
ATOM     32  C   UNL A   1      35.848  32.410  27.988  1.00  0.00     0.014 A 
ATOM     33  C   UNL A   1      34.878  30.209  28.173  1.00  0.00     0.014 A 
ATOM     34  C   UNL A   1      37.062  31.917  28.469  1.00  0.00     0.010 A 
ATOM     35  C   UNL A   1      36.068  29.730  28.724  1.00  0.00     0.010 A 
ATOM     36  C   UNL A   1      37.154  30.592  28.919  1.00  0.00    -0.014 A 
BRANCH  36  37
ATOM     37  C   UNL A   1      38.331  30.148  29.706  1.00  0.00     0.031 A 
ATOM     38  C   UNL A   1      38.571  30.651  31.098  1.00  0.00     0.074 A 
ATOM     39  C   UNL A   1      39.219  29.324  29.113  1.00  0.00     0.049 A 
ATOM     40  N   UNL A   1      39.541  30.357  31.926  1.00  0.00    -0.248 NA
ATOM     41  C   UNL A   1      37.610  31.634  31.622  1.00  0.00     0.031 C 
ATOM     42  C   UNL A   1      39.130  28.847  27.729  1.00  0.00     0.029 A 
ATOM     43  N   UNL A   1      40.368  28.743  29.584  1.00  0.00    -0.354 N 
ATOM     44  C   UNL A   1      39.303  31.108  33.070  1.00  0.00     0.074 A 
ATOM     45  C   UNL A   1      38.134  31.918  32.807  1.00  0.00     0.031 C 
ATOM     46  C   UNL A   1      40.156  28.022  27.477  1.00  0.00     0.029 A 
ATOM     47  C   UNL A   1      40.989  27.927  28.669  1.00  0.00     0.049 A 
ATOM     48  H   UNL A   1      40.715  28.896  30.493  1.00  0.00     0.167 HD
ATOM     49  C   UNL A   1      39.986  31.096  34.240  1.00  0.00     0.037 A 
ATOM     50  C   UNL A   1      42.101  27.176  28.785  1.00  0.00     0.037 A 
ATOM     51  C   UNL A   1      41.152  30.286  34.485  1.00  0.00     0.049 A 
ATOM     52  C   UNL A   1      42.813  27.154  30.110  1.00  0.00     0.074 A 
ATOM     53  C   UNL A   1      41.915  30.187  35.634  1.00  0.00     0.029 A 
ATOM     54  N   UNL A   1      41.722  29.428  33.552  1.00  0.00    -0.354 N 
ATOM     55  N   UNL A   1      42.534  27.811  31.209  1.00  0.00    -0.248 NA
ATOM     56  C   UNL A   1      43.981  26.270  30.218  1.00  0.00     0.031 C 
ATOM     57  C   UNL A   1      42.960  29.287  35.389  1.00  0.00     0.029 A 
ATOM     58  C   UNL A   1      42.825  28.796  34.101  1.00  0.00     0.049 A 
ATOM     59  H   UNL A   1      41.389  29.291  32.636  1.00  0.00     0.167 HD
ATOM     60  C   UNL A   1      43.474  27.408  32.145  1.00  0.00     0.074 A 
ATOM     61  C   UNL A   1      44.315  26.424  31.492  1.00  0.00     0.031 C 
ATOM     62  C   UNL A   1      43.638  27.818  33.426  1.00  0.00     0.037 A 
BRANCH  49  63
ATOM     63  C   UNL A   1      39.473  31.970  35.348  1.00  0.00     0.064 A 
ATOM     64  C   UNL A   1      38.585  31.469  36.315  1.00  0.00     0.173 A 
ATOM     65  C   UNL A   1      39.889  33.303  35.473  1.00  0.00     0.173 A 
ATOM     66  F   UNL A   1      38.147  30.204  36.237  1.00  0.00    -0.203 F 
ATOM     67  C   UNL A   1      38.113  32.278  37.345  1.00  0.00     0.198 A 
ATOM     68  C   UNL A   1      39.437  34.102  36.520  1.00  0.00     0.198 A 
ATOM     69  F   UNL A   1      40.742  33.831  34.581  1.00  0.00    -0.203 F 
ATOM     70  F   UNL A   1      37.230  31.790  38.227  1.00  0.00    -0.200 F 
ATOM     71  C   UNL A   1      38.543  33.591  37.451  1.00  0.00     0.200 A 
ATOM     72  F   UNL A   1      39.861  35.369  36.627  1.00  0.00    -0.200 F 
ATOM     73  F   UNL A   1      38.091  34.368  38.445  1.00  0.00    -0.200 F 
ENDBRANCH  49  63
BRANCH  50  74
ATOM     74  C   UNL A   1      42.577  26.354  27.641  1.00  0.00     0.064 A 
ATOM     75  C   UNL A   1      43.583  26.822  26.784  1.00  0.00     0.173 A 
ATOM     76  C   UNL A   1      42.033  25.089  27.374  1.00  0.00     0.173 A 
ATOM     77  F   UNL A   1      44.126  28.032  26.989  1.00  0.00    -0.203 F 
ATOM     78  C   UNL A   1      44.002  26.075  25.685  1.00  0.00     0.198 A 
ATOM     79  C   UNL A   1      42.475  24.328  26.291  1.00  0.00     0.198 A 
ATOM     80  F   UNL A   1      41.078  24.586  28.168  1.00  0.00    -0.203 F 
ATOM     81  F   UNL A   1      44.925  26.574  24.851  1.00  0.00    -0.200 F 
ATOM     82  C   UNL A   1      43.451  24.827  25.442  1.00  0.00     0.200 A 
ATOM     83  F   UNL A   1      41.951  23.115  26.069  1.00  0.00    -0.200 F 
ATOM     84  F   UNL A   1      43.854  24.109  24.384  1.00  0.00    -0.200 F 
ENDBRANCH  50  74
BRANCH  62  85
ATOM     85  C   UNL A   1      44.755  27.184  34.198  1.00  0.00     0.064 A 
ATOM     86  C   UNL A   1      44.564  26.000  34.926  1.00  0.00     0.173 A 
ATOM     87  C   UNL A   1      46.035  27.760  34.200  1.00  0.00     0.173 A 
ATOM     88  F   UNL A   1      43.353  25.423  34.967  1.00  0.00    -0.203 F 
ATOM     89  C   UNL A   1      45.605  25.432  35.654  1.00  0.00     0.198 A 
ATOM     90  C   UNL A   1      47.080  27.174  34.907  1.00  0.00     0.198 A 
ATOM     91  F   UNL A   1      46.268  28.890  33.516  1.00  0.00    -0.203 F 
ATOM     92  F   UNL A   1      45.385  24.332  36.387  1.00  0.00    -0.200 F 
ATOM     93  C   UNL A   1      46.862  26.017  35.640  1.00  0.00     0.200 A 
ATOM     94  F   UNL A   1      48.297  27.734  34.886  1.00  0.00    -0.200 F 
ATOM     95  F   UNL A   1      47.863  25.470  36.343  1.00  0.00    -0.200 F 
ENDBRANCH  62  85
ENDBRANCH  36  37
ENDBRANCH  28  31
ENDBRANCH  26  27
ENDBRANCH   1  26
TORSDOF 12
ENDMDL
