MODEL 1
REMARK VINA RESULT:     -12.9      0.000      0.000
REMARK SMILES COc1ccc(NC(=O)N2CC[C@@H](C(=O)NCCCCNC(=O)c3ccc(-c4c5nc(c(-c6c(F)c(F)c(F)c(F)c6F)c6ccc([nH]6)c(-c6c(F)c(F)c(F)c(F)c6F)c6nc(c(-c7c(F)c(F)c(F)c(F)c7F)c7ccc4[nH]7)C=C6)C=C5)cc3)[C@H]2C)cc1F
REMARK SMILES IDX 18 1 17 2 16 3 14 4 15 5 13 7 10 8 11 9 87 10 12 11 88 12
REMARK SMILES IDX 8 13 7 14 9 16 6 17 3 18 4 19 90 20 5 21 89 22 91 23 2 24
REMARK SMILES IDX 1 25 19 26 20 27 21 28 22 29 23 31 24 32 25 33 86 34 26 35
REMARK SMILES IDX 85 36 27 37 28 38 29 39 79 40 30 41 84 42 78 43 80 44 31 45
REMARK SMILES IDX 83 46 77 47 76 48 32 50 64 51 44 52 63 53 45 54 48 55 62 56
REMARK SMILES IDX 81 57 46 58 47 59 61 61 82 62 49 63 33 64 34 65 42 66 35 67
REMARK SMILES IDX 36 68 40 69 43 70 37 71 38 72 41 73 39 74 65 75 66 76 74 77
REMARK SMILES IDX 67 78 68 79 72 80 75 81 69 82 70 83 73 84 71 85 50 86 51 87
REMARK SMILES IDX 59 88 52 89 53 90 57 91 60 92 54 93 55 94 58 95 56 96
REMARK H PARENT 16 6 7 15 21 30 80 49 48 60
REMARK Flexibility Score: inf
ROOT
ATOM      1  C   UNL A   1      37.956  21.473  25.087  1.00  0.00     0.023 C 
ENDROOT
BRANCH   1   2
ATOM      2  C   UNL A   1      36.441  21.450  24.904  1.00  0.00     0.116 C 
BRANCH   2   3
ATOM      3  N   UNL A   1      36.019  22.325  23.829  1.00  0.00    -0.356 N 
ATOM      4  C   UNL A   1      34.796  22.812  23.498  1.00  0.00     0.225 C 
ATOM      5  O   UNL A   1      34.732  23.479  22.460  1.00  0.00    -0.275 OA
ATOM      6  H   UNL A   1      36.748  22.618  23.235  1.00  0.00     0.163 HD
BRANCH   4   7
ATOM      7  C   UNL A   1      33.534  22.579  24.319  1.00  0.00     0.102 C 
ATOM      8  N   UNL A   1      31.772  23.890  25.293  1.00  0.00    -0.321 N 
ATOM      9  C   UNL A   1      31.160  22.871  24.460  1.00  0.00     0.122 C 
ATOM     10  C   UNL A   1      33.200  23.553  25.472  1.00  0.00     0.096 C 
ATOM     11  C   UNL A   1      32.247  22.418  23.506  1.00  0.00     0.037 C 
ATOM     12  C   UNL A   1      34.162  24.708  25.689  1.00  0.00     0.032 C 
BRANCH   8  13
ATOM     13  C   UNL A   1      31.005  24.365  26.342  1.00  0.00     0.322 C 
ATOM     14  N   UNL A   1      30.663  25.684  26.364  1.00  0.00    -0.308 N 
ATOM     15  H   UNL A   1      30.594  26.081  27.262  1.00  0.00     0.171 HD
ATOM     16  O   UNL A   1      30.680  23.651  27.292  1.00  0.00    -0.248 OA
BRANCH  14  17
ATOM     17  C   UNL A   1      30.392  26.563  25.304  1.00  0.00     0.046 A 
ATOM     18  C   UNL A   1      30.094  28.224  23.072  1.00  0.00     0.154 A 
ATOM     19  C   UNL A   1      29.110  27.288  23.383  1.00  0.00     0.052 A 
ATOM     20  C   UNL A   1      31.143  28.424  23.967  1.00  0.00     0.167 A 
ATOM     21  C   UNL A   1      29.275  26.432  24.477  1.00  0.00     0.030 A 
ATOM     22  C   UNL A   1      31.282  27.620  25.095  1.00  0.00     0.069 A 
ATOM     23  F   UNL A   1      32.061  29.377  23.747  1.00  0.00    -0.203 F 
BRANCH  18  24
ATOM     24  O   UNL A   1      29.944  28.879  21.880  1.00  0.00    -0.494 OA
ATOM     25  C   UNL A   1      29.165  30.073  21.986  1.00  0.00     0.278 C 
ENDBRANCH  18  24
ENDBRANCH  14  17
ENDBRANCH   8  13
ENDBRANCH   4   7
ENDBRANCH   2   3
ENDBRANCH   1   2
BRANCH   1  26
ATOM     26  C   UNL A   1      38.650  20.122  25.137  1.00  0.00     0.023 C 
BRANCH  26  27
ATOM     27  C   UNL A   1      39.608  19.933  26.304  1.00  0.00     0.116 C 
BRANCH  27  28
ATOM     28  N   UNL A   1      40.637  18.922  26.078  1.00  0.00    -0.352 N 
ATOM     29  C   UNL A   1      42.007  19.046  26.047  1.00  0.00     0.251 C 
ATOM     30  H   UNL A   1      40.298  18.011  25.923  1.00  0.00     0.163 HD
ATOM     31  O   UNL A   1      42.711  18.079  25.772  1.00  0.00    -0.269 OA
BRANCH  29  32
ATOM     32  C   UNL A   1      42.628  20.362  26.304  1.00  0.00     0.039 A 
ATOM     33  C   UNL A   1      43.128  21.102  25.230  1.00  0.00     0.014 A 
ATOM     34  C   UNL A   1      42.649  20.891  27.593  1.00  0.00     0.014 A 
ATOM     35  C   UNL A   1      43.541  22.420  25.437  1.00  0.00     0.010 A 
ATOM     36  C   UNL A   1      42.949  22.234  27.776  1.00  0.00     0.010 A 
ATOM     37  C   UNL A   1      43.394  23.016  26.699  1.00  0.00    -0.014 A 
BRANCH  37  38
ATOM     38  C   UNL A   1      43.691  24.452  26.934  1.00  0.00     0.031 A 
ATOM     39  C   UNL A   1      45.077  24.977  26.672  1.00  0.00     0.074 A 
ATOM     40  C   UNL A   1      42.755  25.257  27.477  1.00  0.00     0.049 A 
ATOM     41  N   UNL A   1      45.589  26.145  26.964  1.00  0.00    -0.248 NA
ATOM     42  C   UNL A   1      46.027  24.048  26.039  1.00  0.00     0.031 C 
ATOM     43  C   UNL A   1      41.392  24.855  27.833  1.00  0.00     0.029 A 
ATOM     44  N   UNL A   1      42.812  26.581  27.835  1.00  0.00    -0.354 N 
ATOM     45  C   UNL A   1      46.924  26.073  26.587  1.00  0.00     0.074 A 
ATOM     46  C   UNL A   1      47.158  24.734  26.097  1.00  0.00     0.031 C 
ATOM     47  C   UNL A   1      40.732  25.918  28.320  1.00  0.00     0.029 A 
ATOM     48  C   UNL A   1      41.634  27.064  28.354  1.00  0.00     0.049 A 
ATOM     49  H   UNL A   1      43.619  27.134  27.729  1.00  0.00     0.167 HD
ATOM     50  C   UNL A   1      47.861  27.048  26.615  1.00  0.00     0.037 A 
ATOM     51  C   UNL A   1      41.320  28.294  28.808  1.00  0.00     0.037 A 
ATOM     52  C   UNL A   1      47.606  28.399  27.036  1.00  0.00     0.049 A 
ATOM     53  C   UNL A   1      42.368  29.372  28.788  1.00  0.00     0.074 A 
ATOM     54  C   UNL A   1      48.472  29.478  27.038  1.00  0.00     0.029 A 
ATOM     55  N   UNL A   1      46.387  28.858  27.510  1.00  0.00    -0.354 N 
ATOM     56  N   UNL A   1      43.616  29.301  28.394  1.00  0.00    -0.248 NA
ATOM     57  C   UNL A   1      41.967  30.700  29.273  1.00  0.00     0.031 C 
ATOM     58  C   UNL A   1      47.782  30.587  27.535  1.00  0.00     0.029 A 
ATOM     59  C   UNL A   1      46.477  30.207  27.808  1.00  0.00     0.049 A 
ATOM     60  H   UNL A   1      45.578  28.308  27.618  1.00  0.00     0.167 HD
ATOM     61  C   UNL A   1      44.141  30.576  28.559  1.00  0.00     0.074 A 
ATOM     62  C   UNL A   1      43.074  31.404  29.080  1.00  0.00     0.031 C 
ATOM     63  C   UNL A   1      45.396  31.018  28.306  1.00  0.00     0.037 A 
BRANCH  50  64
ATOM     64  C   UNL A   1      49.243  26.703  26.146  1.00  0.00     0.064 A 
ATOM     65  C   UNL A   1      50.193  26.190  27.040  1.00  0.00     0.173 A 
ATOM     66  C   UNL A   1      49.644  26.933  24.821  1.00  0.00     0.173 A 
ATOM     67  F   UNL A   1      49.863  25.955  28.319  1.00  0.00    -0.203 F 
ATOM     68  C   UNL A   1      51.498  25.929  26.627  1.00  0.00     0.198 A 
ATOM     69  C   UNL A   1      50.940  26.644  24.405  1.00  0.00     0.198 A 
ATOM     70  F   UNL A   1      48.767  27.410  23.924  1.00  0.00    -0.203 F 
ATOM     71  F   UNL A   1      52.397  25.465  27.505  1.00  0.00    -0.200 F 
ATOM     72  C   UNL A   1      51.868  26.151  25.309  1.00  0.00     0.200 A 
ATOM     73  F   UNL A   1      51.288  26.834  23.125  1.00  0.00    -0.200 F 
ATOM     74  F   UNL A   1      53.119  25.887  24.909  1.00  0.00    -0.200 F 
ENDBRANCH  50  64
BRANCH  51  75
ATOM     75  C   UNL A   1      39.938  28.580  29.274  1.00  0.00     0.064 A 
ATOM     76  C   UNL A   1      39.543  28.347  30.598  1.00  0.00     0.173 A 
ATOM     77  C   UNL A   1      38.977  29.082  28.384  1.00  0.00     0.173 A 
ATOM     78  F   UNL A   1      40.422  27.862  31.487  1.00  0.00    -0.203 F 
ATOM     79  C   UNL A   1      38.235  28.595  31.013  1.00  0.00     0.198 A 
ATOM     80  C   UNL A   1      37.677  29.352  28.806  1.00  0.00     0.198 A 
ATOM     81  F   UNL A   1      39.314  29.339  27.112  1.00  0.00    -0.203 F 
ATOM     82  F   UNL A   1      37.874  28.338  32.277  1.00  0.00    -0.200 F 
ATOM     83  C   UNL A   1      37.304  29.102  30.117  1.00  0.00     0.200 A 
ATOM     84  F   UNL A   1      36.789  29.863  27.943  1.00  0.00    -0.200 F 
ATOM     85  F   UNL A   1      36.052  29.353  30.519  1.00  0.00    -0.200 F 
ENDBRANCH  51  75
BRANCH  63  86
ATOM     86  C   UNL A   1      45.687  32.467  28.551  1.00  0.00     0.064 A 
ATOM     87  C   UNL A   1      46.107  32.900  29.817  1.00  0.00     0.173 A 
ATOM     88  C   UNL A   1      45.458  33.434  27.563  1.00  0.00     0.173 A 
ATOM     89  F   UNL A   1      46.330  32.011  30.797  1.00  0.00    -0.203 F 
ATOM     90  C   UNL A   1      46.272  34.254  30.090  1.00  0.00     0.198 A 
ATOM     91  C   UNL A   1      45.647  34.786  27.833  1.00  0.00     0.198 A 
ATOM     92  F   UNL A   1      45.066  33.065  26.335  1.00  0.00    -0.203 F 
ATOM     93  F   UNL A   1      46.639  34.648  31.318  1.00  0.00    -0.200 F 
ATOM     94  C   UNL A   1      46.042  35.196  29.098  1.00  0.00     0.200 A 
ATOM     95  F   UNL A   1      45.445  35.694  26.868  1.00  0.00    -0.200 F 
ATOM     96  F   UNL A   1      46.204  36.500  29.362  1.00  0.00    -0.200 F 
ENDBRANCH  63  86
ENDBRANCH  37  38
ENDBRANCH  29  32
ENDBRANCH  27  28
ENDBRANCH  26  27
ENDBRANCH   1  26
TORSDOF 14
ENDMDL
MODEL 2
REMARK VINA RESULT:     -12.9      0.108      1.578
REMARK SMILES COc1ccc(NC(=O)N2CC[C@@H](C(=O)NCCCCNC(=O)c3ccc(-c4c5nc(c(-c6c(F)c(F)c(F)c(F)c6F)c6ccc([nH]6)c(-c6c(F)c(F)c(F)c(F)c6F)c6nc(c(-c7c(F)c(F)c(F)c(F)c7F)c7ccc4[nH]7)C=C6)C=C5)cc3)[C@H]2C)cc1F
REMARK SMILES IDX 18 1 17 2 16 3 14 4 15 5 13 7 10 8 11 9 87 10 12 11 88 12
REMARK SMILES IDX 8 13 7 14 9 16 6 17 3 18 4 19 90 20 5 21 89 22 91 23 2 24
REMARK SMILES IDX 1 25 19 26 20 27 21 28 22 29 23 31 24 32 25 33 86 34 26 35
REMARK SMILES IDX 85 36 27 37 28 38 29 39 79 40 30 41 84 42 78 43 80 44 31 45
REMARK SMILES IDX 83 46 77 47 76 48 32 50 64 51 44 52 63 53 45 54 48 55 62 56
REMARK SMILES IDX 81 57 46 58 47 59 61 61 82 62 49 63 33 64 34 65 42 66 35 67
REMARK SMILES IDX 36 68 40 69 43 70 37 71 38 72 41 73 39 74 65 75 66 76 74 77
REMARK SMILES IDX 67 78 68 79 72 80 75 81 69 82 70 83 73 84 71 85 50 86 51 87
REMARK SMILES IDX 59 88 52 89 53 90 57 91 60 92 54 93 55 94 58 95 56 96
REMARK H PARENT 16 6 7 15 21 30 80 49 48 60
REMARK Flexibility Score: inf
ROOT
ATOM      1  C   UNL A   1      37.946  21.349  24.995  1.00  0.00     0.023 C 
ENDROOT
BRANCH   1   2
ATOM      2  C   UNL A   1      36.428  21.379  24.851  1.00  0.00     0.116 C 
BRANCH   2   3
ATOM      3  N   UNL A   1      36.008  22.291  23.808  1.00  0.00    -0.356 N 
ATOM      4  C   UNL A   1      34.790  22.812  23.509  1.00  0.00     0.225 C 
ATOM      5  O   UNL A   1      34.724  23.509  22.491  1.00  0.00    -0.275 OA
ATOM      6  H   UNL A   1      36.733  22.585  23.209  1.00  0.00     0.163 HD
BRANCH   4   7
ATOM      7  C   UNL A   1      33.536  22.584  24.344  1.00  0.00     0.102 C 
ATOM      8  N   UNL A   1      31.769  23.897  25.305  1.00  0.00    -0.321 N 
ATOM      9  C   UNL A   1      31.161  22.855  24.497  1.00  0.00     0.122 C 
ATOM     10  C   UNL A   1      33.201  23.578  25.480  1.00  0.00     0.096 C 
ATOM     11  C   UNL A   1      32.246  22.394  23.544  1.00  0.00     0.037 C 
ATOM     12  C   UNL A   1      34.153  24.746  25.667  1.00  0.00     0.032 C 
BRANCH   8  13
ATOM     13  C   UNL A   1      31.005  24.385  26.350  1.00  0.00     0.322 C 
ATOM     14  N   UNL A   1      30.672  25.706  26.362  1.00  0.00    -0.308 N 
ATOM     15  H   UNL A   1      30.605  26.111  27.257  1.00  0.00     0.171 HD
ATOM     16  O   UNL A   1      30.673  23.681  27.305  1.00  0.00    -0.248 OA
BRANCH  14  17
ATOM     17  C   UNL A   1      30.409  26.580  25.295  1.00  0.00     0.046 A 
ATOM     18  C   UNL A   1      30.122  28.224  23.049  1.00  0.00     0.154 A 
ATOM     19  C   UNL A   1      29.124  27.309  23.378  1.00  0.00     0.052 A 
ATOM     20  C   UNL A   1      31.182  28.413  23.934  1.00  0.00     0.167 A 
ATOM     21  C   UNL A   1      29.283  26.461  24.478  1.00  0.00     0.030 A 
ATOM     22  C   UNL A   1      31.315  27.618  25.068  1.00  0.00     0.069 A 
ATOM     23  F   UNL A   1      32.114  29.347  23.696  1.00  0.00    -0.203 F 
BRANCH  18  24
ATOM     24  O   UNL A   1      29.974  28.870  21.852  1.00  0.00    -0.494 OA
ATOM     25  C   UNL A   1      29.307  30.129  21.968  1.00  0.00     0.278 C 
ENDBRANCH  18  24
ENDBRANCH  14  17
ENDBRANCH   8  13
ENDBRANCH   4   7
ENDBRANCH   2   3
ENDBRANCH   1   2
BRANCH   1  26
ATOM     26  C   UNL A   1      38.576  19.985  25.221  1.00  0.00     0.023 C 
BRANCH  26  27
ATOM     27  C   UNL A   1      39.654  19.941  26.292  1.00  0.00     0.116 C 
BRANCH  27  28
ATOM     28  N   UNL A   1      40.694  18.943  26.059  1.00  0.00    -0.352 N 
ATOM     29  C   UNL A   1      42.063  19.082  26.026  1.00  0.00     0.251 C 
ATOM     30  H   UNL A   1      40.364  18.029  25.899  1.00  0.00     0.163 HD
ATOM     31  O   UNL A   1      42.776  18.123  25.743  1.00  0.00    -0.269 OA
BRANCH  29  32
ATOM     32  C   UNL A   1      42.670  20.402  26.288  1.00  0.00     0.039 A 
ATOM     33  C   UNL A   1      43.130  21.168  25.214  1.00  0.00     0.014 A 
ATOM     34  C   UNL A   1      42.718  20.910  27.585  1.00  0.00     0.014 A 
ATOM     35  C   UNL A   1      43.528  22.489  25.432  1.00  0.00     0.010 A 
ATOM     36  C   UNL A   1      43.003  22.254  27.783  1.00  0.00     0.010 A 
ATOM     37  C   UNL A   1      43.406  23.061  26.708  1.00  0.00    -0.014 A 
BRANCH  37  38
ATOM     38  C   UNL A   1      43.688  24.498  26.960  1.00  0.00     0.031 A 
ATOM     39  C   UNL A   1      45.071  25.038  26.715  1.00  0.00     0.074 A 
ATOM     40  C   UNL A   1      42.740  25.288  27.503  1.00  0.00     0.049 A 
ATOM     41  N   UNL A   1      45.570  26.208  27.022  1.00  0.00    -0.248 NA
ATOM     42  C   UNL A   1      46.035  24.124  26.080  1.00  0.00     0.031 C 
ATOM     43  C   UNL A   1      41.378  24.870  27.844  1.00  0.00     0.029 A 
ATOM     44  N   UNL A   1      42.781  26.609  27.874  1.00  0.00    -0.354 N 
ATOM     45  C   UNL A   1      46.908  26.152  26.655  1.00  0.00     0.074 A 
ATOM     46  C   UNL A   1      47.159  24.820  26.154  1.00  0.00     0.031 C 
ATOM     47  C   UNL A   1      40.704  25.921  28.336  1.00  0.00     0.029 A 
ATOM     48  C   UNL A   1      41.594  27.076  28.389  1.00  0.00     0.049 A 
ATOM     49  H   UNL A   1      43.584  27.170  27.780  1.00  0.00     0.167 HD
ATOM     50  C   UNL A   1      47.836  27.136  26.700  1.00  0.00     0.037 A 
ATOM     51  C   UNL A   1      41.265  28.298  28.852  1.00  0.00     0.037 A 
ATOM     52  C   UNL A   1      47.565  28.480  27.133  1.00  0.00     0.049 A 
ATOM     53  C   UNL A   1      42.304  29.386  28.851  1.00  0.00     0.074 A 
ATOM     54  C   UNL A   1      48.420  29.567  27.153  1.00  0.00     0.029 A 
ATOM     55  N   UNL A   1      46.337  28.923  27.601  1.00  0.00    -0.354 N 
ATOM     56  N   UNL A   1      43.556  29.331  28.467  1.00  0.00    -0.248 NA
ATOM     57  C   UNL A   1      41.886  30.705  29.346  1.00  0.00     0.031 C 
ATOM     58  C   UNL A   1      47.716  30.664  27.655  1.00  0.00     0.029 A 
ATOM     59  C   UNL A   1      46.412  30.270  27.913  1.00  0.00     0.049 A 
ATOM     60  H   UNL A   1      45.533  28.364  27.697  1.00  0.00     0.167 HD
ATOM     61  C   UNL A   1      44.066  30.609  28.648  1.00  0.00     0.074 A 
ATOM     62  C   UNL A   1      42.987  31.422  29.169  1.00  0.00     0.031 C 
ATOM     63  C   UNL A   1      45.320  31.065  28.410  1.00  0.00     0.037 A 
BRANCH  50  64
ATOM     64  C   UNL A   1      49.224  26.808  26.239  1.00  0.00     0.064 A 
ATOM     65  C   UNL A   1      49.601  27.013  24.904  1.00  0.00     0.173 A 
ATOM     66  C   UNL A   1      50.167  26.238  27.108  1.00  0.00     0.173 A 
ATOM     67  F   UNL A   1      48.736  27.551  24.031  1.00  0.00    -0.203 F 
ATOM     68  C   UNL A   1      50.868  26.649  24.453  1.00  0.00     0.198 A 
ATOM     69  C   UNL A   1      51.441  25.903  26.661  1.00  0.00     0.198 A 
ATOM     70  F   UNL A   1      49.859  26.036  28.398  1.00  0.00    -0.203 F 
ATOM     71  F   UNL A   1      51.197  26.828  23.167  1.00  0.00    -0.200 F 
ATOM     72  C   UNL A   1      51.788  26.100  25.333  1.00  0.00     0.200 A 
ATOM     73  F   UNL A   1      52.338  25.397  27.520  1.00  0.00    -0.200 F 
ATOM     74  F   UNL A   1      53.011  25.762  24.903  1.00  0.00    -0.200 F 
ENDBRANCH  50  64
BRANCH  51  75
ATOM     75  C   UNL A   1      39.877  28.567  29.309  1.00  0.00     0.064 A 
ATOM     76  C   UNL A   1      38.902  29.080  28.443  1.00  0.00     0.173 A 
ATOM     77  C   UNL A   1      39.507  28.327  30.640  1.00  0.00     0.173 A 
ATOM     78  F   UNL A   1      39.207  29.332  27.161  1.00  0.00    -0.203 F 
ATOM     79  C   UNL A   1      37.611  29.353  28.893  1.00  0.00     0.198 A 
ATOM     80  C   UNL A   1      38.210  28.578  31.083  1.00  0.00     0.198 A 
ATOM     81  F   UNL A   1      40.400  27.819  31.501  1.00  0.00    -0.203 F 
ATOM     82  F   UNL A   1      36.704  29.869  28.052  1.00  0.00    -0.200 F 
ATOM     83  C   UNL A   1      37.265  29.097  30.212  1.00  0.00     0.200 A 
ATOM     84  F   UNL A   1      37.875  28.308  32.352  1.00  0.00    -0.200 F 
ATOM     85  F   UNL A   1      36.021  29.347  30.641  1.00  0.00    -0.200 F 
ENDBRANCH  51  75
BRANCH  63  86
ATOM     86  C   UNL A   1      45.595  32.514  28.672  1.00  0.00     0.064 A 
ATOM     87  C   UNL A   1      45.989  32.940  29.949  1.00  0.00     0.173 A 
ATOM     88  C   UNL A   1      45.376  33.488  27.688  1.00  0.00     0.173 A 
ATOM     89  F   UNL A   1      46.201  32.045  30.925  1.00  0.00    -0.203 F 
ATOM     90  C   UNL A   1      46.138  34.293  30.236  1.00  0.00     0.198 A 
ATOM     91  C   UNL A   1      45.549  34.839  27.972  1.00  0.00     0.198 A 
ATOM     92  F   UNL A   1      45.009  33.125  26.450  1.00  0.00    -0.203 F 
ATOM     93  F   UNL A   1      46.480  34.681  31.472  1.00  0.00    -0.200 F 
ATOM     94  C   UNL A   1      45.919  35.241  29.247  1.00  0.00     0.200 A 
ATOM     95  F   UNL A   1      45.357  35.753  27.011  1.00  0.00    -0.200 F 
ATOM     96  F   UNL A   1      46.065  36.544  29.524  1.00  0.00    -0.200 F 
ENDBRANCH  63  86
ENDBRANCH  37  38
ENDBRANCH  29  32
ENDBRANCH  27  28
ENDBRANCH  26  27
ENDBRANCH   1  26
TORSDOF 14
ENDMDL
MODEL 3
REMARK VINA RESULT:     -12.7      5.440     11.117
REMARK SMILES COc1ccc(NC(=O)N2CC[C@@H](C(=O)NCCCCNC(=O)c3ccc(-c4c5nc(c(-c6c(F)c(F)c(F)c(F)c6F)c6ccc([nH]6)c(-c6c(F)c(F)c(F)c(F)c6F)c6nc(c(-c7c(F)c(F)c(F)c(F)c7F)c7ccc4[nH]7)C=C6)C=C5)cc3)[C@H]2C)cc1F
REMARK SMILES IDX 18 1 17 2 16 3 14 4 15 5 13 7 10 8 11 9 87 10 12 11 88 12
REMARK SMILES IDX 8 13 7 14 9 16 6 17 3 18 4 19 90 20 5 21 89 22 91 23 2 24
REMARK SMILES IDX 1 25 19 26 20 27 21 28 22 29 23 31 24 32 25 33 86 34 26 35
REMARK SMILES IDX 85 36 27 37 28 38 29 39 79 40 30 41 84 42 78 43 80 44 31 45
REMARK SMILES IDX 83 46 77 47 76 48 32 50 64 51 44 52 63 53 45 54 48 55 62 56
REMARK SMILES IDX 81 57 46 58 47 59 61 61 82 62 49 63 33 64 34 65 42 66 35 67
REMARK SMILES IDX 36 68 40 69 43 70 37 71 38 72 41 73 39 74 65 75 66 76 74 77
REMARK SMILES IDX 67 78 68 79 72 80 75 81 69 82 70 83 73 84 71 85 50 86 51 87
REMARK SMILES IDX 59 88 52 89 53 90 57 91 60 92 54 93 55 94 58 95 56 96
REMARK H PARENT 16 6 7 15 21 30 80 49 48 60
REMARK Flexibility Score: inf
ROOT
ATOM      1  C   UNL A   1      31.803  30.614  26.674  1.00  0.00     0.023 C 
ENDROOT
BRANCH   1   2
ATOM      2  C   UNL A   1      31.422  30.020  25.320  1.00  0.00     0.116 C 
BRANCH   2   3
ATOM      3  N   UNL A   1      32.586  29.782  24.494  1.00  0.00    -0.356 N 
ATOM      4  C   UNL A   1      32.987  28.684  23.804  1.00  0.00     0.225 C 
ATOM      5  O   UNL A   1      34.088  28.754  23.248  1.00  0.00    -0.275 OA
ATOM      6  H   UNL A   1      33.195  30.553  24.418  1.00  0.00     0.163 HD
BRANCH   4   7
ATOM      7  C   UNL A   1      32.169  27.404  23.689  1.00  0.00     0.102 C 
ATOM      8  N   UNL A   1      30.733  26.072  25.082  1.00  0.00    -0.321 N 
ATOM      9  C   UNL A   1      30.004  26.393  23.868  1.00  0.00     0.122 C 
ATOM     10  C   UNL A   1      32.157  26.413  24.876  1.00  0.00     0.096 C 
ATOM     11  C   UNL A   1      30.708  27.598  23.277  1.00  0.00     0.037 C 
ATOM     12  C   UNL A   1      32.958  26.810  26.103  1.00  0.00     0.032 C 
BRANCH   8  13
ATOM     13  C   UNL A   1      30.356  24.912  25.735  1.00  0.00     0.322 C 
ATOM     14  N   UNL A   1      30.791  23.714  25.255  1.00  0.00    -0.308 N 
ATOM     15  H   UNL A   1      30.163  22.965  25.375  1.00  0.00     0.171 HD
ATOM     16  O   UNL A   1      29.584  24.923  26.696  1.00  0.00    -0.248 OA
BRANCH  14  17
ATOM     17  C   UNL A   1      31.995  23.381  24.616  1.00  0.00     0.046 A 
ATOM     18  C   UNL A   1      34.393  22.979  23.230  1.00  0.00     0.154 A 
ATOM     19  C   UNL A   1      34.359  22.861  24.618  1.00  0.00     0.052 A 
ATOM     20  C   UNL A   1      33.195  23.146  22.538  1.00  0.00     0.167 A 
ATOM     21  C   UNL A   1      33.171  23.099  25.315  1.00  0.00     0.030 A 
ATOM     22  C   UNL A   1      31.994  23.318  23.221  1.00  0.00     0.069 A 
ATOM     23  F   UNL A   1      33.175  23.174  21.198  1.00  0.00    -0.203 F 
BRANCH  18  24
ATOM     24  O   UNL A   1      35.632  22.924  22.652  1.00  0.00    -0.494 OA
ATOM     25  C   UNL A   1      36.700  22.997  23.599  1.00  0.00     0.278 C 
ENDBRANCH  18  24
ENDBRANCH  14  17
ENDBRANCH   8  13
ENDBRANCH   4   7
ENDBRANCH   2   3
ENDBRANCH   1   2
BRANCH   1  26
ATOM     26  C   UNL A   1      31.533  32.097  26.861  1.00  0.00     0.023 C 
BRANCH  26  27
ATOM     27  C   UNL A   1      32.729  32.917  27.321  1.00  0.00     0.116 C 
BRANCH  27  28
ATOM     28  N   UNL A   1      32.405  34.287  27.707  1.00  0.00    -0.352 N 
ATOM     29  C   UNL A   1      32.977  35.098  28.660  1.00  0.00     0.251 C 
ATOM     30  H   UNL A   1      31.660  34.694  27.208  1.00  0.00     0.163 HD
ATOM     31  O   UNL A   1      32.514  36.212  28.885  1.00  0.00    -0.269 OA
BRANCH  29  32
ATOM     32  C   UNL A   1      34.127  34.603  29.444  1.00  0.00     0.039 A 
ATOM     33  C   UNL A   1      33.902  34.019  30.693  1.00  0.00     0.014 A 
ATOM     34  C   UNL A   1      35.415  34.653  28.913  1.00  0.00     0.014 A 
ATOM     35  C   UNL A   1      34.954  33.381  31.353  1.00  0.00     0.010 A 
ATOM     36  C   UNL A   1      36.430  33.920  29.513  1.00  0.00     0.010 A 
ATOM     37  C   UNL A   1      36.211  33.271  30.737  1.00  0.00    -0.014 A 
BRANCH  37  38
ATOM     38  C   UNL A   1      37.319  32.486  31.339  1.00  0.00     0.031 A 
ATOM     39  C   UNL A   1      37.813  32.832  32.717  1.00  0.00     0.074 A 
ATOM     40  C   UNL A   1      37.947  31.538  30.614  1.00  0.00     0.049 A 
ATOM     41  N   UNL A   1      38.865  32.389  33.356  1.00  0.00    -0.248 NA
ATOM     42  C   UNL A   1      37.046  33.847  33.458  1.00  0.00     0.031 C 
ATOM     43  C   UNL A   1      37.604  31.149  29.244  1.00  0.00     0.029 A 
ATOM     44  N   UNL A   1      39.016  30.735  30.926  1.00  0.00    -0.354 N 
ATOM     45  C   UNL A   1      38.905  33.098  34.549  1.00  0.00     0.074 A 
ATOM     46  C   UNL A   1      37.808  34.039  34.525  1.00  0.00     0.031 C 
ATOM     47  C   UNL A   1      38.418  30.157  28.850  1.00  0.00     0.029 A 
ATOM     48  C   UNL A   1      39.370  29.870  29.918  1.00  0.00     0.049 A 
ATOM     49  H   UNL A   1      39.485  30.774  31.790  1.00  0.00     0.167 HD
ATOM     50  C   UNL A   1      39.761  32.954  35.587  1.00  0.00     0.037 A 
ATOM     51  C   UNL A   1      40.354  28.950  29.863  1.00  0.00     0.037 A 
ATOM     52  C   UNL A   1      40.808  31.970  35.638  1.00  0.00     0.049 A 
ATOM     53  C   UNL A   1      41.265  28.779  31.048  1.00  0.00     0.074 A 
ATOM     54  C   UNL A   1      41.685  31.699  36.672  1.00  0.00     0.029 A 
ATOM     55  N   UNL A   1      41.101  31.081  34.615  1.00  0.00    -0.354 N 
ATOM     56  N   UNL A   1      41.269  29.431  32.185  1.00  0.00    -0.248 NA
ATOM     57  C   UNL A   1      42.306  27.748  30.944  1.00  0.00     0.031 C 
ATOM     58  C   UNL A   1      42.526  30.660  36.266  1.00  0.00     0.029 A 
ATOM     59  C   UNL A   1      42.149  30.259  34.994  1.00  0.00     0.049 A 
ATOM     60  H   UNL A   1      40.635  31.040  33.749  1.00  0.00     0.167 HD
ATOM     61  C   UNL A   1      42.291  28.873  32.940  1.00  0.00     0.074 A 
ATOM     62  C   UNL A   1      42.880  27.823  32.137  1.00  0.00     0.031 C 
ATOM     63  C   UNL A   1      42.706  29.206  34.186  1.00  0.00     0.037 A 
BRANCH  50  64
ATOM     64  C   UNL A   1      39.583  33.858  36.770  1.00  0.00     0.064 A 
ATOM     65  C   UNL A   1      40.223  35.105  36.819  1.00  0.00     0.173 A 
ATOM     66  C   UNL A   1      38.822  33.465  37.882  1.00  0.00     0.173 A 
ATOM     67  F   UNL A   1      40.965  35.526  35.785  1.00  0.00    -0.203 F 
ATOM     68  C   UNL A   1      40.116  35.921  37.943  1.00  0.00     0.198 A 
ATOM     69  C   UNL A   1      38.693  34.296  38.991  1.00  0.00     0.198 A 
ATOM     70  F   UNL A   1      38.179  32.288  37.877  1.00  0.00    -0.203 F 
ATOM     71  F   UNL A   1      40.758  37.096  37.980  1.00  0.00    -0.200 F 
ATOM     72  C   UNL A   1      39.347  35.518  39.025  1.00  0.00     0.200 A 
ATOM     73  F   UNL A   1      37.928  33.916  40.024  1.00  0.00    -0.200 F 
ATOM     74  F   UNL A   1      39.233  36.309  40.100  1.00  0.00    -0.200 F 
ENDBRANCH  50  64
BRANCH  51  75
ATOM     75  C   UNL A   1      40.494  28.087  28.661  1.00  0.00     0.064 A 
ATOM     76  C   UNL A   1      39.868  26.836  28.574  1.00  0.00     0.173 A 
ATOM     77  C   UNL A   1      41.281  28.501  27.577  1.00  0.00     0.173 A 
ATOM     78  F   UNL A   1      39.110  26.392  29.586  1.00  0.00    -0.203 F 
ATOM     79  C   UNL A   1      40.033  26.027  27.451  1.00  0.00     0.198 A 
ATOM     80  C   UNL A   1      41.425  27.702  26.445  1.00  0.00     0.198 A 
ATOM     81  F   UNL A   1      41.884  29.698  27.606  1.00  0.00    -0.203 F 
ATOM     82  F   UNL A   1      39.446  24.823  27.402  1.00  0.00    -0.200 F 
ATOM     83  C   UNL A   1      40.807  26.462  26.385  1.00  0.00     0.200 A 
ATOM     84  F   UNL A   1      42.155  28.137  25.409  1.00  0.00    -0.200 F 
ATOM     85  F   UNL A   1      40.953  25.690  25.301  1.00  0.00    -0.200 F 
ENDBRANCH  51  75
BRANCH  63  86
ATOM     86  C   UNL A   1      43.829  28.411  34.782  1.00  0.00     0.064 A 
ATOM     87  C   UNL A   1      43.558  27.256  35.530  1.00  0.00     0.173 A 
ATOM     88  C   UNL A   1      45.158  28.846  34.691  1.00  0.00     0.173 A 
ATOM     89  F   UNL A   1      42.300  26.808  35.652  1.00  0.00    -0.203 F 
ATOM     90  C   UNL A   1      44.580  26.573  36.182  1.00  0.00     0.198 A 
ATOM     91  C   UNL A   1      46.180  28.146  35.325  1.00  0.00     0.198 A 
ATOM     92  F   UNL A   1      45.464  29.939  33.977  1.00  0.00    -0.203 F 
ATOM     93  F   UNL A   1      44.295  25.492  36.922  1.00  0.00    -0.200 F 
ATOM     94  C   UNL A   1      45.889  27.018  36.079  1.00  0.00     0.200 A 
ATOM     95  F   UNL A   1      47.448  28.565  35.209  1.00  0.00    -0.200 F 
ATOM     96  F   UNL A   1      46.873  26.358  36.705  1.00  0.00    -0.200 F 
ENDBRANCH  63  86
ENDBRANCH  37  38
ENDBRANCH  29  32
ENDBRANCH  27  28
ENDBRANCH  26  27
ENDBRANCH   1  26
TORSDOF 14
ENDMDL
