MODEL 1
REMARK VINA RESULT:     -12.3      0.000      0.000
REMARK SMILES O=C(NCCCCNC(=O)[C@H]1CCC[N@@H+]1Cc1ccccc1[N+](=O)[O-])c1ccc(-c2c3nc(c(-c4c(F)c(F)c(F)c(F)c4F)c4ccc([nH]4)c(-c4c(F)c(F)c(F)c(F)c4F)c4nc(c(-c5c(F)c(F)c(F)c(F)c5F)c5ccc2[nH]5)C=C4)C=C3)cc1
REMARK SMILES IDX 6 1 5 2 4 3 3 4 1 5 2 6 26 8 27 9 88 10 28 11 87 12 29 13
REMARK SMILES IDX 30 14 31 15 81 16 32 17 86 18 80 19 82 20 33 21 85 22 79 23
REMARK SMILES IDX 78 24 34 26 66 27 46 28 65 29 47 30 50 31 64 32 83 33 48 34
REMARK SMILES IDX 49 35 63 37 84 38 51 39 35 40 36 41 44 42 37 43 38 44 42 45
REMARK SMILES IDX 45 46 39 47 40 48 43 49 41 50 67 51 68 52 76 53 69 54 70 55
REMARK SMILES IDX 74 56 77 57 71 58 72 59 75 60 73 61 52 62 53 63 61 64 54 65
REMARK SMILES IDX 55 66 59 67 62 68 56 69 57 70 60 71 58 72 7 73 8 74 9 75
REMARK SMILES IDX 10 77 11 78 12 79 15 80 13 81 14 82 16 84 17 85 18 86 22 87
REMARK SMILES IDX 19 88 21 89 20 90 23 91 24 92 25 93
REMARK H PARENT 3 7 82 25 50 36 8 76 15 83
REMARK Flexibility Score: inf
ROOT
ATOM      1  C   UNL A   1      32.209  30.399  27.024  1.00  0.00     0.023 C 
ENDROOT
BRANCH   1   2
ATOM      2  C   UNL A   1      31.866  31.876  26.898  1.00  0.00     0.023 C 
BRANCH   2   3
ATOM      3  C   UNL A   1      32.926  32.826  27.423  1.00  0.00     0.116 C 
BRANCH   3   4
ATOM      4  N   UNL A   1      32.458  34.180  27.692  1.00  0.00    -0.352 N 
ATOM      5  O   UNL A   1      32.448  36.173  28.779  1.00  0.00    -0.269 OA
ATOM      6  C   UNL A   1      32.957  35.077  28.615  1.00  0.00     0.251 C 
ATOM      7  H   UNL A   1      31.696  34.492  27.151  1.00  0.00     0.163 HD
BRANCH   6   8
ATOM      8  C   UNL A   1      34.098  34.646  29.448  1.00  0.00     0.039 A 
ATOM      9  C   UNL A   1      35.386  34.647  28.912  1.00  0.00     0.014 A 
ATOM     10  C   UNL A   1      33.852  34.111  30.714  1.00  0.00     0.014 A 
ATOM     11  C   UNL A   1      36.386  33.930  29.549  1.00  0.00     0.010 A 
ATOM     12  C   UNL A   1      34.891  33.486  31.406  1.00  0.00     0.010 A 
ATOM     13  C   UNL A   1      36.151  33.342  30.803  1.00  0.00    -0.014 A 
BRANCH  13  14
ATOM     14  C   UNL A   1      37.253  32.603  31.467  1.00  0.00     0.031 A 
ATOM     15  C   UNL A   1      37.985  31.494  30.763  1.00  0.00     0.074 A 
ATOM     16  C   UNL A   1      37.623  32.985  32.704  1.00  0.00     0.049 A 
ATOM     17  N   UNL A   1      38.979  30.759  31.196  1.00  0.00    -0.248 NA
ATOM     18  C   UNL A   1      37.540  31.158  29.402  1.00  0.00     0.031 C 
ATOM     19  C   UNL A   1      36.986  34.053  33.478  1.00  0.00     0.029 A 
ATOM     20  N   UNL A   1      38.638  32.547  33.513  1.00  0.00    -0.354 N 
ATOM     21  C   UNL A   1      39.252  29.851  30.181  1.00  0.00     0.074 A 
ATOM     22  C   UNL A   1      38.313  30.119  29.113  1.00  0.00     0.031 C 
ATOM     23  C   UNL A   1      37.664  34.234  34.619  1.00  0.00     0.029 A 
ATOM     24  C   UNL A   1      38.734  33.247  34.690  1.00  0.00     0.049 A 
ATOM     25  H   UNL A   1      39.238  31.805  33.274  1.00  0.00     0.167 HD
ATOM     26  C   UNL A   1      40.201  28.883  30.150  1.00  0.00     0.037 A 
ATOM     27  C   UNL A   1      39.584  33.101  35.722  1.00  0.00     0.037 A 
ATOM     28  C   UNL A   1      41.154  28.649  31.206  1.00  0.00     0.049 A 
ATOM     29  C   UNL A   1      40.623  32.023  35.659  1.00  0.00     0.074 A 
ATOM     30  C   UNL A   1      42.180  27.720  31.253  1.00  0.00     0.029 A 
ATOM     31  N   UNL A   1      41.199  29.354  32.400  1.00  0.00    -0.354 N 
ATOM     32  N   UNL A   1      40.876  31.176  34.691  1.00  0.00    -0.248 NA
ATOM     33  C   UNL A   1      41.488  31.874  36.835  1.00  0.00     0.031 C 
ATOM     34  C   UNL A   1      42.819  27.837  32.493  1.00  0.00     0.029 A 
ATOM     35  C   UNL A   1      42.222  28.869  33.199  1.00  0.00     0.049 A 
ATOM     36  H   UNL A   1      40.593  30.091  32.643  1.00  0.00     0.167 HD
ATOM     37  C   UNL A   1      41.938  30.402  35.133  1.00  0.00     0.074 A 
ATOM     38  C   UNL A   1      42.293  30.894  36.449  1.00  0.00     0.031 C 
ATOM     39  C   UNL A   1      42.561  29.375  34.506  1.00  0.00     0.037 A 
BRANCH  26  40
ATOM     40  C   UNL A   1      40.236  27.980  28.950  1.00  0.00     0.064 A 
ATOM     41  C   UNL A   1      40.981  28.295  27.804  1.00  0.00     0.173 A 
ATOM     42  C   UNL A   1      39.541  26.760  28.964  1.00  0.00     0.173 A 
ATOM     43  F   UNL A   1      41.655  29.453  27.734  1.00  0.00    -0.203 F 
ATOM     44  C   UNL A   1      41.007  27.436  26.706  1.00  0.00     0.198 A 
ATOM     45  C   UNL A   1      39.591  25.893  27.875  1.00  0.00     0.198 A 
ATOM     46  F   UNL A   1      38.818  26.406  30.036  1.00  0.00    -0.203 F 
ATOM     47  F   UNL A   1      41.690  27.780  25.605  1.00  0.00    -0.200 F 
ATOM     48  C   UNL A   1      40.317  26.234  26.745  1.00  0.00     0.200 A 
ATOM     49  F   UNL A   1      38.932  24.726  27.920  1.00  0.00    -0.200 F 
ATOM     50  F   UNL A   1      40.346  25.408  25.691  1.00  0.00    -0.200 F 
ENDBRANCH  26  40
BRANCH  27  51
ATOM     51  C   UNL A   1      39.478  34.013  36.887  1.00  0.00     0.064 A 
ATOM     52  C   UNL A   1      38.748  33.642  38.024  1.00  0.00     0.173 A 
ATOM     53  C   UNL A   1      40.144  35.248  36.908  1.00  0.00     0.173 A 
ATOM     54  F   UNL A   1      38.085  32.478  38.043  1.00  0.00    -0.203 F 
ATOM     55  C   UNL A   1      38.685  34.476  39.138  1.00  0.00     0.198 A 
ATOM     56  C   UNL A   1      40.102  36.068  38.033  1.00  0.00     0.198 A 
ATOM     57  F   UNL A   1      40.863  35.641  35.847  1.00  0.00    -0.203 F 
ATOM     58  F   UNL A   1      37.958  34.111  40.203  1.00  0.00    -0.200 F 
ATOM     59  C   UNL A   1      39.369  35.683  39.145  1.00  0.00     0.200 A 
ATOM     60  F   UNL A   1      40.781  37.222  38.043  1.00  0.00    -0.200 F 
ATOM     61  F   UNL A   1      39.321  36.475  40.224  1.00  0.00    -0.200 F 
ENDBRANCH  27  51
BRANCH  39  62
ATOM     62  C   UNL A   1      43.711  28.741  35.228  1.00  0.00     0.064 A 
ATOM     63  C   UNL A   1      45.030  29.174  35.032  1.00  0.00     0.173 A 
ATOM     64  C   UNL A   1      43.487  27.697  36.138  1.00  0.00     0.173 A 
ATOM     65  F   UNL A   1      45.295  30.156  34.158  1.00  0.00    -0.203 F 
ATOM     66  C   UNL A   1      46.088  28.563  35.700  1.00  0.00     0.198 A 
ATOM     67  C   UNL A   1      44.544  27.107  36.824  1.00  0.00     0.198 A 
ATOM     68  F   UNL A   1      42.242  27.251  36.362  1.00  0.00    -0.203 F 
ATOM     69  F   UNL A   1      47.346  28.957  35.459  1.00  0.00    -0.200 F 
ATOM     70  C   UNL A   1      45.844  27.535  36.598  1.00  0.00     0.200 A 
ATOM     71  F   UNL A   1      44.306  26.120  37.697  1.00  0.00    -0.200 F 
ATOM     72  F   UNL A   1      46.863  26.947  37.238  1.00  0.00    -0.200 F 
ENDBRANCH  39  62
ENDBRANCH  13  14
ENDBRANCH   6   8
ENDBRANCH   3   4
ENDBRANCH   2   3
ENDBRANCH   1   2
BRANCH   1  73
ATOM     73  C   UNL A   1      33.516  29.946  26.372  1.00  0.00     0.116 C 
BRANCH  73  74
ATOM     74  N   UNL A   1      33.305  29.435  25.035  1.00  0.00    -0.351 N 
ATOM     75  C   UNL A   1      32.851  28.246  24.565  1.00  0.00     0.278 C 
ATOM     76  H   UNL A   1      33.537  30.077  24.325  1.00  0.00     0.163 HD
ATOM     77  O   UNL A   1      32.720  28.195  23.331  1.00  0.00    -0.268 OA
BRANCH  75  78
ATOM     78  C   UNL A   1      32.538  26.970  25.387  1.00  0.00     0.274 C 
ATOM     79  C   UNL A   1      31.136  27.092  25.977  1.00  0.00     0.081 C 
ATOM     80  N   UNL A   1      32.550  25.675  24.675  1.00  0.00    -0.321 N 
ATOM     81  C   UNL A   1      30.247  26.294  25.046  1.00  0.00     0.068 C 
ATOM     82  C   UNL A   1      31.176  25.369  24.284  1.00  0.00     0.263 C 
ATOM     83  H   UNL A   1      33.133  25.766  23.843  1.00  0.00     0.349 HD
BRANCH  80  84
ATOM     84  C   UNL A   1      33.223  24.574  25.402  1.00  0.00     0.307 C 
BRANCH  84  85
ATOM     85  C   UNL A   1      34.567  24.101  24.863  1.00  0.00     0.084 A 
ATOM     86  C   UNL A   1      35.695  24.181  25.701  1.00  0.00     0.017 A 
ATOM     87  C   UNL A   1      34.762  23.513  23.593  1.00  0.00     0.278 A 
ATOM     88  C   UNL A   1      36.922  23.621  25.329  1.00  0.00     0.001 A 
ATOM     89  C   UNL A   1      35.981  22.918  23.230  1.00  0.00     0.086 A 
ATOM     90  C   UNL A   1      37.057  22.964  24.109  1.00  0.00     0.007 A 
BRANCH  87  91
ATOM     91  N   UNL A   1      33.718  23.508  22.571  1.00  0.00     0.063 N 
ATOM     92  O   UNL A   1      33.023  22.485  22.478  1.00  0.00    -0.258 OA
ATOM     93  O   UNL A   1      33.616  24.509  21.852  1.00  0.00    -0.258 OA
ENDBRANCH  87  91
ENDBRANCH  84  85
ENDBRANCH  80  84
ENDBRANCH  75  78
ENDBRANCH  73  74
ENDBRANCH   1  73
TORSDOF 14
ENDMDL
MODEL 2
REMARK VINA RESULT:     -12.2      1.109      7.398
REMARK SMILES O=C(NCCCCNC(=O)[C@H]1CCC[N@@H+]1Cc1ccccc1[N+](=O)[O-])c1ccc(-c2c3nc(c(-c4c(F)c(F)c(F)c(F)c4F)c4ccc([nH]4)c(-c4c(F)c(F)c(F)c(F)c4F)c4nc(c(-c5c(F)c(F)c(F)c(F)c5F)c5ccc2[nH]5)C=C4)C=C3)cc1
REMARK SMILES IDX 6 1 5 2 4 3 3 4 1 5 2 6 26 8 27 9 88 10 28 11 87 12 29 13
REMARK SMILES IDX 30 14 31 15 81 16 32 17 86 18 80 19 82 20 33 21 85 22 79 23
REMARK SMILES IDX 78 24 34 26 66 27 46 28 65 29 47 30 50 31 64 32 83 33 48 34
REMARK SMILES IDX 49 35 63 37 84 38 51 39 35 40 36 41 44 42 37 43 38 44 42 45
REMARK SMILES IDX 45 46 39 47 40 48 43 49 41 50 67 51 68 52 76 53 69 54 70 55
REMARK SMILES IDX 74 56 77 57 71 58 72 59 75 60 73 61 52 62 53 63 61 64 54 65
REMARK SMILES IDX 55 66 59 67 62 68 56 69 57 70 60 71 58 72 7 73 8 74 9 75
REMARK SMILES IDX 10 77 11 78 12 79 15 80 13 81 14 82 16 84 17 85 18 86 22 87
REMARK SMILES IDX 19 88 21 89 20 90 23 91 24 92 25 93
REMARK H PARENT 3 7 82 25 50 36 8 76 15 83
REMARK Flexibility Score: inf
ROOT
ATOM      1  C   UNL A   1      32.195  30.107  27.118  1.00  0.00     0.023 C 
ENDROOT
BRANCH   1   2
ATOM      2  C   UNL A   1      32.054  31.569  26.723  1.00  0.00     0.023 C 
BRANCH   2   3
ATOM      3  C   UNL A   1      33.052  32.508  27.376  1.00  0.00     0.116 C 
BRANCH   3   4
ATOM      4  N   UNL A   1      32.555  33.855  27.624  1.00  0.00    -0.352 N 
ATOM      5  O   UNL A   1      32.515  35.871  28.669  1.00  0.00    -0.269 OA
ATOM      6  C   UNL A   1      33.049  34.784  28.518  1.00  0.00     0.251 C 
ATOM      7  H   UNL A   1      31.775  34.136  27.092  1.00  0.00     0.163 HD
BRANCH   6   8
ATOM      8  C   UNL A   1      34.216  34.399  29.337  1.00  0.00     0.039 A 
ATOM      9  C   UNL A   1      35.505  34.593  28.840  1.00  0.00     0.014 A 
ATOM     10  C   UNL A   1      34.009  33.719  30.539  1.00  0.00     0.014 A 
ATOM     11  C   UNL A   1      36.567  33.930  29.434  1.00  0.00     0.010 A 
ATOM     12  C   UNL A   1      35.099  33.146  31.197  1.00  0.00     0.010 A 
ATOM     13  C   UNL A   1      36.377  33.199  30.619  1.00  0.00    -0.014 A 
BRANCH  13  14
ATOM     14  C   UNL A   1      37.542  32.523  31.239  1.00  0.00     0.031 A 
ATOM     15  C   UNL A   1      37.978  32.847  32.641  1.00  0.00     0.074 A 
ATOM     16  C   UNL A   1      38.174  31.565  30.534  1.00  0.00     0.049 A 
ATOM     17  N   UNL A   1      38.966  32.338  33.336  1.00  0.00    -0.248 NA
ATOM     18  C   UNL A   1      37.216  33.882  33.356  1.00  0.00     0.031 C 
ATOM     19  C   UNL A   1      37.832  31.166  29.168  1.00  0.00     0.029 A 
ATOM     20  N   UNL A   1      39.209  30.735  30.874  1.00  0.00    -0.354 N 
ATOM     21  C   UNL A   1      38.969  33.015  34.548  1.00  0.00     0.074 A 
ATOM     22  C   UNL A   1      37.891  33.980  34.494  1.00  0.00     0.031 C 
ATOM     23  C   UNL A   1      38.594  30.124  28.810  1.00  0.00     0.029 A 
ATOM     24  C   UNL A   1      39.528  29.833  29.890  1.00  0.00     0.049 A 
ATOM     25  H   UNL A   1      39.678  30.781  31.739  1.00  0.00     0.167 HD
ATOM     26  C   UNL A   1      39.799  32.843  35.606  1.00  0.00     0.037 A 
ATOM     27  C   UNL A   1      40.478  28.883  29.855  1.00  0.00     0.037 A 
ATOM     28  C   UNL A   1      40.846  31.855  35.662  1.00  0.00     0.049 A 
ATOM     29  C   UNL A   1      41.380  28.715  31.041  1.00  0.00     0.074 A 
ATOM     30  C   UNL A   1      41.715  31.574  36.703  1.00  0.00     0.029 A 
ATOM     31  N   UNL A   1      41.163  30.981  34.631  1.00  0.00    -0.354 N 
ATOM     32  N   UNL A   1      41.369  29.357  32.183  1.00  0.00    -0.248 NA
ATOM     33  C   UNL A   1      42.433  27.700  30.927  1.00  0.00     0.031 C 
ATOM     34  C   UNL A   1      42.584  30.559  36.287  1.00  0.00     0.029 A 
ATOM     35  C   UNL A   1      42.227  30.174  35.004  1.00  0.00     0.049 A 
ATOM     36  H   UNL A   1      40.701  30.941  33.763  1.00  0.00     0.167 HD
ATOM     37  C   UNL A   1      42.401  28.815  32.933  1.00  0.00     0.074 A 
ATOM     38  C   UNL A   1      43.006  27.778  32.120  1.00  0.00     0.031 C 
ATOM     39  C   UNL A   1      42.813  29.146  34.181  1.00  0.00     0.037 A 
BRANCH  26  40
ATOM     40  C   UNL A   1      39.632  33.766  36.779  1.00  0.00     0.064 A 
ATOM     41  C   UNL A   1      40.244  35.027  36.827  1.00  0.00     0.173 A 
ATOM     42  C   UNL A   1      38.812  33.396  37.858  1.00  0.00     0.173 A 
ATOM     43  F   UNL A   1      41.046  35.427  35.829  1.00  0.00    -0.203 F 
ATOM     44  C   UNL A   1      40.065  35.871  37.922  1.00  0.00     0.198 A 
ATOM     45  C   UNL A   1      38.615  34.252  38.938  1.00  0.00     0.198 A 
ATOM     46  F   UNL A   1      38.197  32.204  37.861  1.00  0.00    -0.203 F 
ATOM     47  F   UNL A   1      40.697  37.052  37.966  1.00  0.00    -0.200 F 
ATOM     48  C   UNL A   1      39.247  35.485  38.974  1.00  0.00     0.200 A 
ATOM     49  F   UNL A   1      37.814  33.881  39.947  1.00  0.00    -0.200 F 
ATOM     50  F   UNL A   1      39.073  36.299  40.023  1.00  0.00    -0.200 F 
ENDBRANCH  26  40
BRANCH  27  51
ATOM     51  C   UNL A   1      40.603  28.021  28.655  1.00  0.00     0.064 A 
ATOM     52  C   UNL A   1      39.913  26.804  28.571  1.00  0.00     0.173 A 
ATOM     53  C   UNL A   1      41.371  28.417  27.550  1.00  0.00     0.173 A 
ATOM     54  F   UNL A   1      39.178  26.379  29.608  1.00  0.00    -0.203 F 
ATOM     55  C   UNL A   1      39.990  26.014  27.427  1.00  0.00     0.198 A 
ATOM     56  C   UNL A   1      41.425  27.639  26.396  1.00  0.00     0.198 A 
ATOM     57  F   UNL A   1      42.042  29.577  27.580  1.00  0.00    -0.203 F 
ATOM     58  F   UNL A   1      39.341  24.842  27.381  1.00  0.00    -0.200 F 
ATOM     59  C   UNL A   1      40.738  26.436  26.337  1.00  0.00     0.200 A 
ATOM     60  F   UNL A   1      42.132  28.060  25.339  1.00  0.00    -0.200 F 
ATOM     61  F   UNL A   1      40.797  25.683  25.232  1.00  0.00    -0.200 F 
ENDBRANCH  27  51
BRANCH  39  62
ATOM     62  C   UNL A   1      43.952  28.355  34.748  1.00  0.00     0.064 A 
ATOM     63  C   UNL A   1      45.285  28.748  34.561  1.00  0.00     0.173 A 
ATOM     64  C   UNL A   1      43.704  27.197  35.500  1.00  0.00     0.173 A 
ATOM     65  F   UNL A   1      45.571  29.837  33.833  1.00  0.00    -0.203 F 
ATOM     66  C   UNL A   1      46.331  27.991  35.082  1.00  0.00     0.198 A 
ATOM     67  C   UNL A   1      44.752  26.458  36.042  1.00  0.00     0.198 A 
ATOM     68  F   UNL A   1      42.445  26.783  35.710  1.00  0.00    -0.203 F 
ATOM     69  F   UNL A   1      47.599  28.356  34.848  1.00  0.00    -0.200 F 
ATOM     70  C   UNL A   1      46.064  26.852  35.826  1.00  0.00     0.200 A 
ATOM     71  F   UNL A   1      44.492  25.363  36.768  1.00  0.00    -0.200 F 
ATOM     72  F   UNL A   1      47.072  26.125  36.325  1.00  0.00    -0.200 F 
ENDBRANCH  39  62
ENDBRANCH  13  14
ENDBRANCH   6   8
ENDBRANCH   3   4
ENDBRANCH   2   3
ENDBRANCH   1   2
BRANCH   1  73
ATOM     73  C   UNL A   1      33.521  29.431  26.766  1.00  0.00     0.116 C 
BRANCH  73  74
ATOM     74  N   UNL A   1      33.774  29.445  25.341  1.00  0.00    -0.351 N 
ATOM     75  C   UNL A   1      33.176  28.824  24.294  1.00  0.00     0.278 C 
ATOM     76  H   UNL A   1      34.530  30.019  25.080  1.00  0.00     0.163 HD
ATOM     77  O   UNL A   1      33.619  29.147  23.180  1.00  0.00    -0.268 OA
BRANCH  75  78
ATOM     78  C   UNL A   1      32.063  27.747  24.353  1.00  0.00     0.274 C 
ATOM     79  C   UNL A   1      30.714  28.414  24.099  1.00  0.00     0.081 C 
ATOM     80  N   UNL A   1      32.134  26.632  23.386  1.00  0.00    -0.321 N 
ATOM     81  C   UNL A   1      30.415  28.150  22.638  1.00  0.00     0.068 C 
ATOM     82  C   UNL A   1      31.291  26.978  22.244  1.00  0.00     0.263 C 
ATOM     83  H   UNL A   1      33.102  26.527  23.081  1.00  0.00     0.349 HD
BRANCH  80  84
ATOM     84  C   UNL A   1      31.848  25.296  23.958  1.00  0.00     0.307 C 
BRANCH  84  85
ATOM     85  C   UNL A   1      32.988  24.585  24.676  1.00  0.00     0.084 A 
ATOM     86  C   UNL A   1      34.299  24.763  24.198  1.00  0.00     0.017 A 
ATOM     87  C   UNL A   1      32.840  23.805  25.844  1.00  0.00     0.278 A 
ATOM     88  C   UNL A   1      35.405  24.271  24.900  1.00  0.00     0.001 A 
ATOM     89  C   UNL A   1      33.947  23.340  26.571  1.00  0.00     0.086 A 
ATOM     90  C   UNL A   1      35.232  23.587  26.100  1.00  0.00     0.007 A 
BRANCH  87  91
ATOM     91  N   UNL A   1      31.528  23.414  26.357  1.00  0.00     0.063 N 
ATOM     92  O   UNL A   1      31.062  24.087  27.288  1.00  0.00    -0.258 OA
ATOM     93  O   UNL A   1      30.986  22.426  25.846  1.00  0.00    -0.258 OA
ENDBRANCH  87  91
ENDBRANCH  84  85
ENDBRANCH  80  84
ENDBRANCH  75  78
ENDBRANCH  73  74
ENDBRANCH   1  73
TORSDOF 14
ENDMDL
MODEL 3
REMARK VINA RESULT:     -12.2      1.033      2.077
REMARK SMILES O=C(NCCCCNC(=O)[C@H]1CCC[N@@H+]1Cc1ccccc1[N+](=O)[O-])c1ccc(-c2c3nc(c(-c4c(F)c(F)c(F)c(F)c4F)c4ccc([nH]4)c(-c4c(F)c(F)c(F)c(F)c4F)c4nc(c(-c5c(F)c(F)c(F)c(F)c5F)c5ccc2[nH]5)C=C4)C=C3)cc1
REMARK SMILES IDX 6 1 5 2 4 3 3 4 1 5 2 6 26 8 27 9 88 10 28 11 87 12 29 13
REMARK SMILES IDX 30 14 31 15 81 16 32 17 86 18 80 19 82 20 33 21 85 22 79 23
REMARK SMILES IDX 78 24 34 26 66 27 46 28 65 29 47 30 50 31 64 32 83 33 48 34
REMARK SMILES IDX 49 35 63 37 84 38 51 39 35 40 36 41 44 42 37 43 38 44 42 45
REMARK SMILES IDX 45 46 39 47 40 48 43 49 41 50 67 51 68 52 76 53 69 54 70 55
REMARK SMILES IDX 74 56 77 57 71 58 72 59 75 60 73 61 52 62 53 63 61 64 54 65
REMARK SMILES IDX 55 66 59 67 62 68 56 69 57 70 60 71 58 72 7 73 8 74 9 75
REMARK SMILES IDX 10 77 11 78 12 79 15 80 13 81 14 82 16 84 17 85 18 86 22 87
REMARK SMILES IDX 19 88 21 89 20 90 23 91 24 92 25 93
REMARK H PARENT 3 7 82 25 50 36 8 76 15 83
REMARK Flexibility Score: inf
ROOT
ATOM      1  C   UNL A   1      32.094  30.330  27.023  1.00  0.00     0.023 C 
ENDROOT
BRANCH   1   2
ATOM      2  C   UNL A   1      31.872  31.819  26.808  1.00  0.00     0.023 C 
BRANCH   2   3
ATOM      3  C   UNL A   1      32.913  32.721  27.445  1.00  0.00     0.116 C 
BRANCH   3   4
ATOM      4  N   UNL A   1      32.475  34.090  27.688  1.00  0.00    -0.352 N 
ATOM      5  O   UNL A   1      32.519  36.108  28.726  1.00  0.00    -0.269 OA
ATOM      6  C   UNL A   1      33.005  34.999  28.581  1.00  0.00     0.251 C 
ATOM      7  H   UNL A   1      31.711  34.402  27.151  1.00  0.00     0.163 HD
BRANCH   6   8
ATOM      8  C   UNL A   1      34.151  34.565  29.407  1.00  0.00     0.039 A 
ATOM      9  C   UNL A   1      35.442  34.621  28.883  1.00  0.00     0.014 A 
ATOM     10  C   UNL A   1      33.909  33.975  30.649  1.00  0.00     0.014 A 
ATOM     11  C   UNL A   1      36.456  33.907  29.502  1.00  0.00     0.010 A 
ATOM     12  C   UNL A   1      34.958  33.352  31.326  1.00  0.00     0.010 A 
ATOM     13  C   UNL A   1      36.226  33.264  30.730  1.00  0.00    -0.014 A 
BRANCH  13  14
ATOM     14  C   UNL A   1      37.342  32.529  31.374  1.00  0.00     0.031 A 
ATOM     15  C   UNL A   1      38.099  31.458  30.640  1.00  0.00     0.074 A 
ATOM     16  C   UNL A   1      37.702  32.882  32.623  1.00  0.00     0.049 A 
ATOM     17  N   UNL A   1      39.108  30.731  31.053  1.00  0.00    -0.248 NA
ATOM     18  C   UNL A   1      37.666  31.153  29.268  1.00  0.00     0.031 C 
ATOM     19  C   UNL A   1      37.040  33.913  33.426  1.00  0.00     0.029 A 
ATOM     20  N   UNL A   1      38.724  32.442  33.422  1.00  0.00    -0.354 N 
ATOM     21  C   UNL A   1      39.403  29.860  30.013  1.00  0.00     0.074 A 
ATOM     22  C   UNL A   1      38.461  30.140  28.950  1.00  0.00     0.031 C 
ATOM     23  C   UNL A   1      37.712  34.074  34.574  1.00  0.00     0.029 A 
ATOM     24  C   UNL A   1      38.802  33.108  34.619  1.00  0.00     0.049 A 
ATOM     25  H   UNL A   1      39.341  31.720  33.162  1.00  0.00     0.167 HD
ATOM     26  C   UNL A   1      40.372  28.914  29.956  1.00  0.00     0.037 A 
ATOM     27  C   UNL A   1      39.653  32.950  35.649  1.00  0.00     0.037 A 
ATOM     28  C   UNL A   1      41.327  28.668  31.007  1.00  0.00     0.049 A 
ATOM     29  C   UNL A   1      40.715  31.896  35.556  1.00  0.00     0.074 A 
ATOM     30  C   UNL A   1      42.373  27.761  31.030  1.00  0.00     0.029 A 
ATOM     31  N   UNL A   1      41.355  29.339  32.222  1.00  0.00    -0.354 N 
ATOM     32  N   UNL A   1      40.988  31.084  34.565  1.00  0.00    -0.248 NA
ATOM     33  C   UNL A   1      41.580  31.731  36.730  1.00  0.00     0.031 C 
ATOM     34  C   UNL A   1      43.007  27.854  32.274  1.00  0.00     0.029 A 
ATOM     35  C   UNL A   1      42.386  28.852  33.009  1.00  0.00     0.049 A 
ATOM     36  H   UNL A   1      40.732  30.055  32.485  1.00  0.00     0.167 HD
ATOM     37  C   UNL A   1      42.065  30.320  34.986  1.00  0.00     0.074 A 
ATOM     38  C   UNL A   1      42.407  30.781  36.318  1.00  0.00     0.031 C 
ATOM     39  C   UNL A   1      42.711  29.326  34.331  1.00  0.00     0.037 A 
BRANCH  26  40
ATOM     40  C   UNL A   1      40.429  28.048  28.729  1.00  0.00     0.064 A 
ATOM     41  C   UNL A   1      41.179  28.407  27.600  1.00  0.00     0.173 A 
ATOM     42  C   UNL A   1      39.751  26.819  28.700  1.00  0.00     0.173 A 
ATOM     43  F   UNL A   1      41.838  29.576  27.570  1.00  0.00    -0.203 F 
ATOM     44  C   UNL A   1      41.226  27.582  26.477  1.00  0.00     0.198 A 
ATOM     45  C   UNL A   1      39.821  25.985  27.587  1.00  0.00     0.198 A 
ATOM     46  F   UNL A   1      39.024  26.423  29.756  1.00  0.00    -0.203 F 
ATOM     47  F   UNL A   1      41.913  27.968  25.393  1.00  0.00    -0.200 F 
ATOM     48  C   UNL A   1      40.552  26.370  26.474  1.00  0.00     0.200 A 
ATOM     49  F   UNL A   1      39.178  24.810  27.591  1.00  0.00    -0.200 F 
ATOM     50  F   UNL A   1      40.601  25.577  25.395  1.00  0.00    -0.200 F 
ENDBRANCH  26  40
BRANCH  27  51
ATOM     51  C   UNL A   1      39.525  33.824  36.840  1.00  0.00     0.064 A 
ATOM     52  C   UNL A   1      40.122  35.092  36.866  1.00  0.00     0.173 A 
ATOM     53  C   UNL A   1      38.765  33.434  37.953  1.00  0.00     0.173 A 
ATOM     54  F   UNL A   1      40.869  35.501  35.831  1.00  0.00    -0.203 F 
ATOM     55  C   UNL A   1      39.966  35.935  37.964  1.00  0.00     0.198 A 
ATOM     56  C   UNL A   1      38.587  34.289  39.038  1.00  0.00     0.198 A 
ATOM     57  F   UNL A   1      38.167  32.234  37.969  1.00  0.00    -0.203 F 
ATOM     58  F   UNL A   1      40.569  37.132  37.976  1.00  0.00    -0.200 F 
ATOM     59  C   UNL A   1      39.192  35.536  39.044  1.00  0.00     0.200 A 
ATOM     60  F   UNL A   1      37.821  33.909  40.069  1.00  0.00    -0.200 F 
ATOM     61  F   UNL A   1      39.029  36.356  40.091  1.00  0.00    -0.200 F 
ENDBRANCH  27  51
BRANCH  39  62
ATOM     62  C   UNL A   1      43.873  28.695  35.038  1.00  0.00     0.064 A 
ATOM     63  C   UNL A   1      43.702  27.606  35.905  1.00  0.00     0.173 A 
ATOM     64  C   UNL A   1      45.173  29.179  34.834  1.00  0.00     0.173 A 
ATOM     65  F   UNL A   1      42.475  27.122  36.145  1.00  0.00    -0.203 F 
ATOM     66  C   UNL A   1      44.790  27.043  36.566  1.00  0.00     0.198 A 
ATOM     67  C   UNL A   1      46.262  28.596  35.475  1.00  0.00     0.198 A 
ATOM     68  F   UNL A   1      45.388  30.216  34.011  1.00  0.00    -0.203 F 
ATOM     69  F   UNL A   1      44.599  26.036  37.429  1.00  0.00    -0.200 F 
ATOM     70  C   UNL A   1      46.068  27.534  36.346  1.00  0.00     0.200 A 
ATOM     71  F   UNL A   1      47.497  29.066  35.256  1.00  0.00    -0.200 F 
ATOM     72  F   UNL A   1      47.114  26.992  36.984  1.00  0.00    -0.200 F 
ENDBRANCH  39  62
ENDBRANCH  13  14
ENDBRANCH   6   8
ENDBRANCH   3   4
ENDBRANCH   2   3
ENDBRANCH   1   2
BRANCH   1  73
ATOM     73  C   UNL A   1      33.495  29.799  26.718  1.00  0.00     0.116 C 
BRANCH  73  74
ATOM     74  N   UNL A   1      33.735  29.695  25.295  1.00  0.00    -0.351 N 
ATOM     75  C   UNL A   1      33.128  28.990  24.308  1.00  0.00     0.278 C 
ATOM     76  H   UNL A   1      34.491  30.243  24.981  1.00  0.00     0.163 HD
ATOM     77  O   UNL A   1      33.562  29.219  23.168  1.00  0.00    -0.268 OA
BRANCH  75  78
ATOM     78  C   UNL A   1      32.013  27.924  24.466  1.00  0.00     0.274 C 
ATOM     79  C   UNL A   1      30.689  28.518  23.991  1.00  0.00     0.081 C 
ATOM     80  N   UNL A   1      32.163  26.659  23.718  1.00  0.00    -0.321 N 
ATOM     81  C   UNL A   1      30.510  27.998  22.579  1.00  0.00     0.068 C 
ATOM     82  C   UNL A   1      31.416  26.787  22.469  1.00  0.00     0.263 C 
ATOM     83  H   UNL A   1      33.152  26.516  23.515  1.00  0.00     0.349 HD
BRANCH  80  84
ATOM     84  C   UNL A   1      31.830  25.440  24.491  1.00  0.00     0.307 C 
BRANCH  84  85
ATOM     85  C   UNL A   1      32.993  24.626  25.046  1.00  0.00     0.084 A 
ATOM     86  C   UNL A   1      34.296  24.933  24.613  1.00  0.00     0.017 A 
ATOM     87  C   UNL A   1      32.872  23.618  26.028  1.00  0.00     0.278 A 
ATOM     88  C   UNL A   1      35.419  24.336  25.198  1.00  0.00     0.001 A 
ATOM     89  C   UNL A   1      33.996  23.042  26.642  1.00  0.00     0.086 A 
ATOM     90  C   UNL A   1      35.271  23.414  26.230  1.00  0.00     0.007 A 
BRANCH  87  91
ATOM     91  N   UNL A   1      31.574  23.095  26.450  1.00  0.00     0.063 N 
ATOM     92  O   UNL A   1      31.163  23.439  27.567  1.00  0.00    -0.258 OA
ATOM     93  O   UNL A   1      30.988  22.327  25.677  1.00  0.00    -0.258 OA
ENDBRANCH  87  91
ENDBRANCH  84  85
ENDBRANCH  80  84
ENDBRANCH  75  78
ENDBRANCH  73  74
ENDBRANCH   1  73
TORSDOF 14
ENDMDL
