MODEL 1
REMARK VINA RESULT:     -13.0      0.000      0.000
REMARK SMILES O=C(N/N=C/c1ccc(C(=O)NCCCCNC(=O)c2ccc(-c3c4nc(c(-c5c(F)c(F)c(F)c(F)c5F)c5ccc([nH]5)c(-c5c(F)c(F)c(F)c(F)c5F)c5nc(c(-c6c(F)c(F)c(F)c(F)c6F)c6ccc3[nH]6)C=C5)C=C4)cc2)cc1)C(=O)Nc1ccc2c(c1)OCO2
REMARK SMILES IDX 13 1 12 2 10 3 11 4 9 6 6 7 7 8 84 9 8 10 83 11 5 12 4 13
REMARK SMILES IDX 3 14 1 15 2 16 85 18 86 19 87 20 88 22 89 23 93 24 90 25
REMARK SMILES IDX 92 26 91 27 94 28 96 29 95 30 14 31 15 32 16 33 17 34 18 35
REMARK SMILES IDX 19 37 20 38 21 39 82 40 22 41 81 42 23 43 24 44 25 45 75 46
REMARK SMILES IDX 26 47 80 48 74 49 76 50 27 51 79 52 73 53 72 54 28 56 60 57
REMARK SMILES IDX 40 58 59 59 41 60 44 61 58 62 77 63 42 64 43 65 57 67 78 68
REMARK SMILES IDX 45 69 29 70 30 71 38 72 31 73 32 74 36 75 39 76 33 77 34 78
REMARK SMILES IDX 37 79 35 80 61 81 62 82 70 83 63 84 64 85 68 86 71 87 65 88
REMARK SMILES IDX 66 89 69 90 67 91 46 92 47 93 55 94 48 95 49 96 53 97 56 98
REMARK SMILES IDX 50 99 51 100 54 101 52 102
REMARK H PARENT 12 5 3 17 87 21 17 36 76 55 44 66
REMARK Flexibility Score: inf
ROOT
ATOM      1  C   UNL A   1      34.980  21.904  24.701  1.00  0.00     0.116 C 
ENDROOT
BRANCH   1   2
ATOM      2  N   UNL A   1      33.902  20.941  24.831  1.00  0.00    -0.352 N 
ATOM      3  C   UNL A   1      32.543  21.142  24.902  1.00  0.00     0.251 C 
ATOM      4  O   UNL A   1      31.803  20.171  25.029  1.00  0.00    -0.269 OA
ATOM      5  H   UNL A   1      34.187  20.000  24.873  1.00  0.00     0.163 HD
BRANCH   3   6
ATOM      6  C   UNL A   1      31.965  22.495  24.704  1.00  0.00     0.039 A 
ATOM      7  C   UNL A   1      30.075  24.937  24.389  1.00  0.00    -0.005 A 
ATOM      8  C   UNL A   1      30.784  24.398  25.630  1.00  0.00     0.010 A 
ATOM      9  C   UNL A   1      30.833  24.169  23.344  1.00  0.00     0.010 A 
ATOM     10  C   UNL A   1      31.609  23.247  25.792  1.00  0.00     0.014 A 
ATOM     11  C   UNL A   1      31.721  23.073  23.487  1.00  0.00     0.014 A 
BRANCH   7  12
ATOM     12  C   UNL A   1      28.509  26.376  24.229  1.00  0.00     0.141 C 
ATOM     13  N   UNL A   1      27.985  27.173  23.233  1.00  0.00    -0.180 NA
BRANCH  13  14
ATOM     14  N   UNL A   1      27.496  28.355  23.656  1.00  0.00    -0.239 N 
ATOM     15  O   UNL A   1      27.302  30.580  23.371  1.00  0.00    -0.262 OA
ATOM     16  C   UNL A   1      27.994  29.574  23.205  1.00  0.00     0.329 C 
ATOM     17  H   UNL A   1      26.759  28.356  24.309  1.00  0.00     0.194 HD
BRANCH  16  18
ATOM     18  C   UNL A   1      29.358  29.741  22.461  1.00  0.00     0.315 C 
ATOM     19  O   UNL A   1      29.354  29.731  21.228  1.00  0.00    -0.263 OA
ATOM     20  N   UNL A   1      30.542  30.102  23.100  1.00  0.00    -0.318 N 
ATOM     21  H   UNL A   1      31.070  30.841  22.720  1.00  0.00     0.170 HD
BRANCH  20  22
ATOM     22  C   UNL A   1      31.021  29.471  24.255  1.00  0.00     0.045 A 
ATOM     23  C   UNL A   1      32.104  28.012  23.940  1.00  0.00     0.030 A 
ATOM     24  C   UNL A   1      31.300  30.540  25.720  1.00  0.00     0.076 A 
ATOM     25  C   UNL A   1      33.472  27.647  25.112  1.00  0.00     0.053 A 
ATOM     26  C   UNL A   1      32.775  30.227  26.740  1.00  0.00     0.167 A 
ATOM     27  C   UNL A   1      33.801  28.799  26.446  1.00  0.00     0.165 A 
ATOM     28  O   UNL A   1      33.446  31.010  27.626  1.00  0.00    -0.454 OA
ATOM     29  O   UNL A   1      34.918  28.975  27.200  1.00  0.00    -0.454 OA
ATOM     30  C   UNL A   1      34.789  30.399  27.580  1.00  0.00     0.468 C 
ENDBRANCH  20  22
ENDBRANCH  16  18
ENDBRANCH  13  14
ENDBRANCH   7  12
ENDBRANCH   3   6
ENDBRANCH   1   2
BRANCH   1  31
ATOM     31  C   UNL A   1      35.431  22.374  26.087  1.00  0.00     0.023 C 
BRANCH  31  32
ATOM     32  C   UNL A   1      36.116  23.731  26.081  1.00  0.00     0.023 C 
BRANCH  32  33
ATOM     33  C   UNL A   1      37.299  23.810  25.138  1.00  0.00     0.116 C 
BRANCH  33  34
ATOM     34  N   UNL A   1      38.341  22.847  25.463  1.00  0.00    -0.352 N 
ATOM     35  C   UNL A   1      39.489  23.059  26.180  1.00  0.00     0.251 C 
ATOM     36  H   UNL A   1      38.203  21.932  25.125  1.00  0.00     0.163 HD
ATOM     37  O   UNL A   1      40.364  22.203  26.234  1.00  0.00    -0.269 OA
BRANCH  35  38
ATOM     38  C   UNL A   1      39.663  24.359  26.852  1.00  0.00     0.039 A 
ATOM     39  C   UNL A   1      39.207  24.502  28.160  1.00  0.00     0.014 A 
ATOM     40  C   UNL A   1      40.353  25.395  26.214  1.00  0.00     0.014 A 
ATOM     41  C   UNL A   1      39.494  25.675  28.851  1.00  0.00     0.010 A 
ATOM     42  C   UNL A   1      40.732  26.515  26.941  1.00  0.00     0.010 A 
ATOM     43  C   UNL A   1      40.298  26.670  28.264  1.00  0.00    -0.014 A 
BRANCH  43  44
ATOM     44  C   UNL A   1      40.697  27.866  29.044  1.00  0.00     0.031 A 
ATOM     45  C   UNL A   1      42.092  27.996  29.582  1.00  0.00     0.074 A 
ATOM     46  C   UNL A   1      39.783  28.828  29.278  1.00  0.00     0.049 A 
ATOM     47  N   UNL A   1      42.632  28.989  30.243  1.00  0.00    -0.248 NA
ATOM     48  C   UNL A   1      42.998  26.855  29.373  1.00  0.00     0.031 C 
ATOM     49  C   UNL A   1      38.380  28.778  28.861  1.00  0.00     0.029 A 
ATOM     50  N   UNL A   1      39.898  30.038  29.911  1.00  0.00    -0.354 N 
ATOM     51  C   UNL A   1      43.933  28.595  30.522  1.00  0.00     0.074 A 
ATOM     52  C   UNL A   1      44.081  27.244  30.026  1.00  0.00     0.031 C 
ATOM     53  C   UNL A   1      37.780  29.929  29.201  1.00  0.00     0.029 A 
ATOM     54  C   UNL A   1      38.738  30.774  29.902  1.00  0.00     0.049 A 
ATOM     55  H   UNL A   1      40.732  30.350  30.331  1.00  0.00     0.167 HD
ATOM     56  C   UNL A   1      44.922  29.307  31.112  1.00  0.00     0.037 A 
ATOM     57  C   UNL A   1      38.479  31.995  30.405  1.00  0.00     0.037 A 
ATOM     58  C   UNL A   1      44.763  30.651  31.604  1.00  0.00     0.049 A 
ATOM     59  C   UNL A   1      39.591  32.752  31.080  1.00  0.00     0.074 A 
ATOM     60  C   UNL A   1      45.713  31.478  32.174  1.00  0.00     0.029 A 
ATOM     61  N   UNL A   1      43.569  31.359  31.597  1.00  0.00    -0.354 N 
ATOM     62  N   UNL A   1      40.843  32.405  31.259  1.00  0.00    -0.248 NA
ATOM     63  C   UNL A   1      39.254  34.077  31.612  1.00  0.00     0.031 C 
ATOM     64  C   UNL A   1      45.079  32.656  32.582  1.00  0.00     0.029 A 
ATOM     65  C   UNL A   1      43.751  32.600  32.190  1.00  0.00     0.049 A 
ATOM     66  H   UNL A   1      42.719  31.030  31.226  1.00  0.00     0.167 HD
ATOM     67  C   UNL A   1      41.448  33.477  31.902  1.00  0.00     0.074 A 
ATOM     68  C   UNL A   1      40.431  34.499  32.046  1.00  0.00     0.031 C 
ATOM     69  C   UNL A   1      42.727  33.603  32.340  1.00  0.00     0.037 A 
BRANCH  56  70
ATOM     70  C   UNL A   1      46.261  28.641  31.267  1.00  0.00     0.064 A 
ATOM     71  C   UNL A   1      46.593  27.901  32.414  1.00  0.00     0.173 A 
ATOM     72  C   UNL A   1      47.213  28.711  30.238  1.00  0.00     0.173 A 
ATOM     73  F   UNL A   1      45.726  27.810  33.435  1.00  0.00    -0.203 F 
ATOM     74  C   UNL A   1      47.837  27.287  32.538  1.00  0.00     0.198 A 
ATOM     75  C   UNL A   1      48.441  28.064  30.350  1.00  0.00     0.198 A 
ATOM     76  F   UNL A   1      46.950  29.401  29.118  1.00  0.00    -0.203 F 
ATOM     77  F   UNL A   1      48.152  26.637  33.667  1.00  0.00    -0.200 F 
ATOM     78  C   UNL A   1      48.756  27.360  31.503  1.00  0.00     0.200 A 
ATOM     79  F   UNL A   1      49.320  28.121  29.340  1.00  0.00    -0.200 F 
ATOM     80  F   UNL A   1      49.948  26.760  31.618  1.00  0.00    -0.200 F 
ENDBRANCH  56  70
BRANCH  57  81
ATOM     81  C   UNL A   1      37.119  32.581  30.280  1.00  0.00     0.064 A 
ATOM     82  C   UNL A   1      36.144  32.374  31.268  1.00  0.00     0.173 A 
ATOM     83  C   UNL A   1      36.756  33.347  29.161  1.00  0.00     0.173 A 
ATOM     84  F   UNL A   1      36.434  31.634  32.349  1.00  0.00    -0.203 F 
ATOM     85  C   UNL A   1      34.854  32.881  31.125  1.00  0.00     0.198 A 
ATOM     86  C   UNL A   1      35.478  33.886  29.040  1.00  0.00     0.198 A 
ATOM     87  F   UNL A   1      37.651  33.584  28.191  1.00  0.00    -0.203 F 
ATOM     88  F   UNL A   1      33.926  32.613  32.054  1.00  0.00    -0.200 F 
ATOM     89  C   UNL A   1      34.524  33.642  30.014  1.00  0.00     0.200 A 
ATOM     90  F   UNL A   1      35.171  34.640  27.974  1.00  0.00    -0.200 F 
ATOM     91  F   UNL A   1      33.284  34.133  29.879  1.00  0.00    -0.200 F 
ENDBRANCH  57  81
BRANCH  69  92
ATOM     92  C   UNL A   1      43.097  34.908  32.992  1.00  0.00     0.064 A 
ATOM     93  C   UNL A   1      42.955  35.114  34.373  1.00  0.00     0.173 A 
ATOM     94  C   UNL A   1      43.596  35.970  32.222  1.00  0.00     0.173 A 
ATOM     95  F   UNL A   1      42.473  34.135  35.156  1.00  0.00    -0.203 F 
ATOM     96  C   UNL A   1      43.240  36.349  34.948  1.00  0.00     0.198 A 
ATOM     97  C   UNL A   1      43.925  37.190  32.808  1.00  0.00     0.198 A 
ATOM     98  F   UNL A   1      43.766  35.828  30.899  1.00  0.00    -0.203 F 
ATOM     99  F   UNL A   1      43.013  36.546  36.254  1.00  0.00    -0.200 F 
ATOM    100  C   UNL A   1      43.730  37.383  34.166  1.00  0.00     0.200 A 
ATOM    101  F   UNL A   1      44.420  38.180  32.054  1.00  0.00    -0.200 F 
ATOM    102  F   UNL A   1      44.001  38.574  34.720  1.00  0.00    -0.200 F 
ENDBRANCH  69  92
ENDBRANCH  43  44
ENDBRANCH  35  38
ENDBRANCH  33  34
ENDBRANCH  32  33
ENDBRANCH  31  32
ENDBRANCH   1  31
TORSDOF 15
ENDMDL
MODEL 2
REMARK VINA RESULT:     -12.8      1.302      2.422
REMARK SMILES O=C(N/N=C/c1ccc(C(=O)NCCCCNC(=O)c2ccc(-c3c4nc(c(-c5c(F)c(F)c(F)c(F)c5F)c5ccc([nH]5)c(-c5c(F)c(F)c(F)c(F)c5F)c5nc(c(-c6c(F)c(F)c(F)c(F)c6F)c6ccc3[nH]6)C=C5)C=C4)cc2)cc1)C(=O)Nc1ccc2c(c1)OCO2
REMARK SMILES IDX 13 1 12 2 10 3 11 4 9 6 6 7 7 8 84 9 8 10 83 11 5 12 4 13
REMARK SMILES IDX 3 14 1 15 2 16 85 18 86 19 87 20 88 22 89 23 93 24 90 25
REMARK SMILES IDX 92 26 91 27 94 28 96 29 95 30 14 31 15 32 16 33 17 34 18 35
REMARK SMILES IDX 19 37 20 38 21 39 82 40 22 41 81 42 23 43 24 44 25 45 75 46
REMARK SMILES IDX 26 47 80 48 74 49 76 50 27 51 79 52 73 53 72 54 28 56 60 57
REMARK SMILES IDX 40 58 59 59 41 60 44 61 58 62 77 63 42 64 43 65 57 67 78 68
REMARK SMILES IDX 45 69 29 70 30 71 38 72 31 73 32 74 36 75 39 76 33 77 34 78
REMARK SMILES IDX 37 79 35 80 61 81 62 82 70 83 63 84 64 85 68 86 71 87 65 88
REMARK SMILES IDX 66 89 69 90 67 91 46 92 47 93 55 94 48 95 49 96 53 97 56 98
REMARK SMILES IDX 50 99 51 100 54 101 52 102
REMARK H PARENT 12 5 3 17 87 21 17 36 76 55 44 66
REMARK Flexibility Score: inf
ROOT
ATOM      1  C   UNL A   1      34.966  21.826  24.589  1.00  0.00     0.116 C 
ENDROOT
BRANCH   1   2
ATOM      2  N   UNL A   1      33.881  20.876  24.748  1.00  0.00    -0.352 N 
ATOM      3  C   UNL A   1      32.526  21.093  24.854  1.00  0.00     0.251 C 
ATOM      4  O   UNL A   1      31.778  20.130  25.001  1.00  0.00    -0.269 OA
ATOM      5  H   UNL A   1      34.156  19.932  24.785  1.00  0.00     0.163 HD
BRANCH   3   6
ATOM      6  C   UNL A   1      31.959  22.452  24.668  1.00  0.00     0.039 A 
ATOM      7  C   UNL A   1      30.087  24.909  24.359  1.00  0.00    -0.005 A 
ATOM      8  C   UNL A   1      30.771  24.345  25.604  1.00  0.00     0.010 A 
ATOM      9  C   UNL A   1      30.860  24.154  23.315  1.00  0.00     0.010 A 
ATOM     10  C   UNL A   1      31.587  23.187  25.762  1.00  0.00     0.014 A 
ATOM     11  C   UNL A   1      31.740  23.051  23.456  1.00  0.00     0.014 A 
BRANCH   7  12
ATOM     12  C   UNL A   1      28.531  26.359  24.195  1.00  0.00     0.141 C 
ATOM     13  N   UNL A   1      28.022  27.167  23.200  1.00  0.00    -0.180 NA
BRANCH  13  14
ATOM     14  N   UNL A   1      27.536  28.348  23.627  1.00  0.00    -0.239 N 
ATOM     15  O   UNL A   1      27.369  30.579  23.364  1.00  0.00    -0.262 OA
ATOM     16  C   UNL A   1      28.055  29.567  23.200  1.00  0.00     0.329 C 
ATOM     17  H   UNL A   1      26.787  28.349  24.267  1.00  0.00     0.194 HD
BRANCH  16  18
ATOM     18  C   UNL A   1      29.434  29.729  22.483  1.00  0.00     0.315 C 
ATOM     19  O   UNL A   1      29.458  29.702  21.251  1.00  0.00    -0.263 OA
ATOM     20  N   UNL A   1      30.603  30.103  23.143  1.00  0.00    -0.318 N 
ATOM     21  H   UNL A   1      31.137  30.839  22.765  1.00  0.00     0.170 HD
BRANCH  20  22
ATOM     22  C   UNL A   1      31.058  29.490  24.317  1.00  0.00     0.045 A 
ATOM     23  C   UNL A   1      32.092  27.987  24.047  1.00  0.00     0.030 A 
ATOM     24  C   UNL A   1      31.370  30.591  25.752  1.00  0.00     0.076 A 
ATOM     25  C   UNL A   1      33.445  27.611  25.232  1.00  0.00     0.053 A 
ATOM     26  C   UNL A   1      32.832  30.258  26.784  1.00  0.00     0.167 A 
ATOM     27  C   UNL A   1      33.811  28.789  26.534  1.00  0.00     0.165 A 
ATOM     28  O   UNL A   1      33.528  31.044  27.649  1.00  0.00    -0.454 OA
ATOM     29  O   UNL A   1      34.931  28.949  27.285  1.00  0.00    -0.454 OA
ATOM     30  C   UNL A   1      34.850  30.387  27.624  1.00  0.00     0.468 C 
ENDBRANCH  20  22
ENDBRANCH  16  18
ENDBRANCH  13  14
ENDBRANCH   7  12
ENDBRANCH   3   6
ENDBRANCH   1   2
BRANCH   1  31
ATOM     31  C   UNL A   1      35.329  22.437  25.946  1.00  0.00     0.023 C 
BRANCH  31  32
ATOM     32  C   UNL A   1      36.128  23.727  25.843  1.00  0.00     0.023 C 
BRANCH  32  33
ATOM     33  C   UNL A   1      37.432  23.574  25.087  1.00  0.00     0.116 C 
BRANCH  33  34
ATOM     34  N   UNL A   1      38.332  22.614  25.709  1.00  0.00    -0.352 N 
ATOM     35  C   UNL A   1      39.417  22.871  26.505  1.00  0.00     0.251 C 
ATOM     36  H   UNL A   1      38.136  21.664  25.537  1.00  0.00     0.163 HD
ATOM     37  O   UNL A   1      40.191  21.975  26.823  1.00  0.00    -0.269 OA
BRANCH  35  38
ATOM     38  C   UNL A   1      39.655  24.260  26.936  1.00  0.00     0.039 A 
ATOM     39  C   UNL A   1      39.346  24.616  28.246  1.00  0.00     0.014 A 
ATOM     40  C   UNL A   1      40.261  25.174  26.067  1.00  0.00     0.014 A 
ATOM     41  C   UNL A   1      39.700  25.881  28.704  1.00  0.00     0.010 A 
ATOM     42  C   UNL A   1      40.710  26.392  26.558  1.00  0.00     0.010 A 
ATOM     43  C   UNL A   1      40.425  26.761  27.879  1.00  0.00    -0.014 A 
BRANCH  43  44
ATOM     44  C   UNL A   1      40.898  28.063  28.407  1.00  0.00     0.031 A 
ATOM     45  C   UNL A   1      42.367  28.357  28.509  1.00  0.00     0.074 A 
ATOM     46  C   UNL A   1      39.990  28.973  28.811  1.00  0.00     0.049 A 
ATOM     47  N   UNL A   1      42.962  29.455  28.901  1.00  0.00    -0.248 NA
ATOM     48  C   UNL A   1      43.292  27.271  28.147  1.00  0.00     0.031 C 
ATOM     49  C   UNL A   1      38.540  28.772  28.821  1.00  0.00     0.029 A 
ATOM     50  N   UNL A   1      40.151  30.251  29.280  1.00  0.00    -0.354 N 
ATOM     51  C   UNL A   1      44.323  29.193  28.827  1.00  0.00     0.074 A 
ATOM     52  C   UNL A   1      44.468  27.810  28.427  1.00  0.00     0.031 C 
ATOM     53  C   UNL A   1      37.942  29.905  29.219  1.00  0.00     0.029 A 
ATOM     54  C   UNL A   1      38.964  30.892  29.541  1.00  0.00     0.049 A 
ATOM     55  H   UNL A   1      41.032  30.670  29.415  1.00  0.00     0.167 HD
ATOM     56  C   UNL A   1      45.358  30.038  29.047  1.00  0.00     0.037 A 
ATOM     57  C   UNL A   1      38.730  32.139  29.993  1.00  0.00     0.037 A 
ATOM     58  C   UNL A   1      45.203  31.413  29.447  1.00  0.00     0.049 A 
ATOM     59  C   UNL A   1      39.901  33.047  30.253  1.00  0.00     0.074 A 
ATOM     60  C   UNL A   1      46.184  32.368  29.649  1.00  0.00     0.029 A 
ATOM     61  N   UNL A   1      43.988  32.024  29.723  1.00  0.00    -0.354 N 
ATOM     62  N   UNL A   1      41.183  32.817  30.094  1.00  0.00    -0.248 NA
ATOM     63  C   UNL A   1      39.589  34.394  30.745  1.00  0.00     0.031 C 
ATOM     64  C   UNL A   1      45.569  33.532  30.120  1.00  0.00     0.029 A 
ATOM     65  C   UNL A   1      44.198  33.333  30.132  1.00  0.00     0.049 A 
ATOM     66  H   UNL A   1      43.107  31.593  29.642  1.00  0.00     0.167 HD
ATOM     67  C   UNL A   1      41.827  33.996  30.444  1.00  0.00     0.074 A 
ATOM     68  C   UNL A   1      40.791  34.948  30.786  1.00  0.00     0.031 C 
ATOM     69  C   UNL A   1      43.157  34.266  30.484  1.00  0.00     0.037 A 
BRANCH  56  70
ATOM     70  C   UNL A   1      46.749  29.497  28.867  1.00  0.00     0.064 A 
ATOM     71  C   UNL A   1      47.395  29.510  27.619  1.00  0.00     0.173 A 
ATOM     72  C   UNL A   1      47.463  28.992  29.964  1.00  0.00     0.173 A 
ATOM     73  F   UNL A   1      46.756  29.969  26.532  1.00  0.00    -0.203 F 
ATOM     74  C   UNL A   1      48.685  29.008  27.473  1.00  0.00     0.198 A 
ATOM     75  C   UNL A   1      48.767  28.527  29.821  1.00  0.00     0.198 A 
ATOM     76  F   UNL A   1      46.899  28.958  31.181  1.00  0.00    -0.203 F 
ATOM     77  F   UNL A   1      49.256  28.977  26.260  1.00  0.00    -0.200 F 
ATOM     78  C   UNL A   1      49.374  28.526  28.574  1.00  0.00     0.200 A 
ATOM     79  F   UNL A   1      49.438  28.078  30.891  1.00  0.00    -0.200 F 
ATOM     80  F   UNL A   1      50.620  28.054  28.434  1.00  0.00    -0.200 F 
ENDBRANCH  56  70
BRANCH  57  81
ATOM     81  C   UNL A   1      37.335  32.603  30.214  1.00  0.00     0.064 A 
ATOM     82  C   UNL A   1      36.614  33.247  29.197  1.00  0.00     0.173 A 
ATOM     83  C   UNL A   1      36.697  32.428  31.451  1.00  0.00     0.173 A 
ATOM     84  F   UNL A   1      37.184  33.455  28.001  1.00  0.00    -0.203 F 
ATOM     85  C   UNL A   1      35.325  33.727  29.421  1.00  0.00     0.198 A 
ATOM     86  C   UNL A   1      35.394  32.872  31.660  1.00  0.00     0.198 A 
ATOM     87  F   UNL A   1      37.337  31.810  32.455  1.00  0.00    -0.203 F 
ATOM     88  F   UNL A   1      34.685  34.395  28.452  1.00  0.00    -0.200 F 
ATOM     89  C   UNL A   1      34.714  33.533  30.650  1.00  0.00     0.200 A 
ATOM     90  F   UNL A   1      34.801  32.662  32.843  1.00  0.00    -0.200 F 
ATOM     91  F   UNL A   1      33.473  33.991  30.864  1.00  0.00    -0.200 F 
ENDBRANCH  57  81
BRANCH  69  92
ATOM     92  C   UNL A   1      43.557  35.659  30.889  1.00  0.00     0.064 A 
ATOM     93  C   UNL A   1      43.714  36.689  29.948  1.00  0.00     0.173 A 
ATOM     94  C   UNL A   1      43.793  35.968  32.238  1.00  0.00     0.173 A 
ATOM     95  F   UNL A   1      43.510  36.448  28.643  1.00  0.00    -0.203 F 
ATOM     96  C   UNL A   1      44.148  37.954  30.333  1.00  0.00     0.198 A 
ATOM     97  C   UNL A   1      44.181  37.247  32.625  1.00  0.00     0.198 A 
ATOM     98  F   UNL A   1      43.646  35.028  33.184  1.00  0.00    -0.203 F 
ATOM     99  F   UNL A   1      44.373  38.894  29.405  1.00  0.00    -0.200 F 
ATOM    100  C   UNL A   1      44.376  38.233  31.672  1.00  0.00     0.200 A 
ATOM    101  F   UNL A   1      44.379  37.520  33.922  1.00  0.00    -0.200 F 
ATOM    102  F   UNL A   1      44.798  39.451  32.041  1.00  0.00    -0.200 F 
ENDBRANCH  69  92
ENDBRANCH  43  44
ENDBRANCH  35  38
ENDBRANCH  33  34
ENDBRANCH  32  33
ENDBRANCH  31  32
ENDBRANCH   1  31
TORSDOF 15
ENDMDL
MODEL 3
REMARK VINA RESULT:     -12.6      4.173      6.847
REMARK SMILES O=C(N/N=C/c1ccc(C(=O)NCCCCNC(=O)c2ccc(-c3c4nc(c(-c5c(F)c(F)c(F)c(F)c5F)c5ccc([nH]5)c(-c5c(F)c(F)c(F)c(F)c5F)c5nc(c(-c6c(F)c(F)c(F)c(F)c6F)c6ccc3[nH]6)C=C5)C=C4)cc2)cc1)C(=O)Nc1ccc2c(c1)OCO2
REMARK SMILES IDX 13 1 12 2 10 3 11 4 9 6 6 7 7 8 84 9 8 10 83 11 5 12 4 13
REMARK SMILES IDX 3 14 1 15 2 16 85 18 86 19 87 20 88 22 89 23 93 24 90 25
REMARK SMILES IDX 92 26 91 27 94 28 96 29 95 30 14 31 15 32 16 33 17 34 18 35
REMARK SMILES IDX 19 37 20 38 21 39 82 40 22 41 81 42 23 43 24 44 25 45 75 46
REMARK SMILES IDX 26 47 80 48 74 49 76 50 27 51 79 52 73 53 72 54 28 56 60 57
REMARK SMILES IDX 40 58 59 59 41 60 44 61 58 62 77 63 42 64 43 65 57 67 78 68
REMARK SMILES IDX 45 69 29 70 30 71 38 72 31 73 32 74 36 75 39 76 33 77 34 78
REMARK SMILES IDX 37 79 35 80 61 81 62 82 70 83 63 84 64 85 68 86 71 87 65 88
REMARK SMILES IDX 66 89 69 90 67 91 46 92 47 93 55 94 48 95 49 96 53 97 56 98
REMARK SMILES IDX 50 99 51 100 54 101 52 102
REMARK H PARENT 12 5 3 17 87 21 17 36 76 55 44 66
REMARK Flexibility Score: inf
ROOT
ATOM      1  C   UNL A   1      39.987  21.826  26.123  1.00  0.00     0.116 C 
ENDROOT
BRANCH   1   2
ATOM      2  N   UNL A   1      39.139  20.707  25.755  1.00  0.00    -0.352 N 
ATOM      3  C   UNL A   1      37.869  20.698  25.226  1.00  0.00     0.251 C 
ATOM      4  O   UNL A   1      37.323  19.620  25.004  1.00  0.00    -0.269 OA
ATOM      5  H   UNL A   1      39.534  19.818  25.906  1.00  0.00     0.163 HD
BRANCH   3   6
ATOM      6  C   UNL A   1      37.211  21.962  24.811  1.00  0.00     0.039 A 
ATOM      7  C   UNL A   1      35.179  24.193  24.084  1.00  0.00    -0.005 A 
ATOM      8  C   UNL A   1      35.880  23.897  25.408  1.00  0.00     0.010 A 
ATOM      9  C   UNL A   1      36.019  23.330  23.186  1.00  0.00     0.010 A 
ATOM     10  C   UNL A   1      36.772  22.843  25.763  1.00  0.00     0.014 A 
ATOM     11  C   UNL A   1      36.970  22.332  23.514  1.00  0.00     0.014 A 
BRANCH   7  12
ATOM     12  C   UNL A   1      33.528  25.480  23.671  1.00  0.00     0.141 C 
ATOM     13  N   UNL A   1      32.583  26.158  24.412  1.00  0.00    -0.180 NA
BRANCH  13  14
ATOM     14  N   UNL A   1      31.387  26.294  23.808  1.00  0.00    -0.239 N 
ATOM     15  O   UNL A   1      29.150  26.503  23.974  1.00  0.00    -0.262 OA
ATOM     16  C   UNL A   1      30.185  26.051  24.468  1.00  0.00     0.329 C 
ATOM     17  H   UNL A   1      31.361  26.575  22.864  1.00  0.00     0.194 HD
BRANCH  16  18
ATOM     18  C   UNL A   1      30.070  25.277  25.821  1.00  0.00     0.315 C 
ATOM     19  O   UNL A   1      29.534  25.846  26.773  1.00  0.00    -0.263 OA
ATOM     20  N   UNL A   1      30.351  23.919  25.955  1.00  0.00    -0.318 N 
ATOM     21  H   UNL A   1      29.687  23.348  26.405  1.00  0.00     0.170 HD
BRANCH  20  22
ATOM     22  C   UNL A   1      31.527  23.323  25.484  1.00  0.00     0.045 A 
ATOM     23  C   UNL A   1      32.657  22.704  26.804  1.00  0.00     0.030 A 
ATOM     24  C   UNL A   1      31.420  22.460  23.868  1.00  0.00     0.076 A 
ATOM     25  C   UNL A   1      33.671  21.206  26.480  1.00  0.00     0.053 A 
ATOM     26  C   UNL A   1      32.316  20.886  23.677  1.00  0.00     0.167 A 
ATOM     27  C   UNL A   1      33.428  20.309  24.946  1.00  0.00     0.165 A 
ATOM     28  O   UNL A   1      32.166  19.860  22.798  1.00  0.00    -0.454 OA
ATOM     29  O   UNL A   1      33.747  19.031  24.615  1.00  0.00    -0.454 OA
ATOM     30  C   UNL A   1      32.739  18.741  23.572  1.00  0.00     0.468 C 
ENDBRANCH  20  22
ENDBRANCH  16  18
ENDBRANCH  13  14
ENDBRANCH   7  12
ENDBRANCH   3   6
ENDBRANCH   1   2
BRANCH   1  31
ATOM     31  C   UNL A   1      41.410  21.334  26.403  1.00  0.00     0.023 C 
BRANCH  31  32
ATOM     32  C   UNL A   1      41.619  19.858  26.098  1.00  0.00     0.023 C 
BRANCH  32  33
ATOM     33  C   UNL A   1      43.050  19.397  26.285  1.00  0.00     0.116 C 
BRANCH  33  34
ATOM     34  N   UNL A   1      43.662  18.950  25.042  1.00  0.00    -0.352 N 
ATOM     35  C   UNL A   1      44.435  19.678  24.176  1.00  0.00     0.251 C 
ATOM     36  H   UNL A   1      43.499  18.011  24.793  1.00  0.00     0.163 HD
ATOM     37  O   UNL A   1      44.744  19.228  23.079  1.00  0.00    -0.269 OA
BRANCH  35  38
ATOM     38  C   UNL A   1      44.851  21.032  24.579  1.00  0.00     0.039 A 
ATOM     39  C   UNL A   1      44.433  22.117  23.813  1.00  0.00     0.014 A 
ATOM     40  C   UNL A   1      45.577  21.225  25.760  1.00  0.00     0.014 A 
ATOM     41  C   UNL A   1      44.698  23.407  24.264  1.00  0.00     0.010 A 
ATOM     42  C   UNL A   1      45.743  22.509  26.261  1.00  0.00     0.010 A 
ATOM     43  C   UNL A   1      45.314  23.612  25.514  1.00  0.00    -0.014 A 
BRANCH  43  44
ATOM     44  C   UNL A   1      45.491  24.985  26.043  1.00  0.00     0.031 A 
ATOM     45  C   UNL A   1      46.833  25.656  25.989  1.00  0.00     0.074 A 
ATOM     46  C   UNL A   1      44.434  25.617  26.589  1.00  0.00     0.049 A 
ATOM     47  N   UNL A   1      47.165  26.868  26.359  1.00  0.00    -0.248 NA
ATOM     48  C   UNL A   1      47.958  24.859  25.474  1.00  0.00     0.031 C 
ATOM     49  C   UNL A   1      43.099  25.038  26.756  1.00  0.00     0.029 A 
ATOM     50  N   UNL A   1      44.311  26.885  27.094  1.00  0.00    -0.354 N 
ATOM     51  C   UNL A   1      48.527  26.976  26.118  1.00  0.00     0.074 A 
ATOM     52  C   UNL A   1      48.978  25.687  25.641  1.00  0.00     0.031 C 
ATOM     53  C   UNL A   1      42.279  25.967  27.271  1.00  0.00     0.029 A 
ATOM     54  C   UNL A   1      43.040  27.186  27.518  1.00  0.00     0.049 A 
ATOM     55  H   UNL A   1      45.062  27.521  27.145  1.00  0.00     0.167 HD
ATOM     56  C   UNL A   1      49.324  28.063  26.255  1.00  0.00     0.037 A 
ATOM     57  C   UNL A   1      42.545  28.320  28.049  1.00  0.00     0.037 A 
ATOM     58  C   UNL A   1      48.866  29.342  26.733  1.00  0.00     0.049 A 
ATOM     59  C   UNL A   1      43.461  29.502  28.214  1.00  0.00     0.074 A 
ATOM     60  C   UNL A   1      49.579  30.519  26.864  1.00  0.00     0.029 A 
ATOM     61  N   UNL A   1      47.576  29.605  27.174  1.00  0.00    -0.354 N 
ATOM     62  N   UNL A   1      44.728  29.622  27.899  1.00  0.00    -0.248 NA
ATOM     63  C   UNL A   1      42.870  30.711  28.800  1.00  0.00     0.031 C 
ATOM     64  C   UNL A   1      48.744  31.473  27.455  1.00  0.00     0.029 A 
ATOM     65  C   UNL A   1      47.485  30.918  27.615  1.00  0.00     0.049 A 
ATOM     66  H   UNL A   1      46.835  28.958  27.174  1.00  0.00     0.167 HD
ATOM     67  C   UNL A   1      45.080  30.925  28.226  1.00  0.00     0.074 A 
ATOM     68  C   UNL A   1      43.881  31.564  28.728  1.00  0.00     0.031 C 
ATOM     69  C   UNL A   1      46.288  31.537  28.125  1.00  0.00     0.037 A 
BRANCH  56  70
ATOM     70  C   UNL A   1      50.775  27.912  25.893  1.00  0.00     0.064 A 
ATOM     71  C   UNL A   1      51.223  28.019  24.566  1.00  0.00     0.173 A 
ATOM     72  C   UNL A   1      51.738  27.693  26.890  1.00  0.00     0.173 A 
ATOM     73  F   UNL A   1      50.346  28.215  23.570  1.00  0.00    -0.203 F 
ATOM     74  C   UNL A   1      52.572  27.881  24.250  1.00  0.00     0.198 A 
ATOM     75  C   UNL A   1      53.090  27.594  26.574  1.00  0.00     0.198 A 
ATOM     76  F   UNL A   1      51.369  27.585  28.175  1.00  0.00    -0.203 F 
ATOM     77  F   UNL A   1      52.967  27.929  22.969  1.00  0.00    -0.200 F 
ATOM     78  C   UNL A   1      53.506  27.678  25.253  1.00  0.00     0.200 A 
ATOM     79  F   UNL A   1      53.993  27.416  27.549  1.00  0.00    -0.200 F 
ATOM     80  F   UNL A   1      54.805  27.557  24.949  1.00  0.00    -0.200 F 
ENDBRANCH  56  70
BRANCH  57  81
ATOM     81  C   UNL A   1      41.115  28.394  28.450  1.00  0.00     0.064 A 
ATOM     82  C   UNL A   1      40.142  28.901  27.575  1.00  0.00     0.173 A 
ATOM     83  C   UNL A   1      40.693  27.977  29.721  1.00  0.00     0.173 A 
ATOM     84  F   UNL A   1      40.496  29.329  26.355  1.00  0.00    -0.203 F 
ATOM     85  C   UNL A   1      38.811  29.018  27.970  1.00  0.00     0.198 A 
ATOM     86  C   UNL A   1      39.355  28.058  30.099  1.00  0.00     0.198 A 
ATOM     87  F   UNL A   1      41.580  27.477  30.593  1.00  0.00    -0.203 F 
ATOM     88  F   UNL A   1      37.914  29.564  27.137  1.00  0.00    -0.200 F 
ATOM     89  C   UNL A   1      38.417  28.590  29.229  1.00  0.00     0.200 A 
ATOM     90  F   UNL A   1      38.977  27.622  31.308  1.00  0.00    -0.200 F 
ATOM     91  F   UNL A   1      37.135  28.699  29.606  1.00  0.00    -0.200 F 
ENDBRANCH  57  81
BRANCH  69  92
ATOM     92  C   UNL A   1      46.356  32.981  28.544  1.00  0.00     0.064 A 
ATOM     93  C   UNL A   1      46.077  34.026  27.650  1.00  0.00     0.173 A 
ATOM     94  C   UNL A   1      46.712  33.324  29.858  1.00  0.00     0.173 A 
ATOM     95  F   UNL A   1      45.740  33.757  26.379  1.00  0.00    -0.203 F 
ATOM     96  C   UNL A   1      46.209  35.357  28.038  1.00  0.00     0.198 A 
ATOM     97  C   UNL A   1      46.798  34.655  30.255  1.00  0.00     0.198 A 
ATOM     98  F   UNL A   1      46.978  32.367  30.760  1.00  0.00    -0.203 F 
ATOM     99  F   UNL A   1      46.021  36.335  27.141  1.00  0.00    -0.200 F 
ATOM    100  C   UNL A   1      46.564  35.670  29.341  1.00  0.00     0.200 A 
ATOM    101  F   UNL A   1      47.119  34.955  31.521  1.00  0.00    -0.200 F 
ATOM    102  F   UNL A   1      46.695  36.952  29.712  1.00  0.00    -0.200 F 
ENDBRANCH  69  92
ENDBRANCH  43  44
ENDBRANCH  35  38
ENDBRANCH  33  34
ENDBRANCH  32  33
ENDBRANCH  31  32
ENDBRANCH   1  31
TORSDOF 15
ENDMDL
