MODEL 1
REMARK VINA RESULT:     -13.2      0.000      0.000
REMARK SMILES CC(C)(C)c1cc2c(cc1Cl)C=C(C(=O)NCCCCNC(=O)c1ccc(-c3c4nc(c(-c5c(F)c(F)c(F)c(F)c5F)c5ccc([nH]5)c(-c5c(F)c(F)c(F)c(F)c5F)c5nc(c(-c6c(F)c(F)c(F)c(F)c6F)c6ccc3[nH]6)C=C5)C=C4)cc1)[C@H](C(F)(F)F)O2
REMARK SMILES IDX 19 1 18 2 17 3 16 4 14 5 15 6 13 8 5 9 6 10 10 11 7 12 9 13
REMARK SMILES IDX 11 14 8 15 92 16 12 17 87 18 2 19 1 20 3 21 4 22 88 23 89 24
REMARK SMILES IDX 90 25 91 26 20 27 21 28 22 29 23 31 24 32 25 33 86 34 26 35
REMARK SMILES IDX 85 36 27 37 28 38 29 39 79 40 30 41 84 42 78 43 80 44 31 45
REMARK SMILES IDX 83 46 77 47 76 48 32 50 64 51 44 52 63 53 45 54 48 55 62 56
REMARK SMILES IDX 81 57 46 58 47 59 61 61 82 62 49 63 33 64 34 65 42 66 35 67
REMARK SMILES IDX 36 68 40 69 43 70 37 71 38 72 41 73 39 74 65 75 66 76 74 77
REMARK SMILES IDX 67 78 68 79 72 80 75 81 69 82 70 83 73 84 71 85 50 86 51 87
REMARK SMILES IDX 59 88 52 89 53 90 57 91 60 92 54 93 55 94 58 95 56 96
REMARK H PARENT 16 7 21 30 80 49 48 60
REMARK Flexibility Score: inf
ROOT
ATOM      1  C   UNL A   1      31.924  31.525  26.812  1.00  0.00     0.023 C 
ENDROOT
BRANCH   1   2
ATOM      2  C   UNL A   1      32.259  30.032  26.864  1.00  0.00     0.023 C 
BRANCH   2   3
ATOM      3  C   UNL A   1      33.431  29.613  25.977  1.00  0.00     0.116 C 
BRANCH   3   4
ATOM      4  N   UNL A   1      33.093  29.703  24.570  1.00  0.00    -0.352 N 
ATOM      5  C   UNL A   1      32.734  28.830  23.600  1.00  0.00     0.251 C 
ATOM      6  O   UNL A   1      32.419  29.341  22.520  1.00  0.00    -0.270 OA
ATOM      7  H   UNL A   1      33.135  30.630  24.238  1.00  0.00     0.163 HD
BRANCH   5   8
ATOM      8  C   UNL A   1      32.701  27.346  23.752  1.00  0.00     0.067 C 
ATOM      9  C   UNL A   1      33.855  22.541  24.962  1.00  0.00    -0.020 A 
ATOM     10  C   UNL A   1      32.820  23.191  24.253  1.00  0.00     0.053 A 
ATOM     11  C   UNL A   1      34.918  23.368  25.399  1.00  0.00     0.045 A 
ATOM     12  C   UNL A   1      32.815  24.571  24.037  1.00  0.00     0.128 A 
ATOM     13  C   UNL A   1      34.908  24.758  25.172  1.00  0.00     0.032 A 
ATOM     14  Cl  UNL A   1      36.338  22.788  26.198  1.00  0.00    -0.084 Cl
ATOM     15  C   UNL A   1      33.856  25.365  24.493  1.00  0.00     0.019 A 
ATOM     16  O   UNL A   1      31.762  25.078  23.327  1.00  0.00    -0.475 OA
ATOM     17  C   UNL A   1      33.837  26.794  24.219  1.00  0.00     0.025 C 
ATOM     18  C   UNL A   1      31.481  26.490  23.545  1.00  0.00     0.314 C 
BRANCH   9  19
ATOM     19  C   UNL A   1      33.781  21.006  25.170  1.00  0.00    -0.012 C 
ATOM     20  C   UNL A   1      33.495  20.711  26.657  1.00  0.00     0.016 C 
ATOM     21  C   UNL A   1      35.112  20.276  24.824  1.00  0.00     0.016 C 
ATOM     22  C   UNL A   1      32.716  20.329  24.278  1.00  0.00     0.016 C 
ENDBRANCH   9  19
BRANCH  18  23
ATOM     23  C   UNL A   1      30.414  26.647  24.642  1.00  0.00     0.429 C 
ATOM     24  F   UNL A   1      30.932  27.090  25.811  1.00  0.00    -0.167 F 
ATOM     25  F   UNL A   1      29.485  27.559  24.256  1.00  0.00    -0.167 F 
ATOM     26  F   UNL A   1      29.760  25.497  24.911  1.00  0.00    -0.167 F 
ENDBRANCH  18  23
ENDBRANCH   5   8
ENDBRANCH   3   4
ENDBRANCH   2   3
ENDBRANCH   1   2
BRANCH   1  27
ATOM     27  C   UNL A   1      32.963  32.441  27.444  1.00  0.00     0.116 C 
BRANCH  27  28
ATOM     28  N   UNL A   1      32.503  33.808  27.648  1.00  0.00    -0.352 N 
ATOM     29  C   UNL A   1      33.024  34.759  28.495  1.00  0.00     0.251 C 
ATOM     30  H   UNL A   1      31.724  34.085  27.114  1.00  0.00     0.163 HD
ATOM     31  O   UNL A   1      32.490  35.856  28.617  1.00  0.00    -0.269 OA
BRANCH  29  32
ATOM     32  C   UNL A   1      34.208  34.410  29.303  1.00  0.00     0.039 A 
ATOM     33  C   UNL A   1      35.488  34.651  28.804  1.00  0.00     0.014 A 
ATOM     34  C   UNL A   1      34.029  33.738  30.514  1.00  0.00     0.014 A 
ATOM     35  C   UNL A   1      36.579  34.055  29.419  1.00  0.00     0.010 A 
ATOM     36  C   UNL A   1      35.140  33.214  31.180  1.00  0.00     0.010 A 
ATOM     37  C   UNL A   1      36.416  33.316  30.604  1.00  0.00    -0.014 A 
BRANCH  37  38
ATOM     38  C   UNL A   1      37.598  32.641  31.198  1.00  0.00     0.031 A 
ATOM     39  C   UNL A   1      38.043  32.960  32.599  1.00  0.00     0.074 A 
ATOM     40  C   UNL A   1      38.212  31.671  30.495  1.00  0.00     0.049 A 
ATOM     41  N   UNL A   1      39.020  32.430  33.293  1.00  0.00    -0.248 NA
ATOM     42  C   UNL A   1      37.301  34.008  33.318  1.00  0.00     0.031 C 
ATOM     43  C   UNL A   1      37.856  31.267  29.135  1.00  0.00     0.029 A 
ATOM     44  N   UNL A   1      39.232  30.822  30.839  1.00  0.00    -0.354 N 
ATOM     45  C   UNL A   1      39.025  33.095  34.513  1.00  0.00     0.074 A 
ATOM     46  C   UNL A   1      37.967  34.080  34.463  1.00  0.00     0.031 C 
ATOM     47  C   UNL A   1      38.590  30.199  28.788  1.00  0.00     0.029 A 
ATOM     48  C   UNL A   1      39.511  29.886  29.875  1.00  0.00     0.049 A 
ATOM     49  H   UNL A   1      39.716  30.877  31.695  1.00  0.00     0.167 HD
ATOM     50  C   UNL A   1      39.834  32.891  35.579  1.00  0.00     0.037 A 
ATOM     51  C   UNL A   1      40.411  28.886  29.865  1.00  0.00     0.037 A 
ATOM     52  C   UNL A   1      40.860  31.883  35.641  1.00  0.00     0.049 A 
ATOM     53  C   UNL A   1      41.307  28.695  31.054  1.00  0.00     0.074 A 
ATOM     54  C   UNL A   1      41.717  31.587  36.687  1.00  0.00     0.029 A 
ATOM     55  N   UNL A   1      41.160  30.999  34.615  1.00  0.00    -0.354 N 
ATOM     56  N   UNL A   1      41.311  29.342  32.194  1.00  0.00    -0.248 NA
ATOM     57  C   UNL A   1      42.333  27.651  30.948  1.00  0.00     0.031 C 
ATOM     58  C   UNL A   1      42.556  30.543  36.283  1.00  0.00     0.029 A 
ATOM     59  C   UNL A   1      42.199  30.167  34.998  1.00  0.00     0.049 A 
ATOM     60  H   UNL A   1      40.701  30.968  33.744  1.00  0.00     0.167 HD
ATOM     61  C   UNL A   1      42.339  28.787  32.941  1.00  0.00     0.074 A 
ATOM     62  C   UNL A   1      42.921  27.733  32.136  1.00  0.00     0.031 C 
ATOM     63  C   UNL A   1      42.769  29.130  34.179  1.00  0.00     0.037 A 
BRANCH  50  64
ATOM     64  C   UNL A   1      39.655  33.777  36.776  1.00  0.00     0.064 A 
ATOM     65  C   UNL A   1      40.230  35.055  36.835  1.00  0.00     0.173 A 
ATOM     66  C   UNL A   1      38.838  33.373  37.842  1.00  0.00     0.173 A 
ATOM     67  F   UNL A   1      41.029  35.482  35.846  1.00  0.00    -0.203 F 
ATOM     68  C   UNL A   1      40.000  35.893  37.924  1.00  0.00     0.198 A 
ATOM     69  C   UNL A   1      38.594  34.221  38.919  1.00  0.00     0.198 A 
ATOM     70  F   UNL A   1      38.262  32.161  37.830  1.00  0.00    -0.203 F 
ATOM     71  F   UNL A   1      40.579  37.100  37.973  1.00  0.00    -0.200 F 
ATOM     72  C   UNL A   1      39.176  35.478  38.961  1.00  0.00     0.200 A 
ATOM     73  F   UNL A   1      37.789  33.822  39.915  1.00  0.00    -0.200 F 
ATOM     74  F   UNL A   1      38.945  36.291  40.001  1.00  0.00    -0.200 F 
ENDBRANCH  50  64
BRANCH  51  75
ATOM     75  C   UNL A   1      40.492  27.989  28.686  1.00  0.00     0.064 A 
ATOM     76  C   UNL A   1      39.778  26.785  28.650  1.00  0.00     0.173 A 
ATOM     77  C   UNL A   1      41.246  28.339  27.556  1.00  0.00     0.173 A 
ATOM     78  F   UNL A   1      39.057  26.403  29.715  1.00  0.00    -0.203 F 
ATOM     79  C   UNL A   1      39.812  25.964  27.525  1.00  0.00     0.198 A 
ATOM     80  C   UNL A   1      41.260  27.529  26.424  1.00  0.00     0.198 A 
ATOM     81  F   UNL A   1      41.944  29.484  27.543  1.00  0.00    -0.203 F 
ATOM     82  F   UNL A   1      39.135  24.808  27.522  1.00  0.00    -0.200 F 
ATOM     83  C   UNL A   1      40.545  26.341  26.409  1.00  0.00     0.200 A 
ATOM     84  F   UNL A   1      41.956  27.906  25.342  1.00  0.00    -0.200 F 
ATOM     85  F   UNL A   1      40.561  25.561  25.321  1.00  0.00    -0.200 F 
ENDBRANCH  51  75
BRANCH  63  86
ATOM     86  C   UNL A   1      43.928  28.365  34.737  1.00  0.00     0.064 A 
ATOM     87  C   UNL A   1      45.238  28.857  34.633  1.00  0.00     0.173 A 
ATOM     88  C   UNL A   1      43.725  27.167  35.436  1.00  0.00     0.173 A 
ATOM     89  F   UNL A   1      45.481  29.992  33.962  1.00  0.00    -0.203 F 
ATOM     90  C   UNL A   1      46.305  28.168  35.202  1.00  0.00     0.198 A 
ATOM     91  C   UNL A   1      44.792  26.492  36.021  1.00  0.00     0.198 A 
ATOM     92  F   UNL A   1      42.489  26.662  35.565  1.00  0.00    -0.203 F 
ATOM     93  F   UNL A   1      47.552  28.641  35.070  1.00  0.00    -0.200 F 
ATOM     94  C   UNL A   1      46.080  26.991  35.902  1.00  0.00     0.200 A 
ATOM     95  F   UNL A   1      44.572  25.360  36.705  1.00  0.00    -0.200 F 
ATOM     96  F   UNL A   1      47.108  26.336  36.459  1.00  0.00    -0.200 F 
ENDBRANCH  63  86
ENDBRANCH  37  38
ENDBRANCH  29  32
ENDBRANCH  27  28
ENDBRANCH   1  27
TORSDOF 13
ENDMDL
MODEL 2
REMARK VINA RESULT:     -13.1      0.338      1.291
REMARK SMILES CC(C)(C)c1cc2c(cc1Cl)C=C(C(=O)NCCCCNC(=O)c1ccc(-c3c4nc(c(-c5c(F)c(F)c(F)c(F)c5F)c5ccc([nH]5)c(-c5c(F)c(F)c(F)c(F)c5F)c5nc(c(-c6c(F)c(F)c(F)c(F)c6F)c6ccc3[nH]6)C=C5)C=C4)cc1)[C@H](C(F)(F)F)O2
REMARK SMILES IDX 19 1 18 2 17 3 16 4 14 5 15 6 13 8 5 9 6 10 10 11 7 12 9 13
REMARK SMILES IDX 11 14 8 15 92 16 12 17 87 18 2 19 1 20 3 21 4 22 88 23 89 24
REMARK SMILES IDX 90 25 91 26 20 27 21 28 22 29 23 31 24 32 25 33 86 34 26 35
REMARK SMILES IDX 85 36 27 37 28 38 29 39 79 40 30 41 84 42 78 43 80 44 31 45
REMARK SMILES IDX 83 46 77 47 76 48 32 50 64 51 44 52 63 53 45 54 48 55 62 56
REMARK SMILES IDX 81 57 46 58 47 59 61 61 82 62 49 63 33 64 34 65 42 66 35 67
REMARK SMILES IDX 36 68 40 69 43 70 37 71 38 72 41 73 39 74 65 75 66 76 74 77
REMARK SMILES IDX 67 78 68 79 72 80 75 81 69 82 70 83 73 84 71 85 50 86 51 87
REMARK SMILES IDX 59 88 52 89 53 90 57 91 60 92 54 93 55 94 58 95 56 96
REMARK H PARENT 16 7 21 30 80 49 48 60
REMARK Flexibility Score: inf
ROOT
ATOM      1  C   UNL A   1      31.974  31.743  26.870  1.00  0.00     0.023 C 
ENDROOT
BRANCH   1   2
ATOM      2  C   UNL A   1      32.399  30.276  26.763  1.00  0.00     0.023 C 
BRANCH   2   3
ATOM      3  C   UNL A   1      31.638  29.470  25.711  1.00  0.00     0.116 C 
BRANCH   3   4
ATOM      4  N   UNL A   1      32.238  29.608  24.398  1.00  0.00    -0.352 N 
ATOM      5  C   UNL A   1      32.648  28.762  23.424  1.00  0.00     0.251 C 
ATOM      6  O   UNL A   1      33.019  29.302  22.377  1.00  0.00    -0.270 OA
ATOM      7  H   UNL A   1      32.382  30.551  24.154  1.00  0.00     0.163 HD
BRANCH   5   8
ATOM      8  C   UNL A   1      32.678  27.275  23.537  1.00  0.00     0.067 C 
ATOM      9  C   UNL A   1      33.874  22.507  24.853  1.00  0.00    -0.020 A 
ATOM     10  C   UNL A   1      32.955  23.120  23.971  1.00  0.00     0.053 A 
ATOM     11  C   UNL A   1      34.781  23.380  25.502  1.00  0.00     0.045 A 
ATOM     12  C   UNL A   1      32.906  24.503  23.785  1.00  0.00     0.128 A 
ATOM     13  C   UNL A   1      34.729  24.774  25.305  1.00  0.00     0.032 A 
ATOM     14  Cl  UNL A   1      36.056  22.857  26.548  1.00  0.00    -0.084 Cl
ATOM     15  C   UNL A   1      33.790  25.340  24.448  1.00  0.00     0.019 A 
ATOM     16  O   UNL A   1      31.979  24.971  22.896  1.00  0.00    -0.475 OA
ATOM     17  C   UNL A   1      33.736  26.774  24.203  1.00  0.00     0.025 C 
ATOM     18  C   UNL A   1      31.574  26.357  23.083  1.00  0.00     0.314 C 
BRANCH   9  19
ATOM     19  C   UNL A   1      33.857  20.965  25.013  1.00  0.00    -0.012 C 
ATOM     20  C   UNL A   1      32.822  20.367  24.039  1.00  0.00     0.016 C 
ATOM     21  C   UNL A   1      33.439  20.502  26.439  1.00  0.00     0.016 C 
ATOM     22  C   UNL A   1      35.243  20.322  24.780  1.00  0.00     0.016 C 
ENDBRANCH   9  19
BRANCH  18  23
ATOM     23  C   UNL A   1      30.311  26.420  23.957  1.00  0.00     0.429 C 
ATOM     24  F   UNL A   1      29.619  27.570  23.789  1.00  0.00    -0.167 F 
ATOM     25  F   UNL A   1      29.470  25.406  23.628  1.00  0.00    -0.167 F 
ATOM     26  F   UNL A   1      30.576  26.307  25.277  1.00  0.00    -0.167 F 
ENDBRANCH  18  23
ENDBRANCH   5   8
ENDBRANCH   3   4
ENDBRANCH   2   3
ENDBRANCH   1   2
BRANCH   1  27
ATOM     27  C   UNL A   1      33.012  32.672  27.483  1.00  0.00     0.116 C 
BRANCH  27  28
ATOM     28  N   UNL A   1      32.523  34.020  27.742  1.00  0.00    -0.352 N 
ATOM     29  C   UNL A   1      33.030  34.951  28.620  1.00  0.00     0.251 C 
ATOM     30  H   UNL A   1      31.734  34.299  27.226  1.00  0.00     0.163 HD
ATOM     31  O   UNL A   1      32.473  36.030  28.787  1.00  0.00    -0.269 OA
BRANCH  29  32
ATOM     32  C   UNL A   1      34.230  34.599  29.404  1.00  0.00     0.039 A 
ATOM     33  C   UNL A   1      35.496  34.716  28.830  1.00  0.00     0.014 A 
ATOM     34  C   UNL A   1      34.071  34.047  30.677  1.00  0.00     0.014 A 
ATOM     35  C   UNL A   1      36.579  34.108  29.449  1.00  0.00     0.010 A 
ATOM     36  C   UNL A   1      35.181  33.513  31.337  1.00  0.00     0.010 A 
ATOM     37  C   UNL A   1      36.431  33.485  30.700  1.00  0.00    -0.014 A 
BRANCH  37  38
ATOM     38  C   UNL A   1      37.599  32.792  31.300  1.00  0.00     0.031 A 
ATOM     39  C   UNL A   1      38.043  33.106  32.703  1.00  0.00     0.074 A 
ATOM     40  C   UNL A   1      38.200  31.811  30.601  1.00  0.00     0.049 A 
ATOM     41  N   UNL A   1      39.008  32.560  33.401  1.00  0.00    -0.248 NA
ATOM     42  C   UNL A   1      37.316  34.167  33.417  1.00  0.00     0.031 C 
ATOM     43  C   UNL A   1      37.842  31.410  29.240  1.00  0.00     0.029 A 
ATOM     44  N   UNL A   1      39.203  30.945  30.951  1.00  0.00    -0.354 N 
ATOM     45  C   UNL A   1      39.020  33.227  34.620  1.00  0.00     0.074 A 
ATOM     46  C   UNL A   1      37.979  34.230  34.564  1.00  0.00     0.031 C 
ATOM     47  C   UNL A   1      38.559  30.329  28.898  1.00  0.00     0.029 A 
ATOM     48  C   UNL A   1      39.471  30.002  29.989  1.00  0.00     0.049 A 
ATOM     49  H   UNL A   1      39.685  30.993  31.809  1.00  0.00     0.167 HD
ATOM     50  C   UNL A   1      39.821  33.012  35.690  1.00  0.00     0.037 A 
ATOM     51  C   UNL A   1      40.354  28.987  29.985  1.00  0.00     0.037 A 
ATOM     52  C   UNL A   1      40.829  31.986  35.758  1.00  0.00     0.049 A 
ATOM     53  C   UNL A   1      41.241  28.784  31.178  1.00  0.00     0.074 A 
ATOM     54  C   UNL A   1      41.677  31.677  36.807  1.00  0.00     0.029 A 
ATOM     55  N   UNL A   1      41.119  31.096  34.734  1.00  0.00    -0.354 N 
ATOM     56  N   UNL A   1      41.251  29.432  32.316  1.00  0.00    -0.248 NA
ATOM     57  C   UNL A   1      42.250  27.722  31.078  1.00  0.00     0.031 C 
ATOM     58  C   UNL A   1      42.500  30.620  36.408  1.00  0.00     0.029 A 
ATOM     59  C   UNL A   1      42.142  30.247  35.123  1.00  0.00     0.049 A 
ATOM     60  H   UNL A   1      40.663  31.071  33.861  1.00  0.00     0.167 HD
ATOM     61  C   UNL A   1      42.267  28.861  33.068  1.00  0.00     0.074 A 
ATOM     62  C   UNL A   1      42.834  27.796  32.267  1.00  0.00     0.031 C 
ATOM     63  C   UNL A   1      42.698  29.200  34.307  1.00  0.00     0.037 A 
BRANCH  50  64
ATOM     64  C   UNL A   1      39.652  33.902  36.884  1.00  0.00     0.064 A 
ATOM     65  C   UNL A   1      40.224  35.182  36.931  1.00  0.00     0.173 A 
ATOM     66  C   UNL A   1      38.849  33.500  37.961  1.00  0.00     0.173 A 
ATOM     67  F   UNL A   1      41.010  35.608  35.931  1.00  0.00    -0.203 F 
ATOM     68  C   UNL A   1      40.003  36.025  38.019  1.00  0.00     0.198 A 
ATOM     69  C   UNL A   1      38.614  34.352  39.037  1.00  0.00     0.198 A 
ATOM     70  F   UNL A   1      38.276  32.287  37.961  1.00  0.00    -0.203 F 
ATOM     71  F   UNL A   1      40.578  37.234  38.056  1.00  0.00    -0.200 F 
ATOM     72  C   UNL A   1      39.191  35.612  39.067  1.00  0.00     0.200 A 
ATOM     73  F   UNL A   1      37.821  33.956  40.044  1.00  0.00    -0.200 F 
ATOM     74  F   UNL A   1      38.969  36.429  40.105  1.00  0.00    -0.200 F 
ENDBRANCH  50  64
BRANCH  51  75
ATOM     75  C   UNL A   1      40.425  28.087  28.807  1.00  0.00     0.064 A 
ATOM     76  C   UNL A   1      39.703  26.888  28.777  1.00  0.00     0.173 A 
ATOM     77  C   UNL A   1      41.176  28.430  27.673  1.00  0.00     0.173 A 
ATOM     78  F   UNL A   1      38.985  26.512  29.846  1.00  0.00    -0.203 F 
ATOM     79  C   UNL A   1      39.728  26.064  27.654  1.00  0.00     0.198 A 
ATOM     80  C   UNL A   1      41.180  27.618  26.543  1.00  0.00     0.198 A 
ATOM     81  F   UNL A   1      41.880  29.572  27.654  1.00  0.00    -0.203 F 
ATOM     82  F   UNL A   1      39.044  24.911  27.657  1.00  0.00    -0.200 F 
ATOM     83  C   UNL A   1      40.458  26.434  26.534  1.00  0.00     0.200 A 
ATOM     84  F   UNL A   1      41.872  27.988  25.457  1.00  0.00    -0.200 F 
ATOM     85  F   UNL A   1      40.465  25.651  25.448  1.00  0.00    -0.200 F 
ENDBRANCH  51  75
BRANCH  63  86
ATOM     86  C   UNL A   1      43.842  28.416  34.872  1.00  0.00     0.064 A 
ATOM     87  C   UNL A   1      43.625  27.233  35.591  1.00  0.00     0.173 A 
ATOM     88  C   UNL A   1      45.166  28.814  34.637  1.00  0.00     0.173 A 
ATOM     89  F   UNL A   1      42.374  26.821  35.851  1.00  0.00    -0.203 F 
ATOM     90  C   UNL A   1      44.695  26.480  36.066  1.00  0.00     0.198 A 
ATOM     91  C   UNL A   1      46.233  28.048  35.095  1.00  0.00     0.198 A 
ATOM     92  F   UNL A   1      45.422  29.937  33.949  1.00  0.00    -0.203 F 
ATOM     93  F   UNL A   1      44.465  25.365  36.774  1.00  0.00    -0.200 F 
ATOM     94  C   UNL A   1      45.997  26.884  35.811  1.00  0.00     0.200 A 
ATOM     95  F   UNL A   1      47.491  28.434  34.841  1.00  0.00    -0.200 F 
ATOM     96  F   UNL A   1      47.026  26.151  36.259  1.00  0.00    -0.200 F 
ENDBRANCH  63  86
ENDBRANCH  37  38
ENDBRANCH  29  32
ENDBRANCH  27  28
ENDBRANCH   1  27
TORSDOF 13
ENDMDL
MODEL 3
REMARK VINA RESULT:     -13.1      5.659     10.981
REMARK SMILES CC(C)(C)c1cc2c(cc1Cl)C=C(C(=O)NCCCCNC(=O)c1ccc(-c3c4nc(c(-c5c(F)c(F)c(F)c(F)c5F)c5ccc([nH]5)c(-c5c(F)c(F)c(F)c(F)c5F)c5nc(c(-c6c(F)c(F)c(F)c(F)c6F)c6ccc3[nH]6)C=C5)C=C4)cc1)[C@H](C(F)(F)F)O2
REMARK SMILES IDX 19 1 18 2 17 3 16 4 14 5 15 6 13 8 5 9 6 10 10 11 7 12 9 13
REMARK SMILES IDX 11 14 8 15 92 16 12 17 87 18 2 19 1 20 3 21 4 22 88 23 89 24
REMARK SMILES IDX 90 25 91 26 20 27 21 28 22 29 23 31 24 32 25 33 86 34 26 35
REMARK SMILES IDX 85 36 27 37 28 38 29 39 79 40 30 41 84 42 78 43 80 44 31 45
REMARK SMILES IDX 83 46 77 47 76 48 32 50 64 51 44 52 63 53 45 54 48 55 62 56
REMARK SMILES IDX 81 57 46 58 47 59 61 61 82 62 49 63 33 64 34 65 42 66 35 67
REMARK SMILES IDX 36 68 40 69 43 70 37 71 38 72 41 73 39 74 65 75 66 76 74 77
REMARK SMILES IDX 67 78 68 79 72 80 75 81 69 82 70 83 73 84 71 85 50 86 51 87
REMARK SMILES IDX 59 88 52 89 53 90 57 91 60 92 54 93 55 94 58 95 56 96
REMARK H PARENT 16 7 21 30 80 49 48 60
REMARK Flexibility Score: inf
ROOT
ATOM      1  C   UNL A   1      38.282  20.223  25.047  1.00  0.00     0.023 C 
ENDROOT
BRANCH   1   2
ATOM      2  C   UNL A   1      37.388  21.466  25.048  1.00  0.00     0.023 C 
BRANCH   2   3
ATOM      3  C   UNL A   1      35.903  21.179  24.831  1.00  0.00     0.116 C 
BRANCH   3   4
ATOM      4  N   UNL A   1      35.196  21.048  26.091  1.00  0.00    -0.352 N 
ATOM      5  C   UNL A   1      34.100  21.611  26.652  1.00  0.00     0.251 C 
ATOM      6  O   UNL A   1      33.759  21.132  27.738  1.00  0.00    -0.270 OA
ATOM      7  H   UNL A   1      35.618  20.386  26.685  1.00  0.00     0.163 HD
BRANCH   5   8
ATOM      8  C   UNL A   1      33.315  22.734  26.061  1.00  0.00     0.067 C 
ATOM      9  C   UNL A   1      31.824  27.323  24.446  1.00  0.00    -0.020 A 
ATOM     10  C   UNL A   1      31.263  26.026  24.487  1.00  0.00     0.053 A 
ATOM     11  C   UNL A   1      33.084  27.469  25.075  1.00  0.00     0.045 A 
ATOM     12  C   UNL A   1      31.927  24.943  25.066  1.00  0.00     0.128 A 
ATOM     13  C   UNL A   1      33.745  26.373  25.663  1.00  0.00     0.032 A 
ATOM     14  Cl  UNL A   1      33.921  28.974  25.238  1.00  0.00    -0.084 Cl
ATOM     15  C   UNL A   1      33.170  25.106  25.657  1.00  0.00     0.019 A 
ATOM     16  O   UNL A   1      31.273  23.742  25.052  1.00  0.00    -0.475 OA
ATOM     17  C   UNL A   1      33.818  23.963  26.286  1.00  0.00     0.025 C 
ATOM     18  C   UNL A   1      32.121  22.564  25.160  1.00  0.00     0.314 C 
BRANCH   9  19
ATOM     19  C   UNL A   1      31.029  28.471  23.773  1.00  0.00    -0.012 C 
ATOM     20  C   UNL A   1      29.631  27.953  23.375  1.00  0.00     0.016 C 
ATOM     21  C   UNL A   1      31.693  28.992  22.465  1.00  0.00     0.016 C 
ATOM     22  C   UNL A   1      30.898  29.720  24.674  1.00  0.00     0.016 C 
ENDBRANCH   9  19
BRANCH  18  23
ATOM     23  C   UNL A   1      32.468  22.039  23.757  1.00  0.00     0.429 C 
ATOM     24  F   UNL A   1      31.480  22.261  22.859  1.00  0.00    -0.167 F 
ATOM     25  F   UNL A   1      33.573  22.672  23.286  1.00  0.00    -0.167 F 
ATOM     26  F   UNL A   1      32.728  20.714  23.739  1.00  0.00    -0.167 F 
ENDBRANCH  18  23
ENDBRANCH   5   8
ENDBRANCH   3   4
ENDBRANCH   2   3
ENDBRANCH   1   2
BRANCH   1  27
ATOM     27  C   UNL A   1      39.530  20.326  25.912  1.00  0.00     0.116 C 
BRANCH  27  28
ATOM     28  N   UNL A   1      40.391  19.151  25.856  1.00  0.00    -0.352 N 
ATOM     29  C   UNL A   1      41.747  19.084  26.076  1.00  0.00     0.251 C 
ATOM     30  H   UNL A   1      39.946  18.302  25.634  1.00  0.00     0.163 HD
ATOM     31  O   UNL A   1      42.359  18.033  25.926  1.00  0.00    -0.269 OA
BRANCH  29  32
ATOM     32  C   UNL A   1      42.464  20.321  26.438  1.00  0.00     0.039 A 
ATOM     33  C   UNL A   1      42.469  20.762  27.762  1.00  0.00     0.014 A 
ATOM     34  C   UNL A   1      43.035  21.097  25.427  1.00  0.00     0.014 A 
ATOM     35  C   UNL A   1      42.875  22.058  28.044  1.00  0.00     0.010 A 
ATOM     36  C   UNL A   1      43.525  22.370  25.730  1.00  0.00     0.010 A 
ATOM     37  C   UNL A   1      43.392  22.882  27.029  1.00  0.00    -0.014 A 
BRANCH  37  38
ATOM     38  C   UNL A   1      43.756  24.283  27.359  1.00  0.00     0.031 A 
ATOM     39  C   UNL A   1      45.135  24.809  27.065  1.00  0.00     0.074 A 
ATOM     40  C   UNL A   1      42.806  25.105  27.841  1.00  0.00     0.049 A 
ATOM     41  N   UNL A   1      45.609  26.018  27.239  1.00  0.00    -0.248 NA
ATOM     42  C   UNL A   1      46.111  23.860  26.507  1.00  0.00     0.031 C 
ATOM     43  C   UNL A   1      41.431  24.708  28.148  1.00  0.00     0.029 A 
ATOM     44  N   UNL A   1      42.835  26.448  28.116  1.00  0.00    -0.354 N 
ATOM     45  C   UNL A   1      46.938  25.967  26.837  1.00  0.00     0.074 A 
ATOM     46  C   UNL A   1      47.205  24.607  26.427  1.00  0.00     0.031 C 
ATOM     47  C   UNL A   1      40.727  25.796  28.495  1.00  0.00     0.029 A 
ATOM     48  C   UNL A   1      41.616  26.954  28.497  1.00  0.00     0.049 A 
ATOM     49  H   UNL A   1      43.649  26.997  28.046  1.00  0.00     0.167 HD
ATOM     50  C   UNL A   1      47.847  26.971  26.806  1.00  0.00     0.037 A 
ATOM     51  C   UNL A   1      41.254  28.210  28.814  1.00  0.00     0.037 A 
ATOM     52  C   UNL A   1      47.567  28.334  27.177  1.00  0.00     0.049 A 
ATOM     53  C   UNL A   1      42.287  29.298  28.787  1.00  0.00     0.074 A 
ATOM     54  C   UNL A   1      48.418  29.425  27.159  1.00  0.00     0.029 A 
ATOM     55  N   UNL A   1      46.337  28.792  27.626  1.00  0.00    -0.354 N 
ATOM     56  N   UNL A   1      43.543  29.232  28.420  1.00  0.00    -0.248 NA
ATOM     57  C   UNL A   1      41.857  30.629  29.235  1.00  0.00     0.031 C 
ATOM     58  C   UNL A   1      47.711  30.538  27.624  1.00  0.00     0.029 A 
ATOM     59  C   UNL A   1      46.411  30.148  27.901  1.00  0.00     0.049 A 
ATOM     60  H   UNL A   1      45.531  28.236  27.732  1.00  0.00     0.167 HD
ATOM     61  C   UNL A   1      44.056  30.508  28.596  1.00  0.00     0.074 A 
ATOM     62  C   UNL A   1      42.969  31.336  29.076  1.00  0.00     0.031 C 
ATOM     63  C   UNL A   1      45.320  30.950  28.387  1.00  0.00     0.037 A 
BRANCH  50  64
ATOM     64  C   UNL A   1      49.240  26.643  26.359  1.00  0.00     0.064 A 
ATOM     65  C   UNL A   1      49.635  26.791  25.022  1.00  0.00     0.173 A 
ATOM     66  C   UNL A   1      50.210  26.247  27.292  1.00  0.00     0.173 A 
ATOM     67  F   UNL A   1      48.742  27.155  24.089  1.00  0.00    -0.203 F 
ATOM     68  C   UNL A   1      50.951  26.546  24.634  1.00  0.00     0.198 A 
ATOM     69  C   UNL A   1      51.528  26.023  26.905  1.00  0.00     0.198 A 
ATOM     70  F   UNL A   1      49.882  26.096  28.584  1.00  0.00    -0.203 F 
ATOM     71  F   UNL A   1      51.303  26.669  23.347  1.00  0.00    -0.200 F 
ATOM     72  C   UNL A   1      51.898  26.171  25.577  1.00  0.00     0.200 A 
ATOM     73  F   UNL A   1      52.443  25.671  27.819  1.00  0.00    -0.200 F 
ATOM     74  F   UNL A   1      53.165  25.950  25.204  1.00  0.00    -0.200 F 
ENDBRANCH  50  64
BRANCH  51  75
ATOM     75  C   UNL A   1      39.843  28.493  29.173  1.00  0.00     0.064 A 
ATOM     76  C   UNL A   1      39.388  28.313  30.485  1.00  0.00     0.173 A 
ATOM     77  C   UNL A   1      38.936  28.992  28.227  1.00  0.00     0.173 A 
ATOM     78  F   UNL A   1      40.215  27.822  31.419  1.00  0.00    -0.203 F 
ATOM     79  C   UNL A   1      38.077  28.625  30.839  1.00  0.00     0.198 A 
ATOM     80  C   UNL A   1      37.634  29.326  28.587  1.00  0.00     0.198 A 
ATOM     81  F   UNL A   1      39.328  29.185  26.959  1.00  0.00    -0.203 F 
ATOM     82  F   UNL A   1      37.659  28.426  32.096  1.00  0.00    -0.200 F 
ATOM     83  C   UNL A   1      37.203  29.140  29.892  1.00  0.00     0.200 A 
ATOM     84  F   UNL A   1      36.799  29.839  27.673  1.00  0.00    -0.200 F 
ATOM     85  F   UNL A   1      35.949  29.457  30.237  1.00  0.00    -0.200 F 
ENDBRANCH  51  75
BRANCH  63  86
ATOM     86  C   UNL A   1      45.599  32.391  28.685  1.00  0.00     0.064 A 
ATOM     87  C   UNL A   1      46.079  32.791  29.940  1.00  0.00     0.173 A 
ATOM     88  C   UNL A   1      45.448  33.369  27.692  1.00  0.00     0.173 A 
ATOM     89  F   UNL A   1      46.227  31.891  30.924  1.00  0.00    -0.203 F 
ATOM     90  C   UNL A   1      46.389  34.124  30.193  1.00  0.00     0.198 A 
ATOM     91  C   UNL A   1      45.778  34.697  27.942  1.00  0.00     0.198 A 
ATOM     92  F   UNL A   1      44.996  33.031  26.475  1.00  0.00    -0.203 F 
ATOM     93  F   UNL A   1      46.822  34.491  31.407  1.00  0.00    -0.200 F 
ATOM     94  C   UNL A   1      46.245  35.074  29.192  1.00  0.00     0.200 A 
ATOM     95  F   UNL A   1      45.647  35.612  26.972  1.00  0.00    -0.200 F 
ATOM     96  F   UNL A   1      46.554  36.355  29.434  1.00  0.00    -0.200 F 
ENDBRANCH  63  86
ENDBRANCH  37  38
ENDBRANCH  29  32
ENDBRANCH  27  28
ENDBRANCH   1  27
TORSDOF 13
ENDMDL
