MODEL 1
REMARK VINA RESULT:     -12.2      0.000      0.000
REMARK SMILES C[C@@H](C(=O)NCCCCNC(=O)c1ccc(-c2c3nc(c(-c4c(F)c(F)c(F)c(F)c4F)c4ccc([nH]4)c(-c4c(F)c(F)c(F)c(F)c4F)c4nc(c(-c5c(F)c(F)c(F)c(F)c5F)c5ccc2[nH]5)C=C4)C=C3)cc1)c1cc(/C=C/S(C)(=O)=O)cc(C(=O)c2ccccc2)c1
REMARK SMILES IDX 7 1 6 2 5 3 3 4 4 5 2 7 1 8 76 9 77 10 95 11 78 12 86 13
REMARK SMILES IDX 85 14 79 15 80 16 81 17 82 18 83 19 84 20 87 21 88 22 89 23
REMARK SMILES IDX 90 24 94 25 91 26 93 27 92 28 8 29 9 30 10 31 11 32 12 34
REMARK SMILES IDX 13 35 14 36 75 37 15 38 74 39 16 40 17 41 18 42 68 43 19 44
REMARK SMILES IDX 73 45 67 46 69 47 20 48 72 49 66 50 65 51 21 53 53 54 33 55
REMARK SMILES IDX 52 56 34 57 37 58 51 59 70 60 35 61 36 62 50 64 71 65 38 66
REMARK SMILES IDX 22 67 23 68 31 69 24 70 25 71 29 72 32 73 26 74 27 75 30 76
REMARK SMILES IDX 28 77 54 78 55 79 63 80 56 81 57 82 61 83 64 84 58 85 59 86
REMARK SMILES IDX 62 87 60 88 39 89 40 90 48 91 41 92 42 93 46 94 49 95 43 96
REMARK SMILES IDX 44 97 47 98 45 99
REMARK H PARENT 5 6 10 33 69 52 37 63
REMARK Flexibility Score: inf
ROOT
ATOM      1  C   UNL A   1      32.349  27.505  26.580  1.00  0.00     0.023 C 
ENDROOT
BRANCH   1   2
ATOM      2  C   UNL A   1      31.050  26.794  26.190  1.00  0.00     0.116 C 
BRANCH   2   3
ATOM      3  N   UNL A   1      31.042  25.443  26.702  1.00  0.00    -0.356 N 
ATOM      4  C   UNL A   1      31.162  24.259  26.040  1.00  0.00     0.227 C 
ATOM      5  O   UNL A   1      30.971  23.239  26.706  1.00  0.00    -0.274 OA
ATOM      6  H   UNL A   1      30.932  25.366  27.677  1.00  0.00     0.163 HD
BRANCH   4   7
ATOM      7  C   UNL A   1      31.579  24.229  24.552  1.00  0.00     0.105 C 
ATOM      8  C   UNL A   1      30.374  24.038  23.620  1.00  0.00     0.023 C 
BRANCH   7   9
ATOM      9  C   UNL A   1      32.653  23.157  24.342  1.00  0.00    -0.035 A 
ATOM     10  C   UNL A   1      32.379  21.795  24.529  1.00  0.00     0.012 A 
ATOM     11  C   UNL A   1      33.974  23.538  24.075  1.00  0.00     0.016 A 
ATOM     12  C   UNL A   1      33.374  20.811  24.479  1.00  0.00    -0.024 A 
ATOM     13  C   UNL A   1      35.000  22.584  24.055  1.00  0.00     0.023 A 
ATOM     14  C   UNL A   1      34.691  21.223  24.238  1.00  0.00     0.020 A 
BRANCH  12  15
ATOM     15  C   UNL A   1      33.066  19.385  24.720  1.00  0.00     0.020 C 
ATOM     16  C   UNL A   1      33.943  18.385  24.530  1.00  0.00     0.106 C 
BRANCH  16  17
ATOM     17  S   UNL A   1      33.498  16.729  24.766  1.00  0.00     0.168 S 
ATOM     18  C   UNL A   1      35.029  16.059  25.376  1.00  0.00     0.163 C 
ATOM     19  O   UNL A   1      32.546  16.672  25.861  1.00  0.00    -0.225 OA
ATOM     20  O   UNL A   1      33.215  16.088  23.500  1.00  0.00    -0.225 OA
ENDBRANCH  16  17
ENDBRANCH  12  15
BRANCH  13  21
ATOM     21  C   UNL A   1      36.423  22.972  23.833  1.00  0.00     0.193 C 
ATOM     22  O   UNL A   1      36.793  23.334  22.719  1.00  0.00    -0.289 OA
BRANCH  21  23
ATOM     23  C   UNL A   1      37.411  22.974  24.939  1.00  0.00     0.022 A 
ATOM     24  C   UNL A   1      38.192  21.830  25.132  1.00  0.00     0.012 A 
ATOM     25  C   UNL A   1      37.565  24.079  25.786  1.00  0.00     0.012 A 
ATOM     26  C   UNL A   1      39.159  21.807  26.138  1.00  0.00     0.001 A 
ATOM     27  C   UNL A   1      38.534  24.050  26.793  1.00  0.00     0.001 A 
ATOM     28  C   UNL A   1      39.333  22.918  26.963  1.00  0.00     0.000 A 
ENDBRANCH  21  23
ENDBRANCH  13  21
ENDBRANCH   7   9
ENDBRANCH   4   7
ENDBRANCH   2   3
ENDBRANCH   1   2
BRANCH   1  29
ATOM     29  C   UNL A   1      33.442  27.453  25.508  1.00  0.00     0.023 C 
BRANCH  29  30
ATOM     30  C   UNL A   1      34.093  28.794  25.191  1.00  0.00     0.116 C 
BRANCH  30  31
ATOM     31  N   UNL A   1      33.324  29.923  25.688  1.00  0.00    -0.352 N 
ATOM     32  C   UNL A   1      33.520  30.674  26.819  1.00  0.00     0.251 C 
ATOM     33  H   UNL A   1      32.554  30.187  25.134  1.00  0.00     0.163 HD
ATOM     34  O   UNL A   1      32.682  31.504  27.157  1.00  0.00    -0.269 OA
BRANCH  32  35
ATOM     35  C   UNL A   1      34.724  30.457  27.648  1.00  0.00     0.039 A 
ATOM     36  C   UNL A   1      34.779  29.322  28.461  1.00  0.00     0.014 A 
ATOM     37  C   UNL A   1      35.793  31.358  27.626  1.00  0.00     0.014 A 
ATOM     38  C   UNL A   1      35.929  29.064  29.207  1.00  0.00     0.010 A 
ATOM     39  C   UNL A   1      36.968  31.057  28.308  1.00  0.00     0.010 A 
ATOM     40  C   UNL A   1      37.046  29.910  29.111  1.00  0.00    -0.014 A 
BRANCH  40  41
ATOM     41  C   UNL A   1      38.296  29.601  29.849  1.00  0.00     0.031 A 
ATOM     42  C   UNL A   1      38.555  30.212  31.199  1.00  0.00     0.074 A 
ATOM     43  C   UNL A   1      39.215  28.793  29.286  1.00  0.00     0.049 A 
ATOM     44  N   UNL A   1      39.591  30.070  31.987  1.00  0.00    -0.248 NA
ATOM     45  C   UNL A   1      37.526  31.125  31.723  1.00  0.00     0.031 C 
ATOM     46  C   UNL A   1      39.106  28.185  27.958  1.00  0.00     0.029 A 
ATOM     47  N   UNL A   1      40.423  28.343  29.758  1.00  0.00    -0.354 N 
ATOM     48  C   UNL A   1      39.336  30.865  33.096  1.00  0.00     0.074 A 
ATOM     49  C   UNL A   1      38.084  31.546  32.848  1.00  0.00     0.031 C 
ATOM     50  C   UNL A   1      40.186  27.421  27.733  1.00  0.00     0.029 A 
ATOM     51  C   UNL A   1      41.080  27.512  28.884  1.00  0.00     0.049 A 
ATOM     52  H   UNL A   1      40.784  28.593  30.639  1.00  0.00     0.167 HD
ATOM     53  C   UNL A   1      40.060  30.990  34.233  1.00  0.00     0.037 A 
ATOM     54  C   UNL A   1      42.272  26.895  28.997  1.00  0.00     0.037 A 
ATOM     55  C   UNL A   1      41.303  30.307  34.480  1.00  0.00     0.049 A 
ATOM     56  C   UNL A   1      43.065  27.065  30.265  1.00  0.00     0.074 A 
ATOM     57  C   UNL A   1      42.101  30.344  35.611  1.00  0.00     0.029 A 
ATOM     58  N   UNL A   1      41.931  29.460  33.578  1.00  0.00    -0.354 N 
ATOM     59  N   UNL A   1      42.778  27.765  31.336  1.00  0.00    -0.248 NA
ATOM     60  C   UNL A   1      44.344  26.346  30.346  1.00  0.00     0.031 C 
ATOM     61  C   UNL A   1      43.233  29.558  35.376  1.00  0.00     0.029 A 
ATOM     62  C   UNL A   1      43.114  28.983  34.121  1.00  0.00     0.049 A 
ATOM     63  H   UNL A   1      41.587  29.232  32.683  1.00  0.00     0.167 HD
ATOM     64  C   UNL A   1      43.821  27.548  32.226  1.00  0.00     0.074 A 
ATOM     65  C   UNL A   1      44.736  26.630  31.579  1.00  0.00     0.031 C 
ATOM     66  C   UNL A   1      44.009  28.063  33.466  1.00  0.00     0.037 A 
BRANCH  53  67
ATOM     67  C   UNL A   1      39.517  31.890  35.307  1.00  0.00     0.064 A 
ATOM     68  C   UNL A   1      39.839  33.256  35.348  1.00  0.00     0.173 A 
ATOM     69  C   UNL A   1      38.635  31.397  36.279  1.00  0.00     0.173 A 
ATOM     70  F   UNL A   1      40.689  33.777  34.448  1.00  0.00    -0.203 F 
ATOM     71  C   UNL A   1      39.322  34.088  36.338  1.00  0.00     0.198 A 
ATOM     72  C   UNL A   1      38.093  32.239  37.249  1.00  0.00     0.198 A 
ATOM     73  F   UNL A   1      38.289  30.101  36.286  1.00  0.00    -0.203 F 
ATOM     74  F   UNL A   1      39.686  35.377  36.386  1.00  0.00    -0.200 F 
ATOM     75  C   UNL A   1      38.443  33.580  37.282  1.00  0.00     0.200 A 
ATOM     76  F   UNL A   1      37.233  31.750  38.153  1.00  0.00    -0.200 F 
ATOM     77  F   UNL A   1      37.938  34.383  38.229  1.00  0.00    -0.200 F 
ENDBRANCH  53  67
BRANCH  54  78
ATOM     78  C   UNL A   1      42.785  26.047  27.887  1.00  0.00     0.064 A 
ATOM     79  C   UNL A   1      43.612  26.581  26.889  1.00  0.00     0.173 A 
ATOM     80  C   UNL A   1      42.437  24.693  27.788  1.00  0.00     0.173 A 
ATOM     81  F   UNL A   1      43.960  27.876  26.929  1.00  0.00    -0.203 F 
ATOM     82  C   UNL A   1      44.041  25.803  25.815  1.00  0.00     0.198 A 
ATOM     83  C   UNL A   1      42.895  23.906  26.732  1.00  0.00     0.198 A 
ATOM     84  F   UNL A   1      41.656  24.128  28.720  1.00  0.00    -0.203 F 
ATOM     85  F   UNL A   1      44.780  26.356  24.843  1.00  0.00    -0.200 F 
ATOM     86  C   UNL A   1      43.686  24.466  25.741  1.00  0.00     0.200 A 
ATOM     87  F   UNL A   1      42.565  22.609  26.673  1.00  0.00    -0.200 F 
ATOM     88  F   UNL A   1      44.097  23.718  24.707  1.00  0.00    -0.200 F 
ENDBRANCH  54  78
BRANCH  66  89
ATOM     89  C   UNL A   1      45.230  27.614  34.217  1.00  0.00     0.064 A 
ATOM     90  C   UNL A   1      46.446  28.309  34.137  1.00  0.00     0.173 A 
ATOM     91  C   UNL A   1      45.176  26.481  35.044  1.00  0.00     0.173 A 
ATOM     92  F   UNL A   1      46.554  29.390  33.349  1.00  0.00    -0.203 F 
ATOM     93  C   UNL A   1      47.572  27.864  34.825  1.00  0.00     0.198 A 
ATOM     94  C   UNL A   1      46.294  26.060  35.759  1.00  0.00     0.198 A 
ATOM     95  F   UNL A   1      44.036  25.784  35.165  1.00  0.00    -0.203 F 
ATOM     96  F   UNL A   1      48.739  28.508  34.682  1.00  0.00    -0.200 F 
ATOM     97  C   UNL A   1      47.494  26.745  35.639  1.00  0.00     0.200 A 
ATOM     98  F   UNL A   1      46.212  24.988  36.559  1.00  0.00    -0.200 F 
ATOM     99  F   UNL A   1      48.578  26.321  36.303  1.00  0.00    -0.200 F 
ENDBRANCH  66  89
ENDBRANCH  40  41
ENDBRANCH  32  35
ENDBRANCH  30  31
ENDBRANCH  29  30
ENDBRANCH   1  29
TORSDOF 16
ENDMDL
MODEL 2
REMARK VINA RESULT:     -12.0      0.591      7.137
REMARK SMILES C[C@@H](C(=O)NCCCCNC(=O)c1ccc(-c2c3nc(c(-c4c(F)c(F)c(F)c(F)c4F)c4ccc([nH]4)c(-c4c(F)c(F)c(F)c(F)c4F)c4nc(c(-c5c(F)c(F)c(F)c(F)c5F)c5ccc2[nH]5)C=C4)C=C3)cc1)c1cc(/C=C/S(C)(=O)=O)cc(C(=O)c2ccccc2)c1
REMARK SMILES IDX 7 1 6 2 5 3 3 4 4 5 2 7 1 8 76 9 77 10 95 11 78 12 86 13
REMARK SMILES IDX 85 14 79 15 80 16 81 17 82 18 83 19 84 20 87 21 88 22 89 23
REMARK SMILES IDX 90 24 94 25 91 26 93 27 92 28 8 29 9 30 10 31 11 32 12 34
REMARK SMILES IDX 13 35 14 36 75 37 15 38 74 39 16 40 17 41 18 42 68 43 19 44
REMARK SMILES IDX 73 45 67 46 69 47 20 48 72 49 66 50 65 51 21 53 53 54 33 55
REMARK SMILES IDX 52 56 34 57 37 58 51 59 70 60 35 61 36 62 50 64 71 65 38 66
REMARK SMILES IDX 22 67 23 68 31 69 24 70 25 71 29 72 32 73 26 74 27 75 30 76
REMARK SMILES IDX 28 77 54 78 55 79 63 80 56 81 57 82 61 83 64 84 58 85 59 86
REMARK SMILES IDX 62 87 60 88 39 89 40 90 48 91 41 92 42 93 46 94 49 95 43 96
REMARK SMILES IDX 44 97 47 98 45 99
REMARK H PARENT 5 6 10 33 69 52 37 63
REMARK Flexibility Score: inf
ROOT
ATOM      1  C   UNL A   1      32.571  27.133  26.070  1.00  0.00     0.023 C 
ENDROOT
BRANCH   1   2
ATOM      2  C   UNL A   1      31.132  26.667  26.304  1.00  0.00     0.116 C 
BRANCH   2   3
ATOM      3  N   UNL A   1      31.114  25.302  26.778  1.00  0.00    -0.356 N 
ATOM      4  C   UNL A   1      31.239  24.137  26.084  1.00  0.00     0.227 C 
ATOM      5  O   UNL A   1      31.037  23.099  26.719  1.00  0.00    -0.274 OA
ATOM      6  H   UNL A   1      30.994  25.198  27.750  1.00  0.00     0.163 HD
BRANCH   4   7
ATOM      7  C   UNL A   1      31.671  24.147  24.601  1.00  0.00     0.105 C 
ATOM      8  C   UNL A   1      30.475  23.983  23.650  1.00  0.00     0.023 C 
BRANCH   7   9
ATOM      9  C   UNL A   1      32.746  23.081  24.372  1.00  0.00    -0.035 A 
ATOM     10  C   UNL A   1      32.472  21.715  24.532  1.00  0.00     0.012 A 
ATOM     11  C   UNL A   1      34.067  23.468  24.115  1.00  0.00     0.016 A 
ATOM     12  C   UNL A   1      33.468  20.733  24.465  1.00  0.00    -0.024 A 
ATOM     13  C   UNL A   1      35.094  22.514  24.079  1.00  0.00     0.023 A 
ATOM     14  C   UNL A   1      34.785  21.150  24.235  1.00  0.00     0.020 A 
BRANCH  12  15
ATOM     15  C   UNL A   1      33.161  19.302  24.678  1.00  0.00     0.020 C 
ATOM     16  C   UNL A   1      34.077  18.321  24.624  1.00  0.00     0.106 C 
BRANCH  16  17
ATOM     17  S   UNL A   1      33.639  16.657  24.815  1.00  0.00     0.168 S 
ATOM     18  C   UNL A   1      35.183  15.972  25.375  1.00  0.00     0.163 C 
ATOM     19  O   UNL A   1      32.708  16.563  25.926  1.00  0.00    -0.225 OA
ATOM     20  O   UNL A   1      33.334  16.055  23.535  1.00  0.00    -0.225 OA
ENDBRANCH  16  17
ENDBRANCH  12  15
BRANCH  13  21
ATOM     21  C   UNL A   1      36.517  22.908  23.867  1.00  0.00     0.193 C 
ATOM     22  O   UNL A   1      36.892  23.276  22.757  1.00  0.00    -0.289 OA
BRANCH  21  23
ATOM     23  C   UNL A   1      37.498  22.907  24.979  1.00  0.00     0.022 A 
ATOM     24  C   UNL A   1      37.657  24.082  25.723  1.00  0.00     0.012 A 
ATOM     25  C   UNL A   1      38.262  21.775  25.286  1.00  0.00     0.012 A 
ATOM     26  C   UNL A   1      38.542  24.110  26.801  1.00  0.00     0.001 A 
ATOM     27  C   UNL A   1      39.148  21.809  26.366  1.00  0.00     0.001 A 
ATOM     28  C   UNL A   1      39.282  22.973  27.125  1.00  0.00     0.000 A 
ENDBRANCH  21  23
ENDBRANCH  13  21
ENDBRANCH   7   9
ENDBRANCH   4   7
ENDBRANCH   2   3
ENDBRANCH   1   2
BRANCH   1  29
ATOM     29  C   UNL A   1      32.770  27.943  24.785  1.00  0.00     0.023 C 
BRANCH  29  30
ATOM     30  C   UNL A   1      33.648  29.179  24.935  1.00  0.00     0.116 C 
BRANCH  30  31
ATOM     31  N   UNL A   1      32.961  30.280  25.590  1.00  0.00    -0.352 N 
ATOM     32  C   UNL A   1      33.274  30.924  26.760  1.00  0.00     0.251 C 
ATOM     33  H   UNL A   1      32.157  30.611  25.128  1.00  0.00     0.163 HD
ATOM     34  O   UNL A   1      32.495  31.742  27.237  1.00  0.00    -0.269 OA
BRANCH  32  35
ATOM     35  C   UNL A   1      34.534  30.604  27.462  1.00  0.00     0.039 A 
ATOM     36  C   UNL A   1      35.481  31.617  27.629  1.00  0.00     0.014 A 
ATOM     37  C   UNL A   1      34.784  29.320  27.957  1.00  0.00     0.014 A 
ATOM     38  C   UNL A   1      36.653  31.357  28.339  1.00  0.00     0.010 A 
ATOM     39  C   UNL A   1      35.915  29.084  28.734  1.00  0.00     0.010 A 
ATOM     40  C   UNL A   1      36.864  30.099  28.927  1.00  0.00    -0.014 A 
BRANCH  40  41
ATOM     41  C   UNL A   1      38.076  29.837  29.744  1.00  0.00     0.031 A 
ATOM     42  C   UNL A   1      39.170  28.948  29.220  1.00  0.00     0.074 A 
ATOM     43  C   UNL A   1      38.176  30.379  30.973  1.00  0.00     0.049 A 
ATOM     44  N   UNL A   1      40.295  28.595  29.791  1.00  0.00    -0.248 NA
ATOM     45  C   UNL A   1      38.964  28.354  27.890  1.00  0.00     0.031 C 
ATOM     46  C   UNL A   1      37.157  31.211  31.615  1.00  0.00     0.029 A 
ATOM     47  N   UNL A   1      39.181  30.309  31.905  1.00  0.00    -0.354 N 
ATOM     48  C   UNL A   1      40.928  27.749  28.891  1.00  0.00     0.074 A 
ATOM     49  C   UNL A   1      40.031  27.580  27.768  1.00  0.00     0.031 C 
ATOM     50  C   UNL A   1      37.600  31.598  32.822  1.00  0.00     0.029 A 
ATOM     51  C   UNL A   1      38.917  31.014  33.054  1.00  0.00     0.049 A 
ATOM     52  H   UNL A   1      40.014  29.803  31.762  1.00  0.00     0.167 HD
ATOM     53  C   UNL A   1      42.160  27.192  28.975  1.00  0.00     0.037 A 
ATOM     54  C   UNL A   1      39.653  31.167  34.171  1.00  0.00     0.037 A 
ATOM     55  C   UNL A   1      43.052  27.367  30.090  1.00  0.00     0.049 A 
ATOM     56  C   UNL A   1      41.012  30.522  34.245  1.00  0.00     0.074 A 
ATOM     57  C   UNL A   1      44.332  26.867  30.261  1.00  0.00     0.029 A 
ATOM     58  N   UNL A   1      42.756  28.100  31.231  1.00  0.00    -0.354 N 
ATOM     59  N   UNL A   1      41.628  29.781  33.356  1.00  0.00    -0.248 NA
ATOM     60  C   UNL A   1      41.784  30.747  35.475  1.00  0.00     0.031 C 
ATOM     61  C   UNL A   1      44.792  27.259  31.521  1.00  0.00     0.029 A 
ATOM     62  C   UNL A   1      43.824  28.052  32.114  1.00  0.00     0.049 A 
ATOM     63  H   UNL A   1      41.913  28.583  31.389  1.00  0.00     0.167 HD
ATOM     64  C   UNL A   1      42.867  29.478  33.904  1.00  0.00     0.074 A 
ATOM     65  C   UNL A   1      42.925  30.137  35.192  1.00  0.00     0.031 C 
ATOM     66  C   UNL A   1      43.868  28.720  33.390  1.00  0.00     0.037 A 
BRANCH  53  67
ATOM     67  C   UNL A   1      42.621  26.351  27.818  1.00  0.00     0.064 A 
ATOM     68  C   UNL A   1      43.381  26.898  26.773  1.00  0.00     0.173 A 
ATOM     69  C   UNL A   1      42.337  24.978  27.770  1.00  0.00     0.173 A 
ATOM     70  F   UNL A   1      43.670  28.210  26.763  1.00  0.00    -0.203 F 
ATOM     71  C   UNL A   1      43.816  26.110  25.710  1.00  0.00     0.198 A 
ATOM     72  C   UNL A   1      42.802  24.186  26.723  1.00  0.00     0.198 A 
ATOM     73  F   UNL A   1      41.618  24.400  28.745  1.00  0.00    -0.203 F 
ATOM     74  F   UNL A   1      44.496  26.668  24.699  1.00  0.00    -0.200 F 
ATOM     75  C   UNL A   1      43.533  24.753  25.691  1.00  0.00     0.200 A 
ATOM     76  F   UNL A   1      42.540  22.871  26.711  1.00  0.00    -0.200 F 
ATOM     77  F   UNL A   1      43.960  23.994  24.673  1.00  0.00    -0.200 F 
ENDBRANCH  53  67
BRANCH  54  78
ATOM     78  C   UNL A   1      39.133  31.977  35.305  1.00  0.00     0.064 A 
ATOM     79  C   UNL A   1      39.398  33.351  35.397  1.00  0.00     0.173 A 
ATOM     80  C   UNL A   1      38.384  31.390  36.335  1.00  0.00     0.173 A 
ATOM     81  F   UNL A   1      40.125  33.957  34.447  1.00  0.00    -0.203 F 
ATOM     82  C   UNL A   1      38.966  34.098  36.491  1.00  0.00     0.198 A 
ATOM     83  C   UNL A   1      37.922  32.144  37.411  1.00  0.00     0.198 A 
ATOM     84  F   UNL A   1      38.094  30.081  36.293  1.00  0.00    -0.203 F 
ATOM     85  F   UNL A   1      39.287  35.395  36.582  1.00  0.00    -0.200 F 
ATOM     86  C   UNL A   1      38.224  33.495  37.494  1.00  0.00     0.200 A 
ATOM     87  F   UNL A   1      37.190  31.561  38.370  1.00  0.00    -0.200 F 
ATOM     88  F   UNL A   1      37.810  34.212  38.547  1.00  0.00    -0.200 F 
ENDBRANCH  54  78
BRANCH  66  89
ATOM     89  C   UNL A   1      45.123  28.596  34.206  1.00  0.00     0.064 A 
ATOM     90  C   UNL A   1      45.267  27.615  35.198  1.00  0.00     0.173 A 
ATOM     91  C   UNL A   1      46.204  29.463  33.979  1.00  0.00     0.173 A 
ATOM     92  F   UNL A   1      44.258  26.771  35.464  1.00  0.00    -0.203 F 
ATOM     93  C   UNL A   1      46.431  27.530  35.958  1.00  0.00     0.198 A 
ATOM     94  C   UNL A   1      47.379  29.352  34.717  1.00  0.00     0.198 A 
ATOM     95  F   UNL A   1      46.123  30.414  33.037  1.00  0.00    -0.203 F 
ATOM     96  F   UNL A   1      46.520  26.626  36.943  1.00  0.00    -0.200 F 
ATOM     97  C   UNL A   1      47.487  28.394  35.713  1.00  0.00     0.200 A 
ATOM     98  F   UNL A   1      48.405  30.177  34.466  1.00  0.00    -0.200 F 
ATOM     99  F   UNL A   1      48.607  28.309  36.444  1.00  0.00    -0.200 F 
ENDBRANCH  66  89
ENDBRANCH  40  41
ENDBRANCH  32  35
ENDBRANCH  30  31
ENDBRANCH  29  30
ENDBRANCH   1  29
TORSDOF 16
ENDMDL
MODEL 3
REMARK VINA RESULT:     -11.9      5.011     10.239
REMARK SMILES C[C@@H](C(=O)NCCCCNC(=O)c1ccc(-c2c3nc(c(-c4c(F)c(F)c(F)c(F)c4F)c4ccc([nH]4)c(-c4c(F)c(F)c(F)c(F)c4F)c4nc(c(-c5c(F)c(F)c(F)c(F)c5F)c5ccc2[nH]5)C=C4)C=C3)cc1)c1cc(/C=C/S(C)(=O)=O)cc(C(=O)c2ccccc2)c1
REMARK SMILES IDX 7 1 6 2 5 3 3 4 4 5 2 7 1 8 76 9 77 10 95 11 78 12 86 13
REMARK SMILES IDX 85 14 79 15 80 16 81 17 82 18 83 19 84 20 87 21 88 22 89 23
REMARK SMILES IDX 90 24 94 25 91 26 93 27 92 28 8 29 9 30 10 31 11 32 12 34
REMARK SMILES IDX 13 35 14 36 75 37 15 38 74 39 16 40 17 41 18 42 68 43 19 44
REMARK SMILES IDX 73 45 67 46 69 47 20 48 72 49 66 50 65 51 21 53 53 54 33 55
REMARK SMILES IDX 52 56 34 57 37 58 51 59 70 60 35 61 36 62 50 64 71 65 38 66
REMARK SMILES IDX 22 67 23 68 31 69 24 70 25 71 29 72 32 73 26 74 27 75 30 76
REMARK SMILES IDX 28 77 54 78 55 79 63 80 56 81 57 82 61 83 64 84 58 85 59 86
REMARK SMILES IDX 62 87 60 88 39 89 40 90 48 91 41 92 42 93 46 94 49 95 43 96
REMARK SMILES IDX 44 97 47 98 45 99
REMARK H PARENT 5 6 10 33 69 52 37 63
REMARK Flexibility Score: inf
ROOT
ATOM      1  C   UNL A   1      40.584  20.869  26.284  1.00  0.00     0.023 C 
ENDROOT
BRANCH   1   2
ATOM      2  C   UNL A   1      39.157  21.070  25.767  1.00  0.00     0.116 C 
BRANCH   2   3
ATOM      3  N   UNL A   1      38.596  22.291  26.298  1.00  0.00    -0.356 N 
ATOM      4  C   UNL A   1      37.622  23.095  25.789  1.00  0.00     0.227 C 
ATOM      5  O   UNL A   1      37.435  24.165  26.375  1.00  0.00    -0.274 OA
ATOM      6  H   UNL A   1      38.975  22.587  27.157  1.00  0.00     0.163 HD
BRANCH   4   7
ATOM      7  C   UNL A   1      36.773  22.636  24.582  1.00  0.00     0.105 C 
ATOM      8  C   UNL A   1      36.516  23.780  23.590  1.00  0.00     0.023 C 
BRANCH   7   9
ATOM      9  C   UNL A   1      35.474  21.997  25.082  1.00  0.00    -0.035 A 
ATOM     10  C   UNL A   1      35.216  20.629  24.915  1.00  0.00     0.012 A 
ATOM     11  C   UNL A   1      34.459  22.805  25.610  1.00  0.00     0.016 A 
ATOM     12  C   UNL A   1      33.983  20.049  25.237  1.00  0.00    -0.024 A 
ATOM     13  C   UNL A   1      33.201  22.264  25.909  1.00  0.00     0.023 A 
ATOM     14  C   UNL A   1      32.977  20.886  25.738  1.00  0.00     0.020 A 
BRANCH  12  15
ATOM     15  C   UNL A   1      33.721  18.611  25.014  1.00  0.00     0.020 C 
ATOM     16  C   UNL A   1      34.671  17.716  24.695  1.00  0.00     0.106 C 
BRANCH  16  17
ATOM     17  S   UNL A   1      34.287  16.057  24.380  1.00  0.00     0.168 S 
ATOM     18  C   UNL A   1      32.697  15.931  25.168  1.00  0.00     0.163 C 
ATOM     19  O   UNL A   1      34.063  15.913  22.952  1.00  0.00    -0.225 OA
ATOM     20  O   UNL A   1      35.193  15.177  25.083  1.00  0.00    -0.225 OA
ENDBRANCH  16  17
ENDBRANCH  12  15
BRANCH  13  21
ATOM     21  C   UNL A   1      32.086  23.115  26.416  1.00  0.00     0.193 C 
ATOM     22  O   UNL A   1      31.766  23.064  27.600  1.00  0.00    -0.289 OA
BRANCH  21  23
ATOM     23  C   UNL A   1      31.368  24.065  25.531  1.00  0.00     0.022 A 
ATOM     24  C   UNL A   1      31.129  23.685  24.206  1.00  0.00     0.012 A 
ATOM     25  C   UNL A   1      30.941  25.318  25.989  1.00  0.00     0.012 A 
ATOM     26  C   UNL A   1      30.424  24.535  23.353  1.00  0.00     0.001 A 
ATOM     27  C   UNL A   1      30.236  26.165  25.130  1.00  0.00     0.001 A 
ATOM     28  C   UNL A   1      29.972  25.771  23.817  1.00  0.00     0.000 A 
ENDBRANCH  21  23
ENDBRANCH  13  21
ENDBRANCH   7   9
ENDBRANCH   4   7
ENDBRANCH   2   3
ENDBRANCH   1   2
BRANCH   1  29
ATOM     29  C   UNL A   1      41.130  19.451  26.093  1.00  0.00     0.023 C 
BRANCH  29  30
ATOM     30  C   UNL A   1      42.616  19.290  26.389  1.00  0.00     0.116 C 
BRANCH  30  31
ATOM     31  N   UNL A   1      43.386  18.923  25.211  1.00  0.00    -0.352 N 
ATOM     32  C   UNL A   1      44.224  19.697  24.448  1.00  0.00     0.251 C 
ATOM     33  H   UNL A   1      43.294  17.988  24.920  1.00  0.00     0.163 HD
ATOM     34  O   UNL A   1      44.682  19.255  23.400  1.00  0.00    -0.269 OA
BRANCH  32  35
ATOM     35  C   UNL A   1      44.546  21.075  24.875  1.00  0.00     0.039 A 
ATOM     36  C   UNL A   1      43.945  22.140  24.201  1.00  0.00     0.014 A 
ATOM     37  C   UNL A   1      45.430  21.320  25.931  1.00  0.00     0.014 A 
ATOM     38  C   UNL A   1      44.186  23.447  24.623  1.00  0.00     0.010 A 
ATOM     39  C   UNL A   1      45.606  22.618  26.400  1.00  0.00     0.010 A 
ATOM     40  C   UNL A   1      44.991  23.696  25.746  1.00  0.00    -0.014 A 
BRANCH  40  41
ATOM     41  C   UNL A   1      45.194  25.081  26.242  1.00  0.00     0.031 A 
ATOM     42  C   UNL A   1      46.551  25.726  26.166  1.00  0.00     0.074 A 
ATOM     43  C   UNL A   1      44.160  25.747  26.790  1.00  0.00     0.049 A 
ATOM     44  N   UNL A   1      46.924  26.919  26.556  1.00  0.00    -0.248 NA
ATOM     45  C   UNL A   1      47.641  24.914  25.600  1.00  0.00     0.031 C 
ATOM     46  C   UNL A   1      42.810  25.209  26.973  1.00  0.00     0.029 A 
ATOM     47  N   UNL A   1      44.080  27.020  27.297  1.00  0.00    -0.354 N 
ATOM     48  C   UNL A   1      48.282  27.002  26.278  1.00  0.00     0.074 A 
ATOM     49  C   UNL A   1      48.685  25.715  25.755  1.00  0.00     0.031 C 
ATOM     50  C   UNL A   1      42.031  26.153  27.524  1.00  0.00     0.029 A 
ATOM     51  C   UNL A   1      42.832  27.350  27.765  1.00  0.00     0.049 A 
ATOM     52  H   UNL A   1      44.846  27.639  27.321  1.00  0.00     0.167 HD
ATOM     53  C   UNL A   1      49.110  28.065  26.412  1.00  0.00     0.037 A 
ATOM     54  C   UNL A   1      42.385  28.487  28.330  1.00  0.00     0.037 A 
ATOM     55  C   UNL A   1      48.705  29.346  26.926  1.00  0.00     0.049 A 
ATOM     56  C   UNL A   1      43.332  29.648  28.483  1.00  0.00     0.074 A 
ATOM     57  C   UNL A   1      49.461  30.496  27.077  1.00  0.00     0.029 A 
ATOM     58  N   UNL A   1      47.428  29.648  27.378  1.00  0.00    -0.354 N 
ATOM     59  N   UNL A   1      44.597  29.736  28.151  1.00  0.00    -0.248 NA
ATOM     60  C   UNL A   1      42.783  30.874  29.078  1.00  0.00     0.031 C 
ATOM     61  C   UNL A   1      48.655  31.478  27.661  1.00  0.00     0.029 A 
ATOM     62  C   UNL A   1      47.380  30.961  27.821  1.00  0.00     0.049 A 
ATOM     63  H   UNL A   1      46.667  29.022  27.382  1.00  0.00     0.167 HD
ATOM     64  C   UNL A   1      44.987  31.030  28.467  1.00  0.00     0.074 A 
ATOM     65  C   UNL A   1      43.815  31.700  28.995  1.00  0.00     0.031 C 
ATOM     66  C   UNL A   1      46.204  31.614  28.337  1.00  0.00     0.037 A 
BRANCH  53  67
ATOM     67  C   UNL A   1      50.538  27.890  25.979  1.00  0.00     0.064 A 
ATOM     68  C   UNL A   1      50.917  28.022  24.634  1.00  0.00     0.173 A 
ATOM     69  C   UNL A   1      51.546  27.628  26.919  1.00  0.00     0.173 A 
ATOM     70  F   UNL A   1      49.990  28.259  23.692  1.00  0.00    -0.203 F 
ATOM     71  C   UNL A   1      52.244  27.871  24.242  1.00  0.00     0.198 A 
ATOM     72  C   UNL A   1      52.878  27.510  26.528  1.00  0.00     0.198 A 
ATOM     73  F   UNL A   1      51.243  27.496  28.219  1.00  0.00    -0.203 F 
ATOM     74  F   UNL A   1      52.571  27.951  22.944  1.00  0.00    -0.200 F 
ATOM     75  C   UNL A   1      53.225  27.623  25.190  1.00  0.00     0.200 A 
ATOM     76  F   UNL A   1      53.828  27.285  27.447  1.00  0.00    -0.200 F 
ATOM     77  F   UNL A   1      54.503  27.488  24.813  1.00  0.00    -0.200 F 
ENDBRANCH  53  67
BRANCH  54  78
ATOM     78  C   UNL A   1      40.971  28.595  28.779  1.00  0.00     0.064 A 
ATOM     79  C   UNL A   1      40.593  28.228  30.079  1.00  0.00     0.173 A 
ATOM     80  C   UNL A   1      39.965  29.042  27.912  1.00  0.00     0.173 A 
ATOM     81  F   UNL A   1      41.515  27.778  30.942  1.00  0.00    -0.203 F 
ATOM     82  C   UNL A   1      39.259  28.269  30.481  1.00  0.00     0.198 A 
ATOM     83  C   UNL A   1      38.636  29.116  28.325  1.00  0.00     0.198 A 
ATOM     84  F   UNL A   1      40.272  29.415  26.660  1.00  0.00    -0.203 F 
ATOM     85  F   UNL A   1      38.919  27.853  31.709  1.00  0.00    -0.200 F 
ATOM     86  C   UNL A   1      38.283  28.718  29.606  1.00  0.00     0.200 A 
ATOM     87  F   UNL A   1      37.698  29.567  27.482  1.00  0.00    -0.200 F 
ATOM     88  F   UNL A   1      37.001  28.755  29.992  1.00  0.00    -0.200 F 
ENDBRANCH  54  78
BRANCH  66  89
ATOM     89  C   UNL A   1      46.318  33.058  28.735  1.00  0.00     0.064 A 
ATOM     90  C   UNL A   1      46.700  33.440  30.029  1.00  0.00     0.173 A 
ATOM     91  C   UNL A   1      46.057  34.073  27.801  1.00  0.00     0.173 A 
ATOM     92  F   UNL A   1      46.947  32.509  30.963  1.00  0.00    -0.203 F 
ATOM     93  C   UNL A   1      46.781  34.785  30.385  1.00  0.00     0.198 A 
ATOM     94  C   UNL A   1      46.174  35.416  28.150  1.00  0.00     0.198 A 
ATOM     95  F   UNL A   1      45.697  33.763  26.547  1.00  0.00    -0.203 F 
ATOM     96  F   UNL A   1      47.086  35.124  31.644  1.00  0.00    -0.200 F 
ATOM     97  C   UNL A   1      46.524  35.770  29.445  1.00  0.00     0.200 A 
ATOM     98  F   UNL A   1      45.941  36.367  27.235  1.00  0.00    -0.200 F 
ATOM     99  F   UNL A   1      46.604  37.063  29.788  1.00  0.00    -0.200 F 
ENDBRANCH  66  89
ENDBRANCH  40  41
ENDBRANCH  32  35
ENDBRANCH  30  31
ENDBRANCH  29  30
ENDBRANCH   1  29
TORSDOF 16
ENDMDL
