MODEL 1
REMARK VINA RESULT:     -14.0      0.000      0.000
REMARK SMILES CC1=C(CC(=O)NCCCCNC(=O)c2ccc(-c3c4nc(c(-c5c(F)c(F)c(F)c(F)c5F)c5ccc([nH]5)c(-c5c(F)c(F)c(F)c(F)c5F)c5nc(c(-c6c(F)c(F)c(F)c(F)c6F)c6ccc3[nH]6)C=C5)C=C4)cc2)c2cc(F)ccc2/C1=C\c1ccc([S@@+](C)[O-])cc1
REMARK SMILES IDX 9 1 8 2 7 3 5 4 6 5 4 7 3 8 1 9 2 10 85 11 78 12 84 13 86 14
REMARK SMILES IDX 79 15 83 16 80 17 82 18 81 19 87 20 88 21 95 22 89 23 94 24
REMARK SMILES IDX 90 25 91 26 92 27 93 28 10 29 11 30 12 31 13 32 14 34 15 35
REMARK SMILES IDX 16 36 77 37 17 38 76 39 18 40 19 41 20 42 70 43 21 44 75 45
REMARK SMILES IDX 69 46 71 47 22 48 74 49 68 50 67 51 23 53 55 54 35 55 54 56
REMARK SMILES IDX 36 57 39 58 53 59 72 60 37 61 38 62 52 64 73 65 40 66 24 67
REMARK SMILES IDX 25 68 33 69 26 70 27 71 31 72 34 73 28 74 29 75 32 76 30 77
REMARK SMILES IDX 56 78 57 79 65 80 58 81 59 82 63 83 66 84 60 85 61 86 64 87
REMARK SMILES IDX 62 88 41 89 42 90 50 91 43 92 44 93 48 94 51 95 45 96 46 97
REMARK SMILES IDX 49 98 47 99
REMARK H PARENT 7 6 12 33 71 52 39 63
REMARK Flexibility Score: inf
ROOT
ATOM      1  C   UNL A   1      34.480  21.184  25.567  1.00  0.00     0.023 C 
ENDROOT
BRANCH   1   2
ATOM      2  C   UNL A   1      34.517  21.837  26.950  1.00  0.00     0.116 C 
BRANCH   2   3
ATOM      3  N   UNL A   1      33.233  22.376  27.339  1.00  0.00    -0.356 N 
ATOM      4  C   UNL A   1      32.625  23.526  26.924  1.00  0.00     0.224 C 
ATOM      5  O   UNL A   1      31.520  23.801  27.397  1.00  0.00    -0.275 OA
ATOM      6  H   UNL A   1      32.728  21.842  27.994  1.00  0.00     0.163 HD
BRANCH   4   7
ATOM      7  C   UNL A   1      33.283  24.424  25.876  1.00  0.00     0.136 C 
BRANCH   7   8
ATOM      8  C   UNL A   1      32.369  25.471  25.325  1.00  0.00    -0.027 C 
ATOM      9  C   UNL A   1      30.801  24.054  23.903  1.00  0.00     0.045 C 
ATOM     10  C   UNL A   1      31.329  25.335  24.465  1.00  0.00    -0.039 C 
ATOM     11  C   UNL A   1      30.766  26.662  24.163  1.00  0.00    -0.014 C 
ATOM     12  C   UNL A   1      32.441  26.889  25.724  1.00  0.00    -0.011 A 
ATOM     13  C   UNL A   1      31.437  27.620  25.065  1.00  0.00    -0.010 A 
ATOM     14  C   UNL A   1      29.879  26.920  23.180  1.00  0.00     0.017 C 
ATOM     15  C   UNL A   1      33.289  27.510  26.633  1.00  0.00     0.048 A 
ATOM     16  C   UNL A   1      31.236  28.963  25.358  1.00  0.00     0.012 A 
ATOM     17  C   UNL A   1      33.113  28.869  26.877  1.00  0.00     0.123 A 
ATOM     18  C   UNL A   1      32.095  29.593  26.259  1.00  0.00     0.040 A 
ATOM     19  F   UNL A   1      33.926  29.492  27.740  1.00  0.00    -0.207 F 
BRANCH  14  20
ATOM     20  C   UNL A   1      29.363  28.243  22.817  1.00  0.00    -0.025 A 
ATOM     21  C   UNL A   1      30.175  29.197  22.192  1.00  0.00     0.013 A 
ATOM     22  C   UNL A   1      28.063  28.587  23.193  1.00  0.00     0.013 A 
ATOM     23  C   UNL A   1      29.735  30.520  22.065  1.00  0.00     0.061 A 
ATOM     24  C   UNL A   1      27.617  29.902  23.044  1.00  0.00     0.061 A 
ATOM     25  C   UNL A   1      28.461  30.887  22.516  1.00  0.00     0.152 A 
BRANCH  25  26
ATOM     26  S   UNL A   1      27.957  32.625  22.600  1.00  0.00    -0.018 S 
ATOM     27  C   UNL A   1      29.477  33.360  23.232  1.00  0.00     0.346 C 
ATOM     28  O   UNL A   1      27.761  33.117  21.122  1.00  0.00    -0.612 OA
ENDBRANCH  25  26
ENDBRANCH  14  20
ENDBRANCH   7   8
ENDBRANCH   4   7
ENDBRANCH   2   3
ENDBRANCH   1   2
BRANCH   1  29
ATOM     29  C   UNL A   1      35.717  21.429  24.703  1.00  0.00     0.023 C 
BRANCH  29  30
ATOM     30  C   UNL A   1      36.955  21.897  25.455  1.00  0.00     0.116 C 
BRANCH  30  31
ATOM     31  N   UNL A   1      38.034  20.919  25.484  1.00  0.00    -0.352 N 
ATOM     32  C   UNL A   1      39.301  21.067  26.006  1.00  0.00     0.251 C 
ATOM     33  H   UNL A   1      37.834  20.044  25.080  1.00  0.00     0.163 HD
ATOM     34  O   UNL A   1      40.136  20.177  25.881  1.00  0.00    -0.269 OA
BRANCH  32  35
ATOM     35  C   UNL A   1      39.661  22.339  26.665  1.00  0.00     0.039 A 
ATOM     36  C   UNL A   1      39.162  23.551  26.184  1.00  0.00     0.014 A 
ATOM     37  C   UNL A   1      40.578  22.322  27.719  1.00  0.00     0.014 A 
ATOM     38  C   UNL A   1      39.724  24.743  26.622  1.00  0.00     0.010 A 
ATOM     39  C   UNL A   1      41.082  23.528  28.216  1.00  0.00     0.010 A 
ATOM     40  C   UNL A   1      40.709  24.745  27.624  1.00  0.00    -0.014 A 
BRANCH  40  41
ATOM     41  C   UNL A   1      41.369  26.024  27.988  1.00  0.00     0.031 A 
ATOM     42  C   UNL A   1      42.754  26.340  27.487  1.00  0.00     0.074 A 
ATOM     43  C   UNL A   1      40.684  26.945  28.692  1.00  0.00     0.049 A 
ATOM     44  N   UNL A   1      43.463  27.430  27.649  1.00  0.00    -0.248 NA
ATOM     45  C   UNL A   1      43.434  25.298  26.702  1.00  0.00     0.031 C 
ATOM     46  C   UNL A   1      39.329  26.765  29.214  1.00  0.00     0.029 A 
ATOM     47  N   UNL A   1      41.016  28.225  29.056  1.00  0.00    -0.354 N 
ATOM     48  C   UNL A   1      44.672  27.198  27.005  1.00  0.00     0.074 A 
ATOM     49  C   UNL A   1      44.617  25.853  26.474  1.00  0.00     0.031 C 
ATOM     50  C   UNL A   1      38.920  27.914  29.772  1.00  0.00     0.029 A 
ATOM     51  C   UNL A   1      40.002  28.892  29.697  1.00  0.00     0.049 A 
ATOM     52  H   UNL A   1      41.897  28.628  28.874  1.00  0.00     0.167 HD
ATOM     53  C   UNL A   1      45.725  28.037  26.853  1.00  0.00     0.037 A 
ATOM     54  C   UNL A   1      39.949  30.149  30.173  1.00  0.00     0.037 A 
ATOM     55  C   UNL A   1      45.769  29.386  27.350  1.00  0.00     0.049 A 
ATOM     56  C   UNL A   1      41.148  31.042  30.034  1.00  0.00     0.074 A 
ATOM     57  C   UNL A   1      46.779  30.322  27.217  1.00  0.00     0.029 A 
ATOM     58  N   UNL A   1      44.754  29.993  28.075  1.00  0.00    -0.354 N 
ATOM     59  N   UNL A   1      42.284  30.810  29.424  1.00  0.00    -0.248 NA
ATOM     60  C   UNL A   1      41.064  32.366  30.666  1.00  0.00     0.031 C 
ATOM     61  C   UNL A   1      46.393  31.483  27.893  1.00  0.00     0.029 A 
ATOM     62  C   UNL A   1      45.126  31.284  28.417  1.00  0.00     0.049 A 
ATOM     63  H   UNL A   1      43.897  29.570  28.311  1.00  0.00     0.167 HD
ATOM     64  C   UNL A   1      43.050  31.952  29.599  1.00  0.00     0.074 A 
ATOM     65  C   UNL A   1      42.241  32.889  30.351  1.00  0.00     0.031 C 
ATOM     66  C   UNL A   1      44.316  32.197  29.181  1.00  0.00     0.037 A 
BRANCH  53  67
ATOM     67  C   UNL A   1      46.928  27.519  26.120  1.00  0.00     0.064 A 
ATOM     68  C   UNL A   1      47.043  27.633  24.727  1.00  0.00     0.173 A 
ATOM     69  C   UNL A   1      47.998  26.950  26.825  1.00  0.00     0.173 A 
ATOM     70  F   UNL A   1      46.040  28.157  24.008  1.00  0.00    -0.203 F 
ATOM     71  C   UNL A   1      48.181  27.178  24.064  1.00  0.00     0.198 A 
ATOM     72  C   UNL A   1      49.144  26.518  26.161  1.00  0.00     0.198 A 
ATOM     73  F   UNL A   1      47.939  26.823  28.159  1.00  0.00    -0.203 F 
ATOM     74  F   UNL A   1      48.254  27.262  22.729  1.00  0.00    -0.200 F 
ATOM     75  C   UNL A   1      49.232  26.628  24.782  1.00  0.00     0.200 A 
ATOM     76  F   UNL A   1      50.164  25.995  26.857  1.00  0.00    -0.200 F 
ATOM     77  F   UNL A   1      50.329  26.197  24.143  1.00  0.00    -0.200 F 
ENDBRANCH  53  67
BRANCH  54  78
ATOM     78  C   UNL A   1      38.702  30.632  30.818  1.00  0.00     0.064 A 
ATOM     79  C   UNL A   1      38.568  30.624  32.213  1.00  0.00     0.173 A 
ATOM     80  C   UNL A   1      37.642  31.148  30.059  1.00  0.00     0.173 A 
ATOM     81  F   UNL A   1      39.550  30.121  32.976  1.00  0.00    -0.203 F 
ATOM     82  C   UNL A   1      37.420  31.118  32.825  1.00  0.00     0.198 A 
ATOM     83  C   UNL A   1      36.503  31.664  30.674  1.00  0.00     0.198 A 
ATOM     84  F   UNL A   1      37.726  31.178  28.721  1.00  0.00    -0.203 F 
ATOM     85  F   UNL A   1      37.307  31.083  34.160  1.00  0.00    -0.200 F 
ATOM     86  C   UNL A   1      36.393  31.647  32.057  1.00  0.00     0.200 A 
ATOM     87  F   UNL A   1      35.521  32.187  29.929  1.00  0.00    -0.200 F 
ATOM     88  F   UNL A   1      35.296  32.139  32.647  1.00  0.00    -0.200 F 
ENDBRANCH  54  78
BRANCH  66  89
ATOM     89  C   UNL A   1      44.915  33.523  29.541  1.00  0.00     0.064 A 
ATOM     90  C   UNL A   1      45.678  33.679  30.707  1.00  0.00     0.173 A 
ATOM     91  C   UNL A   1      44.782  34.626  28.685  1.00  0.00     0.173 A 
ATOM     92  F   UNL A   1      45.821  32.656  31.562  1.00  0.00    -0.203 F 
ATOM     93  C   UNL A   1      46.279  34.898  31.008  1.00  0.00     0.198 A 
ATOM     94  C   UNL A   1      45.402  35.837  28.979  1.00  0.00     0.198 A 
ATOM     95  F   UNL A   1      44.065  34.523  27.556  1.00  0.00    -0.203 F 
ATOM     96  F   UNL A   1      46.982  35.034  32.141  1.00  0.00    -0.200 F 
ATOM     97  C   UNL A   1      46.149  35.972  30.140  1.00  0.00     0.200 A 
ATOM     98  F   UNL A   1      45.284  36.871  28.135  1.00  0.00    -0.200 F 
ATOM     99  F   UNL A   1      46.738  37.141  30.426  1.00  0.00    -0.200 F 
ENDBRANCH  66  89
ENDBRANCH  40  41
ENDBRANCH  32  35
ENDBRANCH  30  31
ENDBRANCH  29  30
ENDBRANCH   1  29
TORSDOF 14
ENDMDL
MODEL 2
REMARK VINA RESULT:     -13.8      2.926      4.385
REMARK SMILES CC1=C(CC(=O)NCCCCNC(=O)c2ccc(-c3c4nc(c(-c5c(F)c(F)c(F)c(F)c5F)c5ccc([nH]5)c(-c5c(F)c(F)c(F)c(F)c5F)c5nc(c(-c6c(F)c(F)c(F)c(F)c6F)c6ccc3[nH]6)C=C5)C=C4)cc2)c2cc(F)ccc2/C1=C\c1ccc([S@@+](C)[O-])cc1
REMARK SMILES IDX 9 1 8 2 7 3 5 4 6 5 4 7 3 8 1 9 2 10 85 11 78 12 84 13 86 14
REMARK SMILES IDX 79 15 83 16 80 17 82 18 81 19 87 20 88 21 95 22 89 23 94 24
REMARK SMILES IDX 90 25 91 26 92 27 93 28 10 29 11 30 12 31 13 32 14 34 15 35
REMARK SMILES IDX 16 36 77 37 17 38 76 39 18 40 19 41 20 42 70 43 21 44 75 45
REMARK SMILES IDX 69 46 71 47 22 48 74 49 68 50 67 51 23 53 55 54 35 55 54 56
REMARK SMILES IDX 36 57 39 58 53 59 72 60 37 61 38 62 52 64 73 65 40 66 24 67
REMARK SMILES IDX 25 68 33 69 26 70 27 71 31 72 34 73 28 74 29 75 32 76 30 77
REMARK SMILES IDX 56 78 57 79 65 80 58 81 59 82 63 83 66 84 60 85 61 86 64 87
REMARK SMILES IDX 62 88 41 89 42 90 50 91 43 92 44 93 48 94 51 95 45 96 46 97
REMARK SMILES IDX 49 98 47 99
REMARK H PARENT 7 6 12 33 71 52 39 63
REMARK Flexibility Score: inf
ROOT
ATOM      1  C   UNL A   1      35.638  21.782  26.161  1.00  0.00     0.023 C 
ENDROOT
BRANCH   1   2
ATOM      2  C   UNL A   1      35.202  20.890  24.998  1.00  0.00     0.116 C 
BRANCH   2   3
ATOM      3  N   UNL A   1      34.133  19.988  25.367  1.00  0.00    -0.356 N 
ATOM      4  C   UNL A   1      32.881  19.880  24.834  1.00  0.00     0.224 C 
ATOM      5  O   UNL A   1      32.118  19.037  25.311  1.00  0.00    -0.275 OA
ATOM      6  H   UNL A   1      34.335  19.367  26.103  1.00  0.00     0.163 HD
BRANCH   4   7
ATOM      7  C   UNL A   1      32.455  20.756  23.655  1.00  0.00     0.136 C 
BRANCH   7   8
ATOM      8  C   UNL A   1      32.496  22.220  23.950  1.00  0.00    -0.027 C 
ATOM      9  C   UNL A   1      34.030  23.052  22.094  1.00  0.00     0.045 C 
ATOM     10  C   UNL A   1      33.182  23.203  23.316  1.00  0.00    -0.039 C 
ATOM     11  C   UNL A   1      32.956  24.484  24.009  1.00  0.00    -0.014 C 
ATOM     12  C   UNL A   1      31.685  22.848  25.010  1.00  0.00    -0.011 A 
ATOM     13  C   UNL A   1      31.914  24.235  25.025  1.00  0.00    -0.010 A 
ATOM     14  C   UNL A   1      33.656  25.615  23.789  1.00  0.00     0.017 C 
ATOM     15  C   UNL A   1      30.770  22.271  25.883  1.00  0.00     0.048 A 
ATOM     16  C   UNL A   1      31.183  25.060  25.871  1.00  0.00     0.012 A 
ATOM     17  C   UNL A   1      30.085  23.102  26.764  1.00  0.00     0.123 A 
ATOM     18  C   UNL A   1      30.274  24.483  26.759  1.00  0.00     0.040 A 
ATOM     19  F   UNL A   1      29.207  22.567  27.623  1.00  0.00    -0.207 F 
BRANCH  14  20
ATOM     20  C   UNL A   1      33.497  26.877  24.518  1.00  0.00    -0.025 A 
ATOM     21  C   UNL A   1      33.983  27.034  25.822  1.00  0.00     0.013 A 
ATOM     22  C   UNL A   1      32.758  27.907  23.931  1.00  0.00     0.013 A 
ATOM     23  C   UNL A   1      33.620  28.156  26.577  1.00  0.00     0.061 A 
ATOM     24  C   UNL A   1      32.417  29.036  24.678  1.00  0.00     0.061 A 
ATOM     25  C   UNL A   1      32.810  29.152  26.018  1.00  0.00     0.152 A 
BRANCH  25  26
ATOM     26  S   UNL A   1      32.117  30.481  27.035  1.00  0.00    -0.018 S 
ATOM     27  C   UNL A   1      33.635  31.309  27.543  1.00  0.00     0.346 C 
ATOM     28  O   UNL A   1      31.343  31.444  26.065  1.00  0.00    -0.612 OA
ENDBRANCH  25  26
ENDBRANCH  14  20
ENDBRANCH   7   8
ENDBRANCH   4   7
ENDBRANCH   2   3
ENDBRANCH   1   2
BRANCH   1  29
ATOM     29  C   UNL A   1      35.857  23.252  25.802  1.00  0.00     0.023 C 
BRANCH  29  30
ATOM     30  C   UNL A   1      37.140  23.552  25.039  1.00  0.00     0.116 C 
BRANCH  30  31
ATOM     31  N   UNL A   1      38.248  22.667  25.373  1.00  0.00    -0.352 N 
ATOM     32  C   UNL A   1      39.348  22.942  26.155  1.00  0.00     0.251 C 
ATOM     33  H   UNL A   1      38.205  21.760  24.993  1.00  0.00     0.163 HD
ATOM     34  O   UNL A   1      40.249  22.119  26.279  1.00  0.00    -0.269 OA
BRANCH  32  35
ATOM     35  C   UNL A   1      39.461  24.271  26.792  1.00  0.00     0.039 A 
ATOM     36  C   UNL A   1      40.098  25.322  26.130  1.00  0.00     0.014 A 
ATOM     37  C   UNL A   1      39.003  24.436  28.102  1.00  0.00     0.014 A 
ATOM     38  C   UNL A   1      40.447  26.464  26.839  1.00  0.00     0.010 A 
ATOM     39  C   UNL A   1      39.283  25.620  28.789  1.00  0.00     0.010 A 
ATOM     40  C   UNL A   1      40.068  26.616  28.184  1.00  0.00    -0.014 A 
BRANCH  40  41
ATOM     41  C   UNL A   1      40.555  27.795  28.944  1.00  0.00     0.031 A 
ATOM     42  C   UNL A   1      42.018  27.950  29.261  1.00  0.00     0.074 A 
ATOM     43  C   UNL A   1      39.690  28.775  29.268  1.00  0.00     0.049 A 
ATOM     44  N   UNL A   1      42.635  28.940  29.859  1.00  0.00    -0.248 NA
ATOM     45  C   UNL A   1      42.910  26.851  28.856  1.00  0.00     0.031 C 
ATOM     46  C   UNL A   1      38.253  28.751  28.997  1.00  0.00     0.029 A 
ATOM     47  N   UNL A   1      39.899  29.996  29.859  1.00  0.00    -0.354 N 
ATOM     48  C   UNL A   1      43.974  28.577  29.916  1.00  0.00     0.074 A 
ATOM     49  C   UNL A   1      44.082  27.263  29.322  1.00  0.00     0.031 C 
ATOM     50  C   UNL A   1      37.720  29.927  29.357  1.00  0.00     0.029 A 
ATOM     51  C   UNL A   1      38.765  30.766  29.937  1.00  0.00     0.049 A 
ATOM     52  H   UNL A   1      40.777  30.291  30.194  1.00  0.00     0.167 HD
ATOM     53  C   UNL A   1      45.022  29.283  30.403  1.00  0.00     0.037 A 
ATOM     54  C   UNL A   1      38.587  32.009  30.422  1.00  0.00     0.037 A 
ATOM     55  C   UNL A   1      44.924  30.604  30.965  1.00  0.00     0.049 A 
ATOM     56  C   UNL A   1      39.757  32.750  31.000  1.00  0.00     0.074 A 
ATOM     57  C   UNL A   1      45.936  31.411  31.453  1.00  0.00     0.029 A 
ATOM     58  N   UNL A   1      43.741  31.314  31.108  1.00  0.00    -0.354 N 
ATOM     59  N   UNL A   1      41.018  32.395  31.048  1.00  0.00    -0.248 NA
ATOM     60  C   UNL A   1      39.477  34.058  31.608  1.00  0.00     0.031 C 
ATOM     61  C   UNL A   1      45.361  32.594  31.928  1.00  0.00     0.029 A 
ATOM     62  C   UNL A   1      43.995  32.539  31.702  1.00  0.00     0.049 A 
ATOM     63  H   UNL A   1      42.852  30.994  30.830  1.00  0.00     0.167 HD
ATOM     64  C   UNL A   1      41.680  33.429  31.691  1.00  0.00     0.074 A 
ATOM     65  C   UNL A   1      40.688  34.440  31.993  1.00  0.00     0.031 C 
ATOM     66  C   UNL A   1      42.993  33.526  32.011  1.00  0.00     0.037 A 
BRANCH  53  67
ATOM     67  C   UNL A   1      46.377  28.639  30.357  1.00  0.00     0.064 A 
ATOM     68  C   UNL A   1      46.847  27.842  31.412  1.00  0.00     0.173 A 
ATOM     69  C   UNL A   1      47.192  28.779  29.224  1.00  0.00     0.173 A 
ATOM     70  F   UNL A   1      46.110  27.690  32.522  1.00  0.00    -0.203 F 
ATOM     71  C   UNL A   1      48.093  27.224  31.341  1.00  0.00     0.198 A 
ATOM     72  C   UNL A   1      48.428  28.139  29.148  1.00  0.00     0.198 A 
ATOM     73  F   UNL A   1      46.787  29.526  28.187  1.00  0.00    -0.203 F 
ATOM     74  F   UNL A   1      48.538  26.498  32.376  1.00  0.00    -0.200 F 
ATOM     75  C   UNL A   1      48.878  27.367  30.207  1.00  0.00     0.200 A 
ATOM     76  F   UNL A   1      49.181  28.271  28.047  1.00  0.00    -0.200 F 
ATOM     77  F   UNL A   1      50.074  26.765  30.138  1.00  0.00    -0.200 F 
ENDBRANCH  53  67
BRANCH  54  78
ATOM     78  C   UNL A   1      37.238  32.625  30.367  1.00  0.00     0.064 A 
ATOM     79  C   UNL A   1      36.859  33.424  29.280  1.00  0.00     0.173 A 
ATOM     80  C   UNL A   1      36.290  32.393  31.374  1.00  0.00     0.173 A 
ATOM     81  F   UNL A   1      37.740  33.688  28.304  1.00  0.00    -0.203 F 
ATOM     82  C   UNL A   1      35.579  33.966  29.202  1.00  0.00     0.198 A 
ATOM     83  C   UNL A   1      35.002  32.917  31.282  1.00  0.00     0.198 A 
ATOM     84  F   UNL A   1      36.607  31.633  32.433  1.00  0.00    -0.203 F 
ATOM     85  F   UNL A   1      35.245  34.743  28.161  1.00  0.00    -0.200 F 
ATOM     86  C   UNL A   1      34.648  33.704  30.197  1.00  0.00     0.200 A 
ATOM     87  F   UNL A   1      34.103  32.649  32.239  1.00  0.00    -0.200 F 
ATOM     88  F   UNL A   1      33.412  34.212  30.112  1.00  0.00    -0.200 F 
ENDBRANCH  54  78
BRANCH  66  89
ATOM     89  C   UNL A   1      43.435  34.759  32.741  1.00  0.00     0.064 A 
ATOM     90  C   UNL A   1      43.762  35.932  32.046  1.00  0.00     0.173 A 
ATOM     91  C   UNL A   1      43.468  34.789  34.142  1.00  0.00     0.173 A 
ATOM     92  F   UNL A   1      43.757  35.947  30.705  1.00  0.00    -0.203 F 
ATOM     93  C   UNL A   1      44.118  37.091  32.731  1.00  0.00     0.198 A 
ATOM     94  C   UNL A   1      43.803  35.956  34.824  1.00  0.00     0.198 A 
ATOM     95  F   UNL A   1      43.159  33.693  34.849  1.00  0.00    -0.203 F 
ATOM     96  F   UNL A   1      44.453  38.194  32.048  1.00  0.00    -0.200 F 
ATOM     97  C   UNL A   1      44.129  37.105  34.118  1.00  0.00     0.200 A 
ATOM     98  F   UNL A   1      43.804  35.971  36.164  1.00  0.00    -0.200 F 
ATOM     99  F   UNL A   1      44.459  38.225  34.776  1.00  0.00    -0.200 F 
ENDBRANCH  66  89
ENDBRANCH  40  41
ENDBRANCH  32  35
ENDBRANCH  30  31
ENDBRANCH  29  30
ENDBRANCH   1  29
TORSDOF 14
ENDMDL
MODEL 3
REMARK VINA RESULT:     -13.8      5.070     10.602
REMARK SMILES CC1=C(CC(=O)NCCCCNC(=O)c2ccc(-c3c4nc(c(-c5c(F)c(F)c(F)c(F)c5F)c5ccc([nH]5)c(-c5c(F)c(F)c(F)c(F)c5F)c5nc(c(-c6c(F)c(F)c(F)c(F)c6F)c6ccc3[nH]6)C=C5)C=C4)cc2)c2cc(F)ccc2/C1=C\c1ccc([S@@+](C)[O-])cc1
REMARK SMILES IDX 9 1 8 2 7 3 5 4 6 5 4 7 3 8 1 9 2 10 85 11 78 12 84 13 86 14
REMARK SMILES IDX 79 15 83 16 80 17 82 18 81 19 87 20 88 21 95 22 89 23 94 24
REMARK SMILES IDX 90 25 91 26 92 27 93 28 10 29 11 30 12 31 13 32 14 34 15 35
REMARK SMILES IDX 16 36 77 37 17 38 76 39 18 40 19 41 20 42 70 43 21 44 75 45
REMARK SMILES IDX 69 46 71 47 22 48 74 49 68 50 67 51 23 53 55 54 35 55 54 56
REMARK SMILES IDX 36 57 39 58 53 59 72 60 37 61 38 62 52 64 73 65 40 66 24 67
REMARK SMILES IDX 25 68 33 69 26 70 27 71 31 72 34 73 28 74 29 75 32 76 30 77
REMARK SMILES IDX 56 78 57 79 65 80 58 81 59 82 63 83 66 84 60 85 61 86 64 87
REMARK SMILES IDX 62 88 41 89 42 90 50 91 43 92 44 93 48 94 51 95 45 96 46 97
REMARK SMILES IDX 49 98 47 99
REMARK H PARENT 7 6 12 33 71 52 39 63
REMARK Flexibility Score: inf
ROOT
ATOM      1  C   UNL A   1      32.488  30.026  26.766  1.00  0.00     0.023 C 
ENDROOT
BRANCH   1   2
ATOM      2  C   UNL A   1      31.694  29.167  25.780  1.00  0.00     0.116 C 
BRANCH   2   3
ATOM      3  N   UNL A   1      32.508  28.696  24.680  1.00  0.00    -0.356 N 
ATOM      4  C   UNL A   1      33.349  27.622  24.635  1.00  0.00     0.224 C 
ATOM      5  O   UNL A   1      33.958  27.407  23.585  1.00  0.00    -0.275 OA
ATOM      6  H   UNL A   1      32.448  29.223  23.851  1.00  0.00     0.163 HD
BRANCH   4   7
ATOM      7  C   UNL A   1      33.499  26.695  25.842  1.00  0.00     0.136 C 
BRANCH   7   8
ATOM      8  C   UNL A   1      33.386  25.244  25.500  1.00  0.00    -0.027 C 
ATOM      9  C   UNL A   1      30.882  25.031  25.086  1.00  0.00     0.045 C 
ATOM     10  C   UNL A   1      32.281  24.517  25.206  1.00  0.00    -0.039 C 
ATOM     11  C   UNL A   1      32.662  23.109  24.998  1.00  0.00    -0.014 C 
ATOM     12  C   UNL A   1      34.558  24.359  25.365  1.00  0.00    -0.011 A 
ATOM     13  C   UNL A   1      34.137  23.065  25.008  1.00  0.00    -0.010 A 
ATOM     14  C   UNL A   1      31.795  22.078  24.914  1.00  0.00     0.017 C 
ATOM     15  C   UNL A   1      35.910  24.653  25.497  1.00  0.00     0.048 A 
ATOM     16  C   UNL A   1      35.070  22.076  24.720  1.00  0.00     0.012 A 
ATOM     17  C   UNL A   1      36.832  23.639  25.260  1.00  0.00     0.123 A 
ATOM     18  C   UNL A   1      36.427  22.364  24.866  1.00  0.00     0.040 A 
ATOM     19  F   UNL A   1      38.140  23.896  25.393  1.00  0.00    -0.207 F 
BRANCH  14  20
ATOM     20  C   UNL A   1      32.157  20.663  24.781  1.00  0.00    -0.025 A 
ATOM     21  C   UNL A   1      32.488  19.886  25.898  1.00  0.00     0.013 A 
ATOM     22  C   UNL A   1      32.267  20.112  23.503  1.00  0.00     0.013 A 
ATOM     23  C   UNL A   1      33.049  18.615  25.728  1.00  0.00     0.061 A 
ATOM     24  C   UNL A   1      32.804  18.834  23.336  1.00  0.00     0.061 A 
ATOM     25  C   UNL A   1      33.236  18.091  24.442  1.00  0.00     0.152 A 
BRANCH  25  26
ATOM     26  S   UNL A   1      34.183  16.571  24.175  1.00  0.00    -0.018 S 
ATOM     27  C   UNL A   1      33.137  15.394  25.051  1.00  0.00     0.346 C 
ATOM     28  O   UNL A   1      34.100  16.243  22.642  1.00  0.00    -0.612 OA
ENDBRANCH  25  26
ENDBRANCH  14  20
ENDBRANCH   7   8
ENDBRANCH   4   7
ENDBRANCH   2   3
ENDBRANCH   1   2
BRANCH   1  29
ATOM     29  C   UNL A   1      32.018  31.476  26.884  1.00  0.00     0.023 C 
BRANCH  29  30
ATOM     30  C   UNL A   1      33.076  32.468  27.346  1.00  0.00     0.116 C 
BRANCH  30  31
ATOM     31  N   UNL A   1      32.557  33.799  27.628  1.00  0.00    -0.352 N 
ATOM     32  C   UNL A   1      33.034  34.724  28.531  1.00  0.00     0.251 C 
ATOM     33  H   UNL A   1      31.766  34.072  27.108  1.00  0.00     0.163 HD
ATOM     34  O   UNL A   1      32.438  35.779  28.720  1.00  0.00    -0.269 OA
BRANCH  32  35
ATOM     35  C   UNL A   1      34.243  34.400  29.318  1.00  0.00     0.039 A 
ATOM     36  C   UNL A   1      35.514  34.622  28.786  1.00  0.00     0.014 A 
ATOM     37  C   UNL A   1      34.096  33.785  30.564  1.00  0.00     0.014 A 
ATOM     38  C   UNL A   1      36.622  34.058  29.406  1.00  0.00     0.010 A 
ATOM     39  C   UNL A   1      35.223  33.290  31.227  1.00  0.00     0.010 A 
ATOM     40  C   UNL A   1      36.486  33.362  30.619  1.00  0.00    -0.014 A 
BRANCH  40  41
ATOM     41  C   UNL A   1      37.670  32.675  31.195  1.00  0.00     0.031 A 
ATOM     42  C   UNL A   1      38.151  33.011  32.581  1.00  0.00     0.074 A 
ATOM     43  C   UNL A   1      38.256  31.678  30.505  1.00  0.00     0.049 A 
ATOM     44  N   UNL A   1      39.125  32.473  33.272  1.00  0.00    -0.248 NA
ATOM     45  C   UNL A   1      37.448  34.095  33.287  1.00  0.00     0.031 C 
ATOM     46  C   UNL A   1      37.868  31.244  29.163  1.00  0.00     0.029 A 
ATOM     47  N   UNL A   1      39.273  30.825  30.851  1.00  0.00    -0.354 N 
ATOM     48  C   UNL A   1      39.163  33.160  34.479  1.00  0.00     0.074 A 
ATOM     49  C   UNL A   1      38.136  34.177  34.419  1.00  0.00     0.031 C 
ATOM     50  C   UNL A   1      38.590  30.166  28.826  1.00  0.00     0.029 A 
ATOM     51  C   UNL A   1      39.530  29.867  29.903  1.00  0.00     0.049 A 
ATOM     52  H   UNL A   1      39.771  30.893  31.699  1.00  0.00     0.167 HD
ATOM     53  C   UNL A   1      39.968  32.950  35.548  1.00  0.00     0.037 A 
ATOM     54  C   UNL A   1      40.423  28.860  29.899  1.00  0.00     0.037 A 
ATOM     55  C   UNL A   1      40.968  31.919  35.623  1.00  0.00     0.049 A 
ATOM     56  C   UNL A   1      41.337  28.680  31.076  1.00  0.00     0.074 A 
ATOM     57  C   UNL A   1      41.810  31.609  36.677  1.00  0.00     0.029 A 
ATOM     58  N   UNL A   1      41.259  31.025  34.603  1.00  0.00    -0.354 N 
ATOM     59  N   UNL A   1      41.362  29.337  32.210  1.00  0.00    -0.248 NA
ATOM     60  C   UNL A   1      42.359  27.630  30.967  1.00  0.00     0.031 C 
ATOM     61  C   UNL A   1      42.636  30.553  36.281  1.00  0.00     0.029 A 
ATOM     62  C   UNL A   1      42.285  30.180  34.994  1.00  0.00     0.049 A 
ATOM     63  H   UNL A   1      40.804  30.996  33.730  1.00  0.00     0.167 HD
ATOM     64  C   UNL A   1      42.399  28.785  32.946  1.00  0.00     0.074 A 
ATOM     65  C   UNL A   1      42.964  27.721  32.143  1.00  0.00     0.031 C 
ATOM     66  C   UNL A   1      42.847  29.137  34.176  1.00  0.00     0.037 A 
BRANCH  53  67
ATOM     67  C   UNL A   1      39.808  33.861  36.730  1.00  0.00     0.064 A 
ATOM     68  C   UNL A   1      40.455  35.104  36.792  1.00  0.00     0.173 A 
ATOM     69  C   UNL A   1      38.958  33.507  37.789  1.00  0.00     0.173 A 
ATOM     70  F   UNL A   1      41.288  35.480  35.810  1.00  0.00    -0.203 F 
ATOM     71  C   UNL A   1      40.270  35.953  37.880  1.00  0.00     0.198 A 
ATOM     72  C   UNL A   1      38.758  34.370  38.864  1.00  0.00     0.198 A 
ATOM     73  F   UNL A   1      38.313  32.332  37.774  1.00  0.00    -0.203 F 
ATOM     74  F   UNL A   1      40.927  37.120  37.936  1.00  0.00    -0.200 F 
ATOM     75  C   UNL A   1      39.416  35.588  38.911  1.00  0.00     0.200 A 
ATOM     76  F   UNL A   1      37.925  34.020  39.855  1.00  0.00    -0.200 F 
ATOM     77  F   UNL A   1      39.235  36.410  39.954  1.00  0.00    -0.200 F 
ENDBRANCH  53  67
BRANCH  54  78
ATOM     78  C   UNL A   1      40.481  27.942  28.734  1.00  0.00     0.064 A 
ATOM     79  C   UNL A   1      41.240  28.268  27.603  1.00  0.00     0.173 A 
ATOM     80  C   UNL A   1      39.816  26.708  28.746  1.00  0.00     0.173 A 
ATOM     81  F   UNL A   1      41.876  29.447  27.541  1.00  0.00    -0.203 F 
ATOM     82  C   UNL A   1      41.336  27.390  26.526  1.00  0.00     0.198 A 
ATOM     83  C   UNL A   1      39.932  25.820  27.678  1.00  0.00     0.198 A 
ATOM     84  F   UNL A   1      39.079  26.352  29.808  1.00  0.00    -0.203 F 
ATOM     85  F   UNL A   1      42.053  27.732  25.447  1.00  0.00    -0.200 F 
ATOM     86  C   UNL A   1      40.690  26.162  26.569  1.00  0.00     0.200 A 
ATOM     87  F   UNL A   1      39.318  24.630  27.730  1.00  0.00    -0.200 F 
ATOM     88  F   UNL A   1      40.797  25.311  25.541  1.00  0.00    -0.200 F 
ENDBRANCH  54  78
BRANCH  66  89
ATOM     89  C   UNL A   1      44.018  28.379  34.724  1.00  0.00     0.064 A 
ATOM     90  C   UNL A   1      43.838  27.180  35.428  1.00  0.00     0.173 A 
ATOM     91  C   UNL A   1      45.330  28.818  34.490  1.00  0.00     0.173 A 
ATOM     92  F   UNL A   1      42.602  26.729  35.688  1.00  0.00    -0.203 F 
ATOM     93  C   UNL A   1      44.932  26.451  35.887  1.00  0.00     0.198 A 
ATOM     94  C   UNL A   1      46.421  28.075  34.932  1.00  0.00     0.198 A 
ATOM     95  F   UNL A   1      45.552  29.957  33.818  1.00  0.00    -0.203 F 
ATOM     96  F   UNL A   1      44.737  25.322  36.581  1.00  0.00    -0.200 F 
ATOM     97  C   UNL A   1      46.221  26.894  35.631  1.00  0.00     0.200 A 
ATOM     98  F   UNL A   1      47.666  28.498  34.675  1.00  0.00    -0.200 F 
ATOM     99  F   UNL A   1      47.272  26.184  36.063  1.00  0.00    -0.200 F 
ENDBRANCH  66  89
ENDBRANCH  40  41
ENDBRANCH  32  35
ENDBRANCH  30  31
ENDBRANCH  29  30
ENDBRANCH   1  29
TORSDOF 14
ENDMDL
