MODEL 1
REMARK VINA RESULT:     -11.9      0.000      0.000
REMARK SMILES CC[NH2+][C@@]1(C(=O)NCCCCNC(=O)c2ccc(-c3c4nc(c(-c5c(F)c(F)c(F)c(F)c5F)c5ccc([nH]5)c(-c5c(F)c(F)c(F)c(F)c5F)c5nc(c(-c6c(F)c(F)c(F)c(F)c6F)c6ccc3[nH]6)C=C5)C=C4)cc2)CCC[C@H]1CCN1C(=O)CCC1=O
REMARK SMILES IDX 9 1 8 2 7 3 5 4 6 5 4 7 78 8 81 9 79 10 80 11 3 12 2 15 1 16
REMARK SMILES IDX 82 17 83 18 84 19 85 20 89 21 86 22 87 23 88 24 90 25 10 26
REMARK SMILES IDX 11 27 12 28 13 29 14 31 15 32 16 33 77 34 17 35 76 36 18 37
REMARK SMILES IDX 19 38 20 39 70 40 21 41 75 42 69 43 71 44 22 45 74 46 68 47
REMARK SMILES IDX 67 48 23 50 55 51 35 52 54 53 36 54 39 55 53 56 72 57 37 58
REMARK SMILES IDX 38 59 52 61 73 62 40 63 24 64 25 65 33 66 26 67 27 68 31 69
REMARK SMILES IDX 34 70 28 71 29 72 32 73 30 74 56 75 57 76 65 77 58 78 59 79
REMARK SMILES IDX 63 80 66 81 60 82 61 83 64 84 62 85 41 86 42 87 50 88 43 89
REMARK SMILES IDX 44 90 48 91 51 92 45 93 46 94 49 95 47 96
REMARK H PARENT 7 6 3 13 3 14 12 30 71 49 39 60
REMARK Flexibility Score: inf
ROOT
ATOM      1  C   UNL A   1      32.059  30.235  26.983  1.00  0.00     0.023 C 
ENDROOT
BRANCH   1   2
ATOM      2  C   UNL A   1      33.458  29.785  26.572  1.00  0.00     0.116 C 
BRANCH   2   3
ATOM      3  N   UNL A   1      33.612  29.778  25.142  1.00  0.00    -0.351 N 
ATOM      4  C   UNL A   1      33.316  28.890  24.167  1.00  0.00     0.281 C 
ATOM      5  O   UNL A   1      33.558  29.330  23.028  1.00  0.00    -0.268 OA
ATOM      6  H   UNL A   1      34.024  30.603  24.798  1.00  0.00     0.163 HD
BRANCH   4   7
ATOM      7  C   UNL A   1      32.702  27.402  24.331  1.00  0.00     0.178 C 
ATOM      8  C   UNL A   1      32.492  26.729  22.959  1.00  0.00     0.079 C 
ATOM      9  C   UNL A   1      31.264  27.483  25.011  1.00  0.00     0.062 C 
ATOM     10  C   UNL A   1      31.010  26.707  22.641  1.00  0.00     0.008 C 
ATOM     11  C   UNL A   1      30.284  27.369  23.797  1.00  0.00     0.011 C 
BRANCH   7  12
ATOM     12  N   UNL A   1      33.881  26.661  24.881  1.00  0.00    -0.334 N 
ATOM     13  H   UNL A   1      34.706  27.232  24.701  1.00  0.00     0.347 HD
ATOM     14  H   UNL A   1      33.644  26.508  25.861  1.00  0.00     0.347 HD
BRANCH  12  15
ATOM     15  C   UNL A   1      34.161  25.344  24.377  1.00  0.00     0.257 C 
ATOM     16  C   UNL A   1      34.979  24.495  25.336  1.00  0.00     0.071 C 
ENDBRANCH  12  15
ENDBRANCH   7  12
BRANCH   9  17
ATOM     17  C   UNL A   1      30.675  26.481  26.050  1.00  0.00     0.033 C 
BRANCH  17  18
ATOM     18  C   UNL A   1      30.072  25.101  25.718  1.00  0.00     0.129 C 
BRANCH  18  19
ATOM     19  N   UNL A   1      30.976  23.991  25.479  1.00  0.00    -0.283 N 
ATOM     20  C   UNL A   1      31.603  23.330  26.496  1.00  0.00     0.229 C 
ATOM     21  C   UNL A   1      31.084  23.322  24.292  1.00  0.00     0.229 C 
ATOM     22  O   UNL A   1      31.614  23.644  27.678  1.00  0.00    -0.274 OA
ATOM     23  C   UNL A   1      32.252  22.091  25.959  1.00  0.00     0.110 C 
ATOM     24  C   UNL A   1      31.935  22.104  24.481  1.00  0.00     0.110 C 
ATOM     25  O   UNL A   1      30.565  23.607  23.231  1.00  0.00    -0.274 OA
ENDBRANCH  18  19
ENDBRANCH  17  18
ENDBRANCH   9  17
ENDBRANCH   4   7
ENDBRANCH   2   3
ENDBRANCH   1   2
BRANCH   1  26
ATOM     26  C   UNL A   1      31.820  31.735  26.819  1.00  0.00     0.023 C 
BRANCH  26  27
ATOM     27  C   UNL A   1      32.910  32.621  27.410  1.00  0.00     0.116 C 
BRANCH  27  28
ATOM     28  N   UNL A   1      32.493  34.001  27.621  1.00  0.00    -0.352 N 
ATOM     29  C   UNL A   1      32.988  34.902  28.535  1.00  0.00     0.251 C 
ATOM     30  H   UNL A   1      31.769  34.328  27.040  1.00  0.00     0.163 HD
ATOM     31  O   UNL A   1      32.472  36.002  28.686  1.00  0.00    -0.269 OA
BRANCH  29  32
ATOM     32  C   UNL A   1      34.135  34.491  29.365  1.00  0.00     0.039 A 
ATOM     33  C   UNL A   1      33.897  33.875  30.594  1.00  0.00     0.014 A 
ATOM     34  C   UNL A   1      35.435  34.619  28.869  1.00  0.00     0.014 A 
ATOM     35  C   UNL A   1      34.965  33.318  31.295  1.00  0.00     0.010 A 
ATOM     36  C   UNL A   1      36.480  33.979  29.520  1.00  0.00     0.010 A 
ATOM     37  C   UNL A   1      36.257  33.326  30.742  1.00  0.00    -0.014 A 
BRANCH  37  38
ATOM     38  C   UNL A   1      37.393  32.662  31.430  1.00  0.00     0.031 A 
ATOM     39  C   UNL A   1      38.101  31.514  30.767  1.00  0.00     0.074 A 
ATOM     40  C   UNL A   1      37.744  33.051  32.671  1.00  0.00     0.049 A 
ATOM     41  N   UNL A   1      39.077  30.770  31.221  1.00  0.00    -0.248 NA
ATOM     42  C   UNL A   1      37.628  31.131  29.427  1.00  0.00     0.031 C 
ATOM     43  C   UNL A   1      37.098  34.117  33.441  1.00  0.00     0.029 A 
ATOM     44  N   UNL A   1      38.729  32.590  33.509  1.00  0.00    -0.354 N 
ATOM     45  C   UNL A   1      39.324  29.830  30.229  1.00  0.00     0.074 A 
ATOM     46  C   UNL A   1      38.350  30.049  29.183  1.00  0.00     0.031 C 
ATOM     47  C   UNL A   1      37.727  34.252  34.619  1.00  0.00     0.029 A 
ATOM     48  C   UNL A   1      38.790  33.256  34.708  1.00  0.00     0.049 A 
ATOM     49  H   UNL A   1      39.335  31.851  33.271  1.00  0.00     0.167 HD
ATOM     50  C   UNL A   1      40.298  28.890  30.179  1.00  0.00     0.037 A 
ATOM     51  C   UNL A   1      39.610  33.078  35.761  1.00  0.00     0.037 A 
ATOM     52  C   UNL A   1      41.275  28.688  31.214  1.00  0.00     0.049 A 
ATOM     53  C   UNL A   1      40.667  32.008  35.692  1.00  0.00     0.074 A 
ATOM     54  C   UNL A   1      42.333  27.797  31.241  1.00  0.00     0.029 A 
ATOM     55  N   UNL A   1      41.307  29.383  32.415  1.00  0.00    -0.354 N 
ATOM     56  N   UNL A   1      40.942  31.176  34.717  1.00  0.00    -0.248 NA
ATOM     57  C   UNL A   1      41.533  31.857  36.870  1.00  0.00     0.031 C 
ATOM     58  C   UNL A   1      42.970  27.913  32.480  1.00  0.00     0.029 A 
ATOM     59  C   UNL A   1      42.351  28.923  33.200  1.00  0.00     0.049 A 
ATOM     60  H   UNL A   1      40.681  30.098  32.670  1.00  0.00     0.167 HD
ATOM     61  C   UNL A   1      42.031  30.429  35.146  1.00  0.00     0.074 A 
ATOM     62  C   UNL A   1      42.376  30.918  36.465  1.00  0.00     0.031 C 
ATOM     63  C   UNL A   1      42.687  29.429  34.508  1.00  0.00     0.037 A 
BRANCH  50  64
ATOM     64  C   UNL A   1      40.349  28.014  28.958  1.00  0.00     0.064 A 
ATOM     65  C   UNL A   1      41.098  28.370  27.825  1.00  0.00     0.173 A 
ATOM     66  C   UNL A   1      39.657  26.794  28.927  1.00  0.00     0.173 A 
ATOM     67  F   UNL A   1      41.769  29.531  27.797  1.00  0.00    -0.203 F 
ATOM     68  C   UNL A   1      41.118  27.559  26.693  1.00  0.00     0.198 A 
ATOM     69  C   UNL A   1      39.709  25.968  27.807  1.00  0.00     0.198 A 
ATOM     70  F   UNL A   1      38.929  26.401  29.984  1.00  0.00    -0.203 F 
ATOM     71  F   UNL A   1      41.787  27.953  25.601  1.00  0.00    -0.200 F 
ATOM     72  C   UNL A   1      40.430  26.355  26.688  1.00  0.00     0.200 A 
ATOM     73  F   UNL A   1      39.056  24.798  27.810  1.00  0.00    -0.200 F 
ATOM     74  F   UNL A   1      40.454  25.573  25.601  1.00  0.00    -0.200 F 
ENDBRANCH  50  64
BRANCH  51  75
ATOM     75  C   UNL A   1      39.489  33.951  36.960  1.00  0.00     0.064 A 
ATOM     76  C   UNL A   1      40.142  35.192  37.016  1.00  0.00     0.173 A 
ATOM     77  C   UNL A   1      38.735  33.563  38.078  1.00  0.00     0.173 A 
ATOM     78  F   UNL A   1      40.890  35.601  35.980  1.00  0.00    -0.203 F 
ATOM     79  C   UNL A   1      40.068  35.996  38.151  1.00  0.00     0.198 A 
ATOM     80  C   UNL A   1      38.636  34.382  39.200  1.00  0.00     0.198 A 
ATOM     81  F   UNL A   1      38.086  32.390  38.076  1.00  0.00    -0.203 F 
ATOM     82  F   UNL A   1      40.745  37.151  38.196  1.00  0.00    -0.200 F 
ATOM     83  C   UNL A   1      39.311  35.593  39.240  1.00  0.00     0.200 A 
ATOM     84  F   UNL A   1      37.889  33.997  40.244  1.00  0.00    -0.200 F 
ATOM     85  F   UNL A   1      39.237  36.367  40.332  1.00  0.00    -0.200 F 
ENDBRANCH  51  75
BRANCH  63  86
ATOM     86  C   UNL A   1      43.876  28.828  35.204  1.00  0.00     0.064 A 
ATOM     87  C   UNL A   1      45.173  29.328  35.021  1.00  0.00     0.173 A 
ATOM     88  C   UNL A   1      43.705  27.759  36.097  1.00  0.00     0.173 A 
ATOM     89  F   UNL A   1      45.394  30.339  34.168  1.00  0.00    -0.203 F 
ATOM     90  C   UNL A   1      46.260  28.759  35.682  1.00  0.00     0.198 A 
ATOM     91  C   UNL A   1      44.787  27.217  36.784  1.00  0.00     0.198 A 
ATOM     92  F   UNL A   1      42.484  27.247  36.315  1.00  0.00    -0.203 F 
ATOM     93  F   UNL A   1      47.497  29.216  35.447  1.00  0.00    -0.200 F 
ATOM     94  C   UNL A   1      46.064  27.711  36.568  1.00  0.00     0.200 A 
ATOM     95  F   UNL A   1      44.594  26.216  37.654  1.00  0.00    -0.200 F 
ATOM     96  F   UNL A   1      47.110  27.172  37.210  1.00  0.00    -0.200 F 
ENDBRANCH  63  86
ENDBRANCH  37  38
ENDBRANCH  29  32
ENDBRANCH  27  28
ENDBRANCH  26  27
ENDBRANCH   1  26
TORSDOF 16
ENDMDL
MODEL 2
REMARK VINA RESULT:     -11.9      0.890      7.364
REMARK SMILES CC[NH2+][C@@]1(C(=O)NCCCCNC(=O)c2ccc(-c3c4nc(c(-c5c(F)c(F)c(F)c(F)c5F)c5ccc([nH]5)c(-c5c(F)c(F)c(F)c(F)c5F)c5nc(c(-c6c(F)c(F)c(F)c(F)c6F)c6ccc3[nH]6)C=C5)C=C4)cc2)CCC[C@H]1CCN1C(=O)CCC1=O
REMARK SMILES IDX 9 1 8 2 7 3 5 4 6 5 4 7 78 8 81 9 79 10 80 11 3 12 2 15 1 16
REMARK SMILES IDX 82 17 83 18 84 19 85 20 89 21 86 22 87 23 88 24 90 25 10 26
REMARK SMILES IDX 11 27 12 28 13 29 14 31 15 32 16 33 77 34 17 35 76 36 18 37
REMARK SMILES IDX 19 38 20 39 70 40 21 41 75 42 69 43 71 44 22 45 74 46 68 47
REMARK SMILES IDX 67 48 23 50 55 51 35 52 54 53 36 54 39 55 53 56 72 57 37 58
REMARK SMILES IDX 38 59 52 61 73 62 40 63 24 64 25 65 33 66 26 67 27 68 31 69
REMARK SMILES IDX 34 70 28 71 29 72 32 73 30 74 56 75 57 76 65 77 58 78 59 79
REMARK SMILES IDX 63 80 66 81 60 82 61 83 64 84 62 85 41 86 42 87 50 88 43 89
REMARK SMILES IDX 44 90 48 91 51 92 45 93 46 94 49 95 47 96
REMARK H PARENT 7 6 3 13 3 14 12 30 71 49 39 60
REMARK Flexibility Score: inf
ROOT
ATOM      1  C   UNL A   1      31.899  30.392  26.805  1.00  0.00     0.023 C 
ENDROOT
BRANCH   1   2
ATOM      2  C   UNL A   1      33.209  29.889  26.205  1.00  0.00     0.116 C 
BRANCH   2   3
ATOM      3  N   UNL A   1      33.113  29.736  24.779  1.00  0.00    -0.351 N 
ATOM      4  C   UNL A   1      32.721  28.733  23.963  1.00  0.00     0.281 C 
ATOM      5  O   UNL A   1      32.729  29.060  22.761  1.00  0.00    -0.268 OA
ATOM      6  H   UNL A   1      33.397  30.542  24.288  1.00  0.00     0.163 HD
BRANCH   4   7
ATOM      7  C   UNL A   1      32.258  27.239  24.376  1.00  0.00     0.178 C 
ATOM      8  C   UNL A   1      32.875  26.814  25.724  1.00  0.00     0.079 C 
ATOM      9  C   UNL A   1      32.783  26.193  23.297  1.00  0.00     0.062 C 
ATOM     10  C   UNL A   1      33.977  25.805  25.466  1.00  0.00     0.008 C 
ATOM     11  C   UNL A   1      34.064  25.597  23.965  1.00  0.00     0.011 C 
BRANCH   7  12
ATOM     12  N   UNL A   1      30.822  27.470  24.734  1.00  0.00    -0.334 N 
ATOM     13  H   UNL A   1      30.491  26.630  25.208  1.00  0.00     0.347 HD
ATOM     14  H   UNL A   1      30.838  28.325  25.290  1.00  0.00     0.347 HD
BRANCH  12  15
ATOM     15  C   UNL A   1      29.888  27.755  23.679  1.00  0.00     0.257 C 
ATOM     16  C   UNL A   1      28.618  26.923  23.758  1.00  0.00     0.071 C 
ENDBRANCH  12  15
ENDBRANCH   7  12
BRANCH   9  17
ATOM     17  C   UNL A   1      32.021  24.934  22.782  1.00  0.00     0.033 C 
BRANCH  17  18
ATOM     18  C   UNL A   1      30.902  24.195  23.543  1.00  0.00     0.129 C 
BRANCH  18  19
ATOM     19  N   UNL A   1      31.241  23.505  24.775  1.00  0.00    -0.283 N 
ATOM     20  C   UNL A   1      32.190  22.525  24.824  1.00  0.00     0.229 C 
ATOM     21  C   UNL A   1      30.876  23.925  26.023  1.00  0.00     0.229 C 
ATOM     22  O   UNL A   1      32.760  22.008  23.874  1.00  0.00    -0.274 OA
ATOM     23  C   UNL A   1      32.492  22.196  26.254  1.00  0.00     0.110 C 
ATOM     24  C   UNL A   1      31.590  23.107  27.054  1.00  0.00     0.110 C 
ATOM     25  O   UNL A   1      30.124  24.836  26.308  1.00  0.00    -0.274 OA
ENDBRANCH  18  19
ENDBRANCH  17  18
ENDBRANCH   9  17
ENDBRANCH   4   7
ENDBRANCH   2   3
ENDBRANCH   1   2
BRANCH   1  26
ATOM     26  C   UNL A   1      31.715  31.905  26.701  1.00  0.00     0.023 C 
BRANCH  26  27
ATOM     27  C   UNL A   1      32.856  32.727  27.289  1.00  0.00     0.116 C 
BRANCH  27  28
ATOM     28  N   UNL A   1      32.485  34.099  27.612  1.00  0.00    -0.352 N 
ATOM     29  C   UNL A   1      33.033  34.918  28.572  1.00  0.00     0.251 C 
ATOM     30  H   UNL A   1      31.754  34.486  27.079  1.00  0.00     0.163 HD
ATOM     31  O   UNL A   1      32.553  36.017  28.817  1.00  0.00    -0.269 OA
BRANCH  29  32
ATOM     32  C   UNL A   1      34.192  34.417  29.333  1.00  0.00     0.039 A 
ATOM     33  C   UNL A   1      33.971  33.671  30.491  1.00  0.00     0.014 A 
ATOM     34  C   UNL A   1      35.484  34.598  28.834  1.00  0.00     0.014 A 
ATOM     35  C   UNL A   1      35.049  33.039  31.110  1.00  0.00     0.010 A 
ATOM     36  C   UNL A   1      36.537  33.890  29.394  1.00  0.00     0.010 A 
ATOM     37  C   UNL A   1      36.332  33.106  30.540  1.00  0.00    -0.014 A 
BRANCH  37  38
ATOM     38  C   UNL A   1      37.477  32.371  31.134  1.00  0.00     0.031 A 
ATOM     39  C   UNL A   1      37.973  32.740  32.504  1.00  0.00     0.074 A 
ATOM     40  C   UNL A   1      38.105  31.418  30.418  1.00  0.00     0.049 A 
ATOM     41  N   UNL A   1      38.987  32.258  33.175  1.00  0.00    -0.248 NA
ATOM     42  C   UNL A   1      37.252  33.817  33.200  1.00  0.00     0.031 C 
ATOM     43  C   UNL A   1      37.751  31.008  29.057  1.00  0.00     0.029 A 
ATOM     44  N   UNL A   1      39.180  30.624  30.733  1.00  0.00    -0.354 N 
ATOM     45  C   UNL A   1      39.029  32.978  34.362  1.00  0.00     0.074 A 
ATOM     46  C   UNL A   1      37.988  33.979  34.288  1.00  0.00     0.031 C 
ATOM     47  C   UNL A   1      38.567  30.015  28.671  1.00  0.00     0.029 A 
ATOM     48  C   UNL A   1      39.530  29.748  29.735  1.00  0.00     0.049 A 
ATOM     49  H   UNL A   1      39.654  30.678  31.595  1.00  0.00     0.167 HD
ATOM     50  C   UNL A   1      39.840  32.800  35.431  1.00  0.00     0.037 A 
ATOM     51  C   UNL A   1      40.518  28.835  29.686  1.00  0.00     0.037 A 
ATOM     52  C   UNL A   1      40.864  31.792  35.505  1.00  0.00     0.049 A 
ATOM     53  C   UNL A   1      41.426  28.675  30.878  1.00  0.00     0.074 A 
ATOM     54  C   UNL A   1      41.708  31.494  36.560  1.00  0.00     0.029 A 
ATOM     55  N   UNL A   1      41.188  30.920  34.475  1.00  0.00    -0.354 N 
ATOM     56  N   UNL A   1      41.407  29.309  32.025  1.00  0.00    -0.248 NA
ATOM     57  C   UNL A   1      42.488  27.666  30.769  1.00  0.00     0.031 C 
ATOM     58  C   UNL A   1      42.580  30.482  36.149  1.00  0.00     0.029 A 
ATOM     59  C   UNL A   1      42.238  30.103  34.861  1.00  0.00     0.049 A 
ATOM     60  H   UNL A   1      40.739  30.888  33.600  1.00  0.00     0.167 HD
ATOM     61  C   UNL A   1      42.426  28.754  32.786  1.00  0.00     0.074 A 
ATOM     62  C   UNL A   1      43.035  27.720  31.975  1.00  0.00     0.031 C 
ATOM     63  C   UNL A   1      42.824  29.070  34.044  1.00  0.00     0.037 A 
BRANCH  50  64
ATOM     64  C   UNL A   1      39.646  33.718  36.605  1.00  0.00     0.064 A 
ATOM     65  C   UNL A   1      40.269  34.975  36.670  1.00  0.00     0.173 A 
ATOM     66  C   UNL A   1      38.813  33.346  37.671  1.00  0.00     0.173 A 
ATOM     67  F   UNL A   1      41.086  35.376  35.684  1.00  0.00    -0.203 F 
ATOM     68  C   UNL A   1      40.098  35.805  37.775  1.00  0.00     0.198 A 
ATOM     69  C   UNL A   1      38.615  34.195  38.757  1.00  0.00     0.198 A 
ATOM     70  F   UNL A   1      38.188  32.159  37.659  1.00  0.00    -0.203 F 
ATOM     71  F   UNL A   1      40.755  36.971  37.842  1.00  0.00    -0.200 F 
ATOM     72  C   UNL A   1      39.265  35.418  38.814  1.00  0.00     0.200 A 
ATOM     73  F   UNL A   1      37.798  33.825  39.752  1.00  0.00    -0.200 F 
ATOM     74  F   UNL A   1      39.097  36.220  39.873  1.00  0.00    -0.200 F 
ENDBRANCH  50  64
BRANCH  51  75
ATOM     75  C   UNL A   1      40.688  27.978  28.482  1.00  0.00     0.064 A 
ATOM     76  C   UNL A   1      41.462  28.410  27.395  1.00  0.00     0.173 A 
ATOM     77  C   UNL A   1      40.071  26.722  28.382  1.00  0.00     0.173 A 
ATOM     78  F   UNL A   1      42.057  29.612  27.434  1.00  0.00    -0.203 F 
ATOM     79  C   UNL A   1      41.592  27.633  26.246  1.00  0.00     0.198 A 
ATOM     80  C   UNL A   1      40.227  25.931  27.245  1.00  0.00     0.198 A 
ATOM     81  F   UNL A   1      39.324  26.257  29.393  1.00  0.00    -0.203 F 
ATOM     82  F   UNL A   1      42.294  28.095  25.203  1.00  0.00    -0.200 F 
ATOM     83  C   UNL A   1      40.978  26.391  26.174  1.00  0.00     0.200 A 
ATOM     84  F   UNL A   1      39.647  24.724  27.187  1.00  0.00    -0.200 F 
ATOM     85  F   UNL A   1      41.104  25.642  25.071  1.00  0.00    -0.200 F 
ENDBRANCH  51  75
BRANCH  63  86
ATOM     86  C   UNL A   1      43.940  28.258  34.640  1.00  0.00     0.064 A 
ATOM     87  C   UNL A   1      45.281  28.659  34.543  1.00  0.00     0.173 A 
ATOM     88  C   UNL A   1      43.656  27.082  35.350  1.00  0.00     0.173 A 
ATOM     89  F   UNL A   1      45.608  29.767  33.863  1.00  0.00    -0.203 F 
ATOM     90  C   UNL A   1      46.298  27.893  35.109  1.00  0.00     0.198 A 
ATOM     91  C   UNL A   1      44.671  26.340  35.945  1.00  0.00     0.198 A 
ATOM     92  F   UNL A   1      42.390  26.658  35.479  1.00  0.00    -0.203 F 
ATOM     93  F   UNL A   1      47.576  28.265  34.955  1.00  0.00    -0.200 F 
ATOM     94  C   UNL A   1      45.992  26.740  35.816  1.00  0.00     0.200 A 
ATOM     95  F   UNL A   1      44.371  25.236  36.643  1.00  0.00    -0.200 F 
ATOM     96  F   UNL A   1      46.972  26.012  36.368  1.00  0.00    -0.200 F 
ENDBRANCH  63  86
ENDBRANCH  37  38
ENDBRANCH  29  32
ENDBRANCH  27  28
ENDBRANCH  26  27
ENDBRANCH   1  26
TORSDOF 16
ENDMDL
MODEL 3
REMARK VINA RESULT:     -11.9      0.670      2.450
REMARK SMILES CC[NH2+][C@@]1(C(=O)NCCCCNC(=O)c2ccc(-c3c4nc(c(-c5c(F)c(F)c(F)c(F)c5F)c5ccc([nH]5)c(-c5c(F)c(F)c(F)c(F)c5F)c5nc(c(-c6c(F)c(F)c(F)c(F)c6F)c6ccc3[nH]6)C=C5)C=C4)cc2)CCC[C@H]1CCN1C(=O)CCC1=O
REMARK SMILES IDX 9 1 8 2 7 3 5 4 6 5 4 7 78 8 81 9 79 10 80 11 3 12 2 15 1 16
REMARK SMILES IDX 82 17 83 18 84 19 85 20 89 21 86 22 87 23 88 24 90 25 10 26
REMARK SMILES IDX 11 27 12 28 13 29 14 31 15 32 16 33 77 34 17 35 76 36 18 37
REMARK SMILES IDX 19 38 20 39 70 40 21 41 75 42 69 43 71 44 22 45 74 46 68 47
REMARK SMILES IDX 67 48 23 50 55 51 35 52 54 53 36 54 39 55 53 56 72 57 37 58
REMARK SMILES IDX 38 59 52 61 73 62 40 63 24 64 25 65 33 66 26 67 27 68 31 69
REMARK SMILES IDX 34 70 28 71 29 72 32 73 30 74 56 75 57 76 65 77 58 78 59 79
REMARK SMILES IDX 63 80 66 81 60 82 61 83 64 84 62 85 41 86 42 87 50 88 43 89
REMARK SMILES IDX 44 90 48 91 51 92 45 93 46 94 49 95 47 96
REMARK H PARENT 7 6 3 13 3 14 12 30 71 49 39 60
REMARK Flexibility Score: inf
ROOT
ATOM      1  C   UNL A   1      32.068  30.217  26.841  1.00  0.00     0.023 C 
ENDROOT
BRANCH   1   2
ATOM      2  C   UNL A   1      33.503  29.836  26.488  1.00  0.00     0.116 C 
BRANCH   2   3
ATOM      3  N   UNL A   1      33.673  29.677  25.069  1.00  0.00    -0.351 N 
ATOM      4  C   UNL A   1      33.318  28.725  24.179  1.00  0.00     0.281 C 
ATOM      5  O   UNL A   1      33.610  29.030  23.007  1.00  0.00    -0.268 OA
ATOM      6  H   UNL A   1      34.156  30.429  24.655  1.00  0.00     0.163 HD
BRANCH   4   7
ATOM      7  C   UNL A   1      32.582  27.315  24.472  1.00  0.00     0.178 C 
ATOM      8  C   UNL A   1      33.044  26.710  25.814  1.00  0.00     0.079 C 
ATOM      9  C   UNL A   1      32.974  26.256  23.349  1.00  0.00     0.062 C 
ATOM     10  C   UNL A   1      33.966  25.539  25.536  1.00  0.00     0.008 C 
ATOM     11  C   UNL A   1      34.096  25.406  24.030  1.00  0.00     0.011 C 
BRANCH   7  12
ATOM     12  N   UNL A   1      31.190  27.773  24.784  1.00  0.00    -0.334 N 
ATOM     13  H   UNL A   1      30.650  26.946  25.034  1.00  0.00     0.347 HD
ATOM     14  H   UNL A   1      31.316  28.469  25.518  1.00  0.00     0.347 HD
BRANCH  12  15
ATOM     15  C   UNL A   1      30.452  28.469  23.765  1.00  0.00     0.257 C 
ATOM     16  C   UNL A   1      29.134  27.797  23.413  1.00  0.00     0.071 C 
ENDBRANCH  12  15
ENDBRANCH   7  12
BRANCH   9  17
ATOM     17  C   UNL A   1      32.034  25.183  22.721  1.00  0.00     0.033 C 
BRANCH  17  18
ATOM     18  C   UNL A   1      30.764  24.611  23.382  1.00  0.00     0.129 C 
BRANCH  18  19
ATOM     19  N   UNL A   1      30.908  23.828  24.596  1.00  0.00    -0.283 N 
ATOM     20  C   UNL A   1      31.670  22.696  24.646  1.00  0.00     0.229 C 
ATOM     21  C   UNL A   1      30.551  24.258  25.842  1.00  0.00     0.229 C 
ATOM     22  O   UNL A   1      32.196  22.123  23.702  1.00  0.00    -0.274 OA
ATOM     23  C   UNL A   1      31.829  22.265  26.072  1.00  0.00     0.110 C 
ATOM     24  C   UNL A   1      31.053  23.289  26.868  1.00  0.00     0.110 C 
ATOM     25  O   UNL A   1      29.952  25.274  26.132  1.00  0.00    -0.274 OA
ENDBRANCH  18  19
ENDBRANCH  17  18
ENDBRANCH   9  17
ENDBRANCH   4   7
ENDBRANCH   2   3
ENDBRANCH   1   2
BRANCH   1  26
ATOM     26  C   UNL A   1      31.799  31.720  26.792  1.00  0.00     0.023 C 
BRANCH  26  27
ATOM     27  C   UNL A   1      32.867  32.579  27.458  1.00  0.00     0.116 C 
BRANCH  27  28
ATOM     28  N   UNL A   1      32.468  33.969  27.647  1.00  0.00    -0.352 N 
ATOM     29  C   UNL A   1      32.983  34.881  28.538  1.00  0.00     0.251 C 
ATOM     30  H   UNL A   1      31.742  34.293  27.067  1.00  0.00     0.163 HD
ATOM     31  O   UNL A   1      32.482  35.989  28.673  1.00  0.00    -0.269 OA
BRANCH  29  32
ATOM     32  C   UNL A   1      34.134  34.471  29.365  1.00  0.00     0.039 A 
ATOM     33  C   UNL A   1      33.900  33.847  30.590  1.00  0.00     0.014 A 
ATOM     34  C   UNL A   1      35.432  34.612  28.868  1.00  0.00     0.014 A 
ATOM     35  C   UNL A   1      34.973  33.292  31.286  1.00  0.00     0.010 A 
ATOM     36  C   UNL A   1      36.482  33.974  29.514  1.00  0.00     0.010 A 
ATOM     37  C   UNL A   1      36.265  33.311  30.732  1.00  0.00    -0.014 A 
BRANCH  37  38
ATOM     38  C   UNL A   1      37.405  32.651  31.414  1.00  0.00     0.031 A 
ATOM     39  C   UNL A   1      38.110  31.501  30.751  1.00  0.00     0.074 A 
ATOM     40  C   UNL A   1      37.765  33.044  32.652  1.00  0.00     0.049 A 
ATOM     41  N   UNL A   1      39.089  30.758  31.200  1.00  0.00    -0.248 NA
ATOM     42  C   UNL A   1      37.627  31.113  29.416  1.00  0.00     0.031 C 
ATOM     43  C   UNL A   1      37.124  34.113  33.422  1.00  0.00     0.029 A 
ATOM     44  N   UNL A   1      38.756  32.587  33.484  1.00  0.00    -0.354 N 
ATOM     45  C   UNL A   1      39.330  29.815  30.210  1.00  0.00     0.074 A 
ATOM     46  C   UNL A   1      38.347  30.029  29.171  1.00  0.00     0.031 C 
ATOM     47  C   UNL A   1      37.761  34.253  34.595  1.00  0.00     0.029 A 
ATOM     48  C   UNL A   1      38.825  33.257  34.681  1.00  0.00     0.049 A 
ATOM     49  H   UNL A   1      39.361  31.847  33.245  1.00  0.00     0.167 HD
ATOM     50  C   UNL A   1      40.303  28.875  30.157  1.00  0.00     0.037 A 
ATOM     51  C   UNL A   1      39.653  33.084  35.728  1.00  0.00     0.037 A 
ATOM     52  C   UNL A   1      41.287  28.677  31.186  1.00  0.00     0.049 A 
ATOM     53  C   UNL A   1      40.710  32.014  35.656  1.00  0.00     0.074 A 
ATOM     54  C   UNL A   1      42.346  27.787  31.209  1.00  0.00     0.029 A 
ATOM     55  N   UNL A   1      41.328  29.377  32.384  1.00  0.00    -0.354 N 
ATOM     56  N   UNL A   1      40.978  31.178  34.682  1.00  0.00    -0.248 NA
ATOM     57  C   UNL A   1      41.584  31.868  36.828  1.00  0.00     0.031 C 
ATOM     58  C   UNL A   1      42.992  27.908  32.443  1.00  0.00     0.029 A 
ATOM     59  C   UNL A   1      42.378  28.920  33.164  1.00  0.00     0.049 A 
ATOM     60  H   UNL A   1      40.703  30.093  32.641  1.00  0.00     0.167 HD
ATOM     61  C   UNL A   1      42.071  30.434  35.106  1.00  0.00     0.074 A 
ATOM     62  C   UNL A   1      42.425  30.927  36.421  1.00  0.00     0.031 C 
ATOM     63  C   UNL A   1      42.723  29.431  34.467  1.00  0.00     0.037 A 
BRANCH  50  64
ATOM     64  C   UNL A   1      40.346  27.994  28.939  1.00  0.00     0.064 A 
ATOM     65  C   UNL A   1      39.657  26.773  28.888  1.00  0.00     0.173 A 
ATOM     66  C   UNL A   1      41.070  28.384  27.802  1.00  0.00     0.173 A 
ATOM     67  F   UNL A   1      38.959  26.345  29.951  1.00  0.00    -0.203 F 
ATOM     68  C   UNL A   1      39.724  25.956  27.762  1.00  0.00     0.198 A 
ATOM     69  C   UNL A   1      41.105  27.583  26.665  1.00  0.00     0.198 A 
ATOM     70  F   UNL A   1      41.744  29.545  27.794  1.00  0.00    -0.203 F 
ATOM     71  F   UNL A   1      39.110  24.764  27.763  1.00  0.00    -0.200 F 
ATOM     72  C   UNL A   1      40.442  26.365  26.648  1.00  0.00     0.200 A 
ATOM     73  F   UNL A   1      41.787  27.987  25.584  1.00  0.00    -0.200 F 
ATOM     74  F   UNL A   1      40.502  25.582  25.563  1.00  0.00    -0.200 F 
ENDBRANCH  50  64
BRANCH  51  75
ATOM     75  C   UNL A   1      39.540  33.962  36.925  1.00  0.00     0.064 A 
ATOM     76  C   UNL A   1      38.783  33.567  38.038  1.00  0.00     0.173 A 
ATOM     77  C   UNL A   1      40.170  35.214  36.978  1.00  0.00     0.173 A 
ATOM     78  F   UNL A   1      38.146  32.386  38.028  1.00  0.00    -0.203 F 
ATOM     79  C   UNL A   1      38.638  34.401  39.144  1.00  0.00     0.198 A 
ATOM     80  C   UNL A   1      40.050  36.033  38.099  1.00  0.00     0.198 A 
ATOM     81  F   UNL A   1      40.911  35.639  35.945  1.00  0.00    -0.203 F 
ATOM     82  F   UNL A   1      37.865  34.019  40.170  1.00  0.00    -0.200 F 
ATOM     83  C   UNL A   1      39.276  35.631  39.177  1.00  0.00     0.200 A 
ATOM     84  F   UNL A   1      40.683  37.214  38.133  1.00  0.00    -0.200 F 
ATOM     85  F   UNL A   1      39.139  36.432  40.242  1.00  0.00    -0.200 F 
ENDBRANCH  51  75
BRANCH  63  86
ATOM     86  C   UNL A   1      43.916  28.833  35.157  1.00  0.00     0.064 A 
ATOM     87  C   UNL A   1      43.801  27.721  36.005  1.00  0.00     0.173 A 
ATOM     88  C   UNL A   1      45.198  29.359  34.935  1.00  0.00     0.173 A 
ATOM     89  F   UNL A   1      42.597  27.189  36.262  1.00  0.00    -0.203 F 
ATOM     90  C   UNL A   1      44.923  27.179  36.630  1.00  0.00     0.198 A 
ATOM     91  C   UNL A   1      46.320  28.792  35.531  1.00  0.00     0.198 A 
ATOM     92  F   UNL A   1      45.365  30.417  34.127  1.00  0.00    -0.203 F 
ATOM     93  F   UNL A   1      44.781  26.153  37.480  1.00  0.00    -0.200 F 
ATOM     94  C   UNL A   1      46.180  27.709  36.385  1.00  0.00     0.200 A 
ATOM     95  F   UNL A   1      47.537  29.294  35.280  1.00  0.00    -0.200 F 
ATOM     96  F   UNL A   1      47.258  27.179  36.980  1.00  0.00    -0.200 F 
ENDBRANCH  63  86
ENDBRANCH  37  38
ENDBRANCH  29  32
ENDBRANCH  27  28
ENDBRANCH  26  27
ENDBRANCH   1  26
TORSDOF 16
ENDMDL
