MODEL 1
REMARK VINA RESULT:     -10.6      0.000      0.000
REMARK SMILES C[C@H](Cc1cccs1)N(C)C(=O)N1CC[C@@H](CC(=O)NCCCCNC(=O)c2ccc(-c3c4nc(c(-c5c(F)c(F)c(F)c(F)c5F)c5ccc([nH]5)c(-c5c(F)c(F)c(F)c(F)c5F)c5nc(c(-c6c(F)c(F)c(F)c(F)c6F)c6ccc3[nH]6)C=C5)C=C4)cc2)C1
REMARK SMILES IDX 18 1 19 2 20 3 17 5 16 6 13 7 14 8 91 9 15 10 11 11 12 12
REMARK SMILES IDX 9 13 10 14 2 15 1 16 3 17 4 18 5 19 8 20 6 21 7 22 21 23
REMARK SMILES IDX 22 24 23 25 24 26 25 27 26 28 27 30 28 31 29 32 90 33 30 34
REMARK SMILES IDX 89 35 31 36 32 37 33 38 83 39 34 40 88 41 82 42 84 43 35 44
REMARK SMILES IDX 87 45 81 46 80 47 36 49 68 50 48 51 67 52 49 53 52 54 66 55
REMARK SMILES IDX 85 56 50 57 51 58 65 60 86 61 53 62 37 63 38 64 46 65 39 66
REMARK SMILES IDX 40 67 44 68 47 69 41 70 42 71 45 72 43 73 69 74 70 75 78 76
REMARK SMILES IDX 71 77 72 78 76 79 79 80 73 81 74 82 77 83 75 84 54 85 55 86
REMARK SMILES IDX 63 87 56 88 57 89 61 90 64 91 58 92 59 93 62 94 60 95
REMARK H PARENT 20 4 25 29 84 48 52 59
REMARK Flexibility Score: inf
ROOT
ATOM      1  C   UNL A   1      34.990  29.812  27.604  1.00  0.00     0.220 C 
ATOM      2  O   UNL A   1      36.098  29.284  27.493  1.00  0.00    -0.275 OA
ATOM      3  N   UNL A   1      34.950  31.100  28.059  1.00  0.00    -0.356 N 
ATOM      4  H   UNL A   1      35.830  31.468  28.305  1.00  0.00     0.163 HD
ENDROOT
BRANCH   1   5
ATOM      5  C   UNL A   1      33.721  29.039  27.258  1.00  0.00     0.105 C 
BRANCH   5   6
ATOM      6  C   UNL A   1      33.694  28.174  25.978  1.00  0.00     0.020 C 
ATOM      7  N   UNL A   1      32.754  25.983  25.756  1.00  0.00    -0.324 N 
ATOM      8  C   UNL A   1      31.686  26.921  25.980  1.00  0.00     0.122 C 
ATOM      9  C   UNL A   1      34.005  26.668  26.144  1.00  0.00     0.125 C 
ATOM     10  C   UNL A   1      32.334  28.116  25.301  1.00  0.00     0.027 C 
BRANCH   7  11
ATOM     11  C   UNL A   1      32.817  24.853  24.978  1.00  0.00     0.320 C 
ATOM     12  O   UNL A   1      33.281  24.964  23.844  1.00  0.00    -0.248 OA
BRANCH  11  13
ATOM     13  N   UNL A   1      32.369  23.628  25.445  1.00  0.00    -0.325 N 
ATOM     14  C   UNL A   1      30.971  23.240  25.550  1.00  0.00     0.149 C 
BRANCH  13  15
ATOM     15  C   UNL A   1      33.331  22.566  25.855  1.00  0.00     0.088 C 
ATOM     16  C   UNL A   1      34.154  22.995  27.075  1.00  0.00     0.031 C 
BRANCH  15  17
ATOM     17  C   UNL A   1      34.132  21.821  24.760  1.00  0.00     0.071 C 
BRANCH  17  18
ATOM     18  C   UNL A   1      33.979  20.328  24.610  1.00  0.00     0.007 A 
ATOM     19  C   UNL A   1      34.886  19.294  24.743  1.00  0.00     0.015 A 
ATOM     20  S   UNL A   1      32.444  19.731  24.102  1.00  0.00    -0.149 S 
ATOM     21  C   UNL A   1      34.347  18.034  24.355  1.00  0.00     0.012 A 
ATOM     22  C   UNL A   1      33.031  18.134  23.972  1.00  0.00     0.065 A 
ENDBRANCH  17  18
ENDBRANCH  15  17
ENDBRANCH  13  15
ENDBRANCH  11  13
ENDBRANCH   7  11
ENDBRANCH   5   6
ENDBRANCH   1   5
BRANCH   3  23
ATOM     23  C   UNL A   1      33.843  32.025  28.244  1.00  0.00     0.116 C 
BRANCH  23  24
ATOM     24  C   UNL A   1      34.304  33.447  28.619  1.00  0.00     0.023 C 
BRANCH  24  25
ATOM     25  C   UNL A   1      33.220  34.507  28.636  1.00  0.00     0.023 C 
BRANCH  25  26
ATOM     26  C   UNL A   1      33.647  35.790  29.308  1.00  0.00     0.116 C 
BRANCH  26  27
ATOM     27  N   UNL A   1      32.725  36.188  30.366  1.00  0.00    -0.352 N 
ATOM     28  C   UNL A   1      32.694  35.786  31.678  1.00  0.00     0.251 C 
ATOM     29  H   UNL A   1      32.030  36.833  30.104  1.00  0.00     0.163 HD
ATOM     30  O   UNL A   1      31.723  36.031  32.386  1.00  0.00    -0.269 OA
BRANCH  28  31
ATOM     31  C   UNL A   1      33.846  35.041  32.214  1.00  0.00     0.039 A 
ATOM     32  C   UNL A   1      33.709  33.689  32.528  1.00  0.00     0.014 A 
ATOM     33  C   UNL A   1      35.079  35.682  32.341  1.00  0.00     0.014 A 
ATOM     34  C   UNL A   1      34.837  32.964  32.909  1.00  0.00     0.010 A 
ATOM     35  C   UNL A   1      36.216  34.933  32.584  1.00  0.00     0.010 A 
ATOM     36  C   UNL A   1      36.103  33.574  32.899  1.00  0.00    -0.014 A 
BRANCH  36  37
ATOM     37  C   UNL A   1      37.331  32.829  33.258  1.00  0.00     0.031 A 
ATOM     38  C   UNL A   1      38.022  33.130  34.558  1.00  0.00     0.074 A 
ATOM     39  C   UNL A   1      37.858  31.953  32.383  1.00  0.00     0.049 A 
ATOM     40  N   UNL A   1      39.144  32.652  35.030  1.00  0.00    -0.248 NA
ATOM     41  C   UNL A   1      37.392  34.141  35.424  1.00  0.00     0.031 C 
ATOM     42  C   UNL A   1      37.302  31.627  31.069  1.00  0.00     0.029 A 
ATOM     43  N   UNL A   1      38.984  31.176  32.470  1.00  0.00    -0.354 N 
ATOM     44  C   UNL A   1      39.360  33.321  36.228  1.00  0.00     0.074 A 
ATOM     45  C   UNL A   1      38.301  34.290  36.373  1.00  0.00     0.031 C 
ATOM     46  C   UNL A   1      38.062  30.683  30.492  1.00  0.00     0.029 A 
ATOM     47  C   UNL A   1      39.181  30.371  31.375  1.00  0.00     0.049 A 
ATOM     48  H   UNL A   1      39.593  31.194  33.242  1.00  0.00     0.167 HD
ATOM     49  C   UNL A   1      40.339  33.120  37.141  1.00  0.00     0.037 A 
ATOM     50  C   UNL A   1      40.158  29.481  31.122  1.00  0.00     0.037 A 
ATOM     51  C   UNL A   1      41.368  32.124  36.998  1.00  0.00     0.049 A 
ATOM     52  C   UNL A   1      41.239  29.280  32.149  1.00  0.00     0.074 A 
ATOM     53  C   UNL A   1      42.361  31.775  37.893  1.00  0.00     0.029 A 
ATOM     54  N   UNL A   1      41.534  31.323  35.877  1.00  0.00    -0.354 N 
ATOM     55  N   UNL A   1      41.388  29.851  33.319  1.00  0.00    -0.248 NA
ATOM     56  C   UNL A   1      42.287  28.306  31.818  1.00  0.00     0.031 C 
ATOM     57  C   UNL A   1      43.167  30.805  37.289  1.00  0.00     0.029 A 
ATOM     58  C   UNL A   1      42.638  30.502  36.044  1.00  0.00     0.049 A 
ATOM     59  H   UNL A   1      40.954  31.335  35.082  1.00  0.00     0.167 HD
ATOM     60  C   UNL A   1      42.523  29.283  33.880  1.00  0.00     0.074 A 
ATOM     61  C   UNL A   1      43.017  28.313  32.924  1.00  0.00     0.031 C 
ATOM     62  C   UNL A   1      43.105  29.538  35.079  1.00  0.00     0.037 A 
BRANCH  49  63
ATOM     63  C   UNL A   1      40.340  33.998  38.360  1.00  0.00     0.064 A 
ATOM     64  C   UNL A   1      41.090  35.184  38.422  1.00  0.00     0.173 A 
ATOM     65  C   UNL A   1      39.584  33.645  39.487  1.00  0.00     0.173 A 
ATOM     66  F   UNL A   1      41.845  35.562  37.380  1.00  0.00    -0.203 F 
ATOM     67  C   UNL A   1      41.118  35.956  39.581  1.00  0.00     0.198 A 
ATOM     68  C   UNL A   1      39.583  34.441  40.630  1.00  0.00     0.198 A 
ATOM     69  F   UNL A   1      38.846  32.524  39.484  1.00  0.00    -0.203 F 
ATOM     70  F   UNL A   1      41.900  37.043  39.640  1.00  0.00    -0.200 F 
ATOM     71  C   UNL A   1      40.361  35.587  40.681  1.00  0.00     0.200 A 
ATOM     72  F   UNL A   1      38.839  34.089  41.688  1.00  0.00    -0.200 F 
ATOM     73  F   UNL A   1      40.388  36.331  41.795  1.00  0.00    -0.200 F 
ENDBRANCH  49  63
BRANCH  50  74
ATOM     74  C   UNL A   1      40.125  28.677  29.872  1.00  0.00     0.064 A 
ATOM     75  C   UNL A   1      39.492  27.425  29.845  1.00  0.00     0.173 A 
ATOM     76  C   UNL A   1      40.713  29.135  28.685  1.00  0.00     0.173 A 
ATOM     77  F   UNL A   1      38.928  26.938  30.960  1.00  0.00    -0.203 F 
ATOM     78  C   UNL A   1      39.465  26.656  28.685  1.00  0.00     0.198 A 
ATOM     79  C   UNL A   1      40.660  28.377  27.517  1.00  0.00     0.198 A 
ATOM     80  F   UNL A   1      41.324  30.329  28.654  1.00  0.00    -0.203 F 
ATOM     81  F   UNL A   1      38.889  25.447  28.700  1.00  0.00    -0.200 F 
ATOM     82  C   UNL A   1      40.044  27.134  27.520  1.00  0.00     0.200 A 
ATOM     83  F   UNL A   1      41.205  28.850  26.388  1.00  0.00    -0.200 F 
ATOM     84  F   UNL A   1      40.012  26.397  26.402  1.00  0.00    -0.200 F 
ENDBRANCH  50  74
BRANCH  62  85
ATOM     85  C   UNL A   1      44.316  28.727  35.441  1.00  0.00     0.064 A 
ATOM     86  C   UNL A   1      45.614  29.166  35.148  1.00  0.00     0.173 A 
ATOM     87  C   UNL A   1      44.171  27.511  36.127  1.00  0.00     0.173 A 
ATOM     88  F   UNL A   1      45.805  30.315  34.480  1.00  0.00    -0.203 F 
ATOM     89  C   UNL A   1      46.724  28.404  35.503  1.00  0.00     0.198 A 
ATOM     90  C   UNL A   1      45.284  26.770  36.513  1.00  0.00     0.198 A 
ATOM     91  F   UNL A   1      42.951  27.050  36.438  1.00  0.00    -0.203 F 
ATOM     92  F   UNL A   1      47.953  28.816  35.166  1.00  0.00    -0.200 F 
ATOM     93  C   UNL A   1      46.558  27.212  36.192  1.00  0.00     0.200 A 
ATOM     94  F   UNL A   1      45.122  25.628  37.195  1.00  0.00    -0.200 F 
ATOM     95  F   UNL A   1      47.628  26.485  36.543  1.00  0.00    -0.200 F 
ENDBRANCH  62  85
ENDBRANCH  36  37
ENDBRANCH  28  31
ENDBRANCH  26  27
ENDBRANCH  25  26
ENDBRANCH  24  25
ENDBRANCH  23  24
ENDBRANCH   3  23
TORSDOF 17
ENDMDL
MODEL 2
REMARK VINA RESULT:     -10.4      0.923      2.022
REMARK SMILES C[C@H](Cc1cccs1)N(C)C(=O)N1CC[C@@H](CC(=O)NCCCCNC(=O)c2ccc(-c3c4nc(c(-c5c(F)c(F)c(F)c(F)c5F)c5ccc([nH]5)c(-c5c(F)c(F)c(F)c(F)c5F)c5nc(c(-c6c(F)c(F)c(F)c(F)c6F)c6ccc3[nH]6)C=C5)C=C4)cc2)C1
REMARK SMILES IDX 18 1 19 2 20 3 17 5 16 6 13 7 14 8 91 9 15 10 11 11 12 12
REMARK SMILES IDX 9 13 10 14 2 15 1 16 3 17 4 18 5 19 8 20 6 21 7 22 21 23
REMARK SMILES IDX 22 24 23 25 24 26 25 27 26 28 27 30 28 31 29 32 90 33 30 34
REMARK SMILES IDX 89 35 31 36 32 37 33 38 83 39 34 40 88 41 82 42 84 43 35 44
REMARK SMILES IDX 87 45 81 46 80 47 36 49 68 50 48 51 67 52 49 53 52 54 66 55
REMARK SMILES IDX 85 56 50 57 51 58 65 60 86 61 53 62 37 63 38 64 46 65 39 66
REMARK SMILES IDX 40 67 44 68 47 69 41 70 42 71 45 72 43 73 69 74 70 75 78 76
REMARK SMILES IDX 71 77 72 78 76 79 79 80 73 81 74 82 77 83 75 84 54 85 55 86
REMARK SMILES IDX 63 87 56 88 57 89 61 90 64 91 58 92 59 93 62 94 60 95
REMARK H PARENT 20 4 25 29 84 48 52 59
REMARK Flexibility Score: inf
ROOT
ATOM      1  C   UNL A   1      35.138  30.335  27.620  1.00  0.00     0.220 C 
ATOM      2  O   UNL A   1      36.279  29.886  27.491  1.00  0.00    -0.275 OA
ATOM      3  N   UNL A   1      35.009  31.569  28.193  1.00  0.00    -0.356 N 
ATOM      4  H   UNL A   1      35.859  31.963  28.497  1.00  0.00     0.163 HD
ENDROOT
BRANCH   1   5
ATOM      5  C   UNL A   1      33.927  29.525  27.167  1.00  0.00     0.105 C 
BRANCH   5   6
ATOM      6  C   UNL A   1      34.004  28.739  25.839  1.00  0.00     0.020 C 
ATOM      7  N   UNL A   1      32.706  26.817  25.241  1.00  0.00    -0.324 N 
ATOM      8  C   UNL A   1      31.830  27.957  25.322  1.00  0.00     0.122 C 
ATOM      9  C   UNL A   1      33.955  27.195  25.936  1.00  0.00     0.125 C 
ATOM     10  C   UNL A   1      32.842  29.007  24.895  1.00  0.00     0.027 C 
BRANCH   7  11
ATOM     11  C   UNL A   1      32.703  25.733  24.399  1.00  0.00     0.320 C 
ATOM     12  O   UNL A   1      33.564  25.689  23.520  1.00  0.00    -0.248 OA
BRANCH  11  13
ATOM     13  N   UNL A   1      31.764  24.722  24.524  1.00  0.00    -0.325 N 
ATOM     14  C   UNL A   1      30.661  24.496  23.602  1.00  0.00     0.149 C 
BRANCH  13  15
ATOM     15  C   UNL A   1      31.844  23.734  25.637  1.00  0.00     0.088 C 
ATOM     16  C   UNL A   1      30.622  23.827  26.557  1.00  0.00     0.031 C 
BRANCH  15  17
ATOM     17  C   UNL A   1      33.194  23.540  26.367  1.00  0.00     0.071 C 
BRANCH  17  18
ATOM     18  C   UNL A   1      34.232  22.616  25.782  1.00  0.00     0.007 A 
ATOM     19  C   UNL A   1      34.161  21.297  25.372  1.00  0.00     0.015 A 
ATOM     20  S   UNL A   1      35.844  23.211  25.645  1.00  0.00    -0.149 S 
ATOM     21  C   UNL A   1      35.433  20.759  25.022  1.00  0.00     0.012 A 
ATOM     22  C   UNL A   1      36.435  21.692  25.141  1.00  0.00     0.065 A 
ENDBRANCH  17  18
ENDBRANCH  15  17
ENDBRANCH  13  15
ENDBRANCH  11  13
ENDBRANCH   7  11
ENDBRANCH   5   6
ENDBRANCH   1   5
BRANCH   3  23
ATOM     23  C   UNL A   1      33.843  32.405  28.434  1.00  0.00     0.116 C 
BRANCH  23  24
ATOM     24  C   UNL A   1      34.147  33.910  28.310  1.00  0.00     0.023 C 
BRANCH  24  25
ATOM     25  C   UNL A   1      32.969  34.840  28.531  1.00  0.00     0.023 C 
BRANCH  25  26
ATOM     26  C   UNL A   1      33.319  36.069  29.335  1.00  0.00     0.116 C 
BRANCH  26  27
ATOM     27  N   UNL A   1      32.557  36.148  30.576  1.00  0.00    -0.352 N 
ATOM     28  C   UNL A   1      32.763  35.481  31.758  1.00  0.00     0.251 C 
ATOM     29  H   UNL A   1      31.789  36.763  30.565  1.00  0.00     0.163 HD
ATOM     30  O   UNL A   1      31.906  35.479  32.635  1.00  0.00    -0.269 OA
BRANCH  28  31
ATOM     31  C   UNL A   1      34.031  34.756  31.945  1.00  0.00     0.039 A 
ATOM     32  C   UNL A   1      35.228  35.466  32.034  1.00  0.00     0.014 A 
ATOM     33  C   UNL A   1      34.012  33.368  32.094  1.00  0.00     0.014 A 
ATOM     34  C   UNL A   1      36.402  34.782  32.342  1.00  0.00     0.010 A 
ATOM     35  C   UNL A   1      35.148  32.713  32.533  1.00  0.00     0.010 A 
ATOM     36  C   UNL A   1      36.360  33.407  32.633  1.00  0.00    -0.014 A 
BRANCH  36  37
ATOM     37  C   UNL A   1      37.577  32.650  33.004  1.00  0.00     0.031 A 
ATOM     38  C   UNL A   1      38.259  32.945  34.310  1.00  0.00     0.074 A 
ATOM     39  C   UNL A   1      38.103  31.768  32.134  1.00  0.00     0.049 A 
ATOM     40  N   UNL A   1      39.371  32.455  34.793  1.00  0.00    -0.248 NA
ATOM     41  C   UNL A   1      37.631  33.962  35.170  1.00  0.00     0.031 C 
ATOM     42  C   UNL A   1      37.556  31.448  30.815  1.00  0.00     0.029 A 
ATOM     43  N   UNL A   1      39.220  30.980  32.232  1.00  0.00    -0.354 N 
ATOM     44  C   UNL A   1      39.583  33.122  35.992  1.00  0.00     0.074 A 
ATOM     45  C   UNL A   1      38.532  34.102  36.128  1.00  0.00     0.031 C 
ATOM     46  C   UNL A   1      38.312  30.495  30.245  1.00  0.00     0.029 A 
ATOM     47  C   UNL A   1      39.419  30.173  31.139  1.00  0.00     0.049 A 
ATOM     48  H   UNL A   1      39.823  30.991  33.010  1.00  0.00     0.167 HD
ATOM     49  C   UNL A   1      40.551  32.911  36.915  1.00  0.00     0.037 A 
ATOM     50  C   UNL A   1      40.389  29.272  30.895  1.00  0.00     0.037 A 
ATOM     51  C   UNL A   1      41.571  31.905  36.782  1.00  0.00     0.049 A 
ATOM     52  C   UNL A   1      41.458  29.061  31.932  1.00  0.00     0.074 A 
ATOM     53  C   UNL A   1      42.552  31.546  37.687  1.00  0.00     0.029 A 
ATOM     54  N   UNL A   1      41.740  31.101  35.663  1.00  0.00    -0.354 N 
ATOM     55  N   UNL A   1      41.602  29.630  33.104  1.00  0.00    -0.248 NA
ATOM     56  C   UNL A   1      42.500  28.076  31.612  1.00  0.00     0.031 C 
ATOM     57  C   UNL A   1      43.354  30.568  37.090  1.00  0.00     0.029 A 
ATOM     58  C   UNL A   1      42.833  30.269  35.840  1.00  0.00     0.049 A 
ATOM     59  H   UNL A   1      41.167  31.120  34.862  1.00  0.00     0.167 HD
ATOM     60  C   UNL A   1      42.726  29.051  33.676  1.00  0.00     0.074 A 
ATOM     61  C   UNL A   1      43.219  28.075  32.725  1.00  0.00     0.031 C 
ATOM     62  C   UNL A   1      43.299  29.300  34.880  1.00  0.00     0.037 A 
BRANCH  49  63
ATOM     63  C   UNL A   1      40.550  33.789  38.134  1.00  0.00     0.064 A 
ATOM     64  C   UNL A   1      39.731  33.520  39.243  1.00  0.00     0.173 A 
ATOM     65  C   UNL A   1      41.376  34.921  38.193  1.00  0.00     0.173 A 
ATOM     66  F   UNL A   1      38.908  32.460  39.235  1.00  0.00    -0.203 F 
ATOM     67  C   UNL A   1      39.705  34.375  40.342  1.00  0.00     0.198 A 
ATOM     68  C   UNL A   1      41.377  35.752  39.311  1.00  0.00     0.198 A 
ATOM     69  F   UNL A   1      42.181  35.226  37.164  1.00  0.00    -0.203 F 
ATOM     70  F   UNL A   1      38.860  34.136  41.355  1.00  0.00    -0.200 F 
ATOM     71  C   UNL A   1      40.532  35.486  40.377  1.00  0.00     0.200 A 
ATOM     72  F   UNL A   1      42.187  36.819  39.348  1.00  0.00    -0.200 F 
ATOM     73  F   UNL A   1      40.508  36.309  41.435  1.00  0.00    -0.200 F 
ENDBRANCH  49  63
BRANCH  50  74
ATOM     74  C   UNL A   1      40.360  28.468  29.646  1.00  0.00     0.064 A 
ATOM     75  C   UNL A   1      39.632  27.271  29.584  1.00  0.00     0.173 A 
ATOM     76  C   UNL A   1      41.046  28.873  28.492  1.00  0.00     0.173 A 
ATOM     77  F   UNL A   1      38.971  26.835  30.667  1.00  0.00    -0.203 F 
ATOM     78  C   UNL A   1      39.606  26.501  28.424  1.00  0.00     0.198 A 
ATOM     79  C   UNL A   1      40.996  28.117  27.323  1.00  0.00     0.198 A 
ATOM     80  F   UNL A   1      41.751  30.014  28.494  1.00  0.00    -0.203 F 
ATOM     81  F   UNL A   1      38.935  25.342  28.408  1.00  0.00    -0.200 F 
ATOM     82  C   UNL A   1      40.283  26.927  27.292  1.00  0.00     0.200 A 
ATOM     83  F   UNL A   1      41.637  28.541  26.225  1.00  0.00    -0.200 F 
ATOM     84  F   UNL A   1      40.253  26.190  26.173  1.00  0.00    -0.200 F 
ENDBRANCH  50  74
BRANCH  62  85
ATOM     85  C   UNL A   1      44.498  28.477  35.254  1.00  0.00     0.064 A 
ATOM     86  C   UNL A   1      44.373  27.245  35.911  1.00  0.00     0.173 A 
ATOM     87  C   UNL A   1      45.788  28.913  34.911  1.00  0.00     0.173 A 
ATOM     88  F   UNL A   1      43.164  26.791  36.273  1.00  0.00    -0.203 F 
ATOM     89  C   UNL A   1      45.498  26.492  36.236  1.00  0.00     0.198 A 
ATOM     90  C   UNL A   1      46.907  28.139  35.205  1.00  0.00     0.198 A 
ATOM     91  F   UNL A   1      45.961  30.081  34.274  1.00  0.00    -0.203 F 
ATOM     92  F   UNL A   1      45.360  25.343  36.912  1.00  0.00    -0.200 F 
ATOM     93  C   UNL A   1      46.762  26.935  35.876  1.00  0.00     0.200 A 
ATOM     94  F   UNL A   1      48.125  28.561  34.839  1.00  0.00    -0.200 F 
ATOM     95  F   UNL A   1      47.843  26.203  36.181  1.00  0.00    -0.200 F 
ENDBRANCH  62  85
ENDBRANCH  36  37
ENDBRANCH  28  31
ENDBRANCH  26  27
ENDBRANCH  25  26
ENDBRANCH  24  25
ENDBRANCH  23  24
ENDBRANCH   3  23
TORSDOF 17
ENDMDL
MODEL 3
REMARK VINA RESULT:     -10.3      5.359      8.202
REMARK SMILES C[C@H](Cc1cccs1)N(C)C(=O)N1CC[C@@H](CC(=O)NCCCCNC(=O)c2ccc(-c3c4nc(c(-c5c(F)c(F)c(F)c(F)c5F)c5ccc([nH]5)c(-c5c(F)c(F)c(F)c(F)c5F)c5nc(c(-c6c(F)c(F)c(F)c(F)c6F)c6ccc3[nH]6)C=C5)C=C4)cc2)C1
REMARK SMILES IDX 18 1 19 2 20 3 17 5 16 6 13 7 14 8 91 9 15 10 11 11 12 12
REMARK SMILES IDX 9 13 10 14 2 15 1 16 3 17 4 18 5 19 8 20 6 21 7 22 21 23
REMARK SMILES IDX 22 24 23 25 24 26 25 27 26 28 27 30 28 31 29 32 90 33 30 34
REMARK SMILES IDX 89 35 31 36 32 37 33 38 83 39 34 40 88 41 82 42 84 43 35 44
REMARK SMILES IDX 87 45 81 46 80 47 36 49 68 50 48 51 67 52 49 53 52 54 66 55
REMARK SMILES IDX 85 56 50 57 51 58 65 60 86 61 53 62 37 63 38 64 46 65 39 66
REMARK SMILES IDX 40 67 44 68 47 69 41 70 42 71 45 72 43 73 69 74 70 75 78 76
REMARK SMILES IDX 71 77 72 78 76 79 79 80 73 81 74 82 77 83 75 84 54 85 55 86
REMARK SMILES IDX 63 87 56 88 57 89 61 90 64 91 58 92 59 93 62 94 60 95
REMARK H PARENT 20 4 25 29 84 48 52 59
REMARK Flexibility Score: inf
ROOT
ATOM      1  C   UNL A   1      35.601  30.498  27.646  1.00  0.00     0.220 C 
ATOM      2  O   UNL A   1      36.769  30.297  27.306  1.00  0.00    -0.275 OA
ATOM      3  N   UNL A   1      35.229  31.791  27.885  1.00  0.00    -0.356 N 
ATOM      4  H   UNL A   1      35.963  32.442  27.808  1.00  0.00     0.163 HD
ENDROOT
BRANCH   1   5
ATOM      5  C   UNL A   1      34.625  29.335  27.802  1.00  0.00     0.105 C 
BRANCH   5   6
ATOM      6  C   UNL A   1      33.810  28.868  26.576  1.00  0.00     0.020 C 
ATOM      7  N   UNL A   1      32.281  27.027  26.496  1.00  0.00    -0.324 N 
ATOM      8  C   UNL A   1      31.728  28.047  27.347  1.00  0.00     0.122 C 
ATOM      9  C   UNL A   1      33.716  27.342  26.337  1.00  0.00     0.125 C 
ATOM     10  C   UNL A   1      32.338  29.243  26.635  1.00  0.00     0.027 C 
BRANCH   7  11
ATOM     11  C   UNL A   1      31.680  26.157  25.619  1.00  0.00     0.320 C 
ATOM     12  O   UNL A   1      30.736  25.487  26.036  1.00  0.00    -0.248 OA
BRANCH  11  13
ATOM     13  N   UNL A   1      32.119  26.029  24.312  1.00  0.00    -0.325 N 
ATOM     14  C   UNL A   1      33.233  25.195  23.888  1.00  0.00     0.149 C 
BRANCH  13  15
ATOM     15  C   UNL A   1      31.427  26.739  23.198  1.00  0.00     0.088 C 
ATOM     16  C   UNL A   1      31.845  26.180  21.833  1.00  0.00     0.031 C 
BRANCH  15  17
ATOM     17  C   UNL A   1      31.301  28.280  23.259  1.00  0.00     0.071 C 
BRANCH  17  18
ATOM     18  C   UNL A   1      30.086  28.952  22.672  1.00  0.00     0.007 A 
ATOM     19  C   UNL A   1      29.957  30.022  21.805  1.00  0.00     0.015 A 
ATOM     20  S   UNL A   1      28.539  28.397  23.190  1.00  0.00    -0.149 S 
ATOM     21  C   UNL A   1      28.604  30.430  21.631  1.00  0.00     0.012 A 
ATOM     22  C   UNL A   1      27.733  29.638  22.341  1.00  0.00     0.065 A 
ENDBRANCH  17  18
ENDBRANCH  15  17
ENDBRANCH  13  15
ENDBRANCH  11  13
ENDBRANCH   7  11
ENDBRANCH   5   6
ENDBRANCH   1   5
BRANCH   3  23
ATOM     23  C   UNL A   1      33.943  32.377  28.231  1.00  0.00     0.116 C 
BRANCH  23  24
ATOM     24  C   UNL A   1      34.077  33.729  28.959  1.00  0.00     0.023 C 
BRANCH  24  25
ATOM     25  C   UNL A   1      34.919  33.717  30.220  1.00  0.00     0.023 C 
BRANCH  25  26
ATOM     26  C   UNL A   1      34.689  32.499  31.082  1.00  0.00     0.116 C 
BRANCH  26  27
ATOM     27  N   UNL A   1      35.140  32.705  32.454  1.00  0.00    -0.352 N 
ATOM     28  C   UNL A   1      36.278  32.242  33.065  1.00  0.00     0.251 C 
ATOM     29  H   UNL A   1      34.547  33.251  33.019  1.00  0.00     0.163 HD
ATOM     30  O   UNL A   1      36.406  32.307  34.284  1.00  0.00    -0.269 OA
BRANCH  28  31
ATOM     31  C   UNL A   1      37.336  31.652  32.229  1.00  0.00     0.039 A 
ATOM     32  C   UNL A   1      37.394  31.956  30.869  1.00  0.00     0.014 A 
ATOM     33  C   UNL A   1      38.309  30.845  32.822  1.00  0.00     0.014 A 
ATOM     34  C   UNL A   1      38.474  31.499  30.117  1.00  0.00     0.010 A 
ATOM     35  C   UNL A   1      39.445  30.510  32.108  1.00  0.00     0.010 A 
ATOM     36  C   UNL A   1      39.525  30.808  30.742  1.00  0.00    -0.014 A 
BRANCH  36  37
ATOM     37  C   UNL A   1      40.710  30.339  29.988  1.00  0.00     0.031 A 
ATOM     38  C   UNL A   1      41.832  31.299  29.708  1.00  0.00     0.074 A 
ATOM     39  C   UNL A   1      40.732  29.088  29.493  1.00  0.00     0.049 A 
ATOM     40  N   UNL A   1      42.920  31.118  29.005  1.00  0.00    -0.248 NA
ATOM     41  C   UNL A   1      41.691  32.659  30.252  1.00  0.00     0.031 C 
ATOM     42  C   UNL A   1      39.671  28.092  29.655  1.00  0.00     0.029 A 
ATOM     43  N   UNL A   1      41.685  28.441  28.749  1.00  0.00    -0.354 N 
ATOM     44  C   UNL A   1      43.572  32.345  29.005  1.00  0.00     0.074 A 
ATOM     45  C   UNL A   1      42.725  33.279  29.707  1.00  0.00     0.031 C 
ATOM     46  C   UNL A   1      40.053  26.945  29.069  1.00  0.00     0.029 A 
ATOM     47  C   UNL A   1      41.362  27.140  28.455  1.00  0.00     0.049 A 
ATOM     48  H   UNL A   1      42.521  28.869  28.454  1.00  0.00     0.167 HD
ATOM     49  C   UNL A   1      44.785  32.655  28.492  1.00  0.00     0.037 A 
ATOM     50  C   UNL A   1      42.052  26.212  27.767  1.00  0.00     0.037 A 
ATOM     51  C   UNL A   1      45.634  31.703  27.826  1.00  0.00     0.049 A 
ATOM     52  C   UNL A   1      43.396  26.582  27.200  1.00  0.00     0.074 A 
ATOM     53  C   UNL A   1      46.915  31.881  27.339  1.00  0.00     0.029 A 
ATOM     54  N   UNL A   1      45.276  30.391  27.549  1.00  0.00    -0.354 N 
ATOM     55  N   UNL A   1      44.046  27.717  27.281  1.00  0.00    -0.248 NA
ATOM     56  C   UNL A   1      44.103  25.538  26.448  1.00  0.00     0.031 C 
ATOM     57  C   UNL A   1      47.309  30.695  26.712  1.00  0.00     0.029 A 
ATOM     58  C   UNL A   1      46.300  29.756  26.866  1.00  0.00     0.049 A 
ATOM     59  H   UNL A   1      44.421  29.973  27.802  1.00  0.00     0.167 HD
ATOM     60  C   UNL A   1      45.252  27.516  26.623  1.00  0.00     0.074 A 
ATOM     61  C   UNL A   1      45.245  26.143  26.159  1.00  0.00     0.031 C 
ATOM     62  C   UNL A   1      46.273  28.385  26.421  1.00  0.00     0.037 A 
BRANCH  49  63
ATOM     63  C   UNL A   1      45.253  34.076  28.628  1.00  0.00     0.064 A 
ATOM     64  C   UNL A   1      46.029  34.502  29.719  1.00  0.00     0.173 A 
ATOM     65  C   UNL A   1      44.916  35.029  27.657  1.00  0.00     0.173 A 
ATOM     66  F   UNL A   1      46.368  33.637  30.687  1.00  0.00    -0.203 F 
ATOM     67  C   UNL A   1      46.409  35.835  29.854  1.00  0.00     0.198 A 
ATOM     68  C   UNL A   1      45.331  36.353  27.775  1.00  0.00     0.198 A 
ATOM     69  F   UNL A   1      44.179  34.679  26.592  1.00  0.00    -0.203 F 
ATOM     70  F   UNL A   1      47.085  36.230  30.941  1.00  0.00    -0.200 F 
ATOM     71  C   UNL A   1      46.064  36.758  28.879  1.00  0.00     0.200 A 
ATOM     72  F   UNL A   1      45.008  37.241  26.824  1.00  0.00    -0.200 F 
ATOM     73  F   UNL A   1      46.430  38.041  29.009  1.00  0.00    -0.200 F 
ENDBRANCH  49  63
BRANCH  50  74
ATOM     74  C   UNL A   1      41.511  24.835  27.626  1.00  0.00     0.064 A 
ATOM     75  C   UNL A   1      40.427  24.578  26.774  1.00  0.00     0.173 A 
ATOM     76  C   UNL A   1      42.061  23.751  28.326  1.00  0.00     0.173 A 
ATOM     77  F   UNL A   1      39.858  25.585  26.094  1.00  0.00    -0.203 F 
ATOM     78  C   UNL A   1      39.902  23.295  26.642  1.00  0.00     0.198 A 
ATOM     79  C   UNL A   1      41.553  22.463  28.170  1.00  0.00     0.198 A 
ATOM     80  F   UNL A   1      43.104  23.940  29.147  1.00  0.00    -0.203 F 
ATOM     81  F   UNL A   1      38.840  23.088  25.852  1.00  0.00    -0.200 F 
ATOM     82  C   UNL A   1      40.468  22.237  27.335  1.00  0.00     0.200 A 
ATOM     83  F   UNL A   1      42.114  21.440  28.829  1.00  0.00    -0.200 F 
ATOM     84  F   UNL A   1      39.968  21.002  27.203  1.00  0.00    -0.200 F 
ENDBRANCH  50  74
BRANCH  62  85
ATOM     85  C   UNL A   1      47.485  27.866  25.703  1.00  0.00     0.064 A 
ATOM     86  C   UNL A   1      48.608  27.391  26.396  1.00  0.00     0.173 A 
ATOM     87  C   UNL A   1      47.503  27.806  24.301  1.00  0.00     0.173 A 
ATOM     88  F   UNL A   1      48.647  27.441  27.736  1.00  0.00    -0.203 F 
ATOM     89  C   UNL A   1      49.716  26.902  25.710  1.00  0.00     0.198 A 
ATOM     90  C   UNL A   1      48.598  27.282  23.620  1.00  0.00     0.198 A 
ATOM     91  F   UNL A   1      46.450  28.240  23.591  1.00  0.00    -0.203 F 
ATOM     92  F   UNL A   1      50.800  26.505  26.389  1.00  0.00    -0.200 F 
ATOM     93  C   UNL A   1      49.707  26.840  24.324  1.00  0.00     0.200 A 
ATOM     94  F   UNL A   1      48.578  27.206  22.282  1.00  0.00    -0.200 F 
ATOM     95  F   UNL A   1      50.771  26.360  23.666  1.00  0.00    -0.200 F 
ENDBRANCH  62  85
ENDBRANCH  36  37
ENDBRANCH  28  31
ENDBRANCH  26  27
ENDBRANCH  25  26
ENDBRANCH  24  25
ENDBRANCH  23  24
ENDBRANCH   3  23
TORSDOF 17
ENDMDL
