MODEL 1
REMARK VINA RESULT:     -10.8      0.000      0.000
REMARK SMILES CC(C)[C@@H](NC(=O)[C@@](C)([NH3+])C(F)(F)F)C(=O)NCCCCNC(=O)c1ccc(-c2c3nc(c(-c4c(F)c(F)c(F)c(F)c4F)c4ccc([nH]4)c(-c4c(F)c(F)c(F)c(F)c4F)c4nc(c(-c5c(F)c(F)c(F)c(F)c5F)c5ccc2[nH]5)C=C4)C=C3)cc1
REMARK SMILES IDX 19 1 18 2 17 3 15 4 16 5 4 7 2 8 1 9 3 10 5 11 6 12 7 14
REMARK SMILES IDX 8 15 9 16 10 17 11 21 12 22 13 23 14 24 20 25 21 26 22 27
REMARK SMILES IDX 23 28 24 30 25 31 26 32 87 33 27 34 86 35 28 36 29 37 30 38
REMARK SMILES IDX 80 39 31 40 85 41 79 42 81 43 32 44 84 45 78 46 77 47 33 49
REMARK SMILES IDX 65 50 45 51 64 52 46 53 49 54 63 55 82 56 47 57 48 58 62 60
REMARK SMILES IDX 83 61 50 62 34 63 35 64 43 65 36 66 37 67 41 68 44 69 38 70
REMARK SMILES IDX 39 71 42 72 40 73 66 74 67 75 75 76 68 77 69 78 73 79 76 80
REMARK SMILES IDX 70 81 71 82 74 83 72 84 51 85 52 86 60 87 53 88 54 89 58 90
REMARK SMILES IDX 61 91 55 92 56 93 59 94 57 95
REMARK H PARENT 17 6 5 13 10 18 10 19 10 20 22 29 81 48 49 59
REMARK Flexibility Score: inf
ROOT
ATOM      1  C   UNL A   1      31.963  27.766  27.057  1.00  0.00     0.023 C 
ENDROOT
BRANCH   1   2
ATOM      2  C   UNL A   1      31.439  26.785  26.013  1.00  0.00     0.116 C 
BRANCH   2   3
ATOM      3  N   UNL A   1      30.874  25.589  26.615  1.00  0.00    -0.354 N 
ATOM      4  C   UNL A   1      31.381  24.322  26.650  1.00  0.00     0.242 C 
ATOM      5  O   UNL A   1      30.900  23.533  27.469  1.00  0.00    -0.273 OA
ATOM      6  H   UNL A   1      30.003  25.710  27.059  1.00  0.00     0.163 HD
BRANCH   4   7
ATOM      7  C   UNL A   1      32.501  23.871  25.697  1.00  0.00     0.174 C 
BRANCH   7   8
ATOM      8  C   UNL A   1      33.891  24.239  26.318  1.00  0.00     0.015 C 
ATOM      9  C   UNL A   1      34.640  23.036  26.901  1.00  0.00     0.010 C 
ATOM     10  C   UNL A   1      34.816  24.957  25.324  1.00  0.00     0.010 C 
ENDBRANCH   7   8
BRANCH   7  11
ATOM     11  N   UNL A   1      32.391  22.436  25.374  1.00  0.00    -0.338 N 
ATOM     12  C   UNL A   1      32.434  21.738  24.195  1.00  0.00     0.291 C 
ATOM     13  H   UNL A   1      32.260  21.863  26.165  1.00  0.00     0.164 HD
ATOM     14  O   UNL A   1      32.738  20.548  24.338  1.00  0.00    -0.267 OA
BRANCH  12  15
ATOM     15  C   UNL A   1      32.037  22.306  22.804  1.00  0.00     0.267 C 
ATOM     16  C   UNL A   1      31.861  21.192  21.761  1.00  0.00     0.100 C 
BRANCH  15  17
ATOM     17  N   UNL A   1      30.755  23.082  22.908  1.00  0.00    -0.337 N 
ATOM     18  H   UNL A   1      30.781  23.870  22.260  1.00  0.00     0.345 HD
ATOM     19  H   UNL A   1      30.645  23.430  23.861  1.00  0.00     0.345 HD
ATOM     20  H   UNL A   1      29.970  22.475  22.674  1.00  0.00     0.345 HD
ENDBRANCH  15  17
BRANCH  15  21
ATOM     21  C   UNL A   1      33.247  23.154  22.293  1.00  0.00     0.453 C 
ATOM     22  F   UNL A   1      33.125  24.475  22.537  1.00  0.00    -0.164 F 
ATOM     23  F   UNL A   1      34.433  22.731  22.791  1.00  0.00    -0.164 F 
ATOM     24  F   UNL A   1      33.346  23.020  20.937  1.00  0.00    -0.164 F 
ENDBRANCH  15  21
ENDBRANCH  12  15
ENDBRANCH   7  11
ENDBRANCH   4   7
ENDBRANCH   2   3
ENDBRANCH   1   2
BRANCH   1  25
ATOM     25  C   UNL A   1      33.477  27.982  27.030  1.00  0.00     0.023 C 
BRANCH  25  26
ATOM     26  C   UNL A   1      33.941  29.168  26.191  1.00  0.00     0.116 C 
BRANCH  26  27
ATOM     27  N   UNL A   1      33.831  30.433  26.897  1.00  0.00    -0.352 N 
ATOM     28  C   UNL A   1      34.640  30.961  27.877  1.00  0.00     0.251 C 
ATOM     29  H   UNL A   1      33.064  30.995  26.636  1.00  0.00     0.163 HD
ATOM     30  O   UNL A   1      34.310  31.963  28.488  1.00  0.00    -0.269 OA
BRANCH  28  31
ATOM     31  C   UNL A   1      35.904  30.271  28.209  1.00  0.00     0.039 A 
ATOM     32  C   UNL A   1      36.972  30.358  27.315  1.00  0.00     0.014 A 
ATOM     33  C   UNL A   1      36.041  29.584  29.418  1.00  0.00     0.014 A 
ATOM     34  C   UNL A   1      38.216  29.839  27.681  1.00  0.00     0.010 A 
ATOM     35  C   UNL A   1      37.297  29.133  29.811  1.00  0.00     0.010 A 
ATOM     36  C   UNL A   1      38.399  29.272  28.954  1.00  0.00    -0.014 A 
BRANCH  36  37
ATOM     37  C   UNL A   1      39.744  28.854  29.424  1.00  0.00     0.031 A 
ATOM     38  C   UNL A   1      40.529  29.736  30.350  1.00  0.00     0.074 A 
ATOM     39  C   UNL A   1      40.287  27.716  28.951  1.00  0.00     0.049 A 
ATOM     40  N   UNL A   1      41.750  29.588  30.796  1.00  0.00    -0.248 NA
ATOM     41  C   UNL A   1      39.860  30.960  30.817  1.00  0.00     0.031 C 
ATOM     42  C   UNL A   1      39.637  26.792  28.020  1.00  0.00     0.029 A 
ATOM     43  N   UNL A   1      41.515  27.147  29.179  1.00  0.00    -0.354 N 
ATOM     44  C   UNL A   1      41.997  30.699  31.591  1.00  0.00     0.074 A 
ATOM     45  C   UNL A   1      40.822  31.541  31.520  1.00  0.00     0.031 C 
ATOM     46  C   UNL A   1      40.463  25.763  27.773  1.00  0.00     0.029 A 
ATOM     47  C   UNL A   1      41.716  25.975  28.491  1.00  0.00     0.049 A 
ATOM     48  H   UNL A   1      42.189  27.542  29.778  1.00  0.00     0.167 HD
ATOM     49  C   UNL A   1      43.099  30.980  32.329  1.00  0.00     0.037 A 
ATOM     50  C   UNL A   1      42.794  25.169  28.437  1.00  0.00     0.037 A 
ATOM     51  C   UNL A   1      44.262  30.136  32.404  1.00  0.00     0.049 A 
ATOM     52  C   UNL A   1      44.021  25.530  29.227  1.00  0.00     0.074 A 
ATOM     53  C   UNL A   1      45.406  30.309  33.162  1.00  0.00     0.029 A 
ATOM     54  N   UNL A   1      44.433  28.962  31.684  1.00  0.00    -0.354 N 
ATOM     55  N   UNL A   1      44.221  26.551  30.025  1.00  0.00    -0.248 NA
ATOM     56  C   UNL A   1      45.175  24.627  29.107  1.00  0.00     0.031 C 
ATOM     57  C   UNL A   1      46.290  29.265  32.864  1.00  0.00     0.029 A 
ATOM     58  C   UNL A   1      45.676  28.415  31.958  1.00  0.00     0.049 A 
ATOM     59  H   UNL A   1      43.769  28.575  31.068  1.00  0.00     0.167 HD
ATOM     60  C   UNL A   1      45.509  26.399  30.522  1.00  0.00     0.074 A 
ATOM     61  C   UNL A   1      46.039  25.181  29.946  1.00  0.00     0.031 C 
ATOM     62  C   UNL A   1      46.189  27.199  31.380  1.00  0.00     0.037 A 
BRANCH  49  63
ATOM     63  C   UNL A   1      43.092  32.258  33.117  1.00  0.00     0.064 A 
ATOM     64  C   UNL A   1      43.568  33.460  32.570  1.00  0.00     0.173 A 
ATOM     65  C   UNL A   1      42.581  32.288  34.423  1.00  0.00     0.173 A 
ATOM     66  F   UNL A   1      44.078  33.482  31.330  1.00  0.00    -0.203 F 
ATOM     67  C   UNL A   1      43.564  34.637  33.314  1.00  0.00     0.198 A 
ATOM     68  C   UNL A   1      42.549  33.474  35.152  1.00  0.00     0.198 A 
ATOM     69  F   UNL A   1      42.107  31.169  34.990  1.00  0.00    -0.203 F 
ATOM     70  F   UNL A   1      44.073  35.761  32.790  1.00  0.00    -0.200 F 
ATOM     71  C   UNL A   1      43.049  34.645  34.602  1.00  0.00     0.200 A 
ATOM     72  F   UNL A   1      42.038  33.483  36.391  1.00  0.00    -0.200 F 
ATOM     73  F   UNL A   1      43.040  35.779  35.314  1.00  0.00    -0.200 F 
ENDBRANCH  49  63
BRANCH  50  74
ATOM     74  C   UNL A   1      42.754  23.932  27.615  1.00  0.00     0.064 A 
ATOM     75  C   UNL A   1      43.059  23.970  26.247  1.00  0.00     0.173 A 
ATOM     76  C   UNL A   1      42.413  22.691  28.173  1.00  0.00     0.173 A 
ATOM     77  F   UNL A   1      43.370  25.138  25.664  1.00  0.00    -0.203 F 
ATOM     78  C   UNL A   1      43.008  22.818  25.466  1.00  0.00     0.198 A 
ATOM     79  C   UNL A   1      42.391  21.534  27.396  1.00  0.00     0.198 A 
ATOM     80  F   UNL A   1      42.118  22.599  29.478  1.00  0.00    -0.203 F 
ATOM     81  F   UNL A   1      43.264  22.891  24.152  1.00  0.00    -0.200 F 
ATOM     82  C   UNL A   1      42.679  21.600  26.042  1.00  0.00     0.200 A 
ATOM     83  F   UNL A   1      42.087  20.357  27.960  1.00  0.00    -0.200 F 
ATOM     84  F   UNL A   1      42.637  20.492  25.290  1.00  0.00    -0.200 F 
ENDBRANCH  50  74
BRANCH  62  85
ATOM     85  C   UNL A   1      47.572  26.768  31.773  1.00  0.00     0.064 A 
ATOM     86  C   UNL A   1      47.791  25.854  32.814  1.00  0.00     0.173 A 
ATOM     87  C   UNL A   1      48.689  27.238  31.065  1.00  0.00     0.173 A 
ATOM     88  F   UNL A   1      46.758  25.390  33.531  1.00  0.00    -0.203 F 
ATOM     89  C   UNL A   1      49.079  25.440  33.143  1.00  0.00     0.198 A 
ATOM     90  C   UNL A   1      49.972  26.800  31.377  1.00  0.00     0.198 A 
ATOM     91  F   UNL A   1      48.533  28.111  30.057  1.00  0.00    -0.203 F 
ATOM     92  F   UNL A   1      49.268  24.598  34.168  1.00  0.00    -0.200 F 
ATOM     93  C   UNL A   1      50.166  25.905  32.419  1.00  0.00     0.200 A 
ATOM     94  F   UNL A   1      51.022  27.241  30.669  1.00  0.00    -0.200 F 
ATOM     95  F   UNL A   1      51.405  25.498  32.731  1.00  0.00    -0.200 F 
ENDBRANCH  62  85
ENDBRANCH  36  37
ENDBRANCH  28  31
ENDBRANCH  26  27
ENDBRANCH  25  26
ENDBRANCH   1  25
TORSDOF 16
ENDMDL
MODEL 2
REMARK VINA RESULT:     -10.8      3.563      8.880
REMARK SMILES CC(C)[C@@H](NC(=O)[C@@](C)([NH3+])C(F)(F)F)C(=O)NCCCCNC(=O)c1ccc(-c2c3nc(c(-c4c(F)c(F)c(F)c(F)c4F)c4ccc([nH]4)c(-c4c(F)c(F)c(F)c(F)c4F)c4nc(c(-c5c(F)c(F)c(F)c(F)c5F)c5ccc2[nH]5)C=C4)C=C3)cc1
REMARK SMILES IDX 19 1 18 2 17 3 15 4 16 5 4 7 2 8 1 9 3 10 5 11 6 12 7 14
REMARK SMILES IDX 8 15 9 16 10 17 11 21 12 22 13 23 14 24 20 25 21 26 22 27
REMARK SMILES IDX 23 28 24 30 25 31 26 32 87 33 27 34 86 35 28 36 29 37 30 38
REMARK SMILES IDX 80 39 31 40 85 41 79 42 81 43 32 44 84 45 78 46 77 47 33 49
REMARK SMILES IDX 65 50 45 51 64 52 46 53 49 54 63 55 82 56 47 57 48 58 62 60
REMARK SMILES IDX 83 61 50 62 34 63 35 64 43 65 36 66 37 67 41 68 44 69 38 70
REMARK SMILES IDX 39 71 42 72 40 73 66 74 67 75 75 76 68 77 69 78 73 79 76 80
REMARK SMILES IDX 70 81 71 82 74 83 72 84 51 85 52 86 60 87 53 88 54 89 58 90
REMARK SMILES IDX 61 91 55 92 56 93 59 94 57 95
REMARK H PARENT 17 6 5 13 10 18 10 19 10 20 22 29 81 48 49 59
REMARK Flexibility Score: inf
ROOT
ATOM      1  C   UNL A   1      31.851  30.106  26.856  1.00  0.00     0.023 C 
ENDROOT
BRANCH   1   2
ATOM      2  C   UNL A   1      33.201  29.454  26.577  1.00  0.00     0.116 C 
BRANCH   2   3
ATOM      3  N   UNL A   1      33.616  29.618  25.194  1.00  0.00    -0.354 N 
ATOM      4  C   UNL A   1      33.305  28.853  24.106  1.00  0.00     0.242 C 
ATOM      5  O   UNL A   1      33.504  29.337  22.987  1.00  0.00    -0.273 OA
ATOM      6  H   UNL A   1      34.205  30.388  25.017  1.00  0.00     0.163 HD
BRANCH   4   7
ATOM      7  C   UNL A   1      32.743  27.428  24.252  1.00  0.00     0.174 C 
BRANCH   7   8
ATOM      8  C   UNL A   1      31.182  27.495  24.353  1.00  0.00     0.015 C 
ATOM      9  C   UNL A   1      30.463  27.008  23.091  1.00  0.00     0.010 C 
ATOM     10  C   UNL A   1      30.631  26.719  25.560  1.00  0.00     0.010 C 
ENDBRANCH   7   8
BRANCH   7  11
ATOM     11  N   UNL A   1      33.199  26.553  23.155  1.00  0.00    -0.338 N 
ATOM     12  C   UNL A   1      33.497  25.216  23.090  1.00  0.00     0.291 C 
ATOM     13  H   UNL A   1      33.312  27.023  22.297  1.00  0.00     0.164 HD
ATOM     14  O   UNL A   1      33.426  24.752  21.946  1.00  0.00    -0.267 OA
BRANCH  12  15
ATOM     15  C   UNL A   1      33.994  24.351  24.281  1.00  0.00     0.267 C 
ATOM     16  C   UNL A   1      34.866  23.177  23.810  1.00  0.00     0.100 C 
BRANCH  15  17
ATOM     17  N   UNL A   1      34.787  25.193  25.238  1.00  0.00    -0.337 N 
ATOM     18  H   UNL A   1      34.245  25.341  26.091  1.00  0.00     0.345 HD
ATOM     19  H   UNL A   1      34.993  26.095  24.807  1.00  0.00     0.345 HD
ATOM     20  H   UNL A   1      35.659  24.718  25.467  1.00  0.00     0.345 HD
ENDBRANCH  15  17
BRANCH  15  21
ATOM     21  C   UNL A   1      32.731  23.688  24.923  1.00  0.00     0.453 C 
ATOM     22  F   UNL A   1      32.823  22.348  25.042  1.00  0.00    -0.164 F 
ATOM     23  F   UNL A   1      32.423  24.209  26.134  1.00  0.00    -0.164 F 
ATOM     24  F   UNL A   1      31.646  23.932  24.129  1.00  0.00    -0.164 F 
ENDBRANCH  15  21
ENDBRANCH  12  15
ENDBRANCH   7  11
ENDBRANCH   4   7
ENDBRANCH   2   3
ENDBRANCH   1   2
BRANCH   1  25
ATOM     25  C   UNL A   1      31.811  31.618  26.633  1.00  0.00     0.023 C 
BRANCH  25  26
ATOM     26  C   UNL A   1      32.900  32.402  27.357  1.00  0.00     0.116 C 
BRANCH  26  27
ATOM     27  N   UNL A   1      32.548  33.796  27.564  1.00  0.00    -0.352 N 
ATOM     28  C   UNL A   1      33.055  34.701  28.469  1.00  0.00     0.251 C 
ATOM     29  H   UNL A   1      31.842  34.144  26.971  1.00  0.00     0.163 HD
ATOM     30  O   UNL A   1      32.528  35.789  28.628  1.00  0.00    -0.269 OA
BRANCH  28  31
ATOM     31  C   UNL A   1      34.230  34.319  29.279  1.00  0.00     0.039 A 
ATOM     32  C   UNL A   1      34.025  33.735  30.529  1.00  0.00     0.014 A 
ATOM     33  C   UNL A   1      35.523  34.496  28.779  1.00  0.00     0.014 A 
ATOM     34  C   UNL A   1      35.117  33.233  31.239  1.00  0.00     0.010 A 
ATOM     35  C   UNL A   1      36.601  33.932  29.454  1.00  0.00     0.010 A 
ATOM     36  C   UNL A   1      36.406  33.280  30.681  1.00  0.00    -0.014 A 
BRANCH  36  37
ATOM     37  C   UNL A   1      37.557  32.618  31.345  1.00  0.00     0.031 A 
ATOM     38  C   UNL A   1      38.260  31.474  30.676  1.00  0.00     0.074 A 
ATOM     39  C   UNL A   1      37.915  33.001  32.586  1.00  0.00     0.049 A 
ATOM     40  N   UNL A   1      39.222  30.713  31.133  1.00  0.00    -0.248 NA
ATOM     41  C   UNL A   1      37.804  31.122  29.323  1.00  0.00     0.031 C 
ATOM     42  C   UNL A   1      37.287  34.077  33.354  1.00  0.00     0.029 A 
ATOM     43  N   UNL A   1      38.888  32.519  33.426  1.00  0.00    -0.354 N 
ATOM     44  C   UNL A   1      39.483  29.793  30.128  1.00  0.00     0.074 A 
ATOM     45  C   UNL A   1      38.541  30.052  29.061  1.00  0.00     0.031 C 
ATOM     46  C   UNL A   1      37.902  34.188  34.542  1.00  0.00     0.029 A 
ATOM     47  C   UNL A   1      38.938  33.163  34.638  1.00  0.00     0.049 A 
ATOM     48  H   UNL A   1      39.493  31.781  33.183  1.00  0.00     0.167 HD
ATOM     49  C   UNL A   1      40.437  28.831  30.092  1.00  0.00     0.037 A 
ATOM     50  C   UNL A   1      39.723  32.944  35.711  1.00  0.00     0.037 A 
ATOM     51  C   UNL A   1      41.378  28.582  31.152  1.00  0.00     0.049 A 
ATOM     52  C   UNL A   1      40.741  31.838  35.662  1.00  0.00     0.074 A 
ATOM     53  C   UNL A   1      42.414  27.665  31.188  1.00  0.00     0.029 A 
ATOM     54  N   UNL A   1      41.390  29.248  32.369  1.00  0.00    -0.354 N 
ATOM     55  N   UNL A   1      41.021  31.014  34.683  1.00  0.00    -0.248 NA
ATOM     56  C   UNL A   1      41.550  31.630  36.872  1.00  0.00     0.031 C 
ATOM     57  C   UNL A   1      43.022  27.741  32.447  1.00  0.00     0.029 A 
ATOM     58  C   UNL A   1      42.397  28.741  33.175  1.00  0.00     0.049 A 
ATOM     59  H   UNL A   1      40.774  29.972  32.623  1.00  0.00     0.167 HD
ATOM     60  C   UNL A   1      42.054  30.210  35.145  1.00  0.00     0.074 A 
ATOM     61  C   UNL A   1      42.360  30.653  36.490  1.00  0.00     0.031 C 
ATOM     62  C   UNL A   1      42.693  29.196  34.510  1.00  0.00     0.037 A 
BRANCH  49  63
ATOM     63  C   UNL A   1      40.507  27.976  28.859  1.00  0.00     0.064 A 
ATOM     64  C   UNL A   1      39.793  26.772  28.758  1.00  0.00     0.173 A 
ATOM     65  C   UNL A   1      41.277  28.377  27.756  1.00  0.00     0.173 A 
ATOM     66  F   UNL A   1      39.052  26.340  29.789  1.00  0.00    -0.203 F 
ATOM     67  C   UNL A   1      39.872  25.986  27.613  1.00  0.00     0.198 A 
ATOM     68  C   UNL A   1      41.329  27.603  26.600  1.00  0.00     0.198 A 
ATOM     69  F   UNL A   1      41.973  29.523  27.797  1.00  0.00    -0.203 F 
ATOM     70  F   UNL A   1      39.223  24.814  27.560  1.00  0.00    -0.200 F 
ATOM     71  C   UNL A   1      40.635  26.404  26.532  1.00  0.00     0.200 A 
ATOM     72  F   UNL A   1      42.055  28.016  25.552  1.00  0.00    -0.200 F 
ATOM     73  F   UNL A   1      40.706  25.649  25.428  1.00  0.00    -0.200 F 
ENDBRANCH  49  63
BRANCH  50  74
ATOM     74  C   UNL A   1      39.588  33.803  36.916  1.00  0.00     0.064 A 
ATOM     75  C   UNL A   1      38.775  33.408  37.989  1.00  0.00     0.173 A 
ATOM     76  C   UNL A   1      40.263  35.027  37.024  1.00  0.00     0.173 A 
ATOM     77  F   UNL A   1      38.093  32.256  37.922  1.00  0.00    -0.203 F 
ATOM     78  C   UNL A   1      38.629  34.215  39.115  1.00  0.00     0.198 A 
ATOM     79  C   UNL A   1      40.139  35.819  38.165  1.00  0.00     0.198 A 
ATOM     80  F   UNL A   1      41.057  35.448  36.029  1.00  0.00    -0.203 F 
ATOM     81  F   UNL A   1      37.813  33.833  40.107  1.00  0.00    -0.200 F 
ATOM     82  C   UNL A   1      39.316  35.417  39.205  1.00  0.00     0.200 A 
ATOM     83  F   UNL A   1      40.815  36.972  38.254  1.00  0.00    -0.200 F 
ATOM     84  F   UNL A   1      39.180  36.187  40.292  1.00  0.00    -0.200 F 
ENDBRANCH  50  74
BRANCH  62  85
ATOM     85  C   UNL A   1      43.806  28.513  35.251  1.00  0.00     0.064 A 
ATOM     86  C   UNL A   1      45.128  28.974  35.181  1.00  0.00     0.173 A 
ATOM     87  C   UNL A   1      43.535  27.412  36.080  1.00  0.00     0.173 A 
ATOM     88  F   UNL A   1      45.439  30.011  34.389  1.00  0.00    -0.203 F 
ATOM     89  C   UNL A   1      46.143  28.349  35.900  1.00  0.00     0.198 A 
ATOM     90  C   UNL A   1      44.547  26.808  36.820  1.00  0.00     0.198 A 
ATOM     91  F   UNL A   1      42.285  26.935  36.184  1.00  0.00    -0.203 F 
ATOM     92  F   UNL A   1      47.405  28.780  35.787  1.00  0.00    -0.200 F 
ATOM     93  C   UNL A   1      45.850  27.273  36.725  1.00  0.00     0.200 A 
ATOM     94  F   UNL A   1      44.260  25.776  37.626  1.00  0.00    -0.200 F 
ATOM     95  F   UNL A   1      46.826  26.678  37.425  1.00  0.00    -0.200 F 
ENDBRANCH  62  85
ENDBRANCH  36  37
ENDBRANCH  28  31
ENDBRANCH  26  27
ENDBRANCH  25  26
ENDBRANCH   1  25
TORSDOF 16
ENDMDL
MODEL 3
REMARK VINA RESULT:     -10.7      3.487      8.650
REMARK SMILES CC(C)[C@@H](NC(=O)[C@@](C)([NH3+])C(F)(F)F)C(=O)NCCCCNC(=O)c1ccc(-c2c3nc(c(-c4c(F)c(F)c(F)c(F)c4F)c4ccc([nH]4)c(-c4c(F)c(F)c(F)c(F)c4F)c4nc(c(-c5c(F)c(F)c(F)c(F)c5F)c5ccc2[nH]5)C=C4)C=C3)cc1
REMARK SMILES IDX 19 1 18 2 17 3 15 4 16 5 4 7 2 8 1 9 3 10 5 11 6 12 7 14
REMARK SMILES IDX 8 15 9 16 10 17 11 21 12 22 13 23 14 24 20 25 21 26 22 27
REMARK SMILES IDX 23 28 24 30 25 31 26 32 87 33 27 34 86 35 28 36 29 37 30 38
REMARK SMILES IDX 80 39 31 40 85 41 79 42 81 43 32 44 84 45 78 46 77 47 33 49
REMARK SMILES IDX 65 50 45 51 64 52 46 53 49 54 63 55 82 56 47 57 48 58 62 60
REMARK SMILES IDX 83 61 50 62 34 63 35 64 43 65 36 66 37 67 41 68 44 69 38 70
REMARK SMILES IDX 39 71 42 72 40 73 66 74 67 75 75 76 68 77 69 78 73 79 76 80
REMARK SMILES IDX 70 81 71 82 74 83 72 84 51 85 52 86 60 87 53 88 54 89 58 90
REMARK SMILES IDX 61 91 55 92 56 93 59 94 57 95
REMARK H PARENT 17 6 5 13 10 18 10 19 10 20 22 29 81 48 49 59
REMARK Flexibility Score: inf
ROOT
ATOM      1  C   UNL A   1      31.938  30.126  26.608  1.00  0.00     0.023 C 
ENDROOT
BRANCH   1   2
ATOM      2  C   UNL A   1      33.249  29.620  26.017  1.00  0.00     0.116 C 
BRANCH   2   3
ATOM      3  N   UNL A   1      33.271  29.708  24.567  1.00  0.00    -0.354 N 
ATOM      4  C   UNL A   1      32.924  28.765  23.643  1.00  0.00     0.242 C 
ATOM      5  O   UNL A   1      32.722  29.142  22.484  1.00  0.00    -0.273 OA
ATOM      6  H   UNL A   1      33.580  30.569  24.200  1.00  0.00     0.163 HD
BRANCH   4   7
ATOM      7  C   UNL A   1      32.804  27.276  24.011  1.00  0.00     0.174 C 
BRANCH   7   8
ATOM      8  C   UNL A   1      31.309  26.942  24.338  1.00  0.00     0.015 C 
ATOM      9  C   UNL A   1      31.061  26.620  25.815  1.00  0.00     0.010 C 
ATOM     10  C   UNL A   1      30.343  28.059  23.911  1.00  0.00     0.010 C 
ENDBRANCH   7   8
BRANCH   7  11
ATOM     11  N   UNL A   1      33.355  26.411  22.950  1.00  0.00    -0.338 N 
ATOM     12  C   UNL A   1      33.673  25.078  22.904  1.00  0.00     0.291 C 
ATOM     13  H   UNL A   1      33.528  26.886  22.105  1.00  0.00     0.164 HD
ATOM     14  O   UNL A   1      33.697  24.618  21.757  1.00  0.00    -0.267 OA
BRANCH  12  15
ATOM     15  C   UNL A   1      34.087  24.214  24.128  1.00  0.00     0.267 C 
ATOM     16  C   UNL A   1      35.211  23.228  23.778  1.00  0.00     0.100 C 
BRANCH  15  17
ATOM     17  N   UNL A   1      34.547  25.096  25.253  1.00  0.00    -0.337 N 
ATOM     18  H   UNL A   1      34.770  26.023  24.889  1.00  0.00     0.345 HD
ATOM     19  H   UNL A   1      35.378  24.691  25.685  1.00  0.00     0.345 HD
ATOM     20  H   UNL A   1      33.806  25.174  25.950  1.00  0.00     0.345 HD
ENDBRANCH  15  17
BRANCH  15  21
ATOM     21  C   UNL A   1      32.858  23.318  24.492  1.00  0.00     0.453 C 
ATOM     22  F   UNL A   1      31.689  23.773  23.997  1.00  0.00    -0.164 F 
ATOM     23  F   UNL A   1      33.016  22.029  24.111  1.00  0.00    -0.164 F 
ATOM     24  F   UNL A   1      32.715  23.287  25.850  1.00  0.00    -0.164 F 
ENDBRANCH  15  21
ENDBRANCH  12  15
ENDBRANCH   7  11
ENDBRANCH   4   7
ENDBRANCH   2   3
ENDBRANCH   1   2
BRANCH   1  25
ATOM     25  C   UNL A   1      31.770  31.646  26.588  1.00  0.00     0.023 C 
BRANCH  25  26
ATOM     26  C   UNL A   1      32.831  32.418  27.366  1.00  0.00     0.116 C 
BRANCH  26  27
ATOM     27  N   UNL A   1      32.484  33.816  27.556  1.00  0.00    -0.352 N 
ATOM     28  C   UNL A   1      33.008  34.734  28.438  1.00  0.00     0.251 C 
ATOM     29  H   UNL A   1      31.769  34.155  26.970  1.00  0.00     0.163 HD
ATOM     30  O   UNL A   1      32.485  35.826  28.588  1.00  0.00    -0.269 OA
BRANCH  28  31
ATOM     31  C   UNL A   1      34.196  34.364  29.233  1.00  0.00     0.039 A 
ATOM     32  C   UNL A   1      34.012  33.795  30.494  1.00  0.00     0.014 A 
ATOM     33  C   UNL A   1      35.481  34.536  28.711  1.00  0.00     0.014 A 
ATOM     34  C   UNL A   1      35.116  33.303  31.193  1.00  0.00     0.010 A 
ATOM     35  C   UNL A   1      36.570  33.982  29.375  1.00  0.00     0.010 A 
ATOM     36  C   UNL A   1      36.396  33.345  30.614  1.00  0.00    -0.014 A 
BRANCH  36  37
ATOM     37  C   UNL A   1      37.557  32.692  31.267  1.00  0.00     0.031 A 
ATOM     38  C   UNL A   1      38.261  31.551  30.594  1.00  0.00     0.074 A 
ATOM     39  C   UNL A   1      37.927  33.081  32.503  1.00  0.00     0.049 A 
ATOM     40  N   UNL A   1      39.233  30.798  31.043  1.00  0.00    -0.248 NA
ATOM     41  C   UNL A   1      37.793  31.192  29.246  1.00  0.00     0.031 C 
ATOM     42  C   UNL A   1      37.299  34.155  33.275  1.00  0.00     0.029 A 
ATOM     43  N   UNL A   1      38.912  32.608  33.334  1.00  0.00    -0.354 N 
ATOM     44  C   UNL A   1      39.489  29.876  30.038  1.00  0.00     0.074 A 
ATOM     45  C   UNL A   1      38.534  30.126  28.980  1.00  0.00     0.031 C 
ATOM     46  C   UNL A   1      37.927  34.273  34.456  1.00  0.00     0.029 A 
ATOM     47  C   UNL A   1      38.970  33.256  34.543  1.00  0.00     0.049 A 
ATOM     48  H   UNL A   1      39.518  31.873  33.086  1.00  0.00     0.167 HD
ATOM     49  C   UNL A   1      40.449  28.920  29.994  1.00  0.00     0.037 A 
ATOM     50  C   UNL A   1      39.768  33.046  35.608  1.00  0.00     0.037 A 
ATOM     51  C   UNL A   1      41.403  28.680  31.045  1.00  0.00     0.049 A 
ATOM     52  C   UNL A   1      40.793  31.946  35.552  1.00  0.00     0.074 A 
ATOM     53  C   UNL A   1      42.445  27.770  31.073  1.00  0.00     0.029 A 
ATOM     54  N   UNL A   1      41.424  29.350  32.260  1.00  0.00    -0.354 N 
ATOM     55  N   UNL A   1      41.068  31.121  34.572  1.00  0.00    -0.248 NA
ATOM     56  C   UNL A   1      41.616  31.747  36.754  1.00  0.00     0.031 C 
ATOM     57  C   UNL A   1      43.066  27.855  32.324  1.00  0.00     0.029 A 
ATOM     58  C   UNL A   1      42.443  28.853  33.056  1.00  0.00     0.049 A 
ATOM     59  H   UNL A   1      40.806  30.071  32.518  1.00  0.00     0.167 HD
ATOM     60  C   UNL A   1      42.111  30.325  35.025  1.00  0.00     0.074 A 
ATOM     61  C   UNL A   1      42.428  30.774  36.366  1.00  0.00     0.031 C 
ATOM     62  C   UNL A   1      42.749  29.313  34.387  1.00  0.00     0.037 A 
BRANCH  49  63
ATOM     63  C   UNL A   1      40.512  28.063  28.763  1.00  0.00     0.064 A 
ATOM     64  C   UNL A   1      41.275  28.436  27.646  1.00  0.00     0.173 A 
ATOM     65  C   UNL A   1      39.823  26.842  28.709  1.00  0.00     0.173 A 
ATOM     66  F   UNL A   1      41.943  29.599  27.643  1.00  0.00    -0.203 F 
ATOM     67  C   UNL A   1      41.319  27.636  26.508  1.00  0.00     0.198 A 
ATOM     68  C   UNL A   1      39.894  26.029  27.581  1.00  0.00     0.198 A 
ATOM     69  F   UNL A   1      39.085  26.433  29.752  1.00  0.00    -0.203 F 
ATOM     70  F   UNL A   1      42.011  28.039  25.433  1.00  0.00    -0.200 F 
ATOM     71  C   UNL A   1      40.634  26.430  26.478  1.00  0.00     0.200 A 
ATOM     72  F   UNL A   1      39.244  24.857  27.559  1.00  0.00    -0.200 F 
ATOM     73  F   UNL A   1      40.681  25.657  25.384  1.00  0.00    -0.200 F 
ENDBRANCH  49  63
BRANCH  50  74
ATOM     74  C   UNL A   1      39.641  33.906  36.812  1.00  0.00     0.064 A 
ATOM     75  C   UNL A   1      40.325  35.128  36.895  1.00  0.00     0.173 A 
ATOM     76  C   UNL A   1      38.840  33.532  37.901  1.00  0.00     0.173 A 
ATOM     77  F   UNL A   1      41.120  35.518  35.888  1.00  0.00    -0.203 F 
ATOM     78  C   UNL A   1      40.225  35.933  38.028  1.00  0.00     0.198 A 
ATOM     79  C   UNL A   1      38.718  34.353  39.021  1.00  0.00     0.198 A 
ATOM     80  F   UNL A   1      38.160  32.376  37.870  1.00  0.00    -0.203 F 
ATOM     81  F   UNL A   1      40.922  37.076  38.097  1.00  0.00    -0.200 F 
ATOM     82  C   UNL A   1      39.417  35.548  39.087  1.00  0.00     0.200 A 
ATOM     83  F   UNL A   1      37.925  33.984  40.036  1.00  0.00    -0.200 F 
ATOM     84  F   UNL A   1      39.317  36.327  40.172  1.00  0.00    -0.200 F 
ENDBRANCH  50  74
BRANCH  62  85
ATOM     85  C   UNL A   1      43.875  28.639  35.118  1.00  0.00     0.064 A 
ATOM     86  C   UNL A   1      43.665  27.490  35.892  1.00  0.00     0.173 A 
ATOM     87  C   UNL A   1      45.187  29.122  34.999  1.00  0.00     0.173 A 
ATOM     88  F   UNL A   1      42.426  27.000  36.051  1.00  0.00    -0.203 F 
ATOM     89  C   UNL A   1      44.725  26.858  36.537  1.00  0.00     0.198 A 
ATOM     90  C   UNL A   1      46.249  28.472  35.620  1.00  0.00     0.198 A 
ATOM     91  F   UNL A   1      45.442  30.217  34.265  1.00  0.00    -0.203 F 
ATOM     92  F   UNL A   1      44.496  25.785  37.305  1.00  0.00    -0.200 F 
ATOM     93  C   UNL A   1      46.016  27.343  36.392  1.00  0.00     0.200 A 
ATOM     94  F   UNL A   1      47.498  28.935  35.469  1.00  0.00    -0.200 F 
ATOM     95  F   UNL A   1      47.038  26.728  37.004  1.00  0.00    -0.200 F 
ENDBRANCH  62  85
ENDBRANCH  36  37
ENDBRANCH  28  31
ENDBRANCH  26  27
ENDBRANCH  25  26
ENDBRANCH   1  25
TORSDOF 16
ENDMDL
