MODEL 1
REMARK VINA RESULT:     -11.6      0.000      0.000
REMARK SMILES CCOC(=O)NC(=O)COc1csc(C(=O)NCCCCNC(=O)c2ccc(-c3c4nc(c(-c5c(F)c(F)c(F)c(F)c5F)c5ccc([nH]5)c(-c5c(F)c(F)c(F)c(F)c5F)c5nc(c(-c6c(F)c(F)c(F)c(F)c6F)c6ccc3[nH]6)C=C5)C=C4)cc2)c1
REMARK SMILES IDX 18 1 17 2 15 3 16 4 14 6 11 7 12 8 88 9 13 10 10 11 9 12
REMARK SMILES IDX 7 13 4 14 5 15 6 16 8 18 3 19 2 20 1 21 19 22 20 23 21 24
REMARK SMILES IDX 22 25 23 26 24 28 25 29 26 30 87 31 27 32 86 33 28 34 29 35
REMARK SMILES IDX 30 36 80 37 31 38 85 39 79 40 81 41 32 42 84 43 78 44 77 45
REMARK SMILES IDX 33 47 65 48 45 49 64 50 46 51 49 52 63 53 82 54 47 55 48 56
REMARK SMILES IDX 62 58 83 59 50 60 34 61 35 62 43 63 36 64 37 65 41 66 44 67
REMARK SMILES IDX 38 68 39 69 42 70 40 71 66 72 67 73 75 74 68 75 69 76 73 77
REMARK SMILES IDX 76 78 70 79 71 80 74 81 72 82 51 83 52 84 60 85 53 86 54 87
REMARK SMILES IDX 58 88 61 89 55 90 56 91 59 92 57 93
REMARK H PARENT 17 5 6 17 22 27 81 46 49 57
REMARK Flexibility Score: inf
ROOT
ATOM      1  C   UNL A   1      32.870  29.991  26.302  1.00  0.00     0.116 C 
ENDROOT
BRANCH   1   2
ATOM      2  N   UNL A   1      33.604  29.596  25.119  1.00  0.00    -0.351 N 
ATOM      3  C   UNL A   1      33.336  28.660  24.146  1.00  0.00     0.261 C 
ATOM      4  O   UNL A   1      34.173  28.596  23.242  1.00  0.00    -0.268 OA
ATOM      5  H   UNL A   1      34.447  30.087  24.985  1.00  0.00     0.163 HD
BRANCH   3   6
ATOM      6  C   UNL A   1      32.128  27.843  24.186  1.00  0.00     0.096 A 
ATOM      7  C   UNL A   1      30.431  26.338  24.762  1.00  0.00     0.131 A 
ATOM      8  C   UNL A   1      29.775  27.110  23.836  1.00  0.00     0.112 A 
ATOM      9  C   UNL A   1      31.795  26.706  24.897  1.00  0.00     0.072 A 
ATOM     10  S   UNL A   1      30.808  28.306  23.175  1.00  0.00    -0.135 S 
BRANCH   7  11
ATOM     11  O   UNL A   1      29.878  25.419  25.584  1.00  0.00    -0.483 OA
BRANCH  11  12
ATOM     12  C   UNL A   1      30.779  24.663  26.365  1.00  0.00     0.329 C 
BRANCH  12  13
ATOM     13  C   UNL A   1      30.368  23.251  26.772  1.00  0.00     0.267 C 
ATOM     14  C   UNL A   1      31.782  21.948  25.102  1.00  0.00     0.413 C 
ATOM     15  O   UNL A   1      32.128  20.818  24.785  1.00  0.00    -0.224 OA
ATOM     16  N   UNL A   1      30.914  22.148  26.156  1.00  0.00    -0.258 N 
ATOM     17  H   UNL A   1      30.616  21.303  26.563  1.00  0.00     0.176 HD
ATOM     18  O   UNL A   1      29.516  23.070  27.649  1.00  0.00    -0.271 OA
BRANCH  14  19
ATOM     19  O   UNL A   1      32.175  23.081  24.476  1.00  0.00    -0.450 OA
BRANCH  19  20
ATOM     20  C   UNL A   1      33.589  23.329  24.433  1.00  0.00     0.231 C 
ATOM     21  C   UNL A   1      34.172  23.009  23.066  1.00  0.00     0.049 C 
ENDBRANCH  19  20
ENDBRANCH  14  19
ENDBRANCH  12  13
ENDBRANCH  11  12
ENDBRANCH   7  11
ENDBRANCH   3   6
ENDBRANCH   1   2
BRANCH   1  22
ATOM     22  C   UNL A   1      31.680  30.877  25.931  1.00  0.00     0.023 C 
BRANCH  22  23
ATOM     23  C   UNL A   1      31.428  32.015  26.925  1.00  0.00     0.023 C 
BRANCH  23  24
ATOM     24  C   UNL A   1      32.668  32.812  27.312  1.00  0.00     0.116 C 
BRANCH  24  25
ATOM     25  N   UNL A   1      32.384  34.204  27.622  1.00  0.00    -0.352 N 
ATOM     26  C   UNL A   1      32.985  35.012  28.556  1.00  0.00     0.251 C 
ATOM     27  H   UNL A   1      31.666  34.623  27.093  1.00  0.00     0.163 HD
ATOM     28  O   UNL A   1      32.545  36.133  28.785  1.00  0.00    -0.269 OA
BRANCH  26  29
ATOM     29  C   UNL A   1      34.143  34.498  29.313  1.00  0.00     0.039 A 
ATOM     30  C   UNL A   1      33.921  33.895  30.552  1.00  0.00     0.014 A 
ATOM     31  C   UNL A   1      35.435  34.579  28.786  1.00  0.00     0.014 A 
ATOM     32  C   UNL A   1      34.990  33.315  31.235  1.00  0.00     0.010 A 
ATOM     33  C   UNL A   1      36.483  33.927  29.427  1.00  0.00     0.010 A 
ATOM     34  C   UNL A   1      36.273  33.292  30.660  1.00  0.00    -0.014 A 
BRANCH  34  35
ATOM     35  C   UNL A   1      37.395  32.597  31.339  1.00  0.00     0.031 A 
ATOM     36  C   UNL A   1      38.092  31.443  30.672  1.00  0.00     0.074 A 
ATOM     37  C   UNL A   1      37.758  32.981  32.578  1.00  0.00     0.049 A 
ATOM     38  N   UNL A   1      39.087  30.714  31.108  1.00  0.00    -0.248 NA
ATOM     39  C   UNL A   1      37.586  31.035  29.352  1.00  0.00     0.031 C 
ATOM     40  C   UNL A   1      37.117  34.043  33.355  1.00  0.00     0.029 A 
ATOM     41  N   UNL A   1      38.754  32.522  33.404  1.00  0.00    -0.354 N 
ATOM     42  C   UNL A   1      39.320  29.762  30.125  1.00  0.00     0.074 A 
ATOM     43  C   UNL A   1      38.322  29.963  29.097  1.00  0.00     0.031 C 
ATOM     44  C   UNL A   1      37.756  34.179  34.528  1.00  0.00     0.029 A 
ATOM     45  C   UNL A   1      38.826  33.189  34.604  1.00  0.00     0.049 A 
ATOM     46  H   UNL A   1      39.359  31.786  33.160  1.00  0.00     0.167 HD
ATOM     47  C   UNL A   1      40.293  28.822  30.071  1.00  0.00     0.037 A 
ATOM     48  C   UNL A   1      39.659  33.019  35.646  1.00  0.00     0.037 A 
ATOM     49  C   UNL A   1      41.295  28.639  31.089  1.00  0.00     0.049 A 
ATOM     50  C   UNL A   1      40.731  31.966  35.560  1.00  0.00     0.074 A 
ATOM     51  C   UNL A   1      42.366  27.762  31.098  1.00  0.00     0.029 A 
ATOM     52  N   UNL A   1      41.342  29.339  32.286  1.00  0.00    -0.354 N 
ATOM     53  N   UNL A   1      40.999  31.133  34.584  1.00  0.00    -0.248 NA
ATOM     54  C   UNL A   1      41.625  31.837  36.719  1.00  0.00     0.031 C 
ATOM     55  C   UNL A   1      43.023  27.887  32.326  1.00  0.00     0.029 A 
ATOM     56  C   UNL A   1      42.405  28.891  33.055  1.00  0.00     0.049 A 
ATOM     57  H   UNL A   1      40.715  30.050  32.551  1.00  0.00     0.167 HD
ATOM     58  C   UNL A   1      42.107  30.404  34.996  1.00  0.00     0.074 A 
ATOM     59  C   UNL A   1      42.474  30.910  36.302  1.00  0.00     0.031 C 
ATOM     60  C   UNL A   1      42.761  29.405  34.354  1.00  0.00     0.037 A 
BRANCH  47  61
ATOM     61  C   UNL A   1      40.324  27.915  28.873  1.00  0.00     0.064 A 
ATOM     62  C   UNL A   1      41.048  28.242  27.716  1.00  0.00     0.173 A 
ATOM     63  C   UNL A   1      39.655  26.682  28.898  1.00  0.00     0.173 A 
ATOM     64  F   UNL A   1      41.697  29.414  27.634  1.00  0.00    -0.203 F 
ATOM     65  C   UNL A   1      41.078  27.384  26.620  1.00  0.00     0.198 A 
ATOM     66  C   UNL A   1      39.715  25.811  27.814  1.00  0.00     0.198 A 
ATOM     67  F   UNL A   1      38.951  26.316  29.980  1.00  0.00    -0.203 F 
ATOM     68  F   UNL A   1      41.734  27.742  25.508  1.00  0.00    -0.200 F 
ATOM     69  C   UNL A   1      40.420  26.165  26.673  1.00  0.00     0.200 A 
ATOM     70  F   UNL A   1      39.091  24.626  27.874  1.00  0.00    -0.200 F 
ATOM     71  F   UNL A   1      40.458  25.334  25.623  1.00  0.00    -0.200 F 
ENDBRANCH  47  61
BRANCH  48  72
ATOM     72  C   UNL A   1      39.528  33.878  36.855  1.00  0.00     0.064 A 
ATOM     73  C   UNL A   1      38.786  33.454  37.967  1.00  0.00     0.173 A 
ATOM     74  C   UNL A   1      40.125  35.145  36.917  1.00  0.00     0.173 A 
ATOM     75  F   UNL A   1      38.180  32.257  37.951  1.00  0.00    -0.203 F 
ATOM     76  C   UNL A   1      38.621  34.277  39.079  1.00  0.00     0.198 A 
ATOM     77  C   UNL A   1      39.988  35.953  38.043  1.00  0.00     0.198 A 
ATOM     78  F   UNL A   1      40.852  35.597  35.884  1.00  0.00    -0.203 F 
ATOM     79  F   UNL A   1      37.858  33.870  40.103  1.00  0.00    -0.200 F 
ATOM     80  C   UNL A   1      39.226  35.523  39.120  1.00  0.00     0.200 A 
ATOM     81  F   UNL A   1      40.590  37.150  38.085  1.00  0.00    -0.200 F 
ATOM     82  F   UNL A   1      39.068  36.313  40.190  1.00  0.00    -0.200 F 
ENDBRANCH  48  72
BRANCH  60  83
ATOM     83  C   UNL A   1      43.962  28.817  35.039  1.00  0.00     0.064 A 
ATOM     84  C   UNL A   1      43.859  27.707  35.891  1.00  0.00     0.173 A 
ATOM     85  C   UNL A   1      45.237  29.363  34.825  1.00  0.00     0.173 A 
ATOM     86  F   UNL A   1      42.662  27.155  36.141  1.00  0.00    -0.203 F 
ATOM     87  C   UNL A   1      44.982  27.190  36.532  1.00  0.00     0.198 A 
ATOM     88  C   UNL A   1      46.363  28.819  35.438  1.00  0.00     0.198 A 
ATOM     89  F   UNL A   1      45.395  30.419  34.013  1.00  0.00    -0.203 F 
ATOM     90  F   UNL A   1      44.850  26.171  37.392  1.00  0.00    -0.200 F 
ATOM     91  C   UNL A   1      46.233  27.741  36.300  1.00  0.00     0.200 A 
ATOM     92  F   UNL A   1      47.574  29.342  35.197  1.00  0.00    -0.200 F 
ATOM     93  F   UNL A   1      47.313  27.241  36.915  1.00  0.00    -0.200 F 
ENDBRANCH  60  83
ENDBRANCH  34  35
ENDBRANCH  26  29
ENDBRANCH  24  25
ENDBRANCH  23  24
ENDBRANCH  22  23
ENDBRANCH   1  22
TORSDOF 16
ENDMDL
MODEL 2
REMARK VINA RESULT:     -11.6      0.728      7.304
REMARK SMILES CCOC(=O)NC(=O)COc1csc(C(=O)NCCCCNC(=O)c2ccc(-c3c4nc(c(-c5c(F)c(F)c(F)c(F)c5F)c5ccc([nH]5)c(-c5c(F)c(F)c(F)c(F)c5F)c5nc(c(-c6c(F)c(F)c(F)c(F)c6F)c6ccc3[nH]6)C=C5)C=C4)cc2)c1
REMARK SMILES IDX 18 1 17 2 15 3 16 4 14 6 11 7 12 8 88 9 13 10 10 11 9 12
REMARK SMILES IDX 7 13 4 14 5 15 6 16 8 18 3 19 2 20 1 21 19 22 20 23 21 24
REMARK SMILES IDX 22 25 23 26 24 28 25 29 26 30 87 31 27 32 86 33 28 34 29 35
REMARK SMILES IDX 30 36 80 37 31 38 85 39 79 40 81 41 32 42 84 43 78 44 77 45
REMARK SMILES IDX 33 47 65 48 45 49 64 50 46 51 49 52 63 53 82 54 47 55 48 56
REMARK SMILES IDX 62 58 83 59 50 60 34 61 35 62 43 63 36 64 37 65 41 66 44 67
REMARK SMILES IDX 38 68 39 69 42 70 40 71 66 72 67 73 75 74 68 75 69 76 73 77
REMARK SMILES IDX 76 78 70 79 71 80 74 81 72 82 51 83 52 84 60 85 53 86 54 87
REMARK SMILES IDX 58 88 61 89 55 90 56 91 59 92 57 93
REMARK H PARENT 17 5 6 17 22 27 81 46 49 57
REMARK Flexibility Score: inf
ROOT
ATOM      1  C   UNL A   1      33.102  30.014  26.062  1.00  0.00     0.116 C 
ENDROOT
BRANCH   1   2
ATOM      2  N   UNL A   1      33.232  29.824  24.633  1.00  0.00    -0.351 N 
ATOM      3  C   UNL A   1      32.706  28.877  23.784  1.00  0.00     0.261 C 
ATOM      4  O   UNL A   1      32.998  29.026  22.595  1.00  0.00    -0.268 OA
ATOM      5  H   UNL A   1      33.798  30.496  24.187  1.00  0.00     0.163 HD
BRANCH   3   6
ATOM      6  C   UNL A   1      31.843  27.809  24.275  1.00  0.00     0.096 A 
ATOM      7  C   UNL A   1      30.778  26.171  25.563  1.00  0.00     0.131 A 
ATOM      8  C   UNL A   1      29.852  26.343  24.564  1.00  0.00     0.112 A 
ATOM      9  C   UNL A   1      31.947  26.946  25.349  1.00  0.00     0.072 A 
ATOM     10  S   UNL A   1      30.390  27.481  23.403  1.00  0.00    -0.135 S 
BRANCH   7  11
ATOM     11  O   UNL A   1      30.608  25.475  26.709  1.00  0.00    -0.483 OA
BRANCH  11  12
ATOM     12  C   UNL A   1      31.309  24.254  26.803  1.00  0.00     0.329 C 
BRANCH  12  13
ATOM     13  C   UNL A   1      30.499  22.966  26.913  1.00  0.00     0.267 C 
ATOM     14  C   UNL A   1      31.844  21.533  25.294  1.00  0.00     0.413 C 
ATOM     15  O   UNL A   1      31.958  20.395  24.859  1.00  0.00    -0.224 OA
ATOM     16  N   UNL A   1      30.867  21.835  26.221  1.00  0.00    -0.258 N 
ATOM     17  H   UNL A   1      30.301  21.059  26.438  1.00  0.00     0.176 HD
ATOM     18  O   UNL A   1      29.478  22.920  27.609  1.00  0.00    -0.271 OA
BRANCH  14  19
ATOM     19  O   UNL A   1      32.611  22.583  24.923  1.00  0.00    -0.450 OA
BRANCH  19  20
ATOM     20  C   UNL A   1      32.950  22.665  23.529  1.00  0.00     0.231 C 
ATOM     21  C   UNL A   1      32.232  23.817  22.846  1.00  0.00     0.049 C 
ENDBRANCH  19  20
ENDBRANCH  14  19
ENDBRANCH  12  13
ENDBRANCH  11  12
ENDBRANCH   7  11
ENDBRANCH   3   6
ENDBRANCH   1   2
BRANCH   1  22
ATOM     22  C   UNL A   1      31.688  30.472  26.421  1.00  0.00     0.023 C 
BRANCH  22  23
ATOM     23  C   UNL A   1      31.546  31.992  26.543  1.00  0.00     0.023 C 
BRANCH  23  24
ATOM     24  C   UNL A   1      32.714  32.689  27.231  1.00  0.00     0.116 C 
BRANCH  24  25
ATOM     25  N   UNL A   1      32.414  34.055  27.631  1.00  0.00    -0.352 N 
ATOM     26  C   UNL A   1      33.024  34.816  28.598  1.00  0.00     0.251 C 
ATOM     27  H   UNL A   1      31.677  34.491  27.145  1.00  0.00     0.163 HD
ATOM     28  O   UNL A   1      32.571  35.913  28.904  1.00  0.00    -0.269 OA
BRANCH  26  29
ATOM     29  C   UNL A   1      34.209  34.279  29.296  1.00  0.00     0.039 A 
ATOM     30  C   UNL A   1      34.017  33.451  30.403  1.00  0.00     0.014 A 
ATOM     31  C   UNL A   1      35.498  34.561  28.836  1.00  0.00     0.014 A 
ATOM     32  C   UNL A   1      35.121  32.854  31.012  1.00  0.00     0.010 A 
ATOM     33  C   UNL A   1      36.588  33.899  29.392  1.00  0.00     0.010 A 
ATOM     34  C   UNL A   1      36.412  33.043  30.488  1.00  0.00    -0.014 A 
BRANCH  34  35
ATOM     35  C   UNL A   1      37.579  32.338  31.076  1.00  0.00     0.031 A 
ATOM     36  C   UNL A   1      38.088  32.716  32.440  1.00  0.00     0.074 A 
ATOM     37  C   UNL A   1      38.206  31.385  30.360  1.00  0.00     0.049 A 
ATOM     38  N   UNL A   1      39.092  32.217  33.115  1.00  0.00    -0.248 NA
ATOM     39  C   UNL A   1      37.397  33.820  33.125  1.00  0.00     0.031 C 
ATOM     40  C   UNL A   1      37.846  30.975  29.002  1.00  0.00     0.029 A 
ATOM     41  N   UNL A   1      39.278  30.587  30.673  1.00  0.00    -0.354 N 
ATOM     42  C   UNL A   1      39.156  32.947  34.295  1.00  0.00     0.074 A 
ATOM     43  C   UNL A   1      38.132  33.965  34.218  1.00  0.00     0.031 C 
ATOM     44  C   UNL A   1      38.658  29.980  28.611  1.00  0.00     0.029 A 
ATOM     45  C   UNL A   1      39.621  29.708  29.674  1.00  0.00     0.049 A 
ATOM     46  H   UNL A   1      39.756  30.640  31.532  1.00  0.00     0.167 HD
ATOM     47  C   UNL A   1      39.977  32.767  35.356  1.00  0.00     0.037 A 
ATOM     48  C   UNL A   1      40.601  28.788  29.622  1.00  0.00     0.037 A 
ATOM     49  C   UNL A   1      40.983  31.739  35.434  1.00  0.00     0.049 A 
ATOM     50  C   UNL A   1      41.501  28.610  30.816  1.00  0.00     0.074 A 
ATOM     51  C   UNL A   1      41.819  31.429  36.492  1.00  0.00     0.029 A 
ATOM     52  N   UNL A   1      41.295  30.860  34.407  1.00  0.00    -0.354 N 
ATOM     53  N   UNL A   1      41.491  29.245  31.964  1.00  0.00    -0.248 NA
ATOM     54  C   UNL A   1      42.542  27.579  30.712  1.00  0.00     0.031 C 
ATOM     55  C   UNL A   1      42.680  30.406  36.084  1.00  0.00     0.029 A 
ATOM     56  C   UNL A   1      42.334  30.029  34.795  1.00  0.00     0.049 A 
ATOM     57  H   UNL A   1      40.845  30.830  33.532  1.00  0.00     0.167 HD
ATOM     58  C   UNL A   1      42.499  28.672  32.727  1.00  0.00     0.074 A 
ATOM     59  C   UNL A   1      43.086  27.622  31.919  1.00  0.00     0.031 C 
ATOM     60  C   UNL A   1      42.907  28.986  33.981  1.00  0.00     0.037 A 
BRANCH  47  61
ATOM     61  C   UNL A   1      39.827  33.703  36.523  1.00  0.00     0.064 A 
ATOM     62  C   UNL A   1      40.500  34.934  36.575  1.00  0.00     0.173 A 
ATOM     63  C   UNL A   1      38.965  33.385  37.582  1.00  0.00     0.173 A 
ATOM     64  F   UNL A   1      41.345  35.284  35.594  1.00  0.00    -0.203 F 
ATOM     65  C   UNL A   1      40.338  35.795  37.657  1.00  0.00     0.198 A 
ATOM     66  C   UNL A   1      38.779  34.264  38.646  1.00  0.00     0.198 A 
ATOM     67  F   UNL A   1      38.292  32.224  37.582  1.00  0.00    -0.203 F 
ATOM     68  F   UNL A   1      41.032  36.941  37.708  1.00  0.00    -0.200 F 
ATOM     69  C   UNL A   1      39.471  35.465  38.686  1.00  0.00     0.200 A 
ATOM     70  F   UNL A   1      37.927  33.949  39.632  1.00  0.00    -0.200 F 
ATOM     71  F   UNL A   1      39.307  36.299  39.721  1.00  0.00    -0.200 F 
ENDBRANCH  47  61
BRANCH  48  72
ATOM     72  C   UNL A   1      40.775  27.949  28.405  1.00  0.00     0.064 A 
ATOM     73  C   UNL A   1      40.178  26.683  28.307  1.00  0.00     0.173 A 
ATOM     74  C   UNL A   1      41.556  28.385  27.325  1.00  0.00     0.173 A 
ATOM     75  F   UNL A   1      39.437  26.212  29.322  1.00  0.00    -0.203 F 
ATOM     76  C   UNL A   1      40.381  25.876  27.191  1.00  0.00     0.198 A 
ATOM     77  C   UNL A   1      41.729  27.591  26.194  1.00  0.00     0.198 A 
ATOM     78  F   UNL A   1      42.143  29.589  27.363  1.00  0.00    -0.203 F 
ATOM     79  F   UNL A   1      39.846  24.647  27.149  1.00  0.00    -0.200 F 
ATOM     80  C   UNL A   1      41.151  26.331  26.132  1.00  0.00     0.200 A 
ATOM     81  F   UNL A   1      42.460  28.043  25.165  1.00  0.00    -0.200 F 
ATOM     82  F   UNL A   1      41.345  25.555  25.058  1.00  0.00    -0.200 F 
ENDBRANCH  48  72
BRANCH  60  83
ATOM     83  C   UNL A   1      44.016  28.161  34.571  1.00  0.00     0.064 A 
ATOM     84  C   UNL A   1      43.763  26.962  35.255  1.00  0.00     0.173 A 
ATOM     85  C   UNL A   1      45.352  28.568  34.433  1.00  0.00     0.173 A 
ATOM     86  F   UNL A   1      42.503  26.534  35.427  1.00  0.00    -0.203 F 
ATOM     87  C   UNL A   1      44.803  26.222  35.811  1.00  0.00     0.198 A 
ATOM     88  C   UNL A   1      46.392  27.805  34.958  1.00  0.00     0.198 A 
ATOM     89  F   UNL A   1      45.652  29.700  33.781  1.00  0.00    -0.203 F 
ATOM     90  F   UNL A   1      44.532  25.116  36.517  1.00  0.00    -0.200 F 
ATOM     91  C   UNL A   1      46.116  26.640  35.657  1.00  0.00     0.200 A 
ATOM     92  F   UNL A   1      47.662  28.201  34.791  1.00  0.00    -0.200 F 
ATOM     93  F   UNL A   1      47.116  25.925  36.191  1.00  0.00    -0.200 F 
ENDBRANCH  60  83
ENDBRANCH  34  35
ENDBRANCH  26  29
ENDBRANCH  24  25
ENDBRANCH  23  24
ENDBRANCH  22  23
ENDBRANCH   1  22
TORSDOF 16
ENDMDL
MODEL 3
REMARK VINA RESULT:     -11.5      1.133      7.625
REMARK SMILES CCOC(=O)NC(=O)COc1csc(C(=O)NCCCCNC(=O)c2ccc(-c3c4nc(c(-c5c(F)c(F)c(F)c(F)c5F)c5ccc([nH]5)c(-c5c(F)c(F)c(F)c(F)c5F)c5nc(c(-c6c(F)c(F)c(F)c(F)c6F)c6ccc3[nH]6)C=C5)C=C4)cc2)c1
REMARK SMILES IDX 18 1 17 2 15 3 16 4 14 6 11 7 12 8 88 9 13 10 10 11 9 12
REMARK SMILES IDX 7 13 4 14 5 15 6 16 8 18 3 19 2 20 1 21 19 22 20 23 21 24
REMARK SMILES IDX 22 25 23 26 24 28 25 29 26 30 87 31 27 32 86 33 28 34 29 35
REMARK SMILES IDX 30 36 80 37 31 38 85 39 79 40 81 41 32 42 84 43 78 44 77 45
REMARK SMILES IDX 33 47 65 48 45 49 64 50 46 51 49 52 63 53 82 54 47 55 48 56
REMARK SMILES IDX 62 58 83 59 50 60 34 61 35 62 43 63 36 64 37 65 41 66 44 67
REMARK SMILES IDX 38 68 39 69 42 70 40 71 66 72 67 73 75 74 68 75 69 76 73 77
REMARK SMILES IDX 76 78 70 79 71 80 74 81 72 82 51 83 52 84 60 85 53 86 54 87
REMARK SMILES IDX 58 88 61 89 55 90 56 91 59 92 57 93
REMARK H PARENT 17 5 6 17 22 27 81 46 49 57
REMARK Flexibility Score: inf
ROOT
ATOM      1  C   UNL A   1      32.121  29.891  25.474  1.00  0.00     0.116 C 
ENDROOT
BRANCH   1   2
ATOM      2  N   UNL A   1      31.048  30.097  24.523  1.00  0.00    -0.351 N 
ATOM      3  C   UNL A   1      30.339  29.215  23.740  1.00  0.00     0.261 C 
ATOM      4  O   UNL A   1      29.455  29.730  23.050  1.00  0.00    -0.268 OA
ATOM      5  H   UNL A   1      30.777  31.038  24.420  1.00  0.00     0.163 HD
BRANCH   3   6
ATOM      6  C   UNL A   1      30.608  27.782  23.770  1.00  0.00     0.096 A 
ATOM      7  C   UNL A   1      30.604  25.488  24.229  1.00  0.00     0.131 A 
ATOM      8  C   UNL A   1      31.266  25.499  23.027  1.00  0.00     0.112 A 
ATOM      9  C   UNL A   1      30.305  26.796  24.689  1.00  0.00     0.072 A 
ATOM     10  S   UNL A   1      31.473  27.096  22.443  1.00  0.00    -0.135 S 
BRANCH   7  11
ATOM     11  O   UNL A   1      30.137  24.400  24.883  1.00  0.00    -0.483 OA
BRANCH  11  12
ATOM     12  C   UNL A   1      31.109  23.469  25.309  1.00  0.00     0.329 C 
BRANCH  12  13
ATOM     13  C   UNL A   1      31.069  23.002  26.762  1.00  0.00     0.267 C 
ATOM     14  C   UNL A   1      33.376  21.929  26.876  1.00  0.00     0.413 C 
ATOM     15  O   UNL A   1      34.176  21.411  27.644  1.00  0.00    -0.224 OA
ATOM     16  N   UNL A   1      32.150  22.369  27.332  1.00  0.00    -0.258 N 
ATOM     17  H   UNL A   1      32.017  22.188  28.290  1.00  0.00     0.176 HD
ATOM     18  O   UNL A   1      30.054  23.163  27.448  1.00  0.00    -0.271 OA
BRANCH  14  19
ATOM     19  O   UNL A   1      33.580  22.108  25.552  1.00  0.00    -0.450 OA
BRANCH  19  20
ATOM     20  C   UNL A   1      33.811  20.921  24.776  1.00  0.00     0.231 C 
ATOM     21  C   UNL A   1      32.625  19.973  24.838  1.00  0.00     0.049 C 
ENDBRANCH  19  20
ENDBRANCH  14  19
ENDBRANCH  12  13
ENDBRANCH  11  12
ENDBRANCH   7  11
ENDBRANCH   3   6
ENDBRANCH   1   2
BRANCH   1  22
ATOM     22  C   UNL A   1      31.750  30.467  26.841  1.00  0.00     0.023 C 
BRANCH  22  23
ATOM     23  C   UNL A   1      31.521  31.982  26.829  1.00  0.00     0.023 C 
BRANCH  23  24
ATOM     24  C   UNL A   1      32.750  32.816  27.175  1.00  0.00     0.116 C 
BRANCH  24  25
ATOM     25  N   UNL A   1      32.425  34.167  27.606  1.00  0.00    -0.352 N 
ATOM     26  C   UNL A   1      33.009  34.909  28.603  1.00  0.00     0.251 C 
ATOM     27  H   UNL A   1      31.690  34.606  27.120  1.00  0.00     0.163 HD
ATOM     28  O   UNL A   1      32.536  35.991  28.931  1.00  0.00    -0.269 OA
BRANCH  26  29
ATOM     29  C   UNL A   1      34.188  34.368  29.307  1.00  0.00     0.039 A 
ATOM     30  C   UNL A   1      33.991  33.592  30.449  1.00  0.00     0.014 A 
ATOM     31  C   UNL A   1      35.478  34.596  28.819  1.00  0.00     0.014 A 
ATOM     32  C   UNL A   1      35.087  32.991  31.068  1.00  0.00     0.010 A 
ATOM     33  C   UNL A   1      36.558  33.928  29.386  1.00  0.00     0.010 A 
ATOM     34  C   UNL A   1      36.375  33.122  30.519  1.00  0.00    -0.014 A 
BRANCH  34  35
ATOM     35  C   UNL A   1      37.531  32.410  31.120  1.00  0.00     0.031 A 
ATOM     36  C   UNL A   1      38.031  32.790  32.486  1.00  0.00     0.074 A 
ATOM     37  C   UNL A   1      38.155  31.448  30.414  1.00  0.00     0.049 A 
ATOM     38  N   UNL A   1      39.026  32.285  33.172  1.00  0.00    -0.248 NA
ATOM     39  C   UNL A   1      37.344  33.902  33.161  1.00  0.00     0.031 C 
ATOM     40  C   UNL A   1      37.804  31.035  29.054  1.00  0.00     0.029 A 
ATOM     41  N   UNL A   1      39.218  30.643  30.739  1.00  0.00    -0.354 N 
ATOM     42  C   UNL A   1      39.086  33.019  34.349  1.00  0.00     0.074 A 
ATOM     43  C   UNL A   1      38.071  34.046  34.259  1.00  0.00     0.031 C 
ATOM     44  C   UNL A   1      38.611  30.032  28.675  1.00  0.00     0.029 A 
ATOM     45  C   UNL A   1      39.562  29.756  29.747  1.00  0.00     0.049 A 
ATOM     46  H   UNL A   1      39.689  30.695  31.601  1.00  0.00     0.167 HD
ATOM     47  C   UNL A   1      39.897  32.837  35.418  1.00  0.00     0.037 A 
ATOM     48  C   UNL A   1      40.535  28.828  29.707  1.00  0.00     0.037 A 
ATOM     49  C   UNL A   1      40.893  31.801  35.509  1.00  0.00     0.049 A 
ATOM     50  C   UNL A   1      41.423  28.648  30.909  1.00  0.00     0.074 A 
ATOM     51  C   UNL A   1      41.717  31.489  36.575  1.00  0.00     0.029 A 
ATOM     52  N   UNL A   1      41.206  30.915  34.488  1.00  0.00    -0.354 N 
ATOM     53  N   UNL A   1      41.409  29.288  32.054  1.00  0.00    -0.248 NA
ATOM     54  C   UNL A   1      42.456  27.608  30.818  1.00  0.00     0.031 C 
ATOM     55  C   UNL A   1      42.573  30.457  36.178  1.00  0.00     0.029 A 
ATOM     56  C   UNL A   1      42.235  30.077  34.889  1.00  0.00     0.049 A 
ATOM     57  H   UNL A   1      40.763  30.886  33.609  1.00  0.00     0.167 HD
ATOM     58  C   UNL A   1      42.406  28.710  32.828  1.00  0.00     0.074 A 
ATOM     59  C   UNL A   1      42.990  27.651  32.030  1.00  0.00     0.031 C 
ATOM     60  C   UNL A   1      42.806  29.026  34.084  1.00  0.00     0.037 A 
BRANCH  47  61
ATOM     61  C   UNL A   1      39.744  33.780  36.579  1.00  0.00     0.064 A 
ATOM     62  C   UNL A   1      38.903  33.487  37.664  1.00  0.00     0.173 A 
ATOM     63  C   UNL A   1      40.482  34.972  36.628  1.00  0.00     0.173 A 
ATOM     64  F   UNL A   1      38.166  32.366  37.664  1.00  0.00    -0.203 F 
ATOM     65  C   UNL A   1      38.785  34.365  38.738  1.00  0.00     0.198 A 
ATOM     66  C   UNL A   1      40.388  35.831  37.720  1.00  0.00     0.198 A 
ATOM     67  F   UNL A   1      41.306  35.300  35.621  1.00  0.00    -0.203 F 
ATOM     68  F   UNL A   1      37.936  34.088  39.738  1.00  0.00    -0.200 F 
ATOM     69  C   UNL A   1      39.534  35.531  38.770  1.00  0.00     0.200 A 
ATOM     70  F   UNL A   1      41.125  36.950  37.755  1.00  0.00    -0.200 F 
ATOM     71  F   UNL A   1      39.428  36.370  39.810  1.00  0.00    -0.200 F 
ENDBRANCH  47  61
BRANCH  48  72
ATOM     72  C   UNL A   1      40.712  27.982  28.495  1.00  0.00     0.064 A 
ATOM     73  C   UNL A   1      41.497  28.416  27.418  1.00  0.00     0.173 A 
ATOM     74  C   UNL A   1      40.085  26.733  28.381  1.00  0.00     0.173 A 
ATOM     75  F   UNL A   1      42.103  29.612  27.469  1.00  0.00    -0.203 F 
ATOM     76  C   UNL A   1      41.622  27.648  26.262  1.00  0.00     0.198 A 
ATOM     77  C   UNL A   1      40.240  25.950  27.240  1.00  0.00     0.198 A 
ATOM     78  F   UNL A   1      39.329  26.266  29.385  1.00  0.00    -0.203 F 
ATOM     79  F   UNL A   1      42.331  28.114  25.224  1.00  0.00    -0.200 F 
ATOM     80  C   UNL A   1      40.999  26.413  26.175  1.00  0.00     0.200 A 
ATOM     81  F   UNL A   1      39.649  24.748  27.168  1.00  0.00    -0.200 F 
ATOM     82  F   UNL A   1      41.121  25.674  25.064  1.00  0.00    -0.200 F 
ENDBRANCH  48  72
BRANCH  60  83
ATOM     83  C   UNL A   1      43.903  28.194  34.687  1.00  0.00     0.064 A 
ATOM     84  C   UNL A   1      45.252  28.571  34.597  1.00  0.00     0.173 A 
ATOM     85  C   UNL A   1      43.597  27.014  35.381  1.00  0.00     0.173 A 
ATOM     86  F   UNL A   1      45.601  29.684  33.934  1.00  0.00    -0.203 F 
ATOM     87  C   UNL A   1      46.255  27.776  35.146  1.00  0.00     0.198 A 
ATOM     88  C   UNL A   1      44.600  26.241  35.961  1.00  0.00     0.198 A 
ATOM     89  F   UNL A   1      42.324  26.612  35.505  1.00  0.00    -0.203 F 
ATOM     90  F   UNL A   1      47.540  28.121  34.990  1.00  0.00    -0.200 F 
ATOM     91  C   UNL A   1      45.928  26.616  35.832  1.00  0.00     0.200 A 
ATOM     92  F   UNL A   1      44.280  25.131  36.641  1.00  0.00    -0.200 F 
ATOM     93  F   UNL A   1      46.895  25.854  36.362  1.00  0.00    -0.200 F 
ENDBRANCH  60  83
ENDBRANCH  34  35
ENDBRANCH  26  29
ENDBRANCH  24  25
ENDBRANCH  23  24
ENDBRANCH  22  23
ENDBRANCH   1  22
TORSDOF 16
ENDMDL
