MODEL 1
REMARK VINA RESULT:     -13.7      0.000      0.000
REMARK SMILES Cc1c(C(=O)NCCCCNC(=O)c2ccc(-c3c4nc(c(-c5c(F)c(F)c(F)c(F)c5F)c5ccc([nH]5)c(-c5c(F)c(F)c(F)c(F)c5F)c5nc(c(-c6c(F)c(F)c(F)c(F)c6F)c6ccc3[nH]6)C=C5)C=C4)cc2)sc2c1=C(CSc1nncn1-c1ccccc1)CC(=O)N=2
REMARK SMILES IDX 7 1 6 2 4 3 5 4 3 6 1 7 2 8 79 9 77 10 78 11 80 12 97 13
REMARK SMILES IDX 94 14 95 15 96 16 81 17 82 18 83 19 84 20 87 21 85 22 86 23
REMARK SMILES IDX 88 24 89 25 93 26 90 27 92 28 91 29 8 30 9 31 10 32 11 33
REMARK SMILES IDX 12 34 13 36 14 37 15 38 76 39 16 40 75 41 17 42 18 43 19 44
REMARK SMILES IDX 69 45 20 46 74 47 68 48 70 49 21 50 73 51 67 52 66 53 22 55
REMARK SMILES IDX 54 56 34 57 53 58 35 59 38 60 52 61 71 62 36 63 37 64 51 66
REMARK SMILES IDX 72 67 39 68 23 69 24 70 32 71 25 72 26 73 30 74 33 75 27 76
REMARK SMILES IDX 28 77 31 78 29 79 55 80 56 81 64 82 57 83 58 84 62 85 65 86
REMARK SMILES IDX 59 87 60 88 63 89 61 90 40 91 41 92 49 93 42 94 43 95 47 96
REMARK SMILES IDX 50 97 44 98 45 99 48 100 46 101
REMARK H PARENT 6 5 11 35 70 54 38 65
REMARK Flexibility Score: inf
ROOT
ATOM      1  C   UNL A   1      36.792  21.204  25.048  1.00  0.00     0.116 C 
ENDROOT
BRANCH   1   2
ATOM      2  N   UNL A   1      35.953  21.305  26.223  1.00  0.00    -0.351 N 
ATOM      3  C   UNL A   1      34.726  21.819  26.497  1.00  0.00     0.261 C 
ATOM      4  O   UNL A   1      34.278  21.449  27.591  1.00  0.00    -0.268 OA
ATOM      5  H   UNL A   1      36.375  20.904  27.018  1.00  0.00     0.163 HD
BRANCH   3   6
ATOM      6  C   UNL A   1      33.892  22.731  25.614  1.00  0.00     0.098 A 
ATOM      7  C   UNL A   1      32.303  21.348  24.134  1.00  0.00     0.047 C 
ATOM      8  C   UNL A   1      32.894  22.588  24.705  1.00  0.00    -0.018 A 
ATOM      9  C   UNL A   1      32.498  23.865  24.091  1.00  0.00     0.016 A 
ATOM     10  S   UNL A   1      34.518  24.423  25.588  1.00  0.00    -0.110 S 
ATOM     11  C   UNL A   1      33.648  24.802  24.127  1.00  0.00     0.128 A 
ATOM     12  C   UNL A   1      31.654  24.099  23.063  1.00  0.00    -0.040 C 
ATOM     13  N   UNL A   1      34.024  25.663  23.254  1.00  0.00    -0.202 NA
ATOM     14  C   UNL A   1      32.360  24.533  21.783  1.00  0.00     0.135 C 
ATOM     15  C   UNL A   1      33.275  25.727  22.091  1.00  0.00     0.251 C 
ATOM     16  O   UNL A   1      33.355  26.654  21.302  1.00  0.00    -0.272 OA
BRANCH  12  17
ATOM     17  C   UNL A   1      30.434  25.004  23.279  1.00  0.00     0.110 C 
BRANCH  17  18
ATOM     18  S   UNL A   1      30.687  26.312  24.488  1.00  0.00    -0.081 SA
BRANCH  18  19
ATOM     19  C   UNL A   1      30.718  27.713  23.470  1.00  0.00     0.195 A 
ATOM     20  N   UNL A   1      29.956  27.866  22.409  1.00  0.00    -0.123 NA
ATOM     21  N   UNL A   1      31.384  28.891  23.751  1.00  0.00    -0.277 N 
ATOM     22  N   UNL A   1      30.086  29.158  21.977  1.00  0.00    -0.138 NA
ATOM     23  C   UNL A   1      30.926  29.760  22.786  1.00  0.00     0.231 A 
BRANCH  21  24
ATOM     24  C   UNL A   1      32.214  29.230  24.849  1.00  0.00     0.049 A 
ATOM     25  C   UNL A   1      33.441  28.590  25.075  1.00  0.00     0.027 A 
ATOM     26  C   UNL A   1      31.730  30.145  25.787  1.00  0.00     0.027 A 
ATOM     27  C   UNL A   1      34.117  28.765  26.279  1.00  0.00     0.002 A 
ATOM     28  C   UNL A   1      32.404  30.304  26.988  1.00  0.00     0.002 A 
ATOM     29  C   UNL A   1      33.580  29.598  27.247  1.00  0.00     0.000 A 
ENDBRANCH  21  24
ENDBRANCH  18  19
ENDBRANCH  17  18
ENDBRANCH  12  17
ENDBRANCH   3   6
ENDBRANCH   1   2
BRANCH   1  30
ATOM     30  C   UNL A   1      38.262  20.886  25.381  1.00  0.00     0.023 C 
BRANCH  30  31
ATOM     31  C   UNL A   1      39.036  21.953  26.182  1.00  0.00     0.023 C 
BRANCH  31  32
ATOM     32  C   UNL A   1      40.277  21.462  26.923  1.00  0.00     0.116 C 
BRANCH  32  33
ATOM     33  N   UNL A   1      41.532  21.547  26.159  1.00  0.00    -0.352 N 
ATOM     34  C   UNL A   1      42.293  22.674  25.861  1.00  0.00     0.251 C 
ATOM     35  H   UNL A   1      41.878  20.694  25.812  1.00  0.00     0.163 HD
ATOM     36  O   UNL A   1      43.078  22.671  24.920  1.00  0.00    -0.269 OA
BRANCH  34  37
ATOM     37  C   UNL A   1      42.191  23.866  26.731  1.00  0.00     0.039 A 
ATOM     38  C   UNL A   1      42.778  23.982  27.992  1.00  0.00     0.014 A 
ATOM     39  C   UNL A   1      41.422  24.907  26.242  1.00  0.00     0.014 A 
ATOM     40  C   UNL A   1      42.604  25.176  28.703  1.00  0.00     0.010 A 
ATOM     41  C   UNL A   1      41.394  26.127  26.836  1.00  0.00     0.010 A 
ATOM     42  C   UNL A   1      41.896  26.235  28.110  1.00  0.00    -0.014 A 
BRANCH  42  43
ATOM     43  C   UNL A   1      41.724  27.537  28.717  1.00  0.00     0.031 A 
ATOM     44  C   UNL A   1      42.728  28.534  28.289  1.00  0.00     0.074 A 
ATOM     45  C   UNL A   1      40.594  27.900  29.362  1.00  0.00     0.049 A 
ATOM     46  N   UNL A   1      43.676  29.019  29.011  1.00  0.00    -0.248 NA
ATOM     47  C   UNL A   1      42.792  28.923  26.872  1.00  0.00     0.031 C 
ATOM     48  C   UNL A   1      39.339  27.157  29.542  1.00  0.00     0.029 A 
ATOM     49  N   UNL A   1      40.307  29.100  29.925  1.00  0.00    -0.354 N 
ATOM     50  C   UNL A   1      44.354  29.922  28.204  1.00  0.00     0.074 A 
ATOM     51  C   UNL A   1      43.889  29.685  26.861  1.00  0.00     0.031 C 
ATOM     52  C   UNL A   1      38.372  28.000  29.975  1.00  0.00     0.029 A 
ATOM     53  C   UNL A   1      38.973  29.291  30.257  1.00  0.00     0.049 A 
ATOM     54  H   UNL A   1      40.994  29.786  30.086  1.00  0.00     0.167 HD
ATOM     55  C   UNL A   1      45.073  30.935  28.759  1.00  0.00     0.037 A 
ATOM     56  C   UNL A   1      38.423  30.451  30.698  1.00  0.00     0.037 A 
ATOM     57  C   UNL A   1      45.239  30.725  30.180  1.00  0.00     0.049 A 
ATOM     58  C   UNL A   1      39.540  31.284  31.224  1.00  0.00     0.074 A 
ATOM     59  C   UNL A   1      45.813  29.726  30.944  1.00  0.00     0.029 A 
ATOM     60  N   UNL A   1      44.402  31.408  31.031  1.00  0.00    -0.354 N 
ATOM     61  N   UNL A   1      40.230  30.976  32.289  1.00  0.00    -0.248 NA
ATOM     62  C   UNL A   1      40.205  32.185  30.292  1.00  0.00     0.031 C 
ATOM     63  C   UNL A   1      44.922  29.549  32.044  1.00  0.00     0.029 A 
ATOM     64  C   UNL A   1      43.907  30.500  31.934  1.00  0.00     0.049 A 
ATOM     65  H   UNL A   1      44.194  32.370  30.998  1.00  0.00     0.167 HD
ATOM     66  C   UNL A   1      41.544  31.274  31.957  1.00  0.00     0.074 A 
ATOM     67  C   UNL A   1      41.458  32.088  30.746  1.00  0.00     0.031 C 
ATOM     68  C   UNL A   1      42.586  30.587  32.512  1.00  0.00     0.037 A 
BRANCH  55  69
ATOM     69  C   UNL A   1      45.315  32.281  28.128  1.00  0.00     0.064 A 
ATOM     70  C   UNL A   1      44.211  33.126  27.899  1.00  0.00     0.173 A 
ATOM     71  C   UNL A   1      46.511  32.648  27.477  1.00  0.00     0.173 A 
ATOM     72  F   UNL A   1      43.024  32.869  28.469  1.00  0.00    -0.203 F 
ATOM     73  C   UNL A   1      44.274  34.195  27.004  1.00  0.00     0.198 A 
ATOM     74  C   UNL A   1      46.584  33.751  26.628  1.00  0.00     0.198 A 
ATOM     75  F   UNL A   1      47.618  31.900  27.538  1.00  0.00    -0.203 F 
ATOM     76  F   UNL A   1      43.162  34.883  26.713  1.00  0.00    -0.200 F 
ATOM     77  C   UNL A   1      45.459  34.500  26.362  1.00  0.00     0.200 A 
ATOM     78  F   UNL A   1      47.739  34.023  26.004  1.00  0.00    -0.200 F 
ATOM     79  F   UNL A   1      45.506  35.482  25.453  1.00  0.00    -0.200 F 
ENDBRANCH  55  69
BRANCH  56  80
ATOM     80  C   UNL A   1      37.080  31.011  30.406  1.00  0.00     0.064 A 
ATOM     81  C   UNL A   1      36.236  31.439  31.445  1.00  0.00     0.173 A 
ATOM     82  C   UNL A   1      36.716  31.410  29.105  1.00  0.00     0.173 A 
ATOM     83  F   UNL A   1      36.527  31.134  32.719  1.00  0.00    -0.203 F 
ATOM     84  C   UNL A   1      35.123  32.253  31.203  1.00  0.00     0.198 A 
ATOM     85  C   UNL A   1      35.602  32.217  28.864  1.00  0.00     0.198 A 
ATOM     86  F   UNL A   1      37.487  31.107  28.050  1.00  0.00    -0.203 F 
ATOM     87  F   UNL A   1      34.385  32.699  32.228  1.00  0.00    -0.200 F 
ATOM     88  C   UNL A   1      34.816  32.653  29.914  1.00  0.00     0.200 A 
ATOM     89  F   UNL A   1      35.336  32.623  27.614  1.00  0.00    -0.200 F 
ATOM     90  F   UNL A   1      33.794  33.489  29.687  1.00  0.00    -0.200 F 
ENDBRANCH  56  80
BRANCH  68  91
ATOM     91  C   UNL A   1      42.298  29.674  33.672  1.00  0.00     0.064 A 
ATOM     92  C   UNL A   1      41.952  28.316  33.544  1.00  0.00     0.173 A 
ATOM     93  C   UNL A   1      42.533  30.154  34.967  1.00  0.00     0.173 A 
ATOM     94  F   UNL A   1      41.811  27.748  32.342  1.00  0.00    -0.203 F 
ATOM     95  C   UNL A   1      41.809  27.496  34.663  1.00  0.00     0.198 A 
ATOM     96  C   UNL A   1      42.427  29.324  36.079  1.00  0.00     0.198 A 
ATOM     97  F   UNL A   1      42.921  31.427  35.149  1.00  0.00    -0.203 F 
ATOM     98  F   UNL A   1      41.470  26.206  34.511  1.00  0.00    -0.200 F 
ATOM     99  C   UNL A   1      42.054  27.998  35.928  1.00  0.00     0.200 A 
ATOM    100  F   UNL A   1      42.715  29.804  37.297  1.00  0.00    -0.200 F 
ATOM    101  F   UNL A   1      41.959  27.199  37.001  1.00  0.00    -0.200 F 
ENDBRANCH  68  91
ENDBRANCH  42  43
ENDBRANCH  34  37
ENDBRANCH  32  33
ENDBRANCH  31  32
ENDBRANCH  30  31
ENDBRANCH   1  30
TORSDOF 15
ENDMDL
MODEL 2
REMARK VINA RESULT:     -13.6      1.426      2.110
REMARK SMILES Cc1c(C(=O)NCCCCNC(=O)c2ccc(-c3c4nc(c(-c5c(F)c(F)c(F)c(F)c5F)c5ccc([nH]5)c(-c5c(F)c(F)c(F)c(F)c5F)c5nc(c(-c6c(F)c(F)c(F)c(F)c6F)c6ccc3[nH]6)C=C5)C=C4)cc2)sc2c1=C(CSc1nncn1-c1ccccc1)CC(=O)N=2
REMARK SMILES IDX 7 1 6 2 4 3 5 4 3 6 1 7 2 8 79 9 77 10 78 11 80 12 97 13
REMARK SMILES IDX 94 14 95 15 96 16 81 17 82 18 83 19 84 20 87 21 85 22 86 23
REMARK SMILES IDX 88 24 89 25 93 26 90 27 92 28 91 29 8 30 9 31 10 32 11 33
REMARK SMILES IDX 12 34 13 36 14 37 15 38 76 39 16 40 75 41 17 42 18 43 19 44
REMARK SMILES IDX 69 45 20 46 74 47 68 48 70 49 21 50 73 51 67 52 66 53 22 55
REMARK SMILES IDX 54 56 34 57 53 58 35 59 38 60 52 61 71 62 36 63 37 64 51 66
REMARK SMILES IDX 72 67 39 68 23 69 24 70 32 71 25 72 26 73 30 74 33 75 27 76
REMARK SMILES IDX 28 77 31 78 29 79 55 80 56 81 64 82 57 83 58 84 62 85 65 86
REMARK SMILES IDX 59 87 60 88 63 89 61 90 40 91 41 92 49 93 42 94 43 95 47 96
REMARK SMILES IDX 50 97 44 98 45 99 48 100 46 101
REMARK H PARENT 6 5 11 35 70 54 38 65
REMARK Flexibility Score: inf
ROOT
ATOM      1  C   UNL A   1      37.894  23.328  26.127  1.00  0.00     0.116 C 
ENDROOT
BRANCH   1   2
ATOM      2  N   UNL A   1      37.369  22.010  25.839  1.00  0.00    -0.351 N 
ATOM      3  C   UNL A   1      36.186  21.515  25.393  1.00  0.00     0.261 C 
ATOM      4  O   UNL A   1      36.259  20.331  25.036  1.00  0.00    -0.268 OA
ATOM      5  H   UNL A   1      38.030  21.300  26.008  1.00  0.00     0.163 HD
BRANCH   3   6
ATOM      6  C   UNL A   1      34.864  22.254  25.273  1.00  0.00     0.098 A 
ATOM      7  C   UNL A   1      35.245  24.799  25.350  1.00  0.00     0.047 C 
ATOM      8  C   UNL A   1      34.456  23.547  25.205  1.00  0.00    -0.018 A 
ATOM      9  C   UNL A   1      32.991  23.678  25.161  1.00  0.00     0.016 A 
ATOM     10  S   UNL A   1      33.444  21.165  25.498  1.00  0.00    -0.110 S 
ATOM     11  C   UNL A   1      32.376  22.501  25.825  1.00  0.00     0.128 A 
ATOM     12  C   UNL A   1      32.224  24.788  25.231  1.00  0.00    -0.040 C 
ATOM     13  N   UNL A   1      31.334  22.440  26.569  1.00  0.00    -0.202 NA
ATOM     14  C   UNL A   1      31.474  24.928  26.550  1.00  0.00     0.135 C 
ATOM     15  C   UNL A   1      30.687  23.638  26.823  1.00  0.00     0.251 C 
ATOM     16  O   UNL A   1      29.561  23.697  27.290  1.00  0.00    -0.272 OA
BRANCH  12  17
ATOM     17  C   UNL A   1      31.258  25.111  24.083  1.00  0.00     0.110 C 
BRANCH  17  18
ATOM     18  S   UNL A   1      29.976  26.299  24.508  1.00  0.00    -0.081 SA
BRANCH  18  19
ATOM     19  C   UNL A   1      30.373  27.616  23.454  1.00  0.00     0.195 A 
ATOM     20  N   UNL A   1      29.703  27.907  22.360  1.00  0.00    -0.123 NA
ATOM     21  N   UNL A   1      31.292  28.611  23.729  1.00  0.00    -0.277 N 
ATOM     22  N   UNL A   1      30.151  29.115  21.898  1.00  0.00    -0.138 NA
ATOM     23  C   UNL A   1      31.084  29.529  22.724  1.00  0.00     0.231 A 
BRANCH  21  24
ATOM     24  C   UNL A   1      32.143  28.782  24.849  1.00  0.00     0.049 A 
ATOM     25  C   UNL A   1      33.409  28.182  24.916  1.00  0.00     0.027 A 
ATOM     26  C   UNL A   1      31.648  29.472  25.957  1.00  0.00     0.027 A 
ATOM     27  C   UNL A   1      34.119  28.163  26.113  1.00  0.00     0.002 A 
ATOM     28  C   UNL A   1      32.357  29.439  27.149  1.00  0.00     0.002 A 
ATOM     29  C   UNL A   1      33.577  28.765  27.236  1.00  0.00     0.000 A 
ENDBRANCH  21  24
ENDBRANCH  18  19
ENDBRANCH  17  18
ENDBRANCH  12  17
ENDBRANCH   3   6
ENDBRANCH   1   2
BRANCH   1  30
ATOM     30  C   UNL A   1      39.234  23.291  26.886  1.00  0.00     0.023 C 
BRANCH  30  31
ATOM     31  C   UNL A   1      40.012  21.960  26.851  1.00  0.00     0.023 C 
BRANCH  31  32
ATOM     32  C   UNL A   1      41.136  21.816  27.875  1.00  0.00     0.116 C 
BRANCH  32  33
ATOM     33  N   UNL A   1      42.495  21.825  27.312  1.00  0.00    -0.352 N 
ATOM     34  C   UNL A   1      43.192  22.886  26.739  1.00  0.00     0.251 C 
ATOM     35  H   UNL A   1      42.976  20.967  27.344  1.00  0.00     0.163 HD
ATOM     36  O   UNL A   1      44.131  22.683  25.979  1.00  0.00    -0.269 OA
BRANCH  34  37
ATOM     37  C   UNL A   1      42.824  24.272  27.102  1.00  0.00     0.039 A 
ATOM     38  C   UNL A   1      42.098  25.141  26.286  1.00  0.00     0.014 A 
ATOM     39  C   UNL A   1      43.279  24.716  28.331  1.00  0.00     0.014 A 
ATOM     40  C   UNL A   1      41.814  26.426  26.764  1.00  0.00     0.010 A 
ATOM     41  C   UNL A   1      42.862  25.887  28.877  1.00  0.00     0.010 A 
ATOM     42  C   UNL A   1      42.217  26.785  28.061  1.00  0.00    -0.014 A 
BRANCH  42  43
ATOM     43  C   UNL A   1      41.909  28.053  28.686  1.00  0.00     0.031 A 
ATOM     44  C   UNL A   1      42.838  29.142  28.317  1.00  0.00     0.074 A 
ATOM     45  C   UNL A   1      40.729  28.302  29.293  1.00  0.00     0.049 A 
ATOM     46  N   UNL A   1      43.713  29.691  29.085  1.00  0.00    -0.248 NA
ATOM     47  C   UNL A   1      42.922  29.567  26.912  1.00  0.00     0.031 C 
ATOM     48  C   UNL A   1      39.537  27.451  29.408  1.00  0.00     0.029 A 
ATOM     49  N   UNL A   1      40.318  29.461  29.867  1.00  0.00    -0.354 N 
ATOM     50  C   UNL A   1      44.340  30.666  28.322  1.00  0.00     0.074 A 
ATOM     51  C   UNL A   1      43.948  30.421  26.958  1.00  0.00     0.031 C 
ATOM     52  C   UNL A   1      38.485  28.197  29.820  1.00  0.00     0.029 A 
ATOM     53  C   UNL A   1      38.961  29.529  30.150  1.00  0.00     0.049 A 
ATOM     54  H   UNL A   1      40.937  30.199  30.067  1.00  0.00     0.167 HD
ATOM     55  C   UNL A   1      44.947  31.725  28.925  1.00  0.00     0.037 A 
ATOM     56  C   UNL A   1      38.296  30.627  30.591  1.00  0.00     0.037 A 
ATOM     57  C   UNL A   1      45.077  31.497  30.346  1.00  0.00     0.049 A 
ATOM     58  C   UNL A   1      39.317  31.541  31.176  1.00  0.00     0.074 A 
ATOM     59  C   UNL A   1      45.707  30.535  31.114  1.00  0.00     0.029 A 
ATOM     60  N   UNL A   1      44.152  32.087  31.177  1.00  0.00    -0.354 N 
ATOM     61  N   UNL A   1      39.990  31.270  32.262  1.00  0.00    -0.248 NA
ATOM     62  C   UNL A   1      39.935  32.517  30.288  1.00  0.00     0.031 C 
ATOM     63  C   UNL A   1      44.794  30.257  32.174  1.00  0.00     0.029 A 
ATOM     64  C   UNL A   1      43.705  31.119  32.042  1.00  0.00     0.049 A 
ATOM     65  H   UNL A   1      43.864  33.028  31.154  1.00  0.00     0.167 HD
ATOM     66  C   UNL A   1      41.285  31.687  31.988  1.00  0.00     0.074 A 
ATOM     67  C   UNL A   1      41.174  32.518  30.789  1.00  0.00     0.031 C 
ATOM     68  C   UNL A   1      42.361  31.079  32.570  1.00  0.00     0.037 A 
BRANCH  55  69
ATOM     69  C   UNL A   1      45.095  33.100  28.330  1.00  0.00     0.064 A 
ATOM     70  C   UNL A   1      46.393  33.616  28.140  1.00  0.00     0.173 A 
ATOM     71  C   UNL A   1      44.044  34.034  28.221  1.00  0.00     0.173 A 
ATOM     72  F   UNL A   1      47.466  32.815  28.224  1.00  0.00    -0.203 F 
ATOM     73  C   UNL A   1      46.624  34.980  27.959  1.00  0.00     0.198 A 
ATOM     74  C   UNL A   1      44.277  35.387  27.983  1.00  0.00     0.198 A 
ATOM     75  F   UNL A   1      42.768  33.707  28.452  1.00  0.00    -0.203 F 
ATOM     76  F   UNL A   1      47.882  35.441  27.925  1.00  0.00    -0.200 F 
ATOM     77  C   UNL A   1      45.566  35.866  27.891  1.00  0.00     0.200 A 
ATOM     78  F   UNL A   1      43.238  36.233  27.933  1.00  0.00    -0.200 F 
ATOM     79  F   UNL A   1      45.787  37.183  27.785  1.00  0.00    -0.200 F 
ENDBRANCH  55  69
BRANCH  56  80
ATOM     80  C   UNL A   1      36.921  31.075  30.257  1.00  0.00     0.064 A 
ATOM     81  C   UNL A   1      36.119  31.716  31.217  1.00  0.00     0.173 A 
ATOM     82  C   UNL A   1      36.476  31.154  28.923  1.00  0.00     0.173 A 
ATOM     83  F   UNL A   1      36.486  31.722  32.508  1.00  0.00    -0.203 F 
ATOM     84  C   UNL A   1      34.968  32.428  30.859  1.00  0.00     0.198 A 
ATOM     85  C   UNL A   1      35.325  31.859  28.567  1.00  0.00     0.198 A 
ATOM     86  F   UNL A   1      37.201  30.630  27.923  1.00  0.00    -0.203 F 
ATOM     87  F   UNL A   1      34.270  33.085  31.795  1.00  0.00    -0.200 F 
ATOM     88  C   UNL A   1      34.580  32.511  29.533  1.00  0.00     0.200 A 
ATOM     89  F   UNL A   1      34.980  31.958  27.276  1.00  0.00    -0.200 F 
ATOM     90  F   UNL A   1      33.521  33.250  29.179  1.00  0.00    -0.200 F 
ENDBRANCH  56  80
BRANCH  68  91
ATOM     91  C   UNL A   1      42.109  30.119  33.700  1.00  0.00     0.064 A 
ATOM     92  C   UNL A   1      41.819  28.753  33.528  1.00  0.00     0.173 A 
ATOM     93  C   UNL A   1      42.325  30.567  35.009  1.00  0.00     0.173 A 
ATOM     94  F   UNL A   1      41.700  28.219  32.308  1.00  0.00    -0.203 F 
ATOM     95  C   UNL A   1      41.708  27.893  34.620  1.00  0.00     0.198 A 
ATOM     96  C   UNL A   1      42.253  29.698  36.094  1.00  0.00     0.198 A 
ATOM     97  F   UNL A   1      42.662  31.848  35.232  1.00  0.00    -0.203 F 
ATOM     98  F   UNL A   1      41.421  26.596  34.427  1.00  0.00    -0.200 F 
ATOM     99  C   UNL A   1      41.933  28.364  35.901  1.00  0.00     0.200 A 
ATOM    100  F   UNL A   1      42.522  30.150  37.327  1.00  0.00    -0.200 F 
ATOM    101  F   UNL A   1      41.871  27.528  36.947  1.00  0.00    -0.200 F 
ENDBRANCH  68  91
ENDBRANCH  42  43
ENDBRANCH  34  37
ENDBRANCH  32  33
ENDBRANCH  31  32
ENDBRANCH  30  31
ENDBRANCH   1  30
TORSDOF 15
ENDMDL
MODEL 3
REMARK VINA RESULT:     -13.4      2.987      8.741
REMARK SMILES Cc1c(C(=O)NCCCCNC(=O)c2ccc(-c3c4nc(c(-c5c(F)c(F)c(F)c(F)c5F)c5ccc([nH]5)c(-c5c(F)c(F)c(F)c(F)c5F)c5nc(c(-c6c(F)c(F)c(F)c(F)c6F)c6ccc3[nH]6)C=C5)C=C4)cc2)sc2c1=C(CSc1nncn1-c1ccccc1)CC(=O)N=2
REMARK SMILES IDX 7 1 6 2 4 3 5 4 3 6 1 7 2 8 79 9 77 10 78 11 80 12 97 13
REMARK SMILES IDX 94 14 95 15 96 16 81 17 82 18 83 19 84 20 87 21 85 22 86 23
REMARK SMILES IDX 88 24 89 25 93 26 90 27 92 28 91 29 8 30 9 31 10 32 11 33
REMARK SMILES IDX 12 34 13 36 14 37 15 38 76 39 16 40 75 41 17 42 18 43 19 44
REMARK SMILES IDX 69 45 20 46 74 47 68 48 70 49 21 50 73 51 67 52 66 53 22 55
REMARK SMILES IDX 54 56 34 57 53 58 35 59 38 60 52 61 71 62 36 63 37 64 51 66
REMARK SMILES IDX 72 67 39 68 23 69 24 70 32 71 25 72 26 73 30 74 33 75 27 76
REMARK SMILES IDX 28 77 31 78 29 79 55 80 56 81 64 82 57 83 58 84 62 85 65 86
REMARK SMILES IDX 59 87 60 88 63 89 61 90 40 91 41 92 49 93 42 94 43 95 47 96
REMARK SMILES IDX 50 97 44 98 45 99 48 100 46 101
REMARK H PARENT 6 5 11 35 70 54 38 65
REMARK Flexibility Score: inf
ROOT
ATOM      1  C   UNL A   1      32.908  29.971  26.204  1.00  0.00     0.116 C 
ENDROOT
BRANCH   1   2
ATOM      2  N   UNL A   1      31.797  30.245  25.319  1.00  0.00    -0.351 N 
ATOM      3  C   UNL A   1      31.004  29.505  24.501  1.00  0.00     0.261 C 
ATOM      4  O   UNL A   1      29.994  30.115  24.124  1.00  0.00    -0.268 OA
ATOM      5  H   UNL A   1      31.558  31.200  25.305  1.00  0.00     0.163 HD
BRANCH   3   6
ATOM      6  C   UNL A   1      31.222  28.069  24.059  1.00  0.00     0.098 A 
ATOM      7  C   UNL A   1      32.771  26.843  25.711  1.00  0.00     0.047 C 
ATOM      8  C   UNL A   1      31.873  26.975  24.533  1.00  0.00    -0.018 A 
ATOM      9  C   UNL A   1      31.793  25.827  23.617  1.00  0.00     0.016 A 
ATOM     10  S   UNL A   1      30.668  27.778  22.367  1.00  0.00    -0.110 S 
ATOM     11  C   UNL A   1      31.613  26.321  22.229  1.00  0.00     0.128 A 
ATOM     12  C   UNL A   1      32.423  24.633  23.678  1.00  0.00    -0.040 C 
ATOM     13  N   UNL A   1      32.101  25.867  21.134  1.00  0.00    -0.202 NA
ATOM     14  C   UNL A   1      33.520  24.469  22.632  1.00  0.00     0.135 C 
ATOM     15  C   UNL A   1      32.942  24.771  21.242  1.00  0.00     0.251 C 
ATOM     16  O   UNL A   1      33.266  24.088  20.284  1.00  0.00    -0.272 OA
BRANCH  12  17
ATOM     17  C   UNL A   1      31.593  23.343  23.721  1.00  0.00     0.110 C 
BRANCH  17  18
ATOM     18  S   UNL A   1      32.387  21.926  22.948  1.00  0.00    -0.081 SA
BRANCH  18  19
ATOM     19  C   UNL A   1      32.627  20.887  24.314  1.00  0.00     0.195 A 
ATOM     20  N   UNL A   1      31.910  19.811  24.552  1.00  0.00    -0.123 NA
ATOM     21  N   UNL A   1      33.697  20.949  25.188  1.00  0.00    -0.277 N 
ATOM     22  N   UNL A   1      32.504  19.124  25.577  1.00  0.00    -0.138 NA
ATOM     23  C   UNL A   1      33.568  19.802  25.938  1.00  0.00     0.231 A 
BRANCH  21  24
ATOM     24  C   UNL A   1      34.786  21.856  25.233  1.00  0.00     0.049 A 
ATOM     25  C   UNL A   1      34.707  23.074  25.923  1.00  0.00     0.027 A 
ATOM     26  C   UNL A   1      35.919  21.567  24.471  1.00  0.00     0.027 A 
ATOM     27  C   UNL A   1      35.689  24.046  25.754  1.00  0.00     0.002 A 
ATOM     28  C   UNL A   1      36.887  22.545  24.298  1.00  0.00     0.002 A 
ATOM     29  C   UNL A   1      36.762  23.791  24.916  1.00  0.00     0.000 A 
ENDBRANCH  21  24
ENDBRANCH  18  19
ENDBRANCH  17  18
ENDBRANCH  12  17
ENDBRANCH   3   6
ENDBRANCH   1   2
BRANCH   1  30
ATOM     30  C   UNL A   1      33.157  31.094  27.228  1.00  0.00     0.023 C 
BRANCH  30  31
ATOM     31  C   UNL A   1      34.623  31.347  27.636  1.00  0.00     0.023 C 
BRANCH  31  32
ATOM     32  C   UNL A   1      34.934  32.737  28.183  1.00  0.00     0.116 C 
BRANCH  32  33
ATOM     33  N   UNL A   1      34.691  32.907  29.624  1.00  0.00    -0.352 N 
ATOM     34  C   UNL A   1      35.307  32.261  30.692  1.00  0.00     0.251 C 
ATOM     35  H   UNL A   1      34.000  33.566  29.865  1.00  0.00     0.163 HD
ATOM     36  O   UNL A   1      34.765  32.203  31.789  1.00  0.00    -0.269 OA
BRANCH  34  37
ATOM     37  C   UNL A   1      36.659  31.690  30.508  1.00  0.00     0.039 A 
ATOM     38  C   UNL A   1      37.827  32.441  30.368  1.00  0.00     0.014 A 
ATOM     39  C   UNL A   1      36.729  30.310  30.441  1.00  0.00     0.014 A 
ATOM     40  C   UNL A   1      39.043  31.764  30.208  1.00  0.00     0.010 A 
ATOM     41  C   UNL A   1      37.911  29.642  30.467  1.00  0.00     0.010 A 
ATOM     42  C   UNL A   1      39.061  30.360  30.248  1.00  0.00    -0.014 A 
BRANCH  42  43
ATOM     43  C   UNL A   1      40.265  29.561  30.174  1.00  0.00     0.031 A 
ATOM     44  C   UNL A   1      40.847  29.235  31.493  1.00  0.00     0.074 A 
ATOM     45  C   UNL A   1      40.648  28.918  29.050  1.00  0.00     0.049 A 
ATOM     46  N   UNL A   1      41.942  29.704  31.980  1.00  0.00    -0.248 NA
ATOM     47  C   UNL A   1      40.066  28.426  32.441  1.00  0.00     0.031 C 
ATOM     48  C   UNL A   1      39.971  28.819  27.750  1.00  0.00     0.029 A 
ATOM     49  N   UNL A   1      41.725  28.110  28.881  1.00  0.00    -0.354 N 
ATOM     50  C   UNL A   1      42.097  29.111  33.226  1.00  0.00     0.074 A 
ATOM     51  C   UNL A   1      40.835  28.488  33.532  1.00  0.00     0.031 C 
ATOM     52  C   UNL A   1      40.542  27.836  27.015  1.00  0.00     0.029 A 
ATOM     53  C   UNL A   1      41.715  27.352  27.718  1.00  0.00     0.049 A 
ATOM     54  H   UNL A   1      42.459  28.064  29.535  1.00  0.00     0.167 HD
ATOM     55  C   UNL A   1      43.332  29.003  33.786  1.00  0.00     0.037 A 
ATOM     56  C   UNL A   1      42.604  26.377  27.400  1.00  0.00     0.037 A 
ATOM     57  C   UNL A   1      44.291  29.813  33.069  1.00  0.00     0.049 A 
ATOM     58  C   UNL A   1      43.817  26.612  28.232  1.00  0.00     0.074 A 
ATOM     59  C   UNL A   1      44.394  31.164  32.792  1.00  0.00     0.029 A 
ATOM     60  N   UNL A   1      45.106  29.184  32.157  1.00  0.00    -0.354 N 
ATOM     61  N   UNL A   1      44.600  27.646  28.088  1.00  0.00    -0.248 NA
ATOM     62  C   UNL A   1      43.876  25.963  29.535  1.00  0.00     0.031 C 
ATOM     63  C   UNL A   1      44.844  31.227  31.440  1.00  0.00     0.029 A 
ATOM     64  C   UNL A   1      45.069  29.922  31.000  1.00  0.00     0.049 A 
ATOM     65  H   UNL A   1      45.620  28.358  32.305  1.00  0.00     0.167 HD
ATOM     66  C   UNL A   1      44.907  28.039  29.383  1.00  0.00     0.074 A 
ATOM     67  C   UNL A   1      44.498  26.919  30.230  1.00  0.00     0.031 C 
ATOM     68  C   UNL A   1      45.180  29.345  29.680  1.00  0.00     0.037 A 
BRANCH  55  69
ATOM     69  C   UNL A   1      43.770  27.914  34.730  1.00  0.00     0.064 A 
ATOM     70  C   UNL A   1      43.644  26.573  34.315  1.00  0.00     0.173 A 
ATOM     71  C   UNL A   1      44.018  28.108  36.104  1.00  0.00     0.173 A 
ATOM     72  F   UNL A   1      43.406  26.274  33.029  1.00  0.00    -0.203 F 
ATOM     73  C   UNL A   1      43.662  25.515  35.226  1.00  0.00     0.198 A 
ATOM     74  C   UNL A   1      44.092  27.045  37.001  1.00  0.00     0.198 A 
ATOM     75  F   UNL A   1      44.083  29.326  36.655  1.00  0.00    -0.203 F 
ATOM     76  F   UNL A   1      43.398  24.272  34.804  1.00  0.00    -0.200 F 
ATOM     77  C   UNL A   1      43.876  25.754  36.570  1.00  0.00     0.200 A 
ATOM     78  F   UNL A   1      44.287  27.297  38.304  1.00  0.00    -0.200 F 
ATOM     79  F   UNL A   1      43.827  24.750  37.455  1.00  0.00    -0.200 F 
ENDBRANCH  55  69
BRANCH  56  80
ATOM     80  C   UNL A   1      42.362  25.098  26.686  1.00  0.00     0.064 A 
ATOM     81  C   UNL A   1      43.118  24.751  25.553  1.00  0.00     0.173 A 
ATOM     82  C   UNL A   1      41.599  24.065  27.264  1.00  0.00     0.173 A 
ATOM     83  F   UNL A   1      43.902  25.665  24.959  1.00  0.00    -0.203 F 
ATOM     84  C   UNL A   1      43.144  23.442  25.056  1.00  0.00     0.198 A 
ATOM     85  C   UNL A   1      41.620  22.762  26.765  1.00  0.00     0.198 A 
ATOM     86  F   UNL A   1      40.891  24.275  28.383  1.00  0.00    -0.203 F 
ATOM     87  F   UNL A   1      43.933  23.137  24.018  1.00  0.00    -0.200 F 
ATOM     88  C   UNL A   1      42.406  22.445  25.672  1.00  0.00     0.200 A 
ATOM     89  F   UNL A   1      40.927  21.800  27.391  1.00  0.00    -0.200 F 
ATOM     90  F   UNL A   1      42.485  21.179  25.243  1.00  0.00    -0.200 F 
ENDBRANCH  56  80
BRANCH  68  91
ATOM     91  C   UNL A   1      45.386  30.304  28.540  1.00  0.00     0.064 A 
ATOM     92  C   UNL A   1      44.357  31.051  27.938  1.00  0.00     0.173 A 
ATOM     93  C   UNL A   1      46.699  30.593  28.147  1.00  0.00     0.173 A 
ATOM     94  F   UNL A   1      43.085  30.915  28.326  1.00  0.00    -0.203 F 
ATOM     95  C   UNL A   1      44.631  32.008  26.961  1.00  0.00     0.198 A 
ATOM     96  C   UNL A   1      46.973  31.575  27.200  1.00  0.00     0.198 A 
ATOM     97  F   UNL A   1      47.727  29.953  28.726  1.00  0.00    -0.203 F 
ATOM     98  F   UNL A   1      43.628  32.700  26.398  1.00  0.00    -0.200 F 
ATOM     99  C   UNL A   1      45.939  32.275  26.599  1.00  0.00     0.200 A 
ATOM    100  F   UNL A   1      48.245  31.864  26.891  1.00  0.00    -0.200 F 
ATOM    101  F   UNL A   1      46.207  33.225  25.692  1.00  0.00    -0.200 F 
ENDBRANCH  68  91
ENDBRANCH  42  43
ENDBRANCH  34  37
ENDBRANCH  32  33
ENDBRANCH  31  32
ENDBRANCH  30  31
ENDBRANCH   1  30
TORSDOF 15
ENDMDL
