MODEL 1
REMARK VINA RESULT:     -12.8      0.000      0.000
REMARK SMILES Cn1nc(N2CCC(CC(=O)NCCCCNC(=O)c3ccc(-c4c5nc(c(-c6c(F)c(F)c(F)c(F)c6F)c6ccc([nH]6)c(-c6c(F)c(F)c(F)c(F)c6F)c6nc(c(-c7c(F)c(F)c(F)c(F)c7F)c7ccc4[nH]7)C=C6)C=C5)cc3)CC2)c(=O)n(C)c1=O
REMARK SMILES IDX 14 1 13 2 12 3 10 4 11 5 9 7 8 8 5 9 6 10 84 11 7 12 83 13
REMARK SMILES IDX 4 14 1 15 2 16 3 17 89 18 87 19 90 20 85 21 88 22 86 23
REMARK SMILES IDX 15 24 16 25 17 26 18 27 19 29 20 30 21 31 82 32 22 33 81 34
REMARK SMILES IDX 23 35 24 36 25 37 75 38 26 39 80 40 74 41 76 42 27 43 79 44
REMARK SMILES IDX 73 45 72 46 28 48 60 49 40 50 59 51 41 52 44 53 58 54 77 55
REMARK SMILES IDX 42 56 43 57 57 59 78 60 45 61 29 62 30 63 38 64 31 65 32 66
REMARK SMILES IDX 36 67 39 68 33 69 34 70 37 71 35 72 61 73 62 74 70 75 63 76
REMARK SMILES IDX 64 77 68 78 71 79 65 80 66 81 69 82 67 83 46 84 47 85 55 86
REMARK SMILES IDX 48 87 49 88 53 89 56 90 50 91 51 92 54 93 52 94
REMARK H PARENT 12 6 17 28 76 47 44 58
REMARK Flexibility Score: inf
ROOT
ATOM      1  C   UNL A   1      31.807  30.499  26.868  1.00  0.00     0.023 C 
ENDROOT
BRANCH   1   2
ATOM      2  C   UNL A   1      33.013  29.941  26.105  1.00  0.00     0.116 C 
BRANCH   2   3
ATOM      3  N   UNL A   1      32.724  29.792  24.688  1.00  0.00    -0.356 N 
ATOM      4  C   UNL A   1      33.122  28.838  23.798  1.00  0.00     0.220 C 
ATOM      5  O   UNL A   1      32.807  28.980  22.615  1.00  0.00    -0.275 OA
ATOM      6  H   UNL A   1      32.148  30.495  24.309  1.00  0.00     0.163 HD
BRANCH   4   7
ATOM      7  C   UNL A   1      33.935  27.633  24.247  1.00  0.00     0.103 C 
BRANCH   7   8
ATOM      8  C   UNL A   1      33.117  26.328  24.374  1.00  0.00     0.002 C 
ATOM      9  N   UNL A   1      33.380  23.472  24.646  1.00  0.00    -0.351 N 
ATOM     10  C   UNL A   1      32.952  23.956  23.356  1.00  0.00     0.118 C 
ATOM     11  C   UNL A   1      32.873  24.209  25.787  1.00  0.00     0.118 C 
ATOM     12  C   UNL A   1      33.407  25.393  23.196  1.00  0.00     0.025 C 
ATOM     13  C   UNL A   1      33.416  25.640  25.722  1.00  0.00     0.025 C 
BRANCH   9  14
ATOM     14  C   UNL A   1      34.286  22.436  24.773  1.00  0.00     0.215 A 
ATOM     15  C   UNL A   1      37.812  21.919  25.240  1.00  0.00     0.180 C 
ATOM     16  N   UNL A   1      36.411  21.590  25.029  1.00  0.00    -0.216 N 
ATOM     17  N   UNL A   1      35.562  22.661  24.901  1.00  0.00    -0.145 NA
ATOM     18  C   UNL A   1      36.038  20.253  24.915  1.00  0.00     0.346 A 
ATOM     19  N   UNL A   1      34.691  20.008  24.743  1.00  0.00    -0.259 N 
ATOM     20  O   UNL A   1      36.865  19.340  24.970  1.00  0.00    -0.246 OA
ATOM     21  C   UNL A   1      33.746  21.007  24.722  1.00  0.00     0.299 A 
ATOM     22  C   UNL A   1      34.219  18.650  24.584  1.00  0.00     0.159 C 
ATOM     23  O   UNL A   1      32.534  20.832  24.637  1.00  0.00    -0.265 OA
ENDBRANCH   9  14
ENDBRANCH   7   8
ENDBRANCH   4   7
ENDBRANCH   2   3
ENDBRANCH   1   2
BRANCH   1  24
ATOM     24  C   UNL A   1      31.612  32.001  26.767  1.00  0.00     0.023 C 
BRANCH  24  25
ATOM     25  C   UNL A   1      32.799  32.806  27.253  1.00  0.00     0.116 C 
BRANCH  25  26
ATOM     26  N   UNL A   1      32.453  34.169  27.639  1.00  0.00    -0.352 N 
ATOM     27  C   UNL A   1      33.007  34.953  28.628  1.00  0.00     0.251 C 
ATOM     28  H   UNL A   1      31.725  34.586  27.123  1.00  0.00     0.163 HD
ATOM     29  O   UNL A   1      32.542  36.044  28.903  1.00  0.00    -0.269 OA
BRANCH  27  30
ATOM     30  C   UNL A   1      34.157  34.414  29.379  1.00  0.00     0.039 A 
ATOM     31  C   UNL A   1      33.922  33.586  30.478  1.00  0.00     0.014 A 
ATOM     32  C   UNL A   1      35.457  34.651  28.926  1.00  0.00     0.014 A 
ATOM     33  C   UNL A   1      34.996  32.923  31.071  1.00  0.00     0.010 A 
ATOM     34  C   UNL A   1      36.504  33.906  29.444  1.00  0.00     0.010 A 
ATOM     35  C   UNL A   1      36.285  33.044  30.529  1.00  0.00    -0.014 A 
BRANCH  35  36
ATOM     36  C   UNL A   1      37.440  32.318  31.105  1.00  0.00     0.031 A 
ATOM     37  C   UNL A   1      37.922  32.683  32.480  1.00  0.00     0.074 A 
ATOM     38  C   UNL A   1      38.090  31.393  30.374  1.00  0.00     0.049 A 
ATOM     39  N   UNL A   1      38.966  32.244  33.136  1.00  0.00    -0.248 NA
ATOM     40  C   UNL A   1      37.150  33.710  33.201  1.00  0.00     0.031 C 
ATOM     41  C   UNL A   1      37.746  30.996  29.007  1.00  0.00     0.029 A 
ATOM     42  N   UNL A   1      39.179  30.618  30.680  1.00  0.00    -0.354 N 
ATOM     43  C   UNL A   1      38.983  32.957  34.326  1.00  0.00     0.074 A 
ATOM     44  C   UNL A   1      37.894  33.904  34.277  1.00  0.00     0.031 C 
ATOM     45  C   UNL A   1      38.580  30.021  28.610  1.00  0.00     0.029 A 
ATOM     46  C   UNL A   1      39.537  29.749  29.679  1.00  0.00     0.049 A 
ATOM     47  H   UNL A   1      39.659  30.678  31.538  1.00  0.00     0.167 HD
ATOM     48  C   UNL A   1      39.812  32.806  35.386  1.00  0.00     0.037 A 
ATOM     49  C   UNL A   1      40.522  28.832  29.637  1.00  0.00     0.037 A 
ATOM     50  C   UNL A   1      40.858  31.826  35.450  1.00  0.00     0.049 A 
ATOM     51  C   UNL A   1      41.419  28.670  30.833  1.00  0.00     0.074 A 
ATOM     52  C   UNL A   1      41.716  31.547  36.497  1.00  0.00     0.029 A 
ATOM     53  N   UNL A   1      41.179  30.951  34.421  1.00  0.00    -0.354 N 
ATOM     54  N   UNL A   1      41.398  29.316  31.974  1.00  0.00    -0.248 NA
ATOM     55  C   UNL A   1      42.475  27.652  30.737  1.00  0.00     0.031 C 
ATOM     56  C   UNL A   1      42.576  30.521  36.094  1.00  0.00     0.029 A 
ATOM     57  C   UNL A   1      42.231  30.137  34.807  1.00  0.00     0.049 A 
ATOM     58  H   UNL A   1      40.727  30.915  33.548  1.00  0.00     0.167 HD
ATOM     59  C   UNL A   1      42.421  28.773  32.739  1.00  0.00     0.074 A 
ATOM     60  C   UNL A   1      43.036  27.734  31.938  1.00  0.00     0.031 C 
ATOM     61  C   UNL A   1      42.818  29.105  33.991  1.00  0.00     0.037 A 
BRANCH  48  62
ATOM     62  C   UNL A   1      39.592  33.704  36.564  1.00  0.00     0.064 A 
ATOM     63  C   UNL A   1      38.788  33.308  37.645  1.00  0.00     0.173 A 
ATOM     64  C   UNL A   1      40.201  34.965  36.627  1.00  0.00     0.173 A 
ATOM     65  F   UNL A   1      38.168  32.118  37.624  1.00  0.00    -0.203 F 
ATOM     66  C   UNL A   1      38.579  34.152  38.731  1.00  0.00     0.198 A 
ATOM     67  C   UNL A   1      40.014  35.796  37.728  1.00  0.00     0.198 A 
ATOM     68  F   UNL A   1      40.978  35.393  35.620  1.00  0.00    -0.203 F 
ATOM     69  F   UNL A   1      37.766  33.773  39.727  1.00  0.00    -0.200 F 
ATOM     70  C   UNL A   1      39.198  35.392  38.775  1.00  0.00     0.200 A 
ATOM     71  F   UNL A   1      40.619  36.991  37.775  1.00  0.00    -0.200 F 
ATOM     72  F   UNL A   1      39.000  36.203  39.824  1.00  0.00    -0.200 F 
ENDBRANCH  48  62
BRANCH  49  73
ATOM     73  C   UNL A   1      40.668  27.961  28.444  1.00  0.00     0.064 A 
ATOM     74  C   UNL A   1      40.013  26.723  28.383  1.00  0.00     0.173 A 
ATOM     75  C   UNL A   1      41.431  28.351  27.334  1.00  0.00     0.173 A 
ATOM     76  F   UNL A   1      39.286  26.299  29.428  1.00  0.00    -0.203 F 
ATOM     77  C   UNL A   1      40.122  25.904  27.260  1.00  0.00     0.198 A 
ATOM     78  C   UNL A   1      41.522  27.542  26.204  1.00  0.00     0.198 A 
ATOM     79  F   UNL A   1      42.072  29.529  27.342  1.00  0.00    -0.203 F 
ATOM     80  F   UNL A   1      39.507  24.714  27.240  1.00  0.00    -0.200 F 
ATOM     81  C   UNL A   1      40.871  26.317  26.169  1.00  0.00     0.200 A 
ATOM     82  F   UNL A   1      42.237  27.949  25.146  1.00  0.00    -0.200 F 
ATOM     83  F   UNL A   1      40.967  25.535  25.085  1.00  0.00    -0.200 F 
ENDBRANCH  49  73
BRANCH  61  84
ATOM     84  C   UNL A   1      43.958  28.335  34.583  1.00  0.00     0.064 A 
ATOM     85  C   UNL A   1      43.747  27.123  35.254  1.00  0.00     0.173 A 
ATOM     86  C   UNL A   1      45.279  28.769  34.398  1.00  0.00     0.173 A 
ATOM     87  F   UNL A   1      42.500  26.676  35.463  1.00  0.00    -0.203 F 
ATOM     88  C   UNL A   1      44.820  26.375  35.729  1.00  0.00     0.198 A 
ATOM     89  C   UNL A   1      46.351  28.007  34.853  1.00  0.00     0.198 A 
ATOM     90  F   UNL A   1      45.531  29.918  33.753  1.00  0.00    -0.203 F 
ATOM     91  F   UNL A   1      44.596  25.231  36.390  1.00  0.00    -0.200 F 
ATOM     92  C   UNL A   1      46.121  26.812  35.519  1.00  0.00     0.200 A 
ATOM     93  F   UNL A   1      47.607  28.421  34.636  1.00  0.00    -0.200 F 
ATOM     94  F   UNL A   1      47.152  26.080  35.961  1.00  0.00    -0.200 F 
ENDBRANCH  61  84
ENDBRANCH  35  36
ENDBRANCH  27  30
ENDBRANCH  25  26
ENDBRANCH  24  25
ENDBRANCH   1  24
TORSDOF 13
ENDMDL
MODEL 2
REMARK VINA RESULT:     -12.7      0.726      7.397
REMARK SMILES Cn1nc(N2CCC(CC(=O)NCCCCNC(=O)c3ccc(-c4c5nc(c(-c6c(F)c(F)c(F)c(F)c6F)c6ccc([nH]6)c(-c6c(F)c(F)c(F)c(F)c6F)c6nc(c(-c7c(F)c(F)c(F)c(F)c7F)c7ccc4[nH]7)C=C6)C=C5)cc3)CC2)c(=O)n(C)c1=O
REMARK SMILES IDX 14 1 13 2 12 3 10 4 11 5 9 7 8 8 5 9 6 10 84 11 7 12 83 13
REMARK SMILES IDX 4 14 1 15 2 16 3 17 89 18 87 19 90 20 85 21 88 22 86 23
REMARK SMILES IDX 15 24 16 25 17 26 18 27 19 29 20 30 21 31 82 32 22 33 81 34
REMARK SMILES IDX 23 35 24 36 25 37 75 38 26 39 80 40 74 41 76 42 27 43 79 44
REMARK SMILES IDX 73 45 72 46 28 48 60 49 40 50 59 51 41 52 44 53 58 54 77 55
REMARK SMILES IDX 42 56 43 57 57 59 78 60 45 61 29 62 30 63 38 64 31 65 32 66
REMARK SMILES IDX 36 67 39 68 33 69 34 70 37 71 35 72 61 73 62 74 70 75 63 76
REMARK SMILES IDX 64 77 68 78 71 79 65 80 66 81 69 82 67 83 46 84 47 85 55 86
REMARK SMILES IDX 48 87 49 88 53 89 56 90 50 91 51 92 54 93 52 94
REMARK H PARENT 12 6 17 28 76 47 44 58
REMARK Flexibility Score: inf
ROOT
ATOM      1  C   UNL A   1      32.223  30.460  26.517  1.00  0.00     0.023 C 
ENDROOT
BRANCH   1   2
ATOM      2  C   UNL A   1      31.456  29.814  25.360  1.00  0.00     0.116 C 
BRANCH   2   3
ATOM      3  N   UNL A   1      32.286  29.692  24.172  1.00  0.00    -0.356 N 
ATOM      4  C   UNL A   1      33.340  28.867  23.908  1.00  0.00     0.220 C 
ATOM      5  O   UNL A   1      33.939  29.014  22.842  1.00  0.00    -0.275 OA
ATOM      6  H   UNL A   1      32.048  30.305  23.439  1.00  0.00     0.163 HD
BRANCH   4   7
ATOM      7  C   UNL A   1      33.769  27.796  24.900  1.00  0.00     0.103 C 
BRANCH   7   8
ATOM      8  C   UNL A   1      32.970  26.478  24.794  1.00  0.00     0.002 C 
ATOM      9  N   UNL A   1      33.265  23.611  24.769  1.00  0.00    -0.351 N 
ATOM     10  C   UNL A   1      32.961  24.235  23.505  1.00  0.00     0.118 C 
ATOM     11  C   UNL A   1      32.629  24.209  25.928  1.00  0.00     0.118 C 
ATOM     12  C   UNL A   1      33.399  25.686  23.556  1.00  0.00     0.025 C 
ATOM     13  C   UNL A   1      33.145  25.643  26.080  1.00  0.00     0.025 C 
BRANCH   9  14
ATOM     14  C   UNL A   1      34.176  22.577  24.872  1.00  0.00     0.215 A 
ATOM     15  C   UNL A   1      37.698  22.063  25.373  1.00  0.00     0.180 C 
ATOM     16  N   UNL A   1      36.302  21.734  25.129  1.00  0.00    -0.216 N 
ATOM     17  N   UNL A   1      35.448  22.804  25.027  1.00  0.00    -0.145 NA
ATOM     18  C   UNL A   1      35.939  20.401  24.961  1.00  0.00     0.346 A 
ATOM     19  N   UNL A   1      34.596  20.154  24.759  1.00  0.00    -0.259 N 
ATOM     20  O   UNL A   1      36.771  19.491  24.995  1.00  0.00    -0.246 OA
ATOM     21  C   UNL A   1      33.646  21.148  24.761  1.00  0.00     0.299 A 
ATOM     22  C   UNL A   1      34.135  18.800  24.544  1.00  0.00     0.159 C 
ATOM     23  O   UNL A   1      32.436  20.969  24.651  1.00  0.00    -0.265 OA
ENDBRANCH   9  14
ENDBRANCH   7   8
ENDBRANCH   4   7
ENDBRANCH   2   3
ENDBRANCH   1   2
BRANCH   1  24
ATOM     24  C   UNL A   1      31.788  31.869  26.879  1.00  0.00     0.023 C 
BRANCH  24  25
ATOM     25  C   UNL A   1      32.913  32.743  27.394  1.00  0.00     0.116 C 
BRANCH  25  26
ATOM     26  N   UNL A   1      32.501  34.116  27.660  1.00  0.00    -0.352 N 
ATOM     27  C   UNL A   1      32.990  34.998  28.601  1.00  0.00     0.251 C 
ATOM     28  H   UNL A   1      31.775  34.461  27.091  1.00  0.00     0.163 HD
ATOM     29  O   UNL A   1      32.474  36.086  28.775  1.00  0.00    -0.269 OA
BRANCH  27  30
ATOM     30  C   UNL A   1      34.135  34.566  29.428  1.00  0.00     0.039 A 
ATOM     31  C   UNL A   1      33.896  34.055  30.704  1.00  0.00     0.014 A 
ATOM     32  C   UNL A   1      35.424  34.578  28.890  1.00  0.00     0.014 A 
ATOM     33  C   UNL A   1      34.948  33.472  31.410  1.00  0.00     0.010 A 
ATOM     34  C   UNL A   1      36.440  33.899  29.545  1.00  0.00     0.010 A 
ATOM     35  C   UNL A   1      36.214  33.351  30.816  1.00  0.00    -0.014 A 
BRANCH  35  36
ATOM     36  C   UNL A   1      37.340  32.695  31.519  1.00  0.00     0.031 A 
ATOM     37  C   UNL A   1      38.053  31.553  30.853  1.00  0.00     0.074 A 
ATOM     38  C   UNL A   1      37.672  33.075  32.767  1.00  0.00     0.049 A 
ATOM     39  N   UNL A   1      38.998  30.779  31.321  1.00  0.00    -0.248 NA
ATOM     40  C   UNL A   1      37.616  31.206  29.489  1.00  0.00     0.031 C 
ATOM     41  C   UNL A   1      37.014  34.134  33.535  1.00  0.00     0.029 A 
ATOM     42  N   UNL A   1      38.648  32.610  33.611  1.00  0.00    -0.354 N 
ATOM     43  C   UNL A   1      39.246  29.849  30.322  1.00  0.00     0.074 A 
ATOM     44  C   UNL A   1      38.310  30.105  29.252  1.00  0.00     0.031 C 
ATOM     45  C   UNL A   1      37.634  34.267  34.719  1.00  0.00     0.029 A 
ATOM     46  C   UNL A   1      38.708  33.282  34.807  1.00  0.00     0.049 A 
ATOM     47  H   UNL A   1      39.250  31.866  33.380  1.00  0.00     0.167 HD
ATOM     48  C   UNL A   1      40.200  28.890  30.283  1.00  0.00     0.037 A 
ATOM     49  C   UNL A   1      39.543  33.121  35.851  1.00  0.00     0.037 A 
ATOM     50  C   UNL A   1      41.163  28.675  31.326  1.00  0.00     0.049 A 
ATOM     51  C   UNL A   1      40.606  32.060  35.778  1.00  0.00     0.074 A 
ATOM     52  C   UNL A   1      42.208  27.772  31.363  1.00  0.00     0.029 A 
ATOM     53  N   UNL A   1      41.202  29.388  32.517  1.00  0.00    -0.354 N 
ATOM     54  N   UNL A   1      40.866  31.216  34.809  1.00  0.00    -0.248 NA
ATOM     55  C   UNL A   1      41.495  31.930  36.941  1.00  0.00     0.031 C 
ATOM     56  C   UNL A   1      42.866  27.919  32.587  1.00  0.00     0.029 A 
ATOM     57  C   UNL A   1      42.251  28.937  33.300  1.00  0.00     0.049 A 
ATOM     58  H   UNL A   1      40.578  30.107  32.766  1.00  0.00     0.167 HD
ATOM     59  C   UNL A   1      41.954  30.468  35.234  1.00  0.00     0.074 A 
ATOM     60  C   UNL A   1      42.318  30.967  36.544  1.00  0.00     0.031 C 
ATOM     61  C   UNL A   1      42.595  29.457  34.598  1.00  0.00     0.037 A 
BRANCH  48  62
ATOM     62  C   UNL A   1      40.259  28.028  29.059  1.00  0.00     0.064 A 
ATOM     63  C   UNL A   1      40.997  28.413  27.929  1.00  0.00     0.173 A 
ATOM     64  C   UNL A   1      39.589  26.797  29.018  1.00  0.00     0.173 A 
ATOM     65  F   UNL A   1      41.640  29.591  27.912  1.00  0.00    -0.203 F 
ATOM     66  C   UNL A   1      41.038  27.613  26.792  1.00  0.00     0.198 A 
ATOM     67  C   UNL A   1      39.656  25.984  27.889  1.00  0.00     0.198 A 
ATOM     68  F   UNL A   1      38.869  26.382  30.071  1.00  0.00    -0.203 F 
ATOM     69  F   UNL A   1      41.705  28.026  25.705  1.00  0.00    -0.200 F 
ATOM     70  C   UNL A   1      40.373  26.395  26.775  1.00  0.00     0.200 A 
ATOM     71  F   UNL A   1      39.020  24.804  27.876  1.00  0.00    -0.200 F 
ATOM     72  F   UNL A   1      40.417  25.623  25.681  1.00  0.00    -0.200 F 
ENDBRANCH  48  62
BRANCH  49  73
ATOM     73  C   UNL A   1      39.440  34.027  37.023  1.00  0.00     0.064 A 
ATOM     74  C   UNL A   1      38.721  33.636  38.162  1.00  0.00     0.173 A 
ATOM     75  C   UNL A   1      40.074  35.277  37.048  1.00  0.00     0.173 A 
ATOM     76  F   UNL A   1      38.082  32.457  38.177  1.00  0.00    -0.203 F 
ATOM     77  C   UNL A   1      38.633  34.467  39.278  1.00  0.00     0.198 A 
ATOM     78  C   UNL A   1      40.004  36.096  38.172  1.00  0.00     0.198 A 
ATOM     79  F   UNL A   1      40.779  35.692  35.985  1.00  0.00    -0.203 F 
ATOM     80  F   UNL A   1      37.917  34.080  40.342  1.00  0.00    -0.200 F 
ATOM     81  C   UNL A   1      39.281  35.692  39.285  1.00  0.00     0.200 A 
ATOM     82  F   UNL A   1      40.641  37.275  38.181  1.00  0.00    -0.200 F 
ATOM     83  F   UNL A   1      39.206  36.486  40.363  1.00  0.00    -0.200 F 
ENDBRANCH  49  73
BRANCH  61  84
ATOM     84  C   UNL A   1      43.761  28.830  35.297  1.00  0.00     0.064 A 
ATOM     85  C   UNL A   1      45.059  29.338  35.148  1.00  0.00     0.173 A 
ATOM     86  C   UNL A   1      43.565  27.768  36.192  1.00  0.00     0.173 A 
ATOM     87  F   UNL A   1      45.294  30.346  34.294  1.00  0.00    -0.203 F 
ATOM     88  C   UNL A   1      46.123  28.799  35.864  1.00  0.00     0.198 A 
ATOM     89  C   UNL A   1      44.627  27.247  36.924  1.00  0.00     0.198 A 
ATOM     90  F   UNL A   1      42.339  27.254  36.374  1.00  0.00    -0.203 F 
ATOM     91  F   UNL A   1      47.359  29.284  35.688  1.00  0.00    -0.200 F 
ATOM     92  C   UNL A   1      45.904  27.761  36.759  1.00  0.00     0.200 A 
ATOM     93  F   UNL A   1      44.413  26.254  37.800  1.00  0.00    -0.200 F 
ATOM     94  F   UNL A   1      46.927  27.257  37.462  1.00  0.00    -0.200 F 
ENDBRANCH  61  84
ENDBRANCH  35  36
ENDBRANCH  27  30
ENDBRANCH  25  26
ENDBRANCH  24  25
ENDBRANCH   1  24
TORSDOF 13
ENDMDL
MODEL 3
REMARK VINA RESULT:     -12.6      1.003      1.753
REMARK SMILES Cn1nc(N2CCC(CC(=O)NCCCCNC(=O)c3ccc(-c4c5nc(c(-c6c(F)c(F)c(F)c(F)c6F)c6ccc([nH]6)c(-c6c(F)c(F)c(F)c(F)c6F)c6nc(c(-c7c(F)c(F)c(F)c(F)c7F)c7ccc4[nH]7)C=C6)C=C5)cc3)CC2)c(=O)n(C)c1=O
REMARK SMILES IDX 14 1 13 2 12 3 10 4 11 5 9 7 8 8 5 9 6 10 84 11 7 12 83 13
REMARK SMILES IDX 4 14 1 15 2 16 3 17 89 18 87 19 90 20 85 21 88 22 86 23
REMARK SMILES IDX 15 24 16 25 17 26 18 27 19 29 20 30 21 31 82 32 22 33 81 34
REMARK SMILES IDX 23 35 24 36 25 37 75 38 26 39 80 40 74 41 76 42 27 43 79 44
REMARK SMILES IDX 73 45 72 46 28 48 60 49 40 50 59 51 41 52 44 53 58 54 77 55
REMARK SMILES IDX 42 56 43 57 57 59 78 60 45 61 29 62 30 63 38 64 31 65 32 66
REMARK SMILES IDX 36 67 39 68 33 69 34 70 37 71 35 72 61 73 62 74 70 75 63 76
REMARK SMILES IDX 64 77 68 78 71 79 65 80 66 81 69 82 67 83 46 84 47 85 55 86
REMARK SMILES IDX 48 87 49 88 53 89 56 90 50 91 51 92 54 93 52 94
REMARK H PARENT 12 6 17 28 76 47 44 58
REMARK Flexibility Score: inf
ROOT
ATOM      1  C   UNL A   1      31.858  30.516  26.864  1.00  0.00     0.023 C 
ENDROOT
BRANCH   1   2
ATOM      2  C   UNL A   1      32.206  29.930  25.492  1.00  0.00     0.116 C 
BRANCH   2   3
ATOM      3  N   UNL A   1      31.045  29.896  24.617  1.00  0.00    -0.356 N 
ATOM      4  C   UNL A   1      30.689  29.000  23.651  1.00  0.00     0.220 C 
ATOM      5  O   UNL A   1      29.683  29.239  22.981  1.00  0.00    -0.275 OA
ATOM      6  H   UNL A   1      30.413  30.640  24.742  1.00  0.00     0.163 HD
BRANCH   4   7
ATOM      7  C   UNL A   1      31.509  27.744  23.403  1.00  0.00     0.103 C 
BRANCH   7   8
ATOM      8  C   UNL A   1      30.871  26.450  23.958  1.00  0.00     0.002 C 
ATOM      9  N   UNL A   1      31.448  23.702  24.607  1.00  0.00    -0.351 N 
ATOM     10  C   UNL A   1      30.655  23.929  23.423  1.00  0.00     0.118 C 
ATOM     11  C   UNL A   1      31.195  24.612  25.708  1.00  0.00     0.118 C 
ATOM     12  C   UNL A   1      30.923  25.331  22.914  1.00  0.00     0.025 C 
ATOM     13  C   UNL A   1      31.574  26.028  25.266  1.00  0.00     0.025 C 
BRANCH   9  14
ATOM     14  C   UNL A   1      32.443  22.744  24.646  1.00  0.00     0.215 A 
ATOM     15  C   UNL A   1      32.869  19.264  25.439  1.00  0.00     0.180 C 
ATOM     16  N   UNL A   1      33.229  20.620  25.053  1.00  0.00    -0.216 N 
ATOM     17  N   UNL A   1      32.200  21.528  25.043  1.00  0.00    -0.145 NA
ATOM     18  C   UNL A   1      34.563  20.917  24.784  1.00  0.00     0.346 A 
ATOM     19  N   UNL A   1      34.834  22.214  24.398  1.00  0.00    -0.259 N 
ATOM     20  O   UNL A   1      35.451  20.067  24.882  1.00  0.00    -0.246 OA
ATOM     21  C   UNL A   1      33.854  23.167  24.241  1.00  0.00     0.299 A 
ATOM     22  C   UNL A   1      36.197  22.617  24.130  1.00  0.00     0.159 C 
ATOM     23  O   UNL A   1      34.041  24.311  23.838  1.00  0.00    -0.265 OA
ENDBRANCH   9  14
ENDBRANCH   7   8
ENDBRANCH   4   7
ENDBRANCH   2   3
ENDBRANCH   1   2
BRANCH   1  24
ATOM     24  C   UNL A   1      31.586  32.010  26.882  1.00  0.00     0.023 C 
BRANCH  24  25
ATOM     25  C   UNL A   1      32.789  32.846  27.267  1.00  0.00     0.116 C 
BRANCH  25  26
ATOM     26  N   UNL A   1      32.445  34.210  27.651  1.00  0.00    -0.352 N 
ATOM     27  C   UNL A   1      33.007  34.998  28.633  1.00  0.00     0.251 C 
ATOM     28  H   UNL A   1      31.713  34.625  27.139  1.00  0.00     0.163 HD
ATOM     29  O   UNL A   1      32.543  36.090  28.908  1.00  0.00    -0.269 OA
BRANCH  27  30
ATOM     30  C   UNL A   1      34.164  34.462  29.377  1.00  0.00     0.039 A 
ATOM     31  C   UNL A   1      33.938  33.711  30.532  1.00  0.00     0.014 A 
ATOM     32  C   UNL A   1      35.453  34.622  28.867  1.00  0.00     0.014 A 
ATOM     33  C   UNL A   1      35.009  33.045  31.128  1.00  0.00     0.010 A 
ATOM     34  C   UNL A   1      36.492  33.871  29.394  1.00  0.00     0.010 A 
ATOM     35  C   UNL A   1      36.281  33.085  30.537  1.00  0.00    -0.014 A 
BRANCH  35  36
ATOM     36  C   UNL A   1      37.429  32.351  31.118  1.00  0.00     0.031 A 
ATOM     37  C   UNL A   1      37.906  32.710  32.496  1.00  0.00     0.074 A 
ATOM     38  C   UNL A   1      38.078  31.424  30.388  1.00  0.00     0.049 A 
ATOM     39  N   UNL A   1      38.943  32.265  33.157  1.00  0.00    -0.248 NA
ATOM     40  C   UNL A   1      37.134  33.740  33.215  1.00  0.00     0.031 C 
ATOM     41  C   UNL A   1      37.740  31.033  29.018  1.00  0.00     0.029 A 
ATOM     42  N   UNL A   1      39.161  30.643  30.699  1.00  0.00    -0.354 N 
ATOM     43  C   UNL A   1      38.958  32.975  34.349  1.00  0.00     0.074 A 
ATOM     44  C   UNL A   1      37.873  33.928  34.296  1.00  0.00     0.031 C 
ATOM     45  C   UNL A   1      38.572  30.055  28.623  1.00  0.00     0.029 A 
ATOM     46  C   UNL A   1      39.521  29.775  29.697  1.00  0.00     0.049 A 
ATOM     47  H   UNL A   1      39.637  30.699  31.559  1.00  0.00     0.167 HD
ATOM     48  C   UNL A   1      39.779  32.817  35.412  1.00  0.00     0.037 A 
ATOM     49  C   UNL A   1      40.501  28.853  29.659  1.00  0.00     0.037 A 
ATOM     50  C   UNL A   1      40.821  31.832  35.480  1.00  0.00     0.049 A 
ATOM     51  C   UNL A   1      41.391  28.684  30.859  1.00  0.00     0.074 A 
ATOM     52  C   UNL A   1      41.672  31.547  36.532  1.00  0.00     0.029 A 
ATOM     53  N   UNL A   1      41.143  30.958  34.451  1.00  0.00    -0.354 N 
ATOM     54  N   UNL A   1      41.367  29.327  32.002  1.00  0.00    -0.248 NA
ATOM     55  C   UNL A   1      42.442  27.661  30.767  1.00  0.00     0.031 C 
ATOM     56  C   UNL A   1      42.528  30.518  36.130  1.00  0.00     0.029 A 
ATOM     57  C   UNL A   1      42.188  30.138  34.841  1.00  0.00     0.049 A 
ATOM     58  H   UNL A   1      40.695  30.926  33.575  1.00  0.00     0.167 HD
ATOM     59  C   UNL A   1      42.383  28.777  32.770  1.00  0.00     0.074 A 
ATOM     60  C   UNL A   1      42.997  27.737  31.970  1.00  0.00     0.031 C 
ATOM     61  C   UNL A   1      42.775  29.105  34.026  1.00  0.00     0.037 A 
BRANCH  48  62
ATOM     62  C   UNL A   1      39.557  33.714  36.592  1.00  0.00     0.064 A 
ATOM     63  C   UNL A   1      38.769  33.308  37.681  1.00  0.00     0.173 A 
ATOM     64  C   UNL A   1      40.150  34.984  36.647  1.00  0.00     0.173 A 
ATOM     65  F   UNL A   1      38.166  32.109  37.666  1.00  0.00    -0.203 F 
ATOM     66  C   UNL A   1      38.558  34.150  38.767  1.00  0.00     0.198 A 
ATOM     67  C   UNL A   1      39.960  35.813  37.750  1.00  0.00     0.198 A 
ATOM     68  F   UNL A   1      40.911  35.420  35.633  1.00  0.00    -0.203 F 
ATOM     69  F   UNL A   1      37.759  33.762  39.770  1.00  0.00    -0.200 F 
ATOM     70  C   UNL A   1      39.160  35.399  38.805  1.00  0.00     0.200 A 
ATOM     71  F   UNL A   1      40.549  37.017  37.789  1.00  0.00    -0.200 F 
ATOM     72  F   UNL A   1      38.960  36.209  39.854  1.00  0.00    -0.200 F 
ENDBRANCH  48  62
BRANCH  49  73
ATOM     73  C   UNL A   1      40.649  27.985  28.464  1.00  0.00     0.064 A 
ATOM     74  C   UNL A   1      40.000  26.743  28.403  1.00  0.00     0.173 A 
ATOM     75  C   UNL A   1      41.409  28.379  27.354  1.00  0.00     0.173 A 
ATOM     76  F   UNL A   1      39.278  26.314  29.449  1.00  0.00    -0.203 F 
ATOM     77  C   UNL A   1      40.112  25.926  27.279  1.00  0.00     0.198 A 
ATOM     78  C   UNL A   1      41.502  27.572  26.222  1.00  0.00     0.198 A 
ATOM     79  F   UNL A   1      42.043  29.561  27.362  1.00  0.00    -0.203 F 
ATOM     80  F   UNL A   1      39.503  24.733  27.258  1.00  0.00    -0.200 F 
ATOM     81  C   UNL A   1      40.857  26.344  26.187  1.00  0.00     0.200 A 
ATOM     82  F   UNL A   1      42.213  27.984  25.164  1.00  0.00    -0.200 F 
ATOM     83  F   UNL A   1      40.955  25.564  25.102  1.00  0.00    -0.200 F 
ENDBRANCH  49  73
BRANCH  61  84
ATOM     84  C   UNL A   1      43.908  28.328  34.622  1.00  0.00     0.064 A 
ATOM     85  C   UNL A   1      45.225  28.805  34.570  1.00  0.00     0.173 A 
ATOM     86  C   UNL A   1      43.661  27.141  35.327  1.00  0.00     0.173 A 
ATOM     87  F   UNL A   1      45.508  29.931  33.897  1.00  0.00    -0.203 F 
ATOM     88  C   UNL A   1      46.258  28.117  35.198  1.00  0.00     0.198 A 
ATOM     89  C   UNL A   1      44.693  26.468  35.974  1.00  0.00     0.198 A 
ATOM     90  F   UNL A   1      42.415  26.650  35.411  1.00  0.00    -0.203 F 
ATOM     91  F   UNL A   1      47.514  28.577  35.116  1.00  0.00    -0.200 F 
ATOM     92  C   UNL A   1      45.990  26.954  35.907  1.00  0.00     0.200 A 
ATOM     93  F   UNL A   1      44.431  25.353  36.672  1.00  0.00    -0.200 F 
ATOM     94  F   UNL A   1      46.984  26.303  36.526  1.00  0.00    -0.200 F 
ENDBRANCH  61  84
ENDBRANCH  35  36
ENDBRANCH  27  30
ENDBRANCH  25  26
ENDBRANCH  24  25
ENDBRANCH   1  24
TORSDOF 13
ENDMDL
