MODEL 1
REMARK VINA RESULT:     -12.3      0.000      0.000
REMARK SMILES Cc1oc(CNC(=O)c2ccnn2C)cc1C(=O)NCCCCNC(=O)c1ccc(-c2c3nc(c(-c4c(F)c(F)c(F)c(F)c4F)c4ccc([nH]4)c(-c4c(F)c(F)c(F)c(F)c4F)c4nc(c(-c5c(F)c(F)c(F)c(F)c5F)c5ccc2[nH]5)C=C4)C=C3)cc1
REMARK SMILES IDX 21 1 20 2 19 3 17 4 18 5 16 7 1 8 2 9 3 10 4 11 15 12 5 13
REMARK SMILES IDX 6 14 7 15 8 17 9 18 10 19 13 20 11 21 12 22 14 23 22 24
REMARK SMILES IDX 23 25 24 26 25 27 26 29 27 30 28 31 89 32 29 33 88 34 30 35
REMARK SMILES IDX 31 36 32 37 82 38 33 39 87 40 81 41 83 42 34 43 86 44 80 45
REMARK SMILES IDX 79 46 35 48 67 49 47 50 66 51 48 52 51 53 65 54 84 55 49 56
REMARK SMILES IDX 50 57 64 59 85 60 52 61 36 62 37 63 45 64 38 65 39 66 43 67
REMARK SMILES IDX 46 68 40 69 41 70 44 71 42 72 68 73 69 74 77 75 70 76 71 77
REMARK SMILES IDX 75 78 78 79 72 80 73 81 76 82 74 83 53 84 54 85 62 86 55 87
REMARK SMILES IDX 56 88 60 89 63 90 57 91 58 92 61 93 59 94
REMARK H PARENT 19 6 6 16 24 28 83 47 51 58
REMARK Flexibility Score: inf
ROOT
ATOM      1  C   UNL A   1      34.477  30.978  27.968  1.00  0.00     0.023 C 
ENDROOT
BRANCH   1   2
ATOM      2  C   UNL A   1      34.310  29.622  27.284  1.00  0.00     0.116 C 
BRANCH   2   3
ATOM      3  N   UNL A   1      33.123  28.962  27.762  1.00  0.00    -0.352 N 
ATOM      4  C   UNL A   1      32.083  28.337  27.135  1.00  0.00     0.254 C 
ATOM      5  O   UNL A   1      31.222  27.888  27.899  1.00  0.00    -0.269 OA
ATOM      6  H   UNL A   1      33.045  28.961  28.743  1.00  0.00     0.163 HD
BRANCH   4   7
ATOM      7  C   UNL A   1      31.955  28.117  25.693  1.00  0.00     0.081 A 
ATOM      8  C   UNL A   1      33.559  26.204  24.690  1.00  0.00     0.088 C 
ATOM      9  C   UNL A   1      32.531  27.265  24.753  1.00  0.00     0.113 A 
ATOM     10  O   UNL A   1      31.998  27.499  23.516  1.00  0.00    -0.464 OA
ATOM     11  C   UNL A   1      31.124  28.525  23.612  1.00  0.00     0.124 A 
ATOM     12  C   UNL A   1      31.071  28.951  24.913  1.00  0.00     0.061 A 
BRANCH  11  13
ATOM     13  C   UNL A   1      30.417  28.919  22.374  1.00  0.00     0.191 C 
BRANCH  13  14
ATOM     14  N   UNL A   1      28.995  28.698  22.532  1.00  0.00    -0.343 N 
ATOM     15  C   UNL A   1      28.006  29.607  22.796  1.00  0.00     0.269 C 
ATOM     16  H   UNL A   1      28.698  27.765  22.435  1.00  0.00     0.164 HD
ATOM     17  O   UNL A   1      26.902  29.179  23.126  1.00  0.00    -0.268 OA
BRANCH  15  18
ATOM     18  C   UNL A   1      28.292  31.014  22.703  1.00  0.00     0.125 A 
ATOM     19  C   UNL A   1      28.579  31.883  23.742  1.00  0.00     0.055 A 
ATOM     20  N   UNL A   1      28.228  31.812  21.589  1.00  0.00    -0.263 N 
ATOM     21  C   UNL A   1      28.774  33.134  23.139  1.00  0.00     0.136 A 
ATOM     22  N   UNL A   1      28.592  33.090  21.819  1.00  0.00    -0.181 NA
ATOM     23  C   UNL A   1      27.803  31.456  20.254  1.00  0.00     0.174 C 
ENDBRANCH  15  18
ENDBRANCH  13  14
ENDBRANCH  11  13
ENDBRANCH   4   7
ENDBRANCH   2   3
ENDBRANCH   1   2
BRANCH   1  24
ATOM     24  C   UNL A   1      33.223  31.856  27.969  1.00  0.00     0.023 C 
BRANCH  24  25
ATOM     25  C   UNL A   1      33.292  33.075  27.057  1.00  0.00     0.116 C 
BRANCH  25  26
ATOM     26  N   UNL A   1      32.685  34.265  27.630  1.00  0.00    -0.352 N 
ATOM     27  C   UNL A   1      33.053  34.945  28.766  1.00  0.00     0.251 C 
ATOM     28  H   UNL A   1      31.913  34.632  27.142  1.00  0.00     0.163 HD
ATOM     29  O   UNL A   1      32.391  35.894  29.170  1.00  0.00    -0.269 OA
BRANCH  27  30
ATOM     30  C   UNL A   1      34.227  34.480  29.529  1.00  0.00     0.039 A 
ATOM     31  C   UNL A   1      34.018  33.860  30.763  1.00  0.00     0.014 A 
ATOM     32  C   UNL A   1      35.517  34.614  29.009  1.00  0.00     0.014 A 
ATOM     33  C   UNL A   1      35.099  33.304  31.446  1.00  0.00     0.010 A 
ATOM     34  C   UNL A   1      36.586  34.011  29.664  1.00  0.00     0.010 A 
ATOM     35  C   UNL A   1      36.383  33.344  30.881  1.00  0.00    -0.014 A 
BRANCH  35  36
ATOM     36  C   UNL A   1      37.530  32.678  31.540  1.00  0.00     0.031 A 
ATOM     37  C   UNL A   1      38.228  31.539  30.858  1.00  0.00     0.074 A 
ATOM     38  C   UNL A   1      37.884  33.050  32.784  1.00  0.00     0.049 A 
ATOM     39  N   UNL A   1      39.183  30.767  31.310  1.00  0.00    -0.248 NA
ATOM     40  C   UNL A   1      37.770  31.203  29.501  1.00  0.00     0.031 C 
ATOM     41  C   UNL A   1      37.244  34.109  33.565  1.00  0.00     0.029 A 
ATOM     42  N   UNL A   1      38.861  32.566  33.616  1.00  0.00    -0.354 N 
ATOM     43  C   UNL A   1      39.422  29.841  30.304  1.00  0.00     0.074 A 
ATOM     44  C   UNL A   1      38.493  30.126  29.232  1.00  0.00     0.031 C 
ATOM     45  C   UNL A   1      37.854  34.204  34.758  1.00  0.00     0.029 A 
ATOM     46  C   UNL A   1      38.908  33.198  34.833  1.00  0.00     0.049 A 
ATOM     47  H   UNL A   1      39.471  31.835  33.363  1.00  0.00     0.167 HD
ATOM     48  C   UNL A   1      40.344  28.850  30.276  1.00  0.00     0.037 A 
ATOM     49  C   UNL A   1      39.713  32.985  35.891  1.00  0.00     0.037 A 
ATOM     50  C   UNL A   1      41.294  28.596  31.325  1.00  0.00     0.049 A 
ATOM     51  C   UNL A   1      40.763  31.912  35.812  1.00  0.00     0.074 A 
ATOM     52  C   UNL A   1      42.309  27.656  31.363  1.00  0.00     0.029 A 
ATOM     53  N   UNL A   1      41.349  29.296  32.521  1.00  0.00    -0.354 N 
ATOM     54  N   UNL A   1      41.016  31.076  34.835  1.00  0.00    -0.248 NA
ATOM     55  C   UNL A   1      41.644  31.761  36.978  1.00  0.00     0.031 C 
ATOM     56  C   UNL A   1      42.968  27.775  32.593  1.00  0.00     0.029 A 
ATOM     57  C   UNL A   1      42.379  28.806  33.307  1.00  0.00     0.049 A 
ATOM     58  H   UNL A   1      40.746  30.031  32.774  1.00  0.00     0.167 HD
ATOM     59  C   UNL A   1      42.095  30.314  35.257  1.00  0.00     0.074 A 
ATOM     60  C   UNL A   1      42.456  30.793  36.576  1.00  0.00     0.031 C 
ATOM     61  C   UNL A   1      42.729  29.308  34.610  1.00  0.00     0.037 A 
BRANCH  48  62
ATOM     62  C   UNL A   1      40.371  27.971  29.063  1.00  0.00     0.064 A 
ATOM     63  C   UNL A   1      41.132  28.305  27.934  1.00  0.00     0.173 A 
ATOM     64  C   UNL A   1      39.645  26.772  29.038  1.00  0.00     0.173 A 
ATOM     65  F   UNL A   1      41.829  29.451  27.906  1.00  0.00    -0.203 F 
ATOM     66  C   UNL A   1      41.148  27.481  26.812  1.00  0.00     0.198 A 
ATOM     67  C   UNL A   1      39.680  25.939  27.924  1.00  0.00     0.198 A 
ATOM     68  F   UNL A   1      38.902  26.408  30.095  1.00  0.00    -0.203 F 
ATOM     69  F   UNL A   1      41.848  27.840  25.729  1.00  0.00    -0.200 F 
ATOM     70  C   UNL A   1      40.426  26.295  26.810  1.00  0.00     0.200 A 
ATOM     71  F   UNL A   1      38.988  24.791  27.924  1.00  0.00    -0.200 F 
ATOM     72  F   UNL A   1      40.443  25.502  25.731  1.00  0.00    -0.200 F 
ENDBRANCH  48  62
BRANCH  49  73
ATOM     73  C   UNL A   1      39.581  33.834  37.099  1.00  0.00     0.064 A 
ATOM     74  C   UNL A   1      38.754  33.440  38.161  1.00  0.00     0.173 A 
ATOM     75  C   UNL A   1      40.279  35.042  37.225  1.00  0.00     0.173 A 
ATOM     76  F   UNL A   1      38.053  32.299  38.075  1.00  0.00    -0.203 F 
ATOM     77  C   UNL A   1      38.621  34.230  39.299  1.00  0.00     0.198 A 
ATOM     78  C   UNL A   1      40.160  35.823  38.373  1.00  0.00     0.198 A 
ATOM     79  F   UNL A   1      41.086  35.457  36.238  1.00  0.00    -0.203 F 
ATOM     80  F   UNL A   1      37.801  33.847  40.287  1.00  0.00    -0.200 F 
ATOM     81  C   UNL A   1      39.327  35.420  39.406  1.00  0.00     0.200 A 
ATOM     82  F   UNL A   1      40.851  36.966  38.477  1.00  0.00    -0.200 F 
ATOM     83  F   UNL A   1      39.201  36.178  40.503  1.00  0.00    -0.200 F 
ENDBRANCH  49  73
BRANCH  61  84
ATOM     84  C   UNL A   1      43.899  28.681  35.303  1.00  0.00     0.064 A 
ATOM     85  C   UNL A   1      43.738  27.576  36.150  1.00  0.00     0.173 A 
ATOM     86  C   UNL A   1      45.196  29.162  35.080  1.00  0.00     0.173 A 
ATOM     87  F   UNL A   1      42.513  27.092  36.403  1.00  0.00    -0.203 F 
ATOM     88  C   UNL A   1      44.838  26.982  36.762  1.00  0.00     0.198 A 
ATOM     89  C   UNL A   1      46.295  28.555  35.679  1.00  0.00     0.198 A 
ATOM     90  F   UNL A   1      45.396  30.216  34.274  1.00  0.00    -0.203 F 
ATOM     91  F   UNL A   1      44.662  25.945  37.592  1.00  0.00    -0.200 F 
ATOM     92  C   UNL A   1      46.116  27.468  36.522  1.00  0.00     0.200 A 
ATOM     93  F   UNL A   1      47.529  29.021  35.441  1.00  0.00    -0.200 F 
ATOM     94  F   UNL A   1      47.173  26.892  37.108  1.00  0.00    -0.200 F 
ENDBRANCH  61  84
ENDBRANCH  35  36
ENDBRANCH  27  30
ENDBRANCH  25  26
ENDBRANCH  24  25
ENDBRANCH   1  24
TORSDOF 14
ENDMDL
MODEL 2
REMARK VINA RESULT:     -12.1      1.851      3.482
REMARK SMILES Cc1oc(CNC(=O)c2ccnn2C)cc1C(=O)NCCCCNC(=O)c1ccc(-c2c3nc(c(-c4c(F)c(F)c(F)c(F)c4F)c4ccc([nH]4)c(-c4c(F)c(F)c(F)c(F)c4F)c4nc(c(-c5c(F)c(F)c(F)c(F)c5F)c5ccc2[nH]5)C=C4)C=C3)cc1
REMARK SMILES IDX 21 1 20 2 19 3 17 4 18 5 16 7 1 8 2 9 3 10 4 11 15 12 5 13
REMARK SMILES IDX 6 14 7 15 8 17 9 18 10 19 13 20 11 21 12 22 14 23 22 24
REMARK SMILES IDX 23 25 24 26 25 27 26 29 27 30 28 31 89 32 29 33 88 34 30 35
REMARK SMILES IDX 31 36 32 37 82 38 33 39 87 40 81 41 83 42 34 43 86 44 80 45
REMARK SMILES IDX 79 46 35 48 67 49 47 50 66 51 48 52 51 53 65 54 84 55 49 56
REMARK SMILES IDX 50 57 64 59 85 60 52 61 36 62 37 63 45 64 38 65 39 66 43 67
REMARK SMILES IDX 46 68 40 69 41 70 44 71 42 72 68 73 69 74 77 75 70 76 71 77
REMARK SMILES IDX 75 78 78 79 72 80 73 81 76 82 74 83 53 84 54 85 62 86 55 87
REMARK SMILES IDX 56 88 60 89 63 90 57 91 58 92 61 93 59 94
REMARK H PARENT 19 6 6 16 24 28 83 47 51 58
REMARK Flexibility Score: inf
ROOT
ATOM      1  C   UNL A   1      31.793  30.485  26.814  1.00  0.00     0.023 C 
ENDROOT
BRANCH   1   2
ATOM      2  C   UNL A   1      32.287  29.734  25.578  1.00  0.00     0.116 C 
BRANCH   2   3
ATOM      3  N   UNL A   1      31.352  29.883  24.494  1.00  0.00    -0.352 N 
ATOM      4  C   UNL A   1      30.913  29.039  23.514  1.00  0.00     0.254 C 
ATOM      5  O   UNL A   1      30.093  29.540  22.738  1.00  0.00    -0.269 OA
ATOM      6  H   UNL A   1      30.945  30.778  24.450  1.00  0.00     0.163 HD
BRANCH   4   7
ATOM      7  C   UNL A   1      31.281  27.630  23.365  1.00  0.00     0.081 A 
ATOM      8  C   UNL A   1      33.573  27.191  22.027  1.00  0.00     0.088 C 
ATOM      9  C   UNL A   1      32.336  26.923  22.792  1.00  0.00     0.113 A 
ATOM     10  O   UNL A   1      32.160  25.580  22.975  1.00  0.00    -0.464 OA
ATOM     11  C   UNL A   1      30.982  25.385  23.609  1.00  0.00     0.124 A 
ATOM     12  C   UNL A   1      30.397  26.598  23.856  1.00  0.00     0.061 A 
BRANCH  11  13
ATOM     13  C   UNL A   1      30.616  23.987  23.923  1.00  0.00     0.191 C 
BRANCH  13  14
ATOM     14  N   UNL A   1      30.287  23.872  25.328  1.00  0.00    -0.343 N 
ATOM     15  C   UNL A   1      31.075  23.457  26.368  1.00  0.00     0.269 C 
ATOM     16  H   UNL A   1      29.368  24.128  25.570  1.00  0.00     0.164 HD
ATOM     17  O   UNL A   1      30.531  23.208  27.441  1.00  0.00    -0.268 OA
BRANCH  15  18
ATOM     18  C   UNL A   1      32.492  23.305  26.166  1.00  0.00     0.125 A 
ATOM     19  C   UNL A   1      33.462  24.289  26.245  1.00  0.00     0.055 A 
ATOM     20  N   UNL A   1      33.164  22.185  25.743  1.00  0.00    -0.263 N 
ATOM     21  C   UNL A   1      34.674  23.642  25.962  1.00  0.00     0.136 A 
ATOM     22  N   UNL A   1      34.502  22.350  25.686  1.00  0.00    -0.181 NA
ATOM     23  C   UNL A   1      32.617  20.910  25.339  1.00  0.00     0.174 C 
ENDBRANCH  15  18
ENDBRANCH  13  14
ENDBRANCH  11  13
ENDBRANCH   4   7
ENDBRANCH   2   3
ENDBRANCH   1   2
BRANCH   1  24
ATOM     24  C   UNL A   1      31.715  32.006  26.653  1.00  0.00     0.023 C 
BRANCH  24  25
ATOM     25  C   UNL A   1      32.797  32.786  27.390  1.00  0.00     0.116 C 
BRANCH  25  26
ATOM     26  N   UNL A   1      32.418  34.155  27.700  1.00  0.00    -0.352 N 
ATOM     27  C   UNL A   1      32.991  35.012  28.608  1.00  0.00     0.251 C 
ATOM     28  H   UNL A   1      31.653  34.515  27.194  1.00  0.00     0.163 HD
ATOM     29  O   UNL A   1      32.507  36.118  28.817  1.00  0.00    -0.269 OA
BRANCH  27  30
ATOM     30  C   UNL A   1      34.167  34.559  29.374  1.00  0.00     0.039 A 
ATOM     31  C   UNL A   1      33.963  33.985  30.632  1.00  0.00     0.014 A 
ATOM     32  C   UNL A   1      35.453  34.658  28.837  1.00  0.00     0.014 A 
ATOM     33  C   UNL A   1      35.045  33.439  31.322  1.00  0.00     0.010 A 
ATOM     34  C   UNL A   1      36.522  34.065  29.501  1.00  0.00     0.010 A 
ATOM     35  C   UNL A   1      36.323  33.442  30.743  1.00  0.00    -0.014 A 
BRANCH  35  36
ATOM     36  C   UNL A   1      37.469  32.786  31.413  1.00  0.00     0.031 A 
ATOM     37  C   UNL A   1      38.169  31.639  30.747  1.00  0.00     0.074 A 
ATOM     38  C   UNL A   1      37.819  33.172  32.653  1.00  0.00     0.049 A 
ATOM     39  N   UNL A   1      39.124  30.873  31.210  1.00  0.00    -0.248 NA
ATOM     40  C   UNL A   1      37.716  31.287  29.392  1.00  0.00     0.031 C 
ATOM     41  C   UNL A   1      37.176  34.240  33.421  1.00  0.00     0.029 A 
ATOM     42  N   UNL A   1      38.794  32.698  33.494  1.00  0.00    -0.354 N 
ATOM     43  C   UNL A   1      39.366  29.935  30.216  1.00  0.00     0.074 A 
ATOM     44  C   UNL A   1      38.440  30.207  29.137  1.00  0.00     0.031 C 
ATOM     45  C   UNL A   1      37.783  34.349  34.614  1.00  0.00     0.029 A 
ATOM     46  C   UNL A   1      38.837  33.344  34.703  1.00  0.00     0.049 A 
ATOM     47  H   UNL A   1      39.405  31.965  33.251  1.00  0.00     0.167 HD
ATOM     48  C   UNL A   1      40.289  28.945  30.201  1.00  0.00     0.037 A 
ATOM     49  C   UNL A   1      39.640  33.145  35.766  1.00  0.00     0.037 A 
ATOM     50  C   UNL A   1      41.236  28.703  31.256  1.00  0.00     0.049 A 
ATOM     51  C   UNL A   1      40.690  32.072  35.702  1.00  0.00     0.074 A 
ATOM     52  C   UNL A   1      42.252  27.765  31.308  1.00  0.00     0.029 A 
ATOM     53  N   UNL A   1      41.288  29.417  32.444  1.00  0.00    -0.354 N 
ATOM     54  N   UNL A   1      40.946  31.224  34.737  1.00  0.00    -0.248 NA
ATOM     55  C   UNL A   1      41.568  31.934  36.873  1.00  0.00     0.031 C 
ATOM     56  C   UNL A   1      42.907  27.899  32.538  1.00  0.00     0.029 A 
ATOM     57  C   UNL A   1      42.316  28.938  33.239  1.00  0.00     0.049 A 
ATOM     58  H   UNL A   1      40.683  30.156  32.687  1.00  0.00     0.167 HD
ATOM     59  C   UNL A   1      42.025  30.468  35.170  1.00  0.00     0.074 A 
ATOM     60  C   UNL A   1      42.382  30.963  36.484  1.00  0.00     0.031 C 
ATOM     61  C   UNL A   1      42.662  29.455  34.536  1.00  0.00     0.037 A 
BRANCH  48  62
ATOM     62  C   UNL A   1      40.320  28.052  28.999  1.00  0.00     0.064 A 
ATOM     63  C   UNL A   1      41.066  28.384  27.859  1.00  0.00     0.173 A 
ATOM     64  C   UNL A   1      39.613  26.841  28.995  1.00  0.00     0.173 A 
ATOM     65  F   UNL A   1      41.745  29.540  27.812  1.00  0.00    -0.203 F 
ATOM     66  C   UNL A   1      41.086  27.546  26.748  1.00  0.00     0.198 A 
ATOM     67  C   UNL A   1      39.652  25.995  27.890  1.00  0.00     0.198 A 
ATOM     68  F   UNL A   1      38.885  26.479  30.062  1.00  0.00    -0.203 F 
ATOM     69  F   UNL A   1      41.771  27.904  25.654  1.00  0.00    -0.200 F 
ATOM     70  C   UNL A   1      40.383  26.350  26.766  1.00  0.00     0.200 A 
ATOM     71  F   UNL A   1      38.978  24.836  27.911  1.00  0.00    -0.200 F 
ATOM     72  F   UNL A   1      40.404  25.544  25.696  1.00  0.00    -0.200 F 
ENDBRANCH  48  62
BRANCH  49  73
ATOM     73  C   UNL A   1      39.503  34.007  36.964  1.00  0.00     0.064 A 
ATOM     74  C   UNL A   1      38.762  33.576  38.074  1.00  0.00     0.173 A 
ATOM     75  C   UNL A   1      40.113  35.267  37.032  1.00  0.00     0.173 A 
ATOM     76  F   UNL A   1      38.147  32.385  38.044  1.00  0.00    -0.203 F 
ATOM     77  C   UNL A   1      38.627  34.379  39.203  1.00  0.00     0.198 A 
ATOM     78  C   UNL A   1      39.992  36.062  38.170  1.00  0.00     0.198 A 
ATOM     79  F   UNL A   1      40.837  35.720  35.997  1.00  0.00    -0.203 F 
ATOM     80  F   UNL A   1      37.888  33.957  40.237  1.00  0.00    -0.200 F 
ATOM     81  C   UNL A   1      39.245  35.620  39.251  1.00  0.00     0.200 A 
ATOM     82  F   UNL A   1      40.599  37.256  38.218  1.00  0.00    -0.200 F 
ATOM     83  F   UNL A   1      39.116  36.391  40.340  1.00  0.00    -0.200 F 
ENDBRANCH  49  73
BRANCH  61  84
ATOM     84  C   UNL A   1      43.830  28.837  35.240  1.00  0.00     0.064 A 
ATOM     85  C   UNL A   1      43.666  27.748  36.107  1.00  0.00     0.173 A 
ATOM     86  C   UNL A   1      45.129  29.310  35.007  1.00  0.00     0.173 A 
ATOM     87  F   UNL A   1      42.440  27.274  36.371  1.00  0.00    -0.203 F 
ATOM     88  C   UNL A   1      44.764  27.162  36.729  1.00  0.00     0.198 A 
ATOM     89  C   UNL A   1      46.226  28.710  35.617  1.00  0.00     0.198 A 
ATOM     90  F   UNL A   1      45.332  30.348  34.182  1.00  0.00    -0.203 F 
ATOM     91  F   UNL A   1      44.585  26.142  37.579  1.00  0.00    -0.200 F 
ATOM     92  C   UNL A   1      46.043  27.640  36.480  1.00  0.00     0.200 A 
ATOM     93  F   UNL A   1      47.461  29.168  35.369  1.00  0.00    -0.200 F 
ATOM     94  F   UNL A   1      47.100  27.071  37.076  1.00  0.00    -0.200 F 
ENDBRANCH  61  84
ENDBRANCH  35  36
ENDBRANCH  27  30
ENDBRANCH  25  26
ENDBRANCH  24  25
ENDBRANCH   1  24
TORSDOF 14
ENDMDL
MODEL 3
REMARK VINA RESULT:     -12.1      0.677      7.330
REMARK SMILES Cc1oc(CNC(=O)c2ccnn2C)cc1C(=O)NCCCCNC(=O)c1ccc(-c2c3nc(c(-c4c(F)c(F)c(F)c(F)c4F)c4ccc([nH]4)c(-c4c(F)c(F)c(F)c(F)c4F)c4nc(c(-c5c(F)c(F)c(F)c(F)c5F)c5ccc2[nH]5)C=C4)C=C3)cc1
REMARK SMILES IDX 21 1 20 2 19 3 17 4 18 5 16 7 1 8 2 9 3 10 4 11 15 12 5 13
REMARK SMILES IDX 6 14 7 15 8 17 9 18 10 19 13 20 11 21 12 22 14 23 22 24
REMARK SMILES IDX 23 25 24 26 25 27 26 29 27 30 28 31 89 32 29 33 88 34 30 35
REMARK SMILES IDX 31 36 32 37 82 38 33 39 87 40 81 41 83 42 34 43 86 44 80 45
REMARK SMILES IDX 79 46 35 48 67 49 47 50 66 51 48 52 51 53 65 54 84 55 49 56
REMARK SMILES IDX 50 57 64 59 85 60 52 61 36 62 37 63 45 64 38 65 39 66 43 67
REMARK SMILES IDX 46 68 40 69 41 70 44 71 42 72 68 73 69 74 77 75 70 76 71 77
REMARK SMILES IDX 75 78 78 79 72 80 73 81 76 82 74 83 53 84 54 85 62 86 55 87
REMARK SMILES IDX 56 88 60 89 63 90 57 91 58 92 61 93 59 94
REMARK H PARENT 19 6 6 16 24 28 83 47 51 58
REMARK Flexibility Score: inf
ROOT
ATOM      1  C   UNL A   1      34.412  30.990  27.831  1.00  0.00     0.023 C 
ENDROOT
BRANCH   1   2
ATOM      2  C   UNL A   1      34.295  29.571  27.277  1.00  0.00     0.116 C 
BRANCH   2   3
ATOM      3  N   UNL A   1      33.097  28.940  27.764  1.00  0.00    -0.352 N 
ATOM      4  C   UNL A   1      32.043  28.329  27.146  1.00  0.00     0.254 C 
ATOM      5  O   UNL A   1      31.175  27.904  27.917  1.00  0.00    -0.269 OA
ATOM      6  H   UNL A   1      33.021  28.950  28.745  1.00  0.00     0.163 HD
BRANCH   4   7
ATOM      7  C   UNL A   1      31.907  28.097  25.707  1.00  0.00     0.081 A 
ATOM      8  C   UNL A   1      33.470  26.143  24.720  1.00  0.00     0.088 C 
ATOM      9  C   UNL A   1      32.463  27.225  24.774  1.00  0.00     0.113 A 
ATOM     10  O   UNL A   1      31.931  27.456  23.537  1.00  0.00    -0.464 OA
ATOM     11  C   UNL A   1      31.077  28.500  23.625  1.00  0.00     0.124 A 
ATOM     12  C   UNL A   1      31.036  28.940  24.921  1.00  0.00     0.061 A 
BRANCH  11  13
ATOM     13  C   UNL A   1      30.375  28.895  22.384  1.00  0.00     0.191 C 
BRANCH  13  14
ATOM     14  N   UNL A   1      28.952  28.681  22.539  1.00  0.00    -0.343 N 
ATOM     15  C   UNL A   1      27.965  29.595  22.798  1.00  0.00     0.269 C 
ATOM     16  H   UNL A   1      28.651  27.748  22.446  1.00  0.00     0.164 HD
ATOM     17  O   UNL A   1      26.859  29.172  23.127  1.00  0.00    -0.268 OA
BRANCH  15  18
ATOM     18  C   UNL A   1      28.258  31.000  22.701  1.00  0.00     0.125 A 
ATOM     19  C   UNL A   1      28.598  31.861  23.730  1.00  0.00     0.055 A 
ATOM     20  N   UNL A   1      28.150  31.805  21.594  1.00  0.00    -0.263 N 
ATOM     21  C   UNL A   1      28.775  33.114  23.126  1.00  0.00     0.136 A 
ATOM     22  N   UNL A   1      28.533  33.080  21.816  1.00  0.00    -0.181 NA
ATOM     23  C   UNL A   1      27.662  31.461  20.279  1.00  0.00     0.174 C 
ENDBRANCH  15  18
ENDBRANCH  13  14
ENDBRANCH  11  13
ENDBRANCH   4   7
ENDBRANCH   2   3
ENDBRANCH   1   2
BRANCH   1  24
ATOM     24  C   UNL A   1      33.144  31.837  27.703  1.00  0.00     0.023 C 
BRANCH  24  25
ATOM     25  C   UNL A   1      33.319  33.146  26.943  1.00  0.00     0.116 C 
BRANCH  25  26
ATOM     26  N   UNL A   1      32.761  34.299  27.632  1.00  0.00    -0.352 N 
ATOM     27  C   UNL A   1      33.150  34.843  28.832  1.00  0.00     0.251 C 
ATOM     28  H   UNL A   1      32.008  34.746  27.182  1.00  0.00     0.163 HD
ATOM     29  O   UNL A   1      32.527  35.774  29.329  1.00  0.00    -0.269 OA
BRANCH  27  30
ATOM     30  C   UNL A   1      34.297  34.252  29.547  1.00  0.00     0.039 A 
ATOM     31  C   UNL A   1      34.044  33.429  30.648  1.00  0.00     0.014 A 
ATOM     32  C   UNL A   1      35.604  34.471  29.107  1.00  0.00     0.014 A 
ATOM     33  C   UNL A   1      35.102  32.762  31.265  1.00  0.00     0.010 A 
ATOM     34  C   UNL A   1      36.651  33.763  29.688  1.00  0.00     0.010 A 
ATOM     35  C   UNL A   1      36.406  32.897  30.764  1.00  0.00    -0.014 A 
BRANCH  35  36
ATOM     36  C   UNL A   1      37.531  32.126  31.341  1.00  0.00     0.031 A 
ATOM     37  C   UNL A   1      38.026  32.443  32.721  1.00  0.00     0.074 A 
ATOM     38  C   UNL A   1      38.154  31.200  30.588  1.00  0.00     0.049 A 
ATOM     39  N   UNL A   1      39.056  31.952  33.362  1.00  0.00    -0.248 NA
ATOM     40  C   UNL A   1      37.284  33.470  33.467  1.00  0.00     0.031 C 
ATOM     41  C   UNL A   1      37.793  30.845  29.215  1.00  0.00     0.029 A 
ATOM     42  N   UNL A   1      39.233  30.401  30.867  1.00  0.00    -0.354 N 
ATOM     43  C   UNL A   1      39.100  32.627  34.573  1.00  0.00     0.074 A 
ATOM     44  C   UNL A   1      38.013  33.584  34.568  1.00  0.00     0.031 C 
ATOM     45  C   UNL A   1      38.627  29.888  28.776  1.00  0.00     0.029 A 
ATOM     46  C   UNL A   1      39.594  29.584  29.826  1.00  0.00     0.049 A 
ATOM     47  H   UNL A   1      39.702  30.412  31.733  1.00  0.00     0.167 HD
ATOM     48  C   UNL A   1      39.962  32.453  35.602  1.00  0.00     0.037 A 
ATOM     49  C   UNL A   1      40.596  28.689  29.732  1.00  0.00     0.037 A 
ATOM     50  C   UNL A   1      41.014  31.473  35.622  1.00  0.00     0.049 A 
ATOM     51  C   UNL A   1      41.506  28.480  30.909  1.00  0.00     0.074 A 
ATOM     52  C   UNL A   1      41.901  31.177  36.642  1.00  0.00     0.029 A 
ATOM     53  N   UNL A   1      41.314  30.621  34.569  1.00  0.00    -0.354 N 
ATOM     54  N   UNL A   1      41.507  29.086  32.070  1.00  0.00    -0.248 NA
ATOM     55  C   UNL A   1      42.550  27.455  30.764  1.00  0.00     0.031 C 
ATOM     56  C   UNL A   1      42.751  30.157  36.199  1.00  0.00     0.029 A 
ATOM     57  C   UNL A   1      42.375  29.801  34.913  1.00  0.00     0.049 A 
ATOM     58  H   UNL A   1      40.842  30.602  33.705  1.00  0.00     0.167 HD
ATOM     59  C   UNL A   1      42.531  28.506  32.803  1.00  0.00     0.074 A 
ATOM     60  C   UNL A   1      43.127  27.491  31.957  1.00  0.00     0.031 C 
ATOM     61  C   UNL A   1      42.942  28.789  34.062  1.00  0.00     0.037 A 
BRANCH  48  62
ATOM     62  C   UNL A   1      39.795  33.343  36.796  1.00  0.00     0.064 A 
ATOM     63  C   UNL A   1      40.526  34.532  36.930  1.00  0.00     0.173 A 
ATOM     64  C   UNL A   1      38.879  33.013  37.805  1.00  0.00     0.173 A 
ATOM     65  F   UNL A   1      41.425  34.880  35.998  1.00  0.00    -0.203 F 
ATOM     66  C   UNL A   1      40.362  35.349  38.045  1.00  0.00     0.198 A 
ATOM     67  C   UNL A   1      38.703  33.843  38.909  1.00  0.00     0.198 A 
ATOM     68  F   UNL A   1      38.157  31.885  37.721  1.00  0.00    -0.203 F 
ATOM     69  F   UNL A   1      41.101  36.459  38.174  1.00  0.00    -0.200 F 
ATOM     70  C   UNL A   1      39.447  35.007  39.031  1.00  0.00     0.200 A 
ATOM     71  F   UNL A   1      37.814  33.515  39.857  1.00  0.00    -0.200 F 
ATOM     72  F   UNL A   1      39.290  35.795  40.103  1.00  0.00    -0.200 F 
ENDBRANCH  48  62
BRANCH  49  73
ATOM     73  C   UNL A   1      40.763  27.898  28.489  1.00  0.00     0.064 A 
ATOM     74  C   UNL A   1      41.564  28.376  27.442  1.00  0.00     0.173 A 
ATOM     75  C   UNL A   1      40.141  26.654  28.324  1.00  0.00     0.173 A 
ATOM     76  F   UNL A   1      42.164  29.570  27.550  1.00  0.00    -0.203 F 
ATOM     77  C   UNL A   1      41.725  27.641  26.270  1.00  0.00     0.198 A 
ATOM     78  C   UNL A   1      40.318  25.912  27.158  1.00  0.00     0.198 A 
ATOM     79  F   UNL A   1      39.369  26.154  29.301  1.00  0.00    -0.203 F 
ATOM     80  F   UNL A   1      42.471  28.133  25.271  1.00  0.00    -0.200 F 
ATOM     81  C   UNL A   1      41.105  26.408  26.131  1.00  0.00     0.200 A 
ATOM     82  F   UNL A   1      39.726  24.716  27.032  1.00  0.00    -0.200 F 
ATOM     83  F   UNL A   1      41.264  25.701  25.004  1.00  0.00    -0.200 F 
ENDBRANCH  49  73
BRANCH  61  84
ATOM     84  C   UNL A   1      44.065  27.968  34.614  1.00  0.00     0.064 A 
ATOM     85  C   UNL A   1      43.827  26.750  35.264  1.00  0.00     0.173 A 
ATOM     86  C   UNL A   1      45.394  28.382  34.448  1.00  0.00     0.173 A 
ATOM     87  F   UNL A   1      42.571  26.322  35.459  1.00  0.00    -0.203 F 
ATOM     88  C   UNL A   1      44.883  25.980  35.744  1.00  0.00     0.198 A 
ATOM     89  C   UNL A   1      46.448  27.601  34.912  1.00  0.00     0.198 A 
ATOM     90  F   UNL A   1      45.668  29.540  33.829  1.00  0.00    -0.203 F 
ATOM     91  F   UNL A   1      44.634  24.833  36.390  1.00  0.00    -0.200 F 
ATOM     92  C   UNL A   1      46.192  26.403  35.562  1.00  0.00     0.200 A 
ATOM     93  F   UNL A   1      47.712  28.008  34.731  1.00  0.00    -0.200 F 
ATOM     94  F   UNL A   1      47.207  25.658  36.020  1.00  0.00    -0.200 F 
ENDBRANCH  61  84
ENDBRANCH  35  36
ENDBRANCH  27  30
ENDBRANCH  25  26
ENDBRANCH  24  25
ENDBRANCH   1  24
TORSDOF 14
ENDMDL
