MODEL 1
REMARK VINA RESULT:     -13.6      0.000      0.000
REMARK SMILES Cc1cc(C(=O)NCCCCNC(=O)c2ccc(-c3c4nc(c(-c5c(F)c(F)c(F)c(F)c5F)c5ccc([nH]5)c(-c5c(F)c(F)c(F)c(F)c5F)c5nc(c(-c6c(F)c(F)c(F)c(F)c6F)c6ccc3[nH]6)C=C5)C=C4)cc2)ccc1N[C@H](C)c1cc(F)cc(F)c1
REMARK SMILES IDX 9 1 8 2 7 3 5 4 6 5 4 7 1 8 2 9 3 10 80 11 79 12 78 13 81 14
REMARK SMILES IDX 82 16 83 17 84 18 85 19 91 20 86 21 89 22 87 23 88 24 90 25
REMARK SMILES IDX 10 26 11 27 12 28 13 29 14 31 15 32 16 33 77 34 17 35 76 36
REMARK SMILES IDX 18 37 19 38 20 39 70 40 21 41 75 42 69 43 71 44 22 45 74 46
REMARK SMILES IDX 68 47 67 48 23 50 55 51 35 52 54 53 36 54 39 55 53 56 72 57
REMARK SMILES IDX 37 58 38 59 52 61 73 62 40 63 24 64 25 65 33 66 26 67 27 68
REMARK SMILES IDX 31 69 34 70 28 71 29 72 32 73 30 74 56 75 57 76 65 77 58 78
REMARK SMILES IDX 59 79 63 80 66 81 60 82 61 83 64 84 62 85 41 86 42 87 50 88
REMARK SMILES IDX 43 89 44 90 48 91 51 92 45 93 46 94 49 95 47 96
REMARK H PARENT 7 6 81 15 12 30 71 49 39 60
REMARK Flexibility Score: inf
ROOT
ATOM      1  C   UNL A   1      33.136  28.901  27.188  1.00  0.00     0.023 C 
ENDROOT
BRANCH   1   2
ATOM      2  C   UNL A   1      31.856  28.126  27.559  1.00  0.00     0.116 C 
BRANCH   2   3
ATOM      3  N   UNL A   1      31.190  27.551  26.398  1.00  0.00    -0.352 N 
ATOM      4  C   UNL A   1      31.416  26.451  25.599  1.00  0.00     0.251 C 
ATOM      5  O   UNL A   1      30.602  26.252  24.695  1.00  0.00    -0.269 OA
ATOM      6  H   UNL A   1      30.399  28.066  26.119  1.00  0.00     0.163 HD
BRANCH   4   7
ATOM      7  C   UNL A   1      32.552  25.494  25.762  1.00  0.00     0.040 A 
ATOM      8  C   UNL A   1      33.165  22.292  27.754  1.00  0.00     0.046 C 
ATOM      9  C   UNL A   1      33.454  23.428  26.807  1.00  0.00    -0.027 A 
ATOM     10  C   UNL A   1      32.406  24.376  26.604  1.00  0.00     0.019 A 
ATOM     11  C   UNL A   1      34.704  23.621  26.191  1.00  0.00     0.037 A 
ATOM     12  C   UNL A   1      34.821  24.775  25.422  1.00  0.00     0.027 A 
ATOM     13  C   UNL A   1      33.778  25.654  25.160  1.00  0.00     0.016 A 
BRANCH  11  14
ATOM     14  N   UNL A   1      35.772  22.737  26.304  1.00  0.00    -0.378 N 
ATOM     15  H   UNL A   1      36.396  22.870  27.054  1.00  0.00     0.161 HD
BRANCH  14  16
ATOM     16  C   UNL A   1      36.039  21.611  25.378  1.00  0.00     0.106 C 
ATOM     17  C   UNL A   1      36.999  22.088  24.280  1.00  0.00     0.036 C 
BRANCH  16  18
ATOM     18  C   UNL A   1      34.782  21.010  24.758  1.00  0.00    -0.020 A 
ATOM     19  C   UNL A   1      34.290  19.777  25.239  1.00  0.00     0.045 A 
ATOM     20  C   UNL A   1      33.998  21.717  23.830  1.00  0.00     0.045 A 
ATOM     21  C   UNL A   1      33.010  19.344  24.888  1.00  0.00     0.126 A 
ATOM     22  C   UNL A   1      32.740  21.237  23.462  1.00  0.00     0.126 A 
ATOM     23  F   UNL A   1      32.503  18.254  25.480  1.00  0.00    -0.207 F 
ATOM     24  C   UNL A   1      32.224  20.068  24.006  1.00  0.00     0.078 A 
ATOM     25  F   UNL A   1      31.993  21.946  22.607  1.00  0.00    -0.207 F 
ENDBRANCH  16  18
ENDBRANCH  14  16
ENDBRANCH  11  14
ENDBRANCH   4   7
ENDBRANCH   2   3
ENDBRANCH   1   2
BRANCH   1  26
ATOM     26  C   UNL A   1      33.101  30.373  27.617  1.00  0.00     0.023 C 
BRANCH  26  27
ATOM     27  C   UNL A   1      34.395  31.116  27.292  1.00  0.00     0.116 C 
BRANCH  27  28
ATOM     28  N   UNL A   1      35.013  31.815  28.412  1.00  0.00    -0.352 N 
ATOM     29  C   UNL A   1      35.962  31.367  29.323  1.00  0.00     0.251 C 
ATOM     30  H   UNL A   1      34.713  32.744  28.543  1.00  0.00     0.163 HD
ATOM     31  O   UNL A   1      36.282  32.069  30.265  1.00  0.00    -0.269 OA
BRANCH  29  32
ATOM     32  C   UNL A   1      36.699  30.100  29.060  1.00  0.00     0.039 A 
ATOM     33  C   UNL A   1      36.863  29.211  30.132  1.00  0.00     0.014 A 
ATOM     34  C   UNL A   1      37.418  29.909  27.887  1.00  0.00     0.014 A 
ATOM     35  C   UNL A   1      37.950  28.341  30.136  1.00  0.00     0.010 A 
ATOM     36  C   UNL A   1      38.562  29.139  27.936  1.00  0.00     0.010 A 
ATOM     37  C   UNL A   1      38.873  28.425  29.097  1.00  0.00    -0.014 A 
BRANCH  37  38
ATOM     38  C   UNL A   1      40.255  27.972  29.218  1.00  0.00     0.031 A 
ATOM     39  C   UNL A   1      40.672  26.648  28.717  1.00  0.00     0.074 A 
ATOM     40  C   UNL A   1      41.184  28.862  29.639  1.00  0.00     0.049 A 
ATOM     41  N   UNL A   1      41.775  26.058  29.038  1.00  0.00    -0.248 NA
ATOM     42  C   UNL A   1      39.835  25.847  27.837  1.00  0.00     0.031 C 
ATOM     43  C   UNL A   1      42.634  28.772  29.491  1.00  0.00     0.029 A 
ATOM     44  N   UNL A   1      40.989  29.982  30.469  1.00  0.00    -0.354 N 
ATOM     45  C   UNL A   1      41.935  24.973  28.203  1.00  0.00     0.074 A 
ATOM     46  C   UNL A   1      40.656  24.834  27.549  1.00  0.00     0.031 C 
ATOM     47  C   UNL A   1      43.214  29.575  30.397  1.00  0.00     0.029 A 
ATOM     48  C   UNL A   1      42.158  30.078  31.257  1.00  0.00     0.049 A 
ATOM     49  H   UNL A   1      40.203  30.574  30.493  1.00  0.00     0.167 HD
ATOM     50  C   UNL A   1      43.181  24.426  28.068  1.00  0.00     0.037 A 
ATOM     51  C   UNL A   1      42.117  29.908  32.611  1.00  0.00     0.037 A 
ATOM     52  C   UNL A   1      44.113  25.017  29.036  1.00  0.00     0.049 A 
ATOM     53  C   UNL A   1      42.964  28.764  33.116  1.00  0.00     0.074 A 
ATOM     54  C   UNL A   1      45.101  25.981  28.925  1.00  0.00     0.029 A 
ATOM     55  N   UNL A   1      43.895  24.833  30.399  1.00  0.00    -0.354 N 
ATOM     56  N   UNL A   1      43.398  27.794  32.359  1.00  0.00    -0.248 NA
ATOM     57  C   UNL A   1      43.353  28.597  34.514  1.00  0.00     0.031 C 
ATOM     58  C   UNL A   1      45.432  26.425  30.230  1.00  0.00     0.029 A 
ATOM     59  C   UNL A   1      44.664  25.714  31.136  1.00  0.00     0.049 A 
ATOM     60  H   UNL A   1      43.279  24.169  30.784  1.00  0.00     0.167 HD
ATOM     61  C   UNL A   1      44.075  26.883  33.126  1.00  0.00     0.074 A 
ATOM     62  C   UNL A   1      44.039  27.441  34.465  1.00  0.00     0.031 C 
ATOM     63  C   UNL A   1      44.592  25.738  32.589  1.00  0.00     0.037 A 
BRANCH  50  64
ATOM     64  C   UNL A   1      43.647  23.593  26.878  1.00  0.00     0.064 A 
ATOM     65  C   UNL A   1      43.253  22.240  26.750  1.00  0.00     0.173 A 
ATOM     66  C   UNL A   1      44.546  24.019  25.882  1.00  0.00     0.173 A 
ATOM     67  F   UNL A   1      42.305  21.708  27.532  1.00  0.00    -0.203 F 
ATOM     68  C   UNL A   1      43.814  21.370  25.807  1.00  0.00     0.198 A 
ATOM     69  C   UNL A   1      45.138  23.144  24.964  1.00  0.00     0.198 A 
ATOM     70  F   UNL A   1      44.844  25.308  25.704  1.00  0.00    -0.203 F 
ATOM     71  F   UNL A   1      43.414  20.092  25.758  1.00  0.00    -0.200 F 
ATOM     72  C   UNL A   1      44.786  21.814  24.937  1.00  0.00     0.200 A 
ATOM     73  F   UNL A   1      46.052  23.611  24.099  1.00  0.00    -0.200 F 
ATOM     74  F   UNL A   1      45.354  20.977  24.059  1.00  0.00    -0.200 F 
ENDBRANCH  50  64
BRANCH  51  75
ATOM     75  C   UNL A   1      40.833  30.347  33.217  1.00  0.00     0.064 A 
ATOM     76  C   UNL A   1      40.604  31.729  33.370  1.00  0.00     0.173 A 
ATOM     77  C   UNL A   1      39.724  29.496  33.284  1.00  0.00     0.173 A 
ATOM     78  F   UNL A   1      41.635  32.589  33.309  1.00  0.00    -0.203 F 
ATOM     79  C   UNL A   1      39.313  32.243  33.469  1.00  0.00     0.198 A 
ATOM     80  C   UNL A   1      38.432  30.016  33.392  1.00  0.00     0.198 A 
ATOM     81  F   UNL A   1      39.873  28.174  33.120  1.00  0.00    -0.203 F 
ATOM     82  F   UNL A   1      39.124  33.570  33.503  1.00  0.00    -0.200 F 
ATOM     83  C   UNL A   1      38.226  31.386  33.451  1.00  0.00     0.200 A 
ATOM     84  F   UNL A   1      37.376  29.189  33.340  1.00  0.00    -0.200 F 
ATOM     85  F   UNL A   1      36.980  31.881  33.447  1.00  0.00    -0.200 F 
ENDBRANCH  51  75
BRANCH  63  86
ATOM     86  C   UNL A   1      45.152  24.572  33.366  1.00  0.00     0.064 A 
ATOM     87  C   UNL A   1      44.448  23.381  33.605  1.00  0.00     0.173 A 
ATOM     88  C   UNL A   1      46.510  24.571  33.768  1.00  0.00     0.173 A 
ATOM     89  F   UNL A   1      43.191  23.215  33.172  1.00  0.00    -0.203 F 
ATOM     90  C   UNL A   1      45.041  22.290  34.248  1.00  0.00     0.198 A 
ATOM     91  C   UNL A   1      47.113  23.461  34.357  1.00  0.00     0.198 A 
ATOM     92  F   UNL A   1      47.297  25.640  33.575  1.00  0.00    -0.203 F 
ATOM     93  F   UNL A   1      44.315  21.188  34.487  1.00  0.00    -0.200 F 
ATOM     94  C   UNL A   1      46.374  22.325  34.611  1.00  0.00     0.200 A 
ATOM     95  F   UNL A   1      48.419  23.493  34.657  1.00  0.00    -0.200 F 
ATOM     96  F   UNL A   1      46.949  21.259  35.184  1.00  0.00    -0.200 F 
ENDBRANCH  63  86
ENDBRANCH  37  38
ENDBRANCH  29  32
ENDBRANCH  27  28
ENDBRANCH  26  27
ENDBRANCH   1  26
TORSDOF 14
ENDMDL
MODEL 2
REMARK VINA RESULT:     -13.6      4.129     10.322
REMARK SMILES Cc1cc(C(=O)NCCCCNC(=O)c2ccc(-c3c4nc(c(-c5c(F)c(F)c(F)c(F)c5F)c5ccc([nH]5)c(-c5c(F)c(F)c(F)c(F)c5F)c5nc(c(-c6c(F)c(F)c(F)c(F)c6F)c6ccc3[nH]6)C=C5)C=C4)cc2)ccc1N[C@H](C)c1cc(F)cc(F)c1
REMARK SMILES IDX 9 1 8 2 7 3 5 4 6 5 4 7 1 8 2 9 3 10 80 11 79 12 78 13 81 14
REMARK SMILES IDX 82 16 83 17 84 18 85 19 91 20 86 21 89 22 87 23 88 24 90 25
REMARK SMILES IDX 10 26 11 27 12 28 13 29 14 31 15 32 16 33 77 34 17 35 76 36
REMARK SMILES IDX 18 37 19 38 20 39 70 40 21 41 75 42 69 43 71 44 22 45 74 46
REMARK SMILES IDX 68 47 67 48 23 50 55 51 35 52 54 53 36 54 39 55 53 56 72 57
REMARK SMILES IDX 37 58 38 59 52 61 73 62 40 63 24 64 25 65 33 66 26 67 27 68
REMARK SMILES IDX 31 69 34 70 28 71 29 72 32 73 30 74 56 75 57 76 65 77 58 78
REMARK SMILES IDX 59 79 63 80 66 81 60 82 61 83 64 84 62 85 41 86 42 87 50 88
REMARK SMILES IDX 43 89 44 90 48 91 51 92 45 93 46 94 49 95 47 96
REMARK H PARENT 7 6 81 15 12 30 71 49 39 60
REMARK Flexibility Score: inf
ROOT
ATOM      1  C   UNL A   1      37.291  21.115  24.645  1.00  0.00     0.023 C 
ENDROOT
BRANCH   1   2
ATOM      2  C   UNL A   1      35.996  21.357  25.444  1.00  0.00     0.116 C 
BRANCH   2   3
ATOM      3  N   UNL A   1      35.027  20.280  25.287  1.00  0.00    -0.352 N 
ATOM      4  C   UNL A   1      33.688  20.222  24.967  1.00  0.00     0.251 C 
ATOM      5  O   UNL A   1      33.188  19.098  24.895  1.00  0.00    -0.269 OA
ATOM      6  H   UNL A   1      35.418  19.391  25.447  1.00  0.00     0.163 HD
BRANCH   4   7
ATOM      7  C   UNL A   1      32.821  21.409  24.694  1.00  0.00     0.040 A 
ATOM      8  C   UNL A   1      32.793  24.240  22.129  1.00  0.00     0.046 C 
ATOM      9  C   UNL A   1      32.340  23.410  23.302  1.00  0.00    -0.027 A 
ATOM     10  C   UNL A   1      33.123  22.258  23.613  1.00  0.00     0.019 A 
ATOM     11  C   UNL A   1      31.248  23.757  24.119  1.00  0.00     0.037 A 
ATOM     12  C   UNL A   1      31.030  22.926  25.214  1.00  0.00     0.027 A 
ATOM     13  C   UNL A   1      31.741  21.762  25.470  1.00  0.00     0.016 A 
BRANCH  11  14
ATOM     14  N   UNL A   1      30.410  24.841  23.878  1.00  0.00    -0.378 N 
ATOM     15  H   UNL A   1      29.491  24.649  23.581  1.00  0.00     0.161 HD
BRANCH  14  16
ATOM     16  C   UNL A   1      30.799  26.262  24.036  1.00  0.00     0.106 C 
ATOM     17  C   UNL A   1      31.001  26.559  25.527  1.00  0.00     0.036 C 
BRANCH  16  18
ATOM     18  C   UNL A   1      29.804  27.247  23.430  1.00  0.00    -0.020 A 
ATOM     19  C   UNL A   1      28.431  27.130  23.744  1.00  0.00     0.045 A 
ATOM     20  C   UNL A   1      30.220  28.371  22.697  1.00  0.00     0.045 A 
ATOM     21  C   UNL A   1      27.547  28.164  23.433  1.00  0.00     0.126 A 
ATOM     22  C   UNL A   1      29.304  29.369  22.360  1.00  0.00     0.126 A 
ATOM     23  F   UNL A   1      26.286  28.104  23.880  1.00  0.00    -0.207 F 
ATOM     24  C   UNL A   1      27.973  29.291  22.748  1.00  0.00     0.078 A 
ATOM     25  F   UNL A   1      29.730  30.451  21.696  1.00  0.00    -0.207 F 
ENDBRANCH  16  18
ENDBRANCH  14  16
ENDBRANCH  11  14
ENDBRANCH   4   7
ENDBRANCH   2   3
ENDBRANCH   1   2
BRANCH   1  26
ATOM     26  C   UNL A   1      38.557  21.159  25.509  1.00  0.00     0.023 C 
BRANCH  26  27
ATOM     27  C   UNL A   1      38.949  22.578  25.914  1.00  0.00     0.116 C 
BRANCH  27  28
ATOM     28  N   UNL A   1      40.330  22.745  26.349  1.00  0.00    -0.352 N 
ATOM     29  C   UNL A   1      41.016  23.902  26.701  1.00  0.00     0.251 C 
ATOM     30  H   UNL A   1      40.856  21.915  26.402  1.00  0.00     0.163 HD
ATOM     31  O   UNL A   1      42.210  23.854  26.939  1.00  0.00    -0.269 OA
BRANCH  29  32
ATOM     32  C   UNL A   1      40.263  25.164  26.940  1.00  0.00     0.039 A 
ATOM     33  C   UNL A   1      40.642  26.294  26.203  1.00  0.00     0.014 A 
ATOM     34  C   UNL A   1      39.400  25.300  28.021  1.00  0.00     0.014 A 
ATOM     35  C   UNL A   1      40.408  27.562  26.729  1.00  0.00     0.010 A 
ATOM     36  C   UNL A   1      39.272  26.543  28.606  1.00  0.00     0.010 A 
ATOM     37  C   UNL A   1      39.855  27.662  28.003  1.00  0.00    -0.014 A 
BRANCH  37  38
ATOM     38  C   UNL A   1      40.020  28.835  28.855  1.00  0.00     0.031 A 
ATOM     39  C   UNL A   1      38.971  29.869  28.943  1.00  0.00     0.074 A 
ATOM     40  C   UNL A   1      41.078  28.867  29.699  1.00  0.00     0.049 A 
ATOM     41  N   UNL A   1      39.149  31.053  29.426  1.00  0.00    -0.248 NA
ATOM     42  C   UNL A   1      37.624  29.661  28.434  1.00  0.00     0.031 C 
ATOM     43  C   UNL A   1      41.252  29.716  30.875  1.00  0.00     0.029 A 
ATOM     44  N   UNL A   1      42.322  28.228  29.545  1.00  0.00    -0.354 N 
ATOM     45  C   UNL A   1      37.912  31.644  29.570  1.00  0.00     0.074 A 
ATOM     46  C   UNL A   1      37.015  30.776  28.846  1.00  0.00     0.031 C 
ATOM     47  C   UNL A   1      42.561  29.784  31.170  1.00  0.00     0.029 A 
ATOM     48  C   UNL A   1      43.274  29.113  30.099  1.00  0.00     0.049 A 
ATOM     49  H   UNL A   1      42.492  27.348  29.136  1.00  0.00     0.167 HD
ATOM     50  C   UNL A   1      37.790  32.717  30.409  1.00  0.00     0.037 A 
ATOM     51  C   UNL A   1      44.234  29.698  29.324  1.00  0.00     0.037 A 
ATOM     52  C   UNL A   1      39.108  33.165  30.871  1.00  0.00     0.049 A 
ATOM     53  C   UNL A   1      44.181  31.207  29.310  1.00  0.00     0.074 A 
ATOM     54  C   UNL A   1      39.804  32.986  32.056  1.00  0.00     0.029 A 
ATOM     55  N   UNL A   1      40.027  33.662  29.949  1.00  0.00    -0.354 N 
ATOM     56  N   UNL A   1      43.137  31.899  29.671  1.00  0.00    -0.248 NA
ATOM     57  C   UNL A   1      45.280  32.054  28.851  1.00  0.00     0.031 C 
ATOM     58  C   UNL A   1      41.162  33.318  31.824  1.00  0.00     0.029 A 
ATOM     59  C   UNL A   1      41.290  33.721  30.506  1.00  0.00     0.049 A 
ATOM     60  H   UNL A   1      39.806  33.932  29.028  1.00  0.00     0.167 HD
ATOM     61  C   UNL A   1      43.383  33.233  29.480  1.00  0.00     0.074 A 
ATOM     62  C   UNL A   1      44.746  33.281  28.985  1.00  0.00     0.031 C 
ATOM     63  C   UNL A   1      42.432  34.181  29.729  1.00  0.00     0.037 A 
BRANCH  50  64
ATOM     64  C   UNL A   1      36.489  33.172  31.064  1.00  0.00     0.064 A 
ATOM     65  C   UNL A   1      35.556  33.951  30.339  1.00  0.00     0.173 A 
ATOM     66  C   UNL A   1      36.132  32.965  32.409  1.00  0.00     0.173 A 
ATOM     67  F   UNL A   1      35.671  34.136  29.018  1.00  0.00    -0.203 F 
ATOM     68  C   UNL A   1      34.456  34.575  30.942  1.00  0.00     0.198 A 
ATOM     69  C   UNL A   1      35.057  33.618  33.023  1.00  0.00     0.198 A 
ATOM     70  F   UNL A   1      36.762  32.074  33.178  1.00  0.00    -0.203 F 
ATOM     71  F   UNL A   1      33.626  35.323  30.200  1.00  0.00    -0.200 F 
ATOM     72  C   UNL A   1      34.228  34.439  32.294  1.00  0.00     0.200 A 
ATOM     73  F   UNL A   1      34.832  33.436  34.333  1.00  0.00    -0.200 F 
ATOM     74  F   UNL A   1      33.200  35.065  32.881  1.00  0.00    -0.200 F 
ENDBRANCH  50  64
BRANCH  51  75
ATOM     75  C   UNL A   1      44.658  28.851  28.178  1.00  0.00     0.064 A 
ATOM     76  C   UNL A   1      45.513  27.761  28.433  1.00  0.00     0.173 A 
ATOM     77  C   UNL A   1      43.960  28.857  26.964  1.00  0.00     0.173 A 
ATOM     78  F   UNL A   1      46.202  27.705  29.585  1.00  0.00    -0.203 F 
ATOM     79  C   UNL A   1      45.580  26.674  27.565  1.00  0.00     0.198 A 
ATOM     80  C   UNL A   1      44.037  27.769  26.093  1.00  0.00     0.198 A 
ATOM     81  F   UNL A   1      43.111  29.854  26.676  1.00  0.00    -0.203 F 
ATOM     82  F   UNL A   1      46.321  25.605  27.890  1.00  0.00    -0.200 F 
ATOM     83  C   UNL A   1      44.818  26.667  26.408  1.00  0.00     0.200 A 
ATOM     84  F   UNL A   1      43.274  27.745  24.990  1.00  0.00    -0.200 F 
ATOM     85  F   UNL A   1      44.803  25.583  25.620  1.00  0.00    -0.200 F 
ENDBRANCH  51  75
BRANCH  63  86
ATOM     86  C   UNL A   1      42.512  35.638  29.347  1.00  0.00     0.064 A 
ATOM     87  C   UNL A   1      43.280  36.588  30.041  1.00  0.00     0.173 A 
ATOM     88  C   UNL A   1      41.918  36.092  28.145  1.00  0.00     0.173 A 
ATOM     89  F   UNL A   1      43.983  36.253  31.131  1.00  0.00    -0.203 F 
ATOM     90  C   UNL A   1      43.401  37.907  29.595  1.00  0.00     0.198 A 
ATOM     91  C   UNL A   1      42.087  37.394  27.674  1.00  0.00     0.198 A 
ATOM     92  F   UNL A   1      41.179  35.278  27.378  1.00  0.00    -0.203 F 
ATOM     93  F   UNL A   1      44.115  38.786  30.313  1.00  0.00    -0.200 F 
ATOM     94  C   UNL A   1      42.816  38.306  28.407  1.00  0.00     0.200 A 
ATOM     95  F   UNL A   1      41.558  37.751  26.495  1.00  0.00    -0.200 F 
ATOM     96  F   UNL A   1      42.975  39.559  27.960  1.00  0.00    -0.200 F 
ENDBRANCH  63  86
ENDBRANCH  37  38
ENDBRANCH  29  32
ENDBRANCH  27  28
ENDBRANCH  26  27
ENDBRANCH   1  26
TORSDOF 14
ENDMDL
MODEL 3
REMARK VINA RESULT:     -13.6      4.190     10.294
REMARK SMILES Cc1cc(C(=O)NCCCCNC(=O)c2ccc(-c3c4nc(c(-c5c(F)c(F)c(F)c(F)c5F)c5ccc([nH]5)c(-c5c(F)c(F)c(F)c(F)c5F)c5nc(c(-c6c(F)c(F)c(F)c(F)c6F)c6ccc3[nH]6)C=C5)C=C4)cc2)ccc1N[C@H](C)c1cc(F)cc(F)c1
REMARK SMILES IDX 9 1 8 2 7 3 5 4 6 5 4 7 1 8 2 9 3 10 80 11 79 12 78 13 81 14
REMARK SMILES IDX 82 16 83 17 84 18 85 19 91 20 86 21 89 22 87 23 88 24 90 25
REMARK SMILES IDX 10 26 11 27 12 28 13 29 14 31 15 32 16 33 77 34 17 35 76 36
REMARK SMILES IDX 18 37 19 38 20 39 70 40 21 41 75 42 69 43 71 44 22 45 74 46
REMARK SMILES IDX 68 47 67 48 23 50 55 51 35 52 54 53 36 54 39 55 53 56 72 57
REMARK SMILES IDX 37 58 38 59 52 61 73 62 40 63 24 64 25 65 33 66 26 67 27 68
REMARK SMILES IDX 31 69 34 70 28 71 29 72 32 73 30 74 56 75 57 76 65 77 58 78
REMARK SMILES IDX 59 79 63 80 66 81 60 82 61 83 64 84 62 85 41 86 42 87 50 88
REMARK SMILES IDX 43 89 44 90 48 91 51 92 45 93 46 94 49 95 47 96
REMARK H PARENT 7 6 81 15 12 30 71 49 39 60
REMARK Flexibility Score: inf
ROOT
ATOM      1  C   UNL A   1      36.884  21.879  24.345  1.00  0.00     0.023 C 
ENDROOT
BRANCH   1   2
ATOM      2  C   UNL A   1      35.569  21.148  24.681  1.00  0.00     0.116 C 
BRANCH   2   3
ATOM      3  N   UNL A   1      35.196  21.275  26.084  1.00  0.00    -0.352 N 
ATOM      4  C   UNL A   1      34.501  22.211  26.819  1.00  0.00     0.251 C 
ATOM      5  O   UNL A   1      34.350  21.966  28.017  1.00  0.00    -0.269 OA
ATOM      6  H   UNL A   1      35.514  20.522  26.631  1.00  0.00     0.163 HD
BRANCH   4   7
ATOM      7  C   UNL A   1      33.918  23.472  26.268  1.00  0.00     0.040 A 
ATOM      8  C   UNL A   1      30.409  24.946  25.942  1.00  0.00     0.046 C 
ATOM      9  C   UNL A   1      31.908  24.863  25.822  1.00  0.00    -0.027 A 
ATOM     10  C   UNL A   1      32.529  23.685  26.335  1.00  0.00     0.019 A 
ATOM     11  C   UNL A   1      32.688  25.843  25.180  1.00  0.00     0.037 A 
ATOM     12  C   UNL A   1      34.046  25.558  25.079  1.00  0.00     0.027 A 
ATOM     13  C   UNL A   1      34.661  24.450  25.648  1.00  0.00     0.016 A 
BRANCH  11  14
ATOM     14  N   UNL A   1      32.179  27.037  24.678  1.00  0.00    -0.378 N 
ATOM     15  H   UNL A   1      32.084  27.791  25.304  1.00  0.00     0.161 HD
BRANCH  14  16
ATOM     16  C   UNL A   1      31.770  27.255  23.271  1.00  0.00     0.106 C 
ATOM     17  C   UNL A   1      32.927  27.922  22.515  1.00  0.00     0.036 C 
BRANCH  16  18
ATOM     18  C   UNL A   1      30.495  28.079  23.118  1.00  0.00    -0.020 A 
ATOM     19  C   UNL A   1      30.516  29.255  22.336  1.00  0.00     0.045 A 
ATOM     20  C   UNL A   1      29.253  27.625  23.594  1.00  0.00     0.045 A 
ATOM     21  C   UNL A   1      29.322  29.869  21.956  1.00  0.00     0.126 A 
ATOM     22  C   UNL A   1      28.078  28.286  23.236  1.00  0.00     0.126 A 
ATOM     23  F   UNL A   1      29.357  30.887  21.086  1.00  0.00    -0.207 F 
ATOM     24  C   UNL A   1      28.097  29.390  22.394  1.00  0.00     0.078 A 
ATOM     25  F   UNL A   1      26.902  27.813  23.668  1.00  0.00    -0.207 F 
ENDBRANCH  16  18
ENDBRANCH  14  16
ENDBRANCH  11  14
ENDBRANCH   4   7
ENDBRANCH   2   3
ENDBRANCH   1   2
BRANCH   1  26
ATOM     26  C   UNL A   1      38.005  21.607  25.355  1.00  0.00     0.023 C 
BRANCH  26  27
ATOM     27  C   UNL A   1      38.463  22.868  26.086  1.00  0.00     0.116 C 
BRANCH  27  28
ATOM     28  N   UNL A   1      39.855  22.869  26.519  1.00  0.00    -0.352 N 
ATOM     29  C   UNL A   1      40.645  23.924  26.961  1.00  0.00     0.251 C 
ATOM     30  H   UNL A   1      40.302  21.993  26.494  1.00  0.00     0.163 HD
ATOM     31  O   UNL A   1      41.830  23.746  27.181  1.00  0.00    -0.269 OA
BRANCH  29  32
ATOM     32  C   UNL A   1      40.013  25.224  27.316  1.00  0.00     0.039 A 
ATOM     33  C   UNL A   1      40.293  26.326  26.496  1.00  0.00     0.014 A 
ATOM     34  C   UNL A   1      39.384  25.415  28.540  1.00  0.00     0.014 A 
ATOM     35  C   UNL A   1      40.224  27.610  27.031  1.00  0.00     0.010 A 
ATOM     36  C   UNL A   1      39.430  26.669  29.114  1.00  0.00     0.010 A 
ATOM     37  C   UNL A   1      39.936  27.751  28.386  1.00  0.00    -0.014 A 
BRANCH  37  38
ATOM     38  C   UNL A   1      40.318  28.923  29.166  1.00  0.00     0.031 A 
ATOM     39  C   UNL A   1      39.337  29.978  29.491  1.00  0.00     0.074 A 
ATOM     40  C   UNL A   1      41.546  28.939  29.735  1.00  0.00     0.049 A 
ATOM     41  N   UNL A   1      39.645  31.159  29.909  1.00  0.00    -0.248 NA
ATOM     42  C   UNL A   1      37.905  29.792  29.316  1.00  0.00     0.031 C 
ATOM     43  C   UNL A   1      42.008  29.789  30.830  1.00  0.00     0.029 A 
ATOM     44  N   UNL A   1      42.707  28.276  29.296  1.00  0.00    -0.354 N 
ATOM     45  C   UNL A   1      38.488  31.774  30.336  1.00  0.00     0.074 A 
ATOM     46  C   UNL A   1      37.430  30.920  29.852  1.00  0.00     0.031 C 
ATOM     47  C   UNL A   1      43.350  29.834  30.807  1.00  0.00     0.029 A 
ATOM     48  C   UNL A   1      43.778  29.146  29.602  1.00  0.00     0.049 A 
ATOM     49  H   UNL A   1      42.760  27.392  28.866  1.00  0.00     0.167 HD
ATOM     50  C   UNL A   1      38.586  32.852  31.172  1.00  0.00     0.037 A 
ATOM     51  C   UNL A   1      44.538  29.710  28.618  1.00  0.00     0.037 A 
ATOM     52  C   UNL A   1      39.984  33.277  31.306  1.00  0.00     0.049 A 
ATOM     53  C   UNL A   1      44.509  31.220  28.605  1.00  0.00     0.074 A 
ATOM     54  C   UNL A   1      40.936  33.090  32.294  1.00  0.00     0.029 A 
ATOM     55  N   UNL A   1      40.666  33.754  30.189  1.00  0.00    -0.354 N 
ATOM     56  N   UNL A   1      43.592  31.932  29.197  1.00  0.00    -0.248 NA
ATOM     57  C   UNL A   1      45.482  32.044  27.893  1.00  0.00     0.031 C 
ATOM     58  C   UNL A   1      42.207  33.395  31.744  1.00  0.00     0.029 A 
ATOM     59  C   UNL A   1      42.026  33.791  30.431  1.00  0.00     0.049 A 
ATOM     60  H   UNL A   1      40.239  34.025  29.344  1.00  0.00     0.167 HD
ATOM     61  C   UNL A   1      43.808  33.261  28.943  1.00  0.00     0.074 A 
ATOM     62  C   UNL A   1      45.017  33.281  28.139  1.00  0.00     0.031 C 
ATOM     63  C   UNL A   1      42.960  34.227  29.402  1.00  0.00     0.037 A 
BRANCH  50  64
ATOM     64  C   UNL A   1      37.485  33.333  32.112  1.00  0.00     0.064 A 
ATOM     65  C   UNL A   1      36.386  34.072  31.611  1.00  0.00     0.173 A 
ATOM     66  C   UNL A   1      37.482  33.192  33.512  1.00  0.00     0.173 A 
ATOM     67  F   UNL A   1      36.161  34.191  30.297  1.00  0.00    -0.203 F 
ATOM     68  C   UNL A   1      35.463  34.720  32.442  1.00  0.00     0.198 A 
ATOM     69  C   UNL A   1      36.586  33.870  34.346  1.00  0.00     0.198 A 
ATOM     70  F   UNL A   1      38.300  32.343  34.137  1.00  0.00    -0.203 F 
ATOM     71  F   UNL A   1      34.461  35.427  31.900  1.00  0.00    -0.200 F 
ATOM     72  C   UNL A   1      35.586  34.651  33.813  1.00  0.00     0.200 A 
ATOM     73  F   UNL A   1      36.702  33.752  35.678  1.00  0.00    -0.200 F 
ATOM     74  F   UNL A   1      34.729  35.300  34.611  1.00  0.00    -0.200 F 
ENDBRANCH  50  64
BRANCH  51  75
ATOM     75  C   UNL A   1      44.664  28.851  27.412  1.00  0.00     0.064 A 
ATOM     76  C   UNL A   1      45.559  27.764  27.455  1.00  0.00     0.173 A 
ATOM     77  C   UNL A   1      43.684  28.844  26.410  1.00  0.00     0.173 A 
ATOM     78  F   UNL A   1      46.513  27.720  28.399  1.00  0.00    -0.203 F 
ATOM     79  C   UNL A   1      45.409  26.667  26.609  1.00  0.00     0.198 A 
ATOM     80  C   UNL A   1      43.544  27.747  25.558  1.00  0.00     0.198 A 
ATOM     81  F   UNL A   1      42.788  29.837  26.333  1.00  0.00    -0.203 F 
ATOM     82  F   UNL A   1      46.210  25.602  26.749  1.00  0.00    -0.200 F 
ATOM     83  C   UNL A   1      44.383  26.648  25.680  1.00  0.00     0.200 A 
ATOM     84  F   UNL A   1      42.529  27.711  24.682  1.00  0.00    -0.200 F 
ATOM     85  F   UNL A   1      44.174  25.556  24.931  1.00  0.00    -0.200 F 
ENDBRANCH  51  75
BRANCH  63  86
ATOM     86  C   UNL A   1      42.973  35.681  29.000  1.00  0.00     0.064 A 
ATOM     87  C   UNL A   1      42.261  36.196  27.904  1.00  0.00     0.173 A 
ATOM     88  C   UNL A   1      43.603  36.642  29.827  1.00  0.00     0.173 A 
ATOM     89  F   UNL A   1      41.532  35.401  27.111  1.00  0.00    -0.203 F 
ATOM     90  C   UNL A   1      42.227  37.566  27.626  1.00  0.00     0.198 A 
ATOM     91  C   UNL A   1      43.519  38.011  29.577  1.00  0.00     0.198 A 
ATOM     92  F   UNL A   1      44.295  36.281  30.917  1.00  0.00    -0.203 F 
ATOM     93  F   UNL A   1      41.564  38.005  26.546  1.00  0.00    -0.200 F 
ATOM     94  C   UNL A   1      42.844  38.472  28.467  1.00  0.00     0.200 A 
ATOM     95  F   UNL A   1      44.078  38.880  30.431  1.00  0.00    -0.200 F 
ATOM     96  F   UNL A   1      42.767  39.787  28.221  1.00  0.00    -0.200 F 
ENDBRANCH  63  86
ENDBRANCH  37  38
ENDBRANCH  29  32
ENDBRANCH  27  28
ENDBRANCH  26  27
ENDBRANCH   1  26
TORSDOF 14
ENDMDL
