MODEL 1
REMARK VINA RESULT:     -11.1      0.000      0.000
REMARK SMILES Cc1cs/c(=N\S(=O)(=O)c2ccc(/C=C/C(=O)NCCCCNC(=O)c3ccc(-c4c5nc(c(-c6c(F)c(F)c(F)c(F)c6F)c6ccc([nH]6)c(-c6c(F)c(F)c(F)c(F)c6F)c6nc(c(-c7c(F)c(F)c(F)c(F)c7F)c7ccc4[nH]7)C=C6)C=C5)cc3)cc2)[nH]1
REMARK SMILES IDX 20 1 19 2 18 3 16 4 17 5 15 7 14 8 13 9 10 10 11 11 90 12
REMARK SMILES IDX 12 13 89 14 7 15 8 16 9 17 6 18 1 19 2 20 3 21 91 22 4 23
REMARK SMILES IDX 5 24 21 26 22 27 23 28 24 29 25 31 26 32 27 33 88 34 28 35
REMARK SMILES IDX 87 36 29 37 30 38 31 39 81 40 32 41 86 42 80 43 82 44 33 45
REMARK SMILES IDX 85 46 79 47 78 48 34 50 66 51 46 52 65 53 47 54 50 55 64 56
REMARK SMILES IDX 83 57 48 58 49 59 63 61 84 62 51 63 35 64 36 65 44 66 37 67
REMARK SMILES IDX 38 68 42 69 45 70 39 71 40 72 43 73 41 74 67 75 68 76 76 77
REMARK SMILES IDX 69 78 70 79 74 80 77 81 71 82 72 83 75 84 73 85 52 86 53 87
REMARK SMILES IDX 61 88 54 89 55 90 59 91 62 92 56 93 57 94 60 95 58 96
REMARK H PARENT 18 6 91 25 23 30 82 49 50 60
REMARK Flexibility Score: inf
ROOT
ATOM      1  C   UNL A   1      33.321  34.734  28.781  1.00  0.00     0.023 C 
ENDROOT
BRANCH   1   2
ATOM      2  C   UNL A   1      33.408  36.172  29.288  1.00  0.00     0.116 C 
BRANCH   2   3
ATOM      3  N   UNL A   1      32.484  36.396  30.383  1.00  0.00    -0.353 N 
ATOM      4  C   UNL A   1      32.604  36.103  31.707  1.00  0.00     0.243 C 
ATOM      5  O   UNL A   1      31.737  36.470  32.495  1.00  0.00    -0.270 OA
ATOM      6  H   UNL A   1      31.636  36.828  30.130  1.00  0.00     0.163 HD
BRANCH   4   7
ATOM      7  C   UNL A   1      33.816  35.426  32.220  1.00  0.00     0.072 C 
ATOM      8  C   UNL A   1      33.792  34.283  32.920  1.00  0.00     0.014 C 
BRANCH   8   9
ATOM      9  C   UNL A   1      35.002  33.631  33.434  1.00  0.00    -0.025 A 
ATOM     10  C   UNL A   1      37.253  32.290  34.415  1.00  0.00     0.089 A 
ATOM     11  C   UNL A   1      36.754  33.404  35.097  1.00  0.00     0.023 A 
ATOM     12  C   UNL A   1      36.638  31.837  33.247  1.00  0.00     0.023 A 
ATOM     13  C   UNL A   1      35.630  34.070  34.606  1.00  0.00     0.009 A 
ATOM     14  C   UNL A   1      35.510  32.507  32.764  1.00  0.00     0.009 A 
BRANCH  10  15
ATOM     15  S   UNL A   1      38.659  31.442  35.118  1.00  0.00     0.285 S 
ATOM     16  O   UNL A   1      38.089  30.492  36.058  1.00  0.00    -0.199 OA
ATOM     17  O   UNL A   1      39.555  32.494  35.551  1.00  0.00    -0.199 OA
BRANCH  15  18
ATOM     18  N   UNL A   1      39.326  30.637  33.885  1.00  0.00    -0.130 NA
ATOM     19  C   UNL A   1      42.867  27.647  32.460  1.00  0.00     0.065 C 
ATOM     20  C   UNL A   1      42.112  28.455  33.458  1.00  0.00     0.024 A 
ATOM     21  C   UNL A   1      42.394  28.551  34.768  1.00  0.00     0.089 A 
ATOM     22  N   UNL A   1      41.009  29.199  33.084  1.00  0.00    -0.334 N 
ATOM     23  S   UNL A   1      41.269  29.610  35.588  1.00  0.00    -0.104 S 
ATOM     24  C   UNL A   1      40.371  29.910  34.074  1.00  0.00     0.199 A 
ATOM     25  H   UNL A   1      40.695  29.218  32.152  1.00  0.00     0.169 HD
ENDBRANCH  15  18
ENDBRANCH  10  15
ENDBRANCH   8   9
ENDBRANCH   4   7
ENDBRANCH   2   3
ENDBRANCH   1   2
BRANCH   1  26
ATOM     26  C   UNL A   1      34.676  34.040  28.605  1.00  0.00     0.023 C 
BRANCH  26  27
ATOM     27  C   UNL A   1      34.787  32.660  29.246  1.00  0.00     0.116 C 
BRANCH  27  28
ATOM     28  N   UNL A   1      34.010  31.640  28.559  1.00  0.00    -0.352 N 
ATOM     29  C   UNL A   1      34.424  30.421  28.082  1.00  0.00     0.251 C 
ATOM     30  H   UNL A   1      33.060  31.853  28.416  1.00  0.00     0.163 HD
ATOM     31  O   UNL A   1      33.659  29.716  27.433  1.00  0.00    -0.269 OA
BRANCH  29  32
ATOM     32  C   UNL A   1      35.815  29.980  28.318  1.00  0.00     0.039 A 
ATOM     33  C   UNL A   1      36.752  30.143  27.294  1.00  0.00     0.014 A 
ATOM     34  C   UNL A   1      36.196  29.431  29.545  1.00  0.00     0.014 A 
ATOM     35  C   UNL A   1      38.090  29.819  27.525  1.00  0.00     0.010 A 
ATOM     36  C   UNL A   1      37.539  29.164  29.792  1.00  0.00     0.010 A 
ATOM     37  C   UNL A   1      38.499  29.360  28.788  1.00  0.00    -0.014 A 
BRANCH  37  38
ATOM     38  C   UNL A   1      39.928  29.093  29.080  1.00  0.00     0.031 A 
ATOM     39  C   UNL A   1      40.755  30.117  29.802  1.00  0.00     0.074 A 
ATOM     40  C   UNL A   1      40.496  27.958  28.628  1.00  0.00     0.049 A 
ATOM     41  N   UNL A   1      42.034  30.102  30.078  1.00  0.00    -0.248 NA
ATOM     42  C   UNL A   1      40.056  31.331  30.250  1.00  0.00     0.031 C 
ATOM     43  C   UNL A   1      39.809  26.912  27.871  1.00  0.00     0.029 A 
ATOM     44  N   UNL A   1      41.786  27.502  28.728  1.00  0.00    -0.354 N 
ATOM     45  C   UNL A   1      42.296  31.307  30.715  1.00  0.00     0.074 A 
ATOM     46  C   UNL A   1      41.054  32.049  30.746  1.00  0.00     0.031 C 
ATOM     47  C   UNL A   1      40.679  25.929  27.588  1.00  0.00     0.029 A 
ATOM     48  C   UNL A   1      41.991  26.290  28.116  1.00  0.00     0.049 A 
ATOM     49  H   UNL A   1      42.498  27.997  29.196  1.00  0.00     0.167 HD
ATOM     50  C   UNL A   1      43.463  31.745  31.244  1.00  0.00     0.037 A 
ATOM     51  C   UNL A   1      43.113  25.557  27.991  1.00  0.00     0.037 A 
ATOM     52  C   UNL A   1      44.690  30.992  31.240  1.00  0.00     0.049 A 
ATOM     53  C   UNL A   1      44.392  26.061  28.601  1.00  0.00     0.074 A 
ATOM     54  C   UNL A   1      45.908  31.322  31.806  1.00  0.00     0.029 A 
ATOM     55  N   UNL A   1      44.851  29.752  30.638  1.00  0.00    -0.354 N 
ATOM     56  N   UNL A   1      44.612  27.172  29.259  1.00  0.00    -0.248 NA
ATOM     57  C   UNL A   1      45.576  25.203  28.456  1.00  0.00     0.031 C 
ATOM     58  C   UNL A   1      46.816  30.297  31.518  1.00  0.00     0.029 A 
ATOM     59  C   UNL A   1      46.153  29.311  30.807  1.00  0.00     0.049 A 
ATOM     60  H   UNL A   1      44.144  29.260  30.161  1.00  0.00     0.167 HD
ATOM     61  C   UNL A   1      45.949  27.138  29.628  1.00  0.00     0.074 A 
ATOM     62  C   UNL A   1      46.489  25.888  29.133  1.00  0.00     0.031 C 
ATOM     63  C   UNL A   1      46.668  28.060  30.315  1.00  0.00     0.037 A 
BRANCH  50  64
ATOM     64  C   UNL A   1      43.467  33.103  31.883  1.00  0.00     0.064 A 
ATOM     65  C   UNL A   1      43.722  34.263  31.136  1.00  0.00     0.173 A 
ATOM     66  C   UNL A   1      43.177  33.250  33.247  1.00  0.00     0.173 A 
ATOM     67  F   UNL A   1      44.016  34.173  29.829  1.00  0.00    -0.203 F 
ATOM     68  C   UNL A   1      43.712  35.518  31.737  1.00  0.00     0.198 A 
ATOM     69  C   UNL A   1      43.142  34.509  33.840  1.00  0.00     0.198 A 
ATOM     70  F   UNL A   1      42.922  32.172  34.004  1.00  0.00    -0.203 F 
ATOM     71  F   UNL A   1      44.003  36.608  31.014  1.00  0.00    -0.200 F 
ATOM     72  C   UNL A   1      43.416  35.641  33.086  1.00  0.00     0.200 A 
ATOM     73  F   UNL A   1      42.845  34.628  35.141  1.00  0.00    -0.200 F 
ATOM     74  F   UNL A   1      43.402  36.850  33.663  1.00  0.00    -0.200 F 
ENDBRANCH  50  64
BRANCH  51  75
ATOM     75  C   UNL A   1      43.071  24.253  27.282  1.00  0.00     0.064 A 
ATOM     76  C   UNL A   1      42.672  23.087  27.949  1.00  0.00     0.173 A 
ATOM     77  C   UNL A   1      43.429  24.143  25.931  1.00  0.00     0.173 A 
ATOM     78  F   UNL A   1      42.340  23.139  29.247  1.00  0.00    -0.203 F 
ATOM     79  C   UNL A   1      42.651  21.856  27.297  1.00  0.00     0.198 A 
ATOM     80  C   UNL A   1      43.385  22.916  25.273  1.00  0.00     0.198 A 
ATOM     81  F   UNL A   1      43.813  25.232  25.248  1.00  0.00    -0.203 F 
ATOM     82  F   UNL A   1      42.307  20.749  27.969  1.00  0.00    -0.200 F 
ATOM     83  C   UNL A   1      43.002  21.772  25.958  1.00  0.00     0.200 A 
ATOM     84  F   UNL A   1      43.713  22.842  23.975  1.00  0.00    -0.200 F 
ATOM     85  F   UNL A   1      42.981  20.589  25.330  1.00  0.00    -0.200 F 
ENDBRANCH  51  75
BRANCH  63  86
ATOM     86  C   UNL A   1      48.105  27.737  30.597  1.00  0.00     0.064 A 
ATOM     87  C   UNL A   1      48.484  27.019  31.741  1.00  0.00     0.173 A 
ATOM     88  C   UNL A   1      49.108  28.116  29.693  1.00  0.00     0.173 A 
ATOM     89  F   UNL A   1      47.562  26.649  32.642  1.00  0.00    -0.203 F 
ATOM     90  C   UNL A   1      49.820  26.710  31.978  1.00  0.00     0.198 A 
ATOM     91  C   UNL A   1      50.439  27.784  29.921  1.00  0.00     0.198 A 
ATOM     92  F   UNL A   1      48.794  28.801  28.583  1.00  0.00    -0.203 F 
ATOM     93  F   UNL A   1      50.166  26.059  33.097  1.00  0.00    -0.200 F 
ATOM     94  C   UNL A   1      50.796  27.086  31.066  1.00  0.00     0.200 A 
ATOM     95  F   UNL A   1      51.379  28.139  29.034  1.00  0.00    -0.200 F 
ATOM     96  F   UNL A   1      52.080  26.782  31.293  1.00  0.00    -0.200 F 
ENDBRANCH  63  86
ENDBRANCH  37  38
ENDBRANCH  29  32
ENDBRANCH  27  28
ENDBRANCH  26  27
ENDBRANCH   1  26
TORSDOF 14
ENDMDL
MODEL 2
REMARK VINA RESULT:     -11.0      4.376     11.253
REMARK SMILES Cc1cs/c(=N\S(=O)(=O)c2ccc(/C=C/C(=O)NCCCCNC(=O)c3ccc(-c4c5nc(c(-c6c(F)c(F)c(F)c(F)c6F)c6ccc([nH]6)c(-c6c(F)c(F)c(F)c(F)c6F)c6nc(c(-c7c(F)c(F)c(F)c(F)c7F)c7ccc4[nH]7)C=C6)C=C5)cc3)cc2)[nH]1
REMARK SMILES IDX 20 1 19 2 18 3 16 4 17 5 15 7 14 8 13 9 10 10 11 11 90 12
REMARK SMILES IDX 12 13 89 14 7 15 8 16 9 17 6 18 1 19 2 20 3 21 91 22 4 23
REMARK SMILES IDX 5 24 21 26 22 27 23 28 24 29 25 31 26 32 27 33 88 34 28 35
REMARK SMILES IDX 87 36 29 37 30 38 31 39 81 40 32 41 86 42 80 43 82 44 33 45
REMARK SMILES IDX 85 46 79 47 78 48 34 50 66 51 46 52 65 53 47 54 50 55 64 56
REMARK SMILES IDX 83 57 48 58 49 59 63 61 84 62 51 63 35 64 36 65 44 66 37 67
REMARK SMILES IDX 38 68 42 69 45 70 39 71 40 72 43 73 41 74 67 75 68 76 76 77
REMARK SMILES IDX 69 78 70 79 74 80 77 81 71 82 72 83 75 84 73 85 52 86 53 87
REMARK SMILES IDX 61 88 54 89 55 90 59 91 62 92 56 93 57 94 60 95 58 96
REMARK H PARENT 18 6 91 25 23 30 82 49 50 60
REMARK Flexibility Score: inf
ROOT
ATOM      1  C   UNL A   1      41.769  19.865  25.816  1.00  0.00     0.023 C 
ENDROOT
BRANCH   1   2
ATOM      2  C   UNL A   1      43.032  19.181  26.335  1.00  0.00     0.116 C 
BRANCH   2   3
ATOM      3  N   UNL A   1      43.859  18.711  25.239  1.00  0.00    -0.353 N 
ATOM      4  C   UNL A   1      44.859  19.338  24.563  1.00  0.00     0.243 C 
ATOM      5  O   UNL A   1      45.509  18.721  23.723  1.00  0.00    -0.270 OA
ATOM      6  H   UNL A   1      43.666  17.793  24.937  1.00  0.00     0.163 HD
BRANCH   4   7
ATOM      7  C   UNL A   1      45.233  20.731  24.895  1.00  0.00     0.072 C 
ATOM      8  C   UNL A   1      44.696  21.808  24.305  1.00  0.00     0.014 C 
BRANCH   8   9
ATOM      9  C   UNL A   1      45.088  23.183  24.636  1.00  0.00    -0.025 A 
ATOM     10  C   UNL A   1      45.765  25.842  25.186  1.00  0.00     0.089 A 
ATOM     11  C   UNL A   1      46.768  24.917  24.880  1.00  0.00     0.023 A 
ATOM     12  C   UNL A   1      44.425  25.453  25.219  1.00  0.00     0.023 A 
ATOM     13  C   UNL A   1      46.428  23.592  24.605  1.00  0.00     0.009 A 
ATOM     14  C   UNL A   1      44.091  24.125  24.938  1.00  0.00     0.009 A 
BRANCH  10  15
ATOM     15  S   UNL A   1      46.251  27.536  25.475  1.00  0.00     0.285 S 
ATOM     16  O   UNL A   1      46.200  28.166  24.167  1.00  0.00    -0.199 OA
ATOM     17  O   UNL A   1      47.484  27.450  26.229  1.00  0.00    -0.199 OA
BRANCH  15  18
ATOM     18  N   UNL A   1      45.087  28.155  26.411  1.00  0.00    -0.130 NA
ATOM     19  C   UNL A   1      43.455  32.066  28.767  1.00  0.00     0.065 C 
ATOM     20  C   UNL A   1      44.417  31.319  27.908  1.00  0.00     0.024 A 
ATOM     21  C   UNL A   1      45.537  31.821  27.362  1.00  0.00     0.089 A 
ATOM     22  N   UNL A   1      44.210  29.989  27.598  1.00  0.00    -0.334 N 
ATOM     23  S   UNL A   1      46.391  30.611  26.431  1.00  0.00    -0.104 S 
ATOM     24  C   UNL A   1      45.148  29.382  26.796  1.00  0.00     0.199 A 
ATOM     25  H   UNL A   1      43.427  29.499  27.937  1.00  0.00     0.169 HD
ENDBRANCH  15  18
ENDBRANCH  10  15
ENDBRANCH   8   9
ENDBRANCH   4   7
ENDBRANCH   2   3
ENDBRANCH   1   2
BRANCH   1  26
ATOM     26  C   UNL A   1      41.678  21.360  26.139  1.00  0.00     0.023 C 
BRANCH  26  27
ATOM     27  C   UNL A   1      40.441  21.780  26.928  1.00  0.00     0.116 C 
BRANCH  27  28
ATOM     28  N   UNL A   1      39.350  22.242  26.085  1.00  0.00    -0.352 N 
ATOM     29  C   UNL A   1      38.780  23.490  26.023  1.00  0.00     0.251 C 
ATOM     30  H   UNL A   1      38.968  21.569  25.476  1.00  0.00     0.163 HD
ATOM     31  O   UNL A   1      37.793  23.688  25.322  1.00  0.00    -0.269 OA
BRANCH  29  32
ATOM     32  C   UNL A   1      39.337  24.586  26.842  1.00  0.00     0.039 A 
ATOM     33  C   UNL A   1      40.201  25.503  26.235  1.00  0.00     0.014 A 
ATOM     34  C   UNL A   1      38.995  24.722  28.190  1.00  0.00     0.014 A 
ATOM     35  C   UNL A   1      40.666  26.599  26.963  1.00  0.00     0.010 A 
ATOM     36  C   UNL A   1      39.413  25.846  28.897  1.00  0.00     0.010 A 
ATOM     37  C   UNL A   1      40.248  26.797  28.289  1.00  0.00    -0.014 A 
BRANCH  37  38
ATOM     38  C   UNL A   1      40.661  27.999  29.052  1.00  0.00     0.031 A 
ATOM     39  C   UNL A   1      42.043  28.086  29.634  1.00  0.00     0.074 A 
ATOM     40  C   UNL A   1      39.765  28.978  29.284  1.00  0.00     0.049 A 
ATOM     41  N   UNL A   1      42.563  29.014  30.395  1.00  0.00    -0.248 NA
ATOM     42  C   UNL A   1      42.952  26.967  29.341  1.00  0.00     0.031 C 
ATOM     43  C   UNL A   1      38.379  28.984  28.816  1.00  0.00     0.029 A 
ATOM     44  N   UNL A   1      39.884  30.152  29.984  1.00  0.00    -0.354 N 
ATOM     45  C   UNL A   1      43.851  28.585  30.686  1.00  0.00     0.074 A 
ATOM     46  C   UNL A   1      44.019  27.293  30.056  1.00  0.00     0.031 C 
ATOM     47  C   UNL A   1      37.780  30.113  29.228  1.00  0.00     0.029 A 
ATOM     48  C   UNL A   1      38.729  30.895  30.014  1.00  0.00     0.049 A 
ATOM     49  H   UNL A   1      40.719  30.436  30.423  1.00  0.00     0.167 HD
ATOM     50  C   UNL A   1      44.812  29.221  31.397  1.00  0.00     0.037 A 
ATOM     51  C   UNL A   1      38.465  32.070  30.614  1.00  0.00     0.037 A 
ATOM     52  C   UNL A   1      44.652  30.521  31.996  1.00  0.00     0.049 A 
ATOM     53  C   UNL A   1      39.556  32.762  31.385  1.00  0.00     0.074 A 
ATOM     54  C   UNL A   1      45.586  31.277  32.681  1.00  0.00     0.029 A 
ATOM     55  N   UNL A   1      43.477  31.257  31.977  1.00  0.00    -0.354 N 
ATOM     56  N   UNL A   1      40.790  32.378  31.598  1.00  0.00    -0.248 NA
ATOM     57  C   UNL A   1      39.217  34.057  31.993  1.00  0.00     0.031 C 
ATOM     58  C   UNL A   1      44.967  32.456  33.107  1.00  0.00     0.029 A 
ATOM     59  C   UNL A   1      43.658  32.453  32.652  1.00  0.00     0.049 A 
ATOM     60  H   UNL A   1      42.637  30.971  31.548  1.00  0.00     0.167 HD
ATOM     61  C   UNL A   1      41.383  33.389  32.340  1.00  0.00     0.074 A 
ATOM     62  C   UNL A   1      40.376  34.413  32.531  1.00  0.00     0.031 C 
ATOM     63  C   UNL A   1      42.647  33.463  32.823  1.00  0.00     0.037 A 
BRANCH  50  64
ATOM     64  C   UNL A   1      46.130  28.523  31.558  1.00  0.00     0.064 A 
ATOM     65  C   UNL A   1      46.351  27.610  32.601  1.00  0.00     0.173 A 
ATOM     66  C   UNL A   1      47.169  28.741  30.643  1.00  0.00     0.173 A 
ATOM     67  F   UNL A   1      45.392  27.376  33.509  1.00  0.00    -0.203 F 
ATOM     68  C   UNL A   1      47.575  26.960  32.734  1.00  0.00     0.198 A 
ATOM     69  C   UNL A   1      48.382  28.069  30.764  1.00  0.00     0.198 A 
ATOM     70  F   UNL A   1      47.006  29.601  29.626  1.00  0.00    -0.203 F 
ATOM     71  F   UNL A   1      47.780  26.126  33.763  1.00  0.00    -0.200 F 
ATOM     72  C   UNL A   1      48.587  27.184  31.813  1.00  0.00     0.200 A 
ATOM     73  F   UNL A   1      49.356  28.279  29.867  1.00  0.00    -0.200 F 
ATOM     74  F   UNL A   1      49.762  26.554  31.940  1.00  0.00    -0.200 F 
ENDBRANCH  50  64
BRANCH  51  75
ATOM     75  C   UNL A   1      37.119  32.683  30.486  1.00  0.00     0.064 A 
ATOM     76  C   UNL A   1      36.144  32.483  31.473  1.00  0.00     0.173 A 
ATOM     77  C   UNL A   1      36.779  33.474  29.381  1.00  0.00     0.173 A 
ATOM     78  F   UNL A   1      36.418  31.717  32.538  1.00  0.00    -0.203 F 
ATOM     79  C   UNL A   1      34.871  33.036  31.349  1.00  0.00     0.198 A 
ATOM     80  C   UNL A   1      35.513  34.047  29.269  1.00  0.00     0.198 A 
ATOM     81  F   UNL A   1      37.680  33.699  28.413  1.00  0.00    -0.203 F 
ATOM     82  F   UNL A   1      33.944  32.795  32.285  1.00  0.00    -0.200 F 
ATOM     83  C   UNL A   1      34.559  33.822  30.250  1.00  0.00     0.200 A 
ATOM     84  F   UNL A   1      35.219  34.817  28.212  1.00  0.00    -0.200 F 
ATOM     85  F   UNL A   1      33.335  34.356  30.131  1.00  0.00    -0.200 F 
ENDBRANCH  51  75
BRANCH  63  86
ATOM     86  C   UNL A   1      43.021  34.704  33.577  1.00  0.00     0.064 A 
ATOM     87  C   UNL A   1      43.455  35.862  32.914  1.00  0.00     0.173 A 
ATOM     88  C   UNL A   1      42.906  34.748  34.974  1.00  0.00     0.173 A 
ATOM     89  F   UNL A   1      43.596  35.862  31.580  1.00  0.00    -0.203 F 
ATOM     90  C   UNL A   1      43.779  37.013  33.627  1.00  0.00     0.198 A 
ATOM     91  C   UNL A   1      43.206  35.909  35.681  1.00  0.00     0.198 A 
ATOM     92  F   UNL A   1      42.490  33.668  35.652  1.00  0.00    -0.203 F 
ATOM     93  F   UNL A   1      44.230  38.095  32.978  1.00  0.00    -0.200 F 
ATOM     94  C   UNL A   1      43.648  37.038  35.008  1.00  0.00     0.200 A 
ATOM     95  F   UNL A   1      43.069  35.934  37.013  1.00  0.00    -0.200 F 
ATOM     96  F   UNL A   1      43.955  38.149  35.691  1.00  0.00    -0.200 F 
ENDBRANCH  63  86
ENDBRANCH  37  38
ENDBRANCH  29  32
ENDBRANCH  27  28
ENDBRANCH  26  27
ENDBRANCH   1  26
TORSDOF 14
ENDMDL
MODEL 3
REMARK VINA RESULT:     -10.5      1.878      3.248
REMARK SMILES Cc1cs/c(=N\S(=O)(=O)c2ccc(/C=C/C(=O)NCCCCNC(=O)c3ccc(-c4c5nc(c(-c6c(F)c(F)c(F)c(F)c6F)c6ccc([nH]6)c(-c6c(F)c(F)c(F)c(F)c6F)c6nc(c(-c7c(F)c(F)c(F)c(F)c7F)c7ccc4[nH]7)C=C6)C=C5)cc3)cc2)[nH]1
REMARK SMILES IDX 20 1 19 2 18 3 16 4 17 5 15 7 14 8 13 9 10 10 11 11 90 12
REMARK SMILES IDX 12 13 89 14 7 15 8 16 9 17 6 18 1 19 2 20 3 21 91 22 4 23
REMARK SMILES IDX 5 24 21 26 22 27 23 28 24 29 25 31 26 32 27 33 88 34 28 35
REMARK SMILES IDX 87 36 29 37 30 38 31 39 81 40 32 41 86 42 80 43 82 44 33 45
REMARK SMILES IDX 85 46 79 47 78 48 34 50 66 51 46 52 65 53 47 54 50 55 64 56
REMARK SMILES IDX 83 57 48 58 49 59 63 61 84 62 51 63 35 64 36 65 44 66 37 67
REMARK SMILES IDX 38 68 42 69 45 70 39 71 40 72 43 73 41 74 67 75 68 76 76 77
REMARK SMILES IDX 69 78 70 79 74 80 77 81 71 82 72 83 75 84 73 85 52 86 53 87
REMARK SMILES IDX 61 88 54 89 55 90 59 91 62 92 56 93 57 94 60 95 58 96
REMARK H PARENT 18 6 91 25 23 30 82 49 50 60
REMARK Flexibility Score: inf
ROOT
ATOM      1  C   UNL A   1      35.045  32.708  31.420  1.00  0.00     0.023 C 
ENDROOT
BRANCH   1   2
ATOM      2  C   UNL A   1      36.126  33.553  32.091  1.00  0.00     0.116 C 
BRANCH   2   3
ATOM      3  N   UNL A   1      35.865  33.702  33.510  1.00  0.00    -0.353 N 
ATOM      4  C   UNL A   1      36.562  33.240  34.583  1.00  0.00     0.243 C 
ATOM      5  O   UNL A   1      36.223  33.564  35.718  1.00  0.00    -0.270 OA
ATOM      6  H   UNL A   1      35.057  34.220  33.733  1.00  0.00     0.163 HD
BRANCH   4   7
ATOM      7  C   UNL A   1      37.781  32.423  34.393  1.00  0.00     0.072 C 
ATOM      8  C   UNL A   1      37.773  31.170  33.916  1.00  0.00     0.014 C 
BRANCH   8   9
ATOM      9  C   UNL A   1      38.990  30.367  33.746  1.00  0.00    -0.025 A 
ATOM     10  C   UNL A   1      41.362  28.929  33.381  1.00  0.00     0.089 A 
ATOM     11  C   UNL A   1      40.172  28.466  32.811  1.00  0.00     0.023 A 
ATOM     12  C   UNL A   1      41.380  30.106  34.131  1.00  0.00     0.023 A 
ATOM     13  C   UNL A   1      38.990  29.186  32.994  1.00  0.00     0.009 A 
ATOM     14  C   UNL A   1      40.193  30.824  34.306  1.00  0.00     0.009 A 
BRANCH  10  15
ATOM     15  S   UNL A   1      42.855  27.999  33.069  1.00  0.00     0.285 S 
ATOM     16  O   UNL A   1      43.934  28.885  33.467  1.00  0.00    -0.199 OA
ATOM     17  O   UNL A   1      42.725  27.525  31.707  1.00  0.00    -0.199 OA
BRANCH  15  18
ATOM     18  N   UNL A   1      42.790  26.745  34.087  1.00  0.00    -0.130 NA
ATOM     19  C   UNL A   1      44.580  22.390  35.244  1.00  0.00     0.065 C 
ATOM     20  C   UNL A   1      44.490  23.630  34.423  1.00  0.00     0.024 A 
ATOM     21  C   UNL A   1      45.243  23.918  33.349  1.00  0.00     0.089 A 
ATOM     22  N   UNL A   1      43.579  24.622  34.730  1.00  0.00    -0.334 N 
ATOM     23  S   UNL A   1      44.814  25.472  32.667  1.00  0.00    -0.104 S 
ATOM     24  C   UNL A   1      43.570  25.734  33.921  1.00  0.00     0.199 A 
ATOM     25  H   UNL A   1      42.964  24.536  35.494  1.00  0.00     0.169 HD
ENDBRANCH  15  18
ENDBRANCH  10  15
ENDBRANCH   8   9
ENDBRANCH   4   7
ENDBRANCH   2   3
ENDBRANCH   1   2
BRANCH   1  26
ATOM     26  C   UNL A   1      34.381  33.372  30.208  1.00  0.00     0.023 C 
BRANCH  26  27
ATOM     27  C   UNL A   1      34.824  32.835  28.850  1.00  0.00     0.116 C 
BRANCH  27  28
ATOM     28  N   UNL A   1      34.001  31.736  28.369  1.00  0.00    -0.352 N 
ATOM     29  C   UNL A   1      34.376  30.449  28.071  1.00  0.00     0.251 C 
ATOM     30  H   UNL A   1      33.048  31.943  28.238  1.00  0.00     0.163 HD
ATOM     31  O   UNL A   1      33.570  29.666  27.577  1.00  0.00    -0.269 OA
BRANCH  29  32
ATOM     32  C   UNL A   1      35.770  30.022  28.310  1.00  0.00     0.039 A 
ATOM     33  C   UNL A   1      36.694  30.139  27.267  1.00  0.00     0.014 A 
ATOM     34  C   UNL A   1      36.168  29.531  29.556  1.00  0.00     0.014 A 
ATOM     35  C   UNL A   1      38.035  29.829  27.496  1.00  0.00     0.010 A 
ATOM     36  C   UNL A   1      37.515  29.278  29.798  1.00  0.00     0.010 A 
ATOM     37  C   UNL A   1      38.461  29.429  28.774  1.00  0.00    -0.014 A 
BRANCH  37  38
ATOM     38  C   UNL A   1      39.894  29.179  29.060  1.00  0.00     0.031 A 
ATOM     39  C   UNL A   1      40.720  30.223  29.755  1.00  0.00     0.074 A 
ATOM     40  C   UNL A   1      40.467  28.039  28.625  1.00  0.00     0.049 A 
ATOM     41  N   UNL A   1      42.001  30.223  30.022  1.00  0.00    -0.248 NA
ATOM     42  C   UNL A   1      40.015  31.440  30.185  1.00  0.00     0.031 C 
ATOM     43  C   UNL A   1      39.783  26.974  27.894  1.00  0.00     0.029 A 
ATOM     44  N   UNL A   1      41.762  27.595  28.724  1.00  0.00    -0.354 N 
ATOM     45  C   UNL A   1      42.258  31.442  30.633  1.00  0.00     0.074 A 
ATOM     46  C   UNL A   1      41.011  32.175  30.659  1.00  0.00     0.031 C 
ATOM     47  C   UNL A   1      40.658  25.993  27.623  1.00  0.00     0.029 A 
ATOM     48  C   UNL A   1      41.972  26.374  28.134  1.00  0.00     0.049 A 
ATOM     49  H   UNL A   1      42.474  28.105  29.176  1.00  0.00     0.167 HD
ATOM     50  C   UNL A   1      43.426  31.899  31.144  1.00  0.00     0.037 A 
ATOM     51  C   UNL A   1      43.098  25.646  28.013  1.00  0.00     0.037 A 
ATOM     52  C   UNL A   1      44.658  31.155  31.145  1.00  0.00     0.049 A 
ATOM     53  C   UNL A   1      44.378  26.171  28.604  1.00  0.00     0.074 A 
ATOM     54  C   UNL A   1      45.878  31.505  31.694  1.00  0.00     0.029 A 
ATOM     55  N   UNL A   1      44.824  29.905  30.566  1.00  0.00    -0.354 N 
ATOM     56  N   UNL A   1      44.595  27.297  29.238  1.00  0.00    -0.248 NA
ATOM     57  C   UNL A   1      45.568  25.320  28.466  1.00  0.00     0.031 C 
ATOM     58  C   UNL A   1      46.792  30.482  31.420  1.00  0.00     0.029 A 
ATOM     59  C   UNL A   1      46.130  29.477  30.733  1.00  0.00     0.049 A 
ATOM     60  H   UNL A   1      44.117  29.398  30.104  1.00  0.00     0.167 HD
ATOM     61  C   UNL A   1      45.935  27.280  29.598  1.00  0.00     0.074 A 
ATOM     62  C   UNL A   1      46.480  26.025  29.122  1.00  0.00     0.031 C 
ATOM     63  C   UNL A   1      46.651  28.221  30.261  1.00  0.00     0.037 A 
BRANCH  50  64
ATOM     64  C   UNL A   1      43.424  33.269  31.756  1.00  0.00     0.064 A 
ATOM     65  C   UNL A   1      43.375  33.449  33.147  1.00  0.00     0.173 A 
ATOM     66  C   UNL A   1      43.507  34.411  30.947  1.00  0.00     0.173 A 
ATOM     67  F   UNL A   1      43.283  32.388  33.963  1.00  0.00    -0.203 F 
ATOM     68  C   UNL A   1      43.385  34.725  33.703  1.00  0.00     0.198 A 
ATOM     69  C   UNL A   1      43.543  35.684  31.509  1.00  0.00     0.198 A 
ATOM     70  F   UNL A   1      43.560  34.292  29.612  1.00  0.00    -0.203 F 
ATOM     71  F   UNL A   1      43.293  34.875  35.032  1.00  0.00    -0.200 F 
ATOM     72  C   UNL A   1      43.476  35.841  32.886  1.00  0.00     0.200 A 
ATOM     73  F   UNL A   1      43.641  36.762  30.718  1.00  0.00    -0.200 F 
ATOM     74  F   UNL A   1      43.490  37.068  33.423  1.00  0.00    -0.200 F 
ENDBRANCH  50  64
BRANCH  51  75
ATOM     75  C   UNL A   1      43.061  24.329  27.330  1.00  0.00     0.064 A 
ATOM     76  C   UNL A   1      43.389  24.216  25.972  1.00  0.00     0.173 A 
ATOM     77  C   UNL A   1      42.697  23.161  28.014  1.00  0.00     0.173 A 
ATOM     78  F   UNL A   1      43.724  25.310  25.272  1.00  0.00    -0.203 F 
ATOM     79  C   UNL A   1      43.335  22.987  25.318  1.00  0.00     0.198 A 
ATOM     80  C   UNL A   1      42.666  21.928  27.365  1.00  0.00     0.198 A 
ATOM     81  F   UNL A   1      42.379  23.216  29.316  1.00  0.00    -0.203 F 
ATOM     82  F   UNL A   1      43.612  22.913  24.010  1.00  0.00    -0.200 F 
ATOM     83  C   UNL A   1      42.979  21.843  26.017  1.00  0.00     0.200 A 
ATOM     84  F   UNL A   1      42.334  20.822  28.047  1.00  0.00    -0.200 F 
ATOM     85  F   UNL A   1      42.929  20.660  25.389  1.00  0.00    -0.200 F 
ENDBRANCH  51  75
BRANCH  63  86
ATOM     86  C   UNL A   1      48.093  27.915  30.538  1.00  0.00     0.064 A 
ATOM     87  C   UNL A   1      48.499  27.332  31.747  1.00  0.00     0.173 A 
ATOM     88  C   UNL A   1      49.072  28.170  29.567  1.00  0.00     0.173 A 
ATOM     89  F   UNL A   1      47.601  27.084  32.712  1.00  0.00    -0.203 F 
ATOM     90  C   UNL A   1      49.839  27.035  31.981  1.00  0.00     0.198 A 
ATOM     91  C   UNL A   1      50.407  27.849  29.795  1.00  0.00     0.198 A 
ATOM     92  F   UNL A   1      48.731  28.722  28.393  1.00  0.00    -0.203 F 
ATOM     93  F   UNL A   1      50.212  26.516  33.159  1.00  0.00    -0.200 F 
ATOM     94  C   UNL A   1      50.791  27.287  31.003  1.00  0.00     0.200 A 
ATOM     95  F   UNL A   1      51.322  28.084  28.845  1.00  0.00    -0.200 F 
ATOM     96  F   UNL A   1      52.078  26.995  31.228  1.00  0.00    -0.200 F 
ENDBRANCH  63  86
ENDBRANCH  37  38
ENDBRANCH  29  32
ENDBRANCH  27  28
ENDBRANCH  26  27
ENDBRANCH   1  26
TORSDOF 14
ENDMDL
