MODEL 1
REMARK VINA RESULT:     -13.3      0.000      0.000
REMARK SMILES O=C(CCC(=O)N1CCCn2nc(-c3ccccc3)cc21)NCCCCNC(=O)c1ccc(-c2c3nc(c(-c4c(F)c(F)c(F)c(F)c4F)c4ccc([nH]4)c(-c4c(F)c(F)c(F)c(F)c4F)c4nc(c(-c5c(F)c(F)c(F)c(F)c5F)c5ccc2[nH]5)C=C4)C=C3)cc1
REMARK SMILES IDX 23 1 22 2 1 3 2 4 3 6 4 7 5 8 6 9 7 10 8 11 21 12 9 13 11 14
REMARK SMILES IDX 20 15 10 16 12 17 13 18 14 19 15 20 19 21 16 22 18 23 17 24
REMARK SMILES IDX 24 25 25 26 26 27 27 28 28 29 29 31 30 32 31 33 92 34 32 35
REMARK SMILES IDX 91 36 33 37 34 38 35 39 85 40 36 41 90 42 84 43 86 44 37 45
REMARK SMILES IDX 89 46 83 47 82 48 38 50 70 51 50 52 69 53 51 54 54 55 68 56
REMARK SMILES IDX 87 57 52 58 53 59 67 61 88 62 55 63 39 64 40 65 48 66 41 67
REMARK SMILES IDX 42 68 46 69 49 70 43 71 44 72 47 73 45 74 71 75 72 76 80 77
REMARK SMILES IDX 73 78 74 79 78 80 81 81 75 82 76 83 79 84 77 85 56 86 57 87
REMARK SMILES IDX 65 88 58 89 59 90 63 91 66 92 60 93 61 94 64 95 62 96
REMARK H PARENT 22 5 27 30 86 49 54 60
REMARK Flexibility Score: inf
ROOT
ATOM      1  C   UNL A   1      33.044  30.023  26.094  1.00  0.00     0.116 C 
ENDROOT
BRANCH   1   2
ATOM      2  N   UNL A   1      33.463  29.444  24.820  1.00  0.00    -0.356 N 
ATOM      3  O   UNL A   1      33.884  27.365  25.696  1.00  0.00    -0.275 OA
ATOM      4  C   UNL A   1      33.751  28.092  24.714  1.00  0.00     0.220 C 
ATOM      5  H   UNL A   1      33.543  30.022  24.027  1.00  0.00     0.163 HD
BRANCH   4   6
ATOM      6  C   UNL A   1      33.634  27.516  23.305  1.00  0.00     0.110 C 
BRANCH   6   7
ATOM      7  C   UNL A   1      33.722  25.975  23.313  1.00  0.00     0.110 C 
BRANCH   7   8
ATOM      8  C   UNL A   1      32.413  25.182  23.203  1.00  0.00     0.228 C 
ATOM      9  O   UNL A   1      31.759  25.152  22.163  1.00  0.00    -0.274 OA
BRANCH   8  10
ATOM     10  N   UNL A   1      31.954  24.401  24.343  1.00  0.00    -0.297 N 
ATOM     11  C   UNL A   1      31.248  25.088  25.438  1.00  0.00     0.129 C 
ATOM     12  C   UNL A   1      32.098  23.012  24.455  1.00  0.00     0.134 A 
ATOM     13  C   UNL A   1      30.307  24.185  26.215  1.00  0.00     0.046 C 
ATOM     14  N   UNL A   1      31.640  22.334  25.555  1.00  0.00    -0.249 N 
ATOM     15  C   UNL A   1      32.678  22.041  23.668  1.00  0.00     0.077 A 
ATOM     16  C   UNL A   1      31.030  22.964  26.703  1.00  0.00     0.148 C 
ATOM     17  N   UNL A   1      31.713  21.019  25.475  1.00  0.00    -0.171 NA
ATOM     18  C   UNL A   1      32.432  20.811  24.364  1.00  0.00     0.095 A 
BRANCH  18  19
ATOM     19  C   UNL A   1      32.870  19.450  24.114  1.00  0.00     0.002 A 
ATOM     20  C   UNL A   1      34.060  18.992  24.699  1.00  0.00     0.010 A 
ATOM     21  C   UNL A   1      32.265  18.707  23.097  1.00  0.00     0.010 A 
ATOM     22  C   UNL A   1      34.653  17.811  24.251  1.00  0.00     0.001 A 
ATOM     23  C   UNL A   1      32.867  17.531  22.643  1.00  0.00     0.001 A 
ATOM     24  C   UNL A   1      34.063  17.090  23.214  1.00  0.00     0.000 A 
ENDBRANCH  18  19
ENDBRANCH   8  10
ENDBRANCH   7   8
ENDBRANCH   6   7
ENDBRANCH   4   6
ENDBRANCH   1   2
BRANCH   1  25
ATOM     25  C   UNL A   1      31.596  30.576  26.158  1.00  0.00     0.023 C 
BRANCH  25  26
ATOM     26  C   UNL A   1      31.444  32.061  26.535  1.00  0.00     0.023 C 
BRANCH  26  27
ATOM     27  C   UNL A   1      32.554  32.795  27.322  1.00  0.00     0.116 C 
BRANCH  27  28
ATOM     28  N   UNL A   1      32.377  34.213  27.580  1.00  0.00    -0.352 N 
ATOM     29  C   UNL A   1      32.982  34.960  28.573  1.00  0.00     0.251 C 
ATOM     30  H   UNL A   1      31.759  34.694  26.984  1.00  0.00     0.163 HD
ATOM     31  O   UNL A   1      32.524  36.059  28.872  1.00  0.00    -0.269 OA
BRANCH  29  32
ATOM     32  C   UNL A   1      34.166  34.441  29.296  1.00  0.00     0.039 A 
ATOM     33  C   UNL A   1      34.003  33.862  30.559  1.00  0.00     0.014 A 
ATOM     34  C   UNL A   1      35.446  34.578  28.755  1.00  0.00     0.014 A 
ATOM     35  C   UNL A   1      35.116  33.351  31.243  1.00  0.00     0.010 A 
ATOM     36  C   UNL A   1      36.553  34.041  29.427  1.00  0.00     0.010 A 
ATOM     37  C   UNL A   1      36.398  33.402  30.668  1.00  0.00    -0.014 A 
BRANCH  37  38
ATOM     38  C   UNL A   1      37.560  32.720  31.310  1.00  0.00     0.031 A 
ATOM     39  C   UNL A   1      38.259  31.562  30.651  1.00  0.00     0.074 A 
ATOM     40  C   UNL A   1      37.949  33.107  32.541  1.00  0.00     0.049 A 
ATOM     41  N   UNL A   1      39.252  30.832  31.101  1.00  0.00    -0.248 NA
ATOM     42  C   UNL A   1      37.774  31.161  29.324  1.00  0.00     0.031 C 
ATOM     43  C   UNL A   1      37.337  34.186  33.316  1.00  0.00     0.029 A 
ATOM     44  N   UNL A   1      38.940  32.629  33.365  1.00  0.00    -0.354 N 
ATOM     45  C   UNL A   1      39.513  29.890  30.114  1.00  0.00     0.074 A 
ATOM     46  C   UNL A   1      38.544  30.114  29.060  1.00  0.00     0.031 C 
ATOM     47  C   UNL A   1      37.968  34.294  34.495  1.00  0.00     0.029 A 
ATOM     48  C   UNL A   1      39.009  33.272  34.576  1.00  0.00     0.049 A 
ATOM     49  H   UNL A   1      39.544  31.894  33.110  1.00  0.00     0.167 HD
ATOM     50  C   UNL A   1      40.480  28.938  30.082  1.00  0.00     0.037 A 
ATOM     51  C   UNL A   1      39.808  33.063  35.640  1.00  0.00     0.037 A 
ATOM     52  C   UNL A   1      41.451  28.713  31.124  1.00  0.00     0.049 A 
ATOM     53  C   UNL A   1      40.857  31.986  35.589  1.00  0.00     0.074 A 
ATOM     54  C   UNL A   1      42.499  27.805  31.146  1.00  0.00     0.029 A 
ATOM     55  N   UNL A   1      41.493  29.391  32.333  1.00  0.00    -0.354 N 
ATOM     56  N   UNL A   1      41.136  31.150  34.619  1.00  0.00    -0.248 NA
ATOM     57  C   UNL A   1      41.707  31.828  36.778  1.00  0.00     0.031 C 
ATOM     58  C   UNL A   1      43.142  27.901  32.385  1.00  0.00     0.029 A 
ATOM     59  C   UNL A   1      42.530  28.904  33.117  1.00  0.00     0.049 A 
ATOM     60  H   UNL A   1      40.878  30.113  32.596  1.00  0.00     0.167 HD
ATOM     61  C   UNL A   1      42.209  30.391  35.067  1.00  0.00     0.074 A 
ATOM     62  C   UNL A   1      42.540  30.873  36.392  1.00  0.00     0.031 C 
ATOM     63  C   UNL A   1      42.861  29.385  34.434  1.00  0.00     0.037 A 
BRANCH  50  64
ATOM     64  C   UNL A   1      40.546  28.054  28.868  1.00  0.00     0.064 A 
ATOM     65  C   UNL A   1      39.818  26.857  28.792  1.00  0.00     0.173 A 
ATOM     66  C   UNL A   1      41.294  28.439  27.745  1.00  0.00     0.173 A 
ATOM     67  F   UNL A   1      39.090  26.442  29.841  1.00  0.00    -0.203 F 
ATOM     68  C   UNL A   1      39.860  26.064  27.649  1.00  0.00     0.198 A 
ATOM     69  C   UNL A   1      41.311  27.657  26.592  1.00  0.00     0.198 A 
ATOM     70  F   UNL A   1      42.000  29.579  27.760  1.00  0.00    -0.203 F 
ATOM     71  F   UNL A   1      39.192  24.902  27.616  1.00  0.00    -0.200 F 
ATOM     72  C   UNL A   1      40.600  26.467  26.547  1.00  0.00     0.200 A 
ATOM     73  F   UNL A   1      42.016  28.055  25.524  1.00  0.00    -0.200 F 
ATOM     74  F   UNL A   1      40.634  25.705  25.446  1.00  0.00    -0.200 F 
ENDBRANCH  50  64
BRANCH  51  75
ATOM     75  C   UNL A   1      39.661  33.911  36.853  1.00  0.00     0.064 A 
ATOM     76  C   UNL A   1      38.864  33.498  37.929  1.00  0.00     0.173 A 
ATOM     77  C   UNL A   1      40.310  35.150  36.957  1.00  0.00     0.173 A 
ATOM     78  F   UNL A   1      38.208  32.330  37.865  1.00  0.00    -0.203 F 
ATOM     79  C   UNL A   1      38.705  34.301  39.056  1.00  0.00     0.198 A 
ATOM     80  C   UNL A   1      40.173  35.939  38.097  1.00  0.00     0.198 A 
ATOM     81  F   UNL A   1      41.090  35.587  35.958  1.00  0.00    -0.203 F 
ATOM     82  F   UNL A   1      37.902  33.901  40.052  1.00  0.00    -0.200 F 
ATOM     83  C   UNL A   1      39.364  35.518  39.142  1.00  0.00     0.200 A 
ATOM     84  F   UNL A   1      40.827  37.106  38.184  1.00  0.00    -0.200 F 
ATOM     85  F   UNL A   1      39.219  36.286  40.229  1.00  0.00    -0.200 F 
ENDBRANCH  51  75
BRANCH  63  86
ATOM     86  C   UNL A   1      44.022  28.754  35.148  1.00  0.00     0.064 A 
ATOM     87  C   UNL A   1      43.859  27.630  35.972  1.00  0.00     0.173 A 
ATOM     88  C   UNL A   1      45.320  29.262  34.985  1.00  0.00     0.173 A 
ATOM     89  F   UNL A   1      42.636  27.115  36.177  1.00  0.00    -0.203 F 
ATOM     90  C   UNL A   1      44.946  27.053  36.624  1.00  0.00     0.198 A 
ATOM     91  C   UNL A   1      46.410  28.666  35.615  1.00  0.00     0.198 A 
ATOM     92  F   UNL A   1      45.533  30.332  34.206  1.00  0.00    -0.203 F 
ATOM     93  F   UNL A   1      44.757  26.010  37.443  1.00  0.00    -0.200 F 
ATOM     94  C   UNL A   1      46.220  27.567  36.440  1.00  0.00     0.200 A 
ATOM     95  F   UNL A   1      47.642  29.156  35.426  1.00  0.00    -0.200 F 
ATOM     96  F   UNL A   1      47.267  27.008  37.062  1.00  0.00    -0.200 F 
ENDBRANCH  63  86
ENDBRANCH  37  38
ENDBRANCH  29  32
ENDBRANCH  27  28
ENDBRANCH  26  27
ENDBRANCH  25  26
ENDBRANCH   1  25
TORSDOF 15
ENDMDL
MODEL 2
REMARK VINA RESULT:     -13.0      2.266      4.218
REMARK SMILES O=C(CCC(=O)N1CCCn2nc(-c3ccccc3)cc21)NCCCCNC(=O)c1ccc(-c2c3nc(c(-c4c(F)c(F)c(F)c(F)c4F)c4ccc([nH]4)c(-c4c(F)c(F)c(F)c(F)c4F)c4nc(c(-c5c(F)c(F)c(F)c(F)c5F)c5ccc2[nH]5)C=C4)C=C3)cc1
REMARK SMILES IDX 23 1 22 2 1 3 2 4 3 6 4 7 5 8 6 9 7 10 8 11 21 12 9 13 11 14
REMARK SMILES IDX 20 15 10 16 12 17 13 18 14 19 15 20 19 21 16 22 18 23 17 24
REMARK SMILES IDX 24 25 25 26 26 27 27 28 28 29 29 31 30 32 31 33 92 34 32 35
REMARK SMILES IDX 91 36 33 37 34 38 35 39 85 40 36 41 90 42 84 43 86 44 37 45
REMARK SMILES IDX 89 46 83 47 82 48 38 50 70 51 50 52 69 53 51 54 54 55 68 56
REMARK SMILES IDX 87 57 52 58 53 59 67 61 88 62 55 63 39 64 40 65 48 66 41 67
REMARK SMILES IDX 42 68 46 69 49 70 43 71 44 72 47 73 45 74 71 75 72 76 80 77
REMARK SMILES IDX 73 78 74 79 78 80 81 81 75 82 76 83 79 84 77 85 56 86 57 87
REMARK SMILES IDX 65 88 58 89 59 90 63 91 66 92 60 93 61 94 64 95 62 96
REMARK H PARENT 22 5 27 30 86 49 54 60
REMARK Flexibility Score: inf
ROOT
ATOM      1  C   UNL A   1      32.158  29.556  27.211  1.00  0.00     0.116 C 
ENDROOT
BRANCH   1   2
ATOM      2  N   UNL A   1      33.206  28.630  26.787  1.00  0.00    -0.356 N 
ATOM      3  O   UNL A   1      31.877  26.766  26.954  1.00  0.00    -0.275 OA
ATOM      4  C   UNL A   1      32.928  27.287  26.587  1.00  0.00     0.220 C 
ATOM      5  H   UNL A   1      34.120  28.964  26.643  1.00  0.00     0.163 HD
BRANCH   4   6
ATOM      6  C   UNL A   1      33.894  26.561  25.653  1.00  0.00     0.110 C 
BRANCH   6   7
ATOM      7  C   UNL A   1      34.025  27.286  24.296  1.00  0.00     0.110 C 
BRANCH   7   8
ATOM      8  C   UNL A   1      33.182  26.769  23.123  1.00  0.00     0.228 C 
ATOM      9  O   UNL A   1      33.684  26.501  22.034  1.00  0.00    -0.274 OA
BRANCH   8  10
ATOM     10  N   UNL A   1      31.757  26.539  23.315  1.00  0.00    -0.297 N 
ATOM     11  C   UNL A   1      31.304  25.211  23.761  1.00  0.00     0.129 C 
ATOM     12  C   UNL A   1      30.772  27.521  23.147  1.00  0.00     0.134 A 
ATOM     13  C   UNL A   1      29.980  25.237  24.503  1.00  0.00     0.046 C 
ATOM     14  N   UNL A   1      29.445  27.241  23.347  1.00  0.00    -0.249 N 
ATOM     15  C   UNL A   1      30.791  28.842  22.756  1.00  0.00     0.077 A 
ATOM     16  C   UNL A   1      28.931  25.935  23.687  1.00  0.00     0.148 C 
ATOM     17  N   UNL A   1      28.636  28.283  23.291  1.00  0.00    -0.171 NA
ATOM     18  C   UNL A   1      29.424  29.267  22.838  1.00  0.00     0.095 A 
BRANCH  18  19
ATOM     19  C   UNL A   1      28.769  30.508  22.463  1.00  0.00     0.002 A 
ATOM     20  C   UNL A   1      28.327  30.682  21.143  1.00  0.00     0.010 A 
ATOM     21  C   UNL A   1      28.825  31.605  23.327  1.00  0.00     0.010 A 
ATOM     22  C   UNL A   1      27.969  31.950  20.685  1.00  0.00     0.001 A 
ATOM     23  C   UNL A   1      28.476  32.874  22.862  1.00  0.00     0.001 A 
ATOM     24  C   UNL A   1      28.058  33.046  21.541  1.00  0.00     0.000 A 
ENDBRANCH  18  19
ENDBRANCH   8  10
ENDBRANCH   7   8
ENDBRANCH   6   7
ENDBRANCH   4   6
ENDBRANCH   1   2
BRANCH   1  25
ATOM     25  C   UNL A   1      31.576  30.487  26.116  1.00  0.00     0.023 C 
BRANCH  25  26
ATOM     26  C   UNL A   1      31.418  31.973  26.490  1.00  0.00     0.023 C 
BRANCH  26  27
ATOM     27  C   UNL A   1      32.532  32.716  27.261  1.00  0.00     0.116 C 
BRANCH  27  28
ATOM     28  N   UNL A   1      32.355  34.138  27.503  1.00  0.00    -0.352 N 
ATOM     29  C   UNL A   1      32.954  34.894  28.493  1.00  0.00     0.251 C 
ATOM     30  H   UNL A   1      31.743  34.613  26.897  1.00  0.00     0.163 HD
ATOM     31  O   UNL A   1      32.496  35.997  28.776  1.00  0.00    -0.269 OA
BRANCH  29  32
ATOM     32  C   UNL A   1      34.131  34.380  29.231  1.00  0.00     0.039 A 
ATOM     33  C   UNL A   1      33.947  33.733  30.456  1.00  0.00     0.014 A 
ATOM     34  C   UNL A   1      35.423  34.590  28.743  1.00  0.00     0.014 A 
ATOM     35  C   UNL A   1      35.055  33.227  31.153  1.00  0.00     0.010 A 
ATOM     36  C   UNL A   1      36.525  34.059  29.426  1.00  0.00     0.010 A 
ATOM     37  C   UNL A   1      36.353  33.352  30.627  1.00  0.00    -0.014 A 
BRANCH  37  38
ATOM     38  C   UNL A   1      37.516  32.679  31.275  1.00  0.00     0.031 A 
ATOM     39  C   UNL A   1      38.231  31.529  30.619  1.00  0.00     0.074 A 
ATOM     40  C   UNL A   1      37.894  33.067  32.510  1.00  0.00     0.049 A 
ATOM     41  N   UNL A   1      39.227  30.807  31.073  1.00  0.00    -0.248 NA
ATOM     42  C   UNL A   1      37.758  31.127  29.287  1.00  0.00     0.031 C 
ATOM     43  C   UNL A   1      37.267  34.139  33.284  1.00  0.00     0.029 A 
ATOM     44  N   UNL A   1      38.884  32.596  33.339  1.00  0.00    -0.354 N 
ATOM     45  C   UNL A   1      39.503  29.870  30.086  1.00  0.00     0.074 A 
ATOM     46  C   UNL A   1      38.539  30.088  29.026  1.00  0.00     0.031 C 
ATOM     47  C   UNL A   1      37.889  34.249  34.467  1.00  0.00     0.029 A 
ATOM     48  C   UNL A   1      38.939  33.237  34.553  1.00  0.00     0.049 A 
ATOM     49  H   UNL A   1      39.496  31.867  33.086  1.00  0.00     0.167 HD
ATOM     50  C   UNL A   1      40.479  28.927  30.058  1.00  0.00     0.037 A 
ATOM     51  C   UNL A   1      39.733  33.033  35.621  1.00  0.00     0.037 A 
ATOM     52  C   UNL A   1      41.446  28.709  31.106  1.00  0.00     0.049 A 
ATOM     53  C   UNL A   1      40.792  31.965  35.574  1.00  0.00     0.074 A 
ATOM     54  C   UNL A   1      42.502  27.810  31.133  1.00  0.00     0.029 A 
ATOM     55  N   UNL A   1      41.473  29.385  32.317  1.00  0.00    -0.354 N 
ATOM     56  N   UNL A   1      41.086  31.135  34.605  1.00  0.00    -0.248 NA
ATOM     57  C   UNL A   1      41.636  31.813  36.769  1.00  0.00     0.031 C 
ATOM     58  C   UNL A   1      43.136  27.909  32.376  1.00  0.00     0.029 A 
ATOM     59  C   UNL A   1      42.510  28.905  33.106  1.00  0.00     0.049 A 
ATOM     60  H   UNL A   1      40.850  30.100  32.577  1.00  0.00     0.167 HD
ATOM     61  C   UNL A   1      42.162  30.384  35.057  1.00  0.00     0.074 A 
ATOM     62  C   UNL A   1      42.481  30.866  36.385  1.00  0.00     0.031 C 
ATOM     63  C   UNL A   1      42.828  29.387  34.426  1.00  0.00     0.037 A 
BRANCH  50  64
ATOM     64  C   UNL A   1      40.561  28.047  28.843  1.00  0.00     0.064 A 
ATOM     65  C   UNL A   1      39.848  26.842  28.761  1.00  0.00     0.173 A 
ATOM     66  C   UNL A   1      41.311  28.443  27.724  1.00  0.00     0.173 A 
ATOM     67  F   UNL A   1      39.121  26.416  29.805  1.00  0.00    -0.203 F 
ATOM     68  C   UNL A   1      39.905  26.051  27.616  1.00  0.00     0.198 A 
ATOM     69  C   UNL A   1      41.342  27.664  26.569  1.00  0.00     0.198 A 
ATOM     70  F   UNL A   1      42.002  29.591  27.744  1.00  0.00    -0.203 F 
ATOM     71  F   UNL A   1      39.251  24.882  27.578  1.00  0.00    -0.200 F 
ATOM     72  C   UNL A   1      40.645  26.466  26.518  1.00  0.00     0.200 A 
ATOM     73  F   UNL A   1      42.047  28.072  25.505  1.00  0.00    -0.200 F 
ATOM     74  F   UNL A   1      40.694  25.707  25.416  1.00  0.00    -0.200 F 
ENDBRANCH  50  64
BRANCH  51  75
ATOM     75  C   UNL A   1      39.570  33.877  36.834  1.00  0.00     0.064 A 
ATOM     76  C   UNL A   1      38.801  33.437  37.920  1.00  0.00     0.173 A 
ATOM     77  C   UNL A   1      40.175  35.139  36.930  1.00  0.00     0.173 A 
ATOM     78  F   UNL A   1      38.187  32.246  37.865  1.00  0.00    -0.203 F 
ATOM     79  C   UNL A   1      38.627  34.235  39.049  1.00  0.00     0.198 A 
ATOM     80  C   UNL A   1      40.025  35.923  38.071  1.00  0.00     0.198 A 
ATOM     81  F   UNL A   1      40.928  35.601  35.921  1.00  0.00    -0.203 F 
ATOM     82  F   UNL A   1      37.851  33.809  40.054  1.00  0.00    -0.200 F 
ATOM     83  C   UNL A   1      39.244  35.475  39.126  1.00  0.00     0.200 A 
ATOM     84  F   UNL A   1      40.638  37.113  38.149  1.00  0.00    -0.200 F 
ATOM     85  F   UNL A   1      39.084  36.239  40.214  1.00  0.00    -0.200 F 
ENDBRANCH  51  75
BRANCH  63  86
ATOM     86  C   UNL A   1      43.990  28.764  35.147  1.00  0.00     0.064 A 
ATOM     87  C   UNL A   1      43.831  27.638  35.968  1.00  0.00     0.173 A 
ATOM     88  C   UNL A   1      45.284  29.284  34.992  1.00  0.00     0.173 A 
ATOM     89  F   UNL A   1      42.612  27.112  36.165  1.00  0.00    -0.203 F 
ATOM     90  C   UNL A   1      44.920  27.069  36.626  1.00  0.00     0.198 A 
ATOM     91  C   UNL A   1      46.376  28.696  35.628  1.00  0.00     0.198 A 
ATOM     92  F   UNL A   1      45.493  30.357  34.216  1.00  0.00    -0.203 F 
ATOM     93  F   UNL A   1      44.735  26.023  37.442  1.00  0.00    -0.200 F 
ATOM     94  C   UNL A   1      46.191  27.595  36.450  1.00  0.00     0.200 A 
ATOM     95  F   UNL A   1      47.605  29.197  35.447  1.00  0.00    -0.200 F 
ATOM     96  F   UNL A   1      47.239  27.044  37.078  1.00  0.00    -0.200 F 
ENDBRANCH  63  86
ENDBRANCH  37  38
ENDBRANCH  29  32
ENDBRANCH  27  28
ENDBRANCH  26  27
ENDBRANCH  25  26
ENDBRANCH   1  25
TORSDOF 15
ENDMDL
MODEL 3
REMARK VINA RESULT:     -13.0      1.232      2.224
REMARK SMILES O=C(CCC(=O)N1CCCn2nc(-c3ccccc3)cc21)NCCCCNC(=O)c1ccc(-c2c3nc(c(-c4c(F)c(F)c(F)c(F)c4F)c4ccc([nH]4)c(-c4c(F)c(F)c(F)c(F)c4F)c4nc(c(-c5c(F)c(F)c(F)c(F)c5F)c5ccc2[nH]5)C=C4)C=C3)cc1
REMARK SMILES IDX 23 1 22 2 1 3 2 4 3 6 4 7 5 8 6 9 7 10 8 11 21 12 9 13 11 14
REMARK SMILES IDX 20 15 10 16 12 17 13 18 14 19 15 20 19 21 16 22 18 23 17 24
REMARK SMILES IDX 24 25 25 26 26 27 27 28 28 29 29 31 30 32 31 33 92 34 32 35
REMARK SMILES IDX 91 36 33 37 34 38 35 39 85 40 36 41 90 42 84 43 86 44 37 45
REMARK SMILES IDX 89 46 83 47 82 48 38 50 70 51 50 52 69 53 51 54 54 55 68 56
REMARK SMILES IDX 87 57 52 58 53 59 67 61 88 62 55 63 39 64 40 65 48 66 41 67
REMARK SMILES IDX 42 68 46 69 49 70 43 71 44 72 47 73 45 74 71 75 72 76 80 77
REMARK SMILES IDX 73 78 74 79 78 80 81 81 75 82 76 83 79 84 77 85 56 86 57 87
REMARK SMILES IDX 65 88 58 89 59 90 63 91 66 92 60 93 61 94 64 95 62 96
REMARK H PARENT 22 5 27 30 86 49 54 60
REMARK Flexibility Score: inf
ROOT
ATOM      1  C   UNL A   1      32.460  29.274  25.949  1.00  0.00     0.116 C 
ENDROOT
BRANCH   1   2
ATOM      2  N   UNL A   1      31.959  27.955  25.571  1.00  0.00    -0.356 N 
ATOM      3  O   UNL A   1      31.064  27.504  27.636  1.00  0.00    -0.275 OA
ATOM      4  C   UNL A   1      31.185  27.211  26.449  1.00  0.00     0.220 C 
ATOM      5  H   UNL A   1      32.174  27.590  24.683  1.00  0.00     0.163 HD
BRANCH   4   6
ATOM      6  C   UNL A   1      30.291  26.163  25.790  1.00  0.00     0.110 C 
BRANCH   6   7
ATOM      7  C   UNL A   1      31.120  25.008  25.188  1.00  0.00     0.110 C 
BRANCH   7   8
ATOM      8  C   UNL A   1      31.893  24.100  26.154  1.00  0.00     0.228 C 
ATOM      9  O   UNL A   1      31.437  23.785  27.251  1.00  0.00    -0.274 OA
BRANCH   8  10
ATOM     10  N   UNL A   1      33.180  23.555  25.746  1.00  0.00    -0.297 N 
ATOM     11  C   UNL A   1      34.339  24.460  25.655  1.00  0.00     0.129 C 
ATOM     12  C   UNL A   1      33.411  22.201  25.472  1.00  0.00     0.134 A 
ATOM     13  C   UNL A   1      35.673  23.759  25.840  1.00  0.00     0.046 C 
ATOM     14  N   UNL A   1      34.649  21.751  25.095  1.00  0.00    -0.249 N 
ATOM     15  C   UNL A   1      32.613  21.078  25.450  1.00  0.00     0.077 A 
ATOM     16  C   UNL A   1      35.798  22.602  24.892  1.00  0.00     0.148 C 
ATOM     17  N   UNL A   1      34.765  20.439  25.001  1.00  0.00    -0.171 NA
ATOM     18  C   UNL A   1      33.504  20.003  25.124  1.00  0.00     0.095 A 
BRANCH  18  19
ATOM     19  C   UNL A   1      33.270  18.596  24.849  1.00  0.00     0.002 A 
ATOM     20  C   UNL A   1      32.527  17.831  25.760  1.00  0.00     0.010 A 
ATOM     21  C   UNL A   1      34.001  17.960  23.842  1.00  0.00     0.010 A 
ATOM     22  C   UNL A   1      32.535  16.439  25.678  1.00  0.00     0.001 A 
ATOM     23  C   UNL A   1      34.016  16.566  23.770  1.00  0.00     0.001 A 
ATOM     24  C   UNL A   1      33.291  15.808  24.692  1.00  0.00     0.000 A 
ENDBRANCH  18  19
ENDBRANCH   8  10
ENDBRANCH   7   8
ENDBRANCH   6   7
ENDBRANCH   4   6
ENDBRANCH   1   2
BRANCH   1  25
ATOM     25  C   UNL A   1      31.530  30.478  25.648  1.00  0.00     0.023 C 
BRANCH  25  26
ATOM     26  C   UNL A   1      31.448  31.571  26.730  1.00  0.00     0.023 C 
BRANCH  26  27
ATOM     27  C   UNL A   1      32.682  32.435  27.076  1.00  0.00     0.116 C 
BRANCH  27  28
ATOM     28  N   UNL A   1      32.466  33.844  27.356  1.00  0.00    -0.352 N 
ATOM     29  C   UNL A   1      33.016  34.581  28.387  1.00  0.00     0.251 C 
ATOM     30  H   UNL A   1      31.862  34.324  26.745  1.00  0.00     0.163 HD
ATOM     31  O   UNL A   1      32.525  35.665  28.689  1.00  0.00    -0.269 OA
BRANCH  29  32
ATOM     32  C   UNL A   1      34.181  34.070  29.146  1.00  0.00     0.039 A 
ATOM     33  C   UNL A   1      33.972  33.269  30.273  1.00  0.00     0.014 A 
ATOM     34  C   UNL A   1      35.481  34.429  28.781  1.00  0.00     0.014 A 
ATOM     35  C   UNL A   1      35.070  32.766  30.987  1.00  0.00     0.010 A 
ATOM     36  C   UNL A   1      36.576  33.902  29.478  1.00  0.00     0.010 A 
ATOM     37  C   UNL A   1      36.384  33.047  30.575  1.00  0.00    -0.014 A 
BRANCH  37  38
ATOM     38  C   UNL A   1      37.554  32.388  31.226  1.00  0.00     0.031 A 
ATOM     39  C   UNL A   1      38.283  31.246  30.571  1.00  0.00     0.074 A 
ATOM     40  C   UNL A   1      37.925  32.780  32.461  1.00  0.00     0.049 A 
ATOM     41  N   UNL A   1      39.287  30.535  31.028  1.00  0.00    -0.248 NA
ATOM     42  C   UNL A   1      37.818  30.837  29.239  1.00  0.00     0.031 C 
ATOM     43  C   UNL A   1      37.284  33.845  33.233  1.00  0.00     0.029 A 
ATOM     44  N   UNL A   1      38.918  32.321  33.292  1.00  0.00    -0.354 N 
ATOM     45  C   UNL A   1      39.576  29.601  30.042  1.00  0.00     0.074 A 
ATOM     46  C   UNL A   1      38.611  29.807  28.980  1.00  0.00     0.031 C 
ATOM     47  C   UNL A   1      37.903  33.964  34.417  1.00  0.00     0.029 A 
ATOM     48  C   UNL A   1      38.963  32.964  34.506  1.00  0.00     0.049 A 
ATOM     49  H   UNL A   1      39.540  31.600  33.041  1.00  0.00     0.167 HD
ATOM     50  C   UNL A   1      40.562  28.670  30.016  1.00  0.00     0.037 A 
ATOM     51  C   UNL A   1      39.758  32.770  35.576  1.00  0.00     0.037 A 
ATOM     52  C   UNL A   1      41.530  28.463  31.066  1.00  0.00     0.049 A 
ATOM     53  C   UNL A   1      40.830  31.714  35.532  1.00  0.00     0.074 A 
ATOM     54  C   UNL A   1      42.596  27.577  31.096  1.00  0.00     0.029 A 
ATOM     55  N   UNL A   1      41.547  29.140  32.277  1.00  0.00    -0.354 N 
ATOM     56  N   UNL A   1      41.135  30.887  34.563  1.00  0.00    -0.248 NA
ATOM     57  C   UNL A   1      41.673  31.573  36.728  1.00  0.00     0.031 C 
ATOM     58  C   UNL A   1      43.226  27.684  32.341  1.00  0.00     0.029 A 
ATOM     59  C   UNL A   1      42.587  28.672  33.068  1.00  0.00     0.049 A 
ATOM     60  H   UNL A   1      40.915  29.848  32.536  1.00  0.00     0.167 HD
ATOM     61  C   UNL A   1      42.219  30.149  35.018  1.00  0.00     0.074 A 
ATOM     62  C   UNL A   1      42.529  30.635  36.347  1.00  0.00     0.031 C 
ATOM     63  C   UNL A   1      42.897  29.159  34.389  1.00  0.00     0.037 A 
BRANCH  50  64
ATOM     64  C   UNL A   1      40.657  27.789  28.802  1.00  0.00     0.064 A 
ATOM     65  C   UNL A   1      39.914  26.604  28.695  1.00  0.00     0.173 A 
ATOM     66  C   UNL A   1      41.450  28.167  27.707  1.00  0.00     0.173 A 
ATOM     67  F   UNL A   1      39.144  26.197  29.716  1.00  0.00    -0.203 F 
ATOM     68  C   UNL A   1      39.983  25.815  27.551  1.00  0.00     0.198 A 
ATOM     69  C   UNL A   1      41.495  27.389  26.552  1.00  0.00     0.198 A 
ATOM     70  F   UNL A   1      42.172  29.295  27.752  1.00  0.00    -0.203 F 
ATOM     71  F   UNL A   1      39.300  24.664  27.490  1.00  0.00    -0.200 F 
ATOM     72  C   UNL A   1      40.767  26.211  26.477  1.00  0.00     0.200 A 
ATOM     73  F   UNL A   1      42.243  27.780  25.511  1.00  0.00    -0.200 F 
ATOM     74  F   UNL A   1      40.829  25.453  25.375  1.00  0.00    -0.200 F 
ENDBRANCH  50  64
BRANCH  51  75
ATOM     75  C   UNL A   1      39.583  33.612  36.788  1.00  0.00     0.064 A 
ATOM     76  C   UNL A   1      40.266  34.828  36.927  1.00  0.00     0.173 A 
ATOM     77  C   UNL A   1      38.733  33.217  37.832  1.00  0.00     0.173 A 
ATOM     78  F   UNL A   1      41.105  35.236  35.963  1.00  0.00    -0.203 F 
ATOM     79  C   UNL A   1      40.122  35.608  38.072  1.00  0.00     0.198 A 
ATOM     80  C   UNL A   1      38.567  34.013  38.963  1.00  0.00     0.198 A 
ATOM     81  F   UNL A   1      38.050  32.066  37.744  1.00  0.00    -0.203 F 
ATOM     82  F   UNL A   1      40.821  36.744  38.197  1.00  0.00    -0.200 F 
ATOM     83  C   UNL A   1      39.268  35.203  39.086  1.00  0.00     0.200 A 
ATOM     84  F   UNL A   1      37.726  33.626  39.933  1.00  0.00    -0.200 F 
ATOM     85  F   UNL A   1      39.122  35.957  40.184  1.00  0.00    -0.200 F 
ENDBRANCH  51  75
BRANCH  63  86
ATOM     86  C   UNL A   1      44.065  28.550  35.112  1.00  0.00     0.064 A 
ATOM     87  C   UNL A   1      45.357  29.087  35.011  1.00  0.00     0.173 A 
ATOM     88  C   UNL A   1      43.884  27.431  35.941  1.00  0.00     0.173 A 
ATOM     89  F   UNL A   1      45.588  30.145  34.218  1.00  0.00    -0.203 F 
ATOM     90  C   UNL A   1      46.428  28.513  35.692  1.00  0.00     0.198 A 
ATOM     91  C   UNL A   1      44.952  26.878  36.643  1.00  0.00     0.198 A 
ATOM     92  F   UNL A   1      42.669  26.880  36.077  1.00  0.00    -0.203 F 
ATOM     93  F   UNL A   1      47.662  29.015  35.541  1.00  0.00    -0.200 F 
ATOM     94  C   UNL A   1      46.224  27.414  36.512  1.00  0.00     0.200 A 
ATOM     95  F   UNL A   1      44.750  25.823  37.445  1.00  0.00    -0.200 F 
ATOM     96  F   UNL A   1      47.254  26.867  37.171  1.00  0.00    -0.200 F 
ENDBRANCH  63  86
ENDBRANCH  37  38
ENDBRANCH  29  32
ENDBRANCH  27  28
ENDBRANCH  26  27
ENDBRANCH  25  26
ENDBRANCH   1  25
TORSDOF 15
ENDMDL
