MODEL 1
REMARK VINA RESULT:     -11.6      0.000      0.000
REMARK SMILES CC[NH2+][C@@]1(C(=O)NCCCCNC(=O)c2ccc(-c3c4nc(c(-c5c(F)c(F)c(F)c(F)c5F)c5ccc([nH]5)c(-c5c(F)c(F)c(F)c(F)c5F)c5nc(c(-c6c(F)c(F)c(F)c(F)c6F)c6ccc3[nH]6)C=C5)C=C4)cc2)CCC[C@@H]1CC[N@@H+](C)C1CCCC1
REMARK SMILES IDX 8 1 7 2 5 3 6 4 4 6 78 7 81 8 79 9 80 10 3 11 2 14 1 15
REMARK SMILES IDX 82 16 83 17 84 18 85 19 86 21 87 22 90 23 88 24 89 25 9 26
REMARK SMILES IDX 10 27 11 28 12 29 13 30 14 32 15 33 16 34 77 35 17 36 76 37
REMARK SMILES IDX 18 38 19 39 20 40 70 41 21 42 75 43 69 44 71 45 22 46 74 47
REMARK SMILES IDX 68 48 67 49 23 51 55 52 35 53 54 54 36 55 39 56 53 57 72 58
REMARK SMILES IDX 37 59 38 60 52 62 73 63 40 64 24 65 25 66 33 67 26 68 27 69
REMARK SMILES IDX 31 70 34 71 28 72 29 73 32 74 30 75 56 76 57 77 65 78 58 79
REMARK SMILES IDX 59 80 63 81 66 82 60 83 61 84 64 85 62 86 41 87 42 88 50 89
REMARK SMILES IDX 43 90 44 91 48 92 51 93 45 94 46 95 49 96 47 97
REMARK H PARENT 7 5 3 12 3 13 84 20 12 31 71 50 39 61
REMARK Flexibility Score: inf
ROOT
ATOM      1  C   UNL A   1      32.140  29.829  25.634  1.00  0.00     0.116 C 
ENDROOT
BRANCH   1   2
ATOM      2  N   UNL A   1      32.946  29.659  24.448  1.00  0.00    -0.351 N 
ATOM      3  C   UNL A   1      33.224  28.612  23.628  1.00  0.00     0.281 C 
ATOM      4  O   UNL A   1      34.117  28.874  22.807  1.00  0.00    -0.268 OA
ATOM      5  H   UNL A   1      33.397  30.490  24.171  1.00  0.00     0.163 HD
BRANCH   3   6
ATOM      6  C   UNL A   1      32.526  27.178  23.679  1.00  0.00     0.178 C 
ATOM      7  C   UNL A   1      33.487  26.007  23.370  1.00  0.00     0.079 C 
ATOM      8  C   UNL A   1      31.360  26.980  22.653  1.00  0.00     0.066 C 
ATOM      9  C   UNL A   1      33.060  25.389  22.038  1.00  0.00     0.008 C 
ATOM     10  C   UNL A   1      31.994  26.296  21.454  1.00  0.00     0.011 C 
BRANCH   6  11
ATOM     11  N   UNL A   1      31.907  27.016  25.031  1.00  0.00    -0.334 N 
ATOM     12  H   UNL A   1      32.110  27.857  25.570  1.00  0.00     0.347 HD
ATOM     13  H   UNL A   1      30.914  26.857  24.859  1.00  0.00     0.347 HD
BRANCH  11  14
ATOM     14  C   UNL A   1      32.356  25.866  25.813  1.00  0.00     0.257 C 
ATOM     15  C   UNL A   1      31.152  24.990  26.134  1.00  0.00     0.071 C 
ENDBRANCH  11  14
ENDBRANCH   6  11
BRANCH   8  16
ATOM     16  C   UNL A   1      30.466  28.202  22.389  1.00  0.00     0.072 C 
BRANCH  16  17
ATOM     17  C   UNL A   1      29.249  28.438  23.308  1.00  0.00     0.262 C 
BRANCH  17  18
ATOM     18  N   UNL A   1      27.951  28.803  22.701  1.00  0.00    -0.335 N 
ATOM     19  C   UNL A   1      26.871  28.206  23.511  1.00  0.00     0.332 C 
ATOM     20  H   UNL A   1      28.018  28.433  21.752  1.00  0.00     0.348 HD
BRANCH  18  21
ATOM     21  C   UNL A   1      27.652  30.231  22.486  1.00  0.00     0.183 C 
ATOM     22  C   UNL A   1      27.866  31.209  23.647  1.00  0.00     0.065 C 
ATOM     23  C   UNL A   1      28.280  30.869  21.240  1.00  0.00     0.065 C 
ATOM     24  C   UNL A   1      28.117  32.555  22.980  1.00  0.00     0.006 C 
ATOM     25  C   UNL A   1      28.822  32.227  21.673  1.00  0.00     0.006 C 
ENDBRANCH  18  21
ENDBRANCH  17  18
ENDBRANCH  16  17
ENDBRANCH   8  16
ENDBRANCH   3   6
ENDBRANCH   1   2
BRANCH   1  26
ATOM     26  C   UNL A   1      31.100  30.938  25.442  1.00  0.00     0.023 C 
BRANCH  26  27
ATOM     27  C   UNL A   1      31.084  32.008  26.528  1.00  0.00     0.023 C 
BRANCH  27  28
ATOM     28  C   UNL A   1      32.467  32.491  26.938  1.00  0.00     0.116 C 
BRANCH  28  29
ATOM     29  N   UNL A   1      32.493  33.839  27.491  1.00  0.00    -0.352 N 
ATOM     30  C   UNL A   1      33.472  34.382  28.292  1.00  0.00     0.251 C 
ATOM     31  H   UNL A   1      31.732  34.422  27.268  1.00  0.00     0.163 HD
ATOM     32  O   UNL A   1      33.373  35.510  28.758  1.00  0.00    -0.269 OA
BRANCH  30  33
ATOM     33  C   UNL A   1      34.620  33.523  28.629  1.00  0.00     0.039 A 
ATOM     34  C   UNL A   1      35.902  34.067  28.570  1.00  0.00     0.014 A 
ATOM     35  C   UNL A   1      34.396  32.253  29.162  1.00  0.00     0.014 A 
ATOM     36  C   UNL A   1      36.965  33.361  29.130  1.00  0.00     0.010 A 
ATOM     37  C   UNL A   1      35.441  31.589  29.789  1.00  0.00     0.010 A 
ATOM     38  C   UNL A   1      36.732  32.140  29.785  1.00  0.00    -0.014 A 
BRANCH  38  39
ATOM     39  C   UNL A   1      37.827  31.418  30.473  1.00  0.00     0.031 A 
ATOM     40  C   UNL A   1      38.164  31.767  31.893  1.00  0.00     0.074 A 
ATOM     41  C   UNL A   1      38.564  30.516  29.797  1.00  0.00     0.049 A 
ATOM     42  N   UNL A   1      39.135  31.321  32.647  1.00  0.00    -0.248 NA
ATOM     43  C   UNL A   1      37.317  32.782  32.541  1.00  0.00     0.031 C 
ATOM     44  C   UNL A   1      38.374  30.146  28.393  1.00  0.00     0.029 A 
ATOM     45  N   UNL A   1      39.633  29.755  30.198  1.00  0.00    -0.354 N 
ATOM     46  C   UNL A   1      39.031  32.018  33.842  1.00  0.00     0.074 A 
ATOM     47  C   UNL A   1      37.939  32.954  33.697  1.00  0.00     0.031 C 
ATOM     48  C   UNL A   1      39.278  29.210  28.058  1.00  0.00     0.029 A 
ATOM     49  C   UNL A   1      40.128  28.936  29.213  1.00  0.00     0.049 A 
ATOM     50  H   UNL A   1      40.009  29.792  31.107  1.00  0.00     0.167 HD
ATOM     51  C   UNL A   1      39.764  31.869  34.971  1.00  0.00     0.037 A 
ATOM     52  C   UNL A   1      41.151  28.063  29.244  1.00  0.00     0.037 A 
ATOM     53  C   UNL A   1      40.816  30.904  35.125  1.00  0.00     0.049 A 
ATOM     54  C   UNL A   1      41.922  27.885  30.524  1.00  0.00     0.074 A 
ATOM     55  C   UNL A   1      41.571  30.620  36.249  1.00  0.00     0.029 A 
ATOM     56  N   UNL A   1      41.256  30.054  34.120  1.00  0.00    -0.354 N 
ATOM     57  N   UNL A   1      41.768  28.497  31.673  1.00  0.00    -0.248 NA
ATOM     58  C   UNL A   1      43.002  26.890  30.516  1.00  0.00     0.031 C 
ATOM     59  C   UNL A   1      42.487  29.616  35.918  1.00  0.00     0.029 A 
ATOM     60  C   UNL A   1      42.278  29.251  34.597  1.00  0.00     0.049 A 
ATOM     61  H   UNL A   1      40.895  30.025  33.205  1.00  0.00     0.167 HD
ATOM     62  C   UNL A   1      42.709  27.944  32.529  1.00  0.00     0.074 A 
ATOM     63  C   UNL A   1      43.423  26.938  31.771  1.00  0.00     0.031 C 
ATOM     64  C   UNL A   1      42.962  28.245  33.827  1.00  0.00     0.037 A 
BRANCH  51  65
ATOM     65  C   UNL A   1      39.436  32.764  36.127  1.00  0.00     0.064 A 
ATOM     66  C   UNL A   1      40.052  34.016  36.283  1.00  0.00     0.173 A 
ATOM     67  C   UNL A   1      38.486  32.376  37.083  1.00  0.00     0.173 A 
ATOM     68  F   UNL A   1      40.981  34.424  35.405  1.00  0.00    -0.203 F 
ATOM     69  C   UNL A   1      39.750  34.833  37.368  1.00  0.00     0.198 A 
ATOM     70  C   UNL A   1      38.165  33.209  38.152  1.00  0.00     0.198 A 
ATOM     71  F   UNL A   1      37.868  31.190  36.980  1.00  0.00    -0.203 F 
ATOM     72  F   UNL A   1      40.390  36.001  37.524  1.00  0.00    -0.200 F 
ATOM     73  C   UNL A   1      38.803  34.431  38.298  1.00  0.00     0.200 A 
ATOM     74  F   UNL A   1      37.244  32.824  39.046  1.00  0.00    -0.200 F 
ATOM     75  F   UNL A   1      38.512  35.220  39.342  1.00  0.00    -0.200 F 
ENDBRANCH  51  65
BRANCH  52  76
ATOM     76  C   UNL A   1      41.482  27.258  28.040  1.00  0.00     0.064 A 
ATOM     77  C   UNL A   1      42.372  27.748  27.074  1.00  0.00     0.173 A 
ATOM     78  C   UNL A   1      40.915  25.994  27.824  1.00  0.00     0.173 A 
ATOM     79  F   UNL A   1      42.924  28.961  27.228  1.00  0.00    -0.203 F 
ATOM     80  C   UNL A   1      42.665  27.014  25.926  1.00  0.00     0.198 A 
ATOM     81  C   UNL A   1      41.228  25.251  26.688  1.00  0.00     0.198 A 
ATOM     82  F   UNL A   1      40.063  25.479  28.722  1.00  0.00    -0.203 F 
ATOM     83  F   UNL A   1      43.486  27.526  24.999  1.00  0.00    -0.200 F 
ATOM     84  C   UNL A   1      42.097  25.764  25.737  1.00  0.00     0.200 A 
ATOM     85  F   UNL A   1      40.685  24.039  26.512  1.00  0.00    -0.200 F 
ATOM     86  F   UNL A   1      42.379  25.059  24.633  1.00  0.00    -0.200 F 
ENDBRANCH  52  76
BRANCH  64  87
ATOM     87  C   UNL A   1      44.031  27.453  34.517  1.00  0.00     0.064 A 
ATOM     88  C   UNL A   1      43.750  26.229  35.140  1.00  0.00     0.173 A 
ATOM     89  C   UNL A   1      45.360  27.901  34.511  1.00  0.00     0.173 A 
ATOM     90  F   UNL A   1      42.490  25.768  35.185  1.00  0.00    -0.203 F 
ATOM     91  C   UNL A   1      44.759  25.490  35.750  1.00  0.00     0.198 A 
ATOM     92  C   UNL A   1      46.371  27.148  35.098  1.00  0.00     0.198 A 
ATOM     93  F   UNL A   1      45.679  29.064  33.921  1.00  0.00    -0.203 F 
ATOM     94  F   UNL A   1      44.463  24.342  36.373  1.00  0.00    -0.200 F 
ATOM     95  C   UNL A   1      46.070  25.946  35.722  1.00  0.00     0.200 A 
ATOM     96  F   UNL A   1      47.638  27.584  35.062  1.00  0.00    -0.200 F 
ATOM     97  F   UNL A   1      47.042  25.229  36.302  1.00  0.00    -0.200 F 
ENDBRANCH  64  87
ENDBRANCH  38  39
ENDBRANCH  30  33
ENDBRANCH  28  29
ENDBRANCH  27  28
ENDBRANCH  26  27
ENDBRANCH   1  26
TORSDOF 17
ENDMDL
MODEL 2
REMARK VINA RESULT:     -11.6      1.337      3.427
REMARK SMILES CC[NH2+][C@@]1(C(=O)NCCCCNC(=O)c2ccc(-c3c4nc(c(-c5c(F)c(F)c(F)c(F)c5F)c5ccc([nH]5)c(-c5c(F)c(F)c(F)c(F)c5F)c5nc(c(-c6c(F)c(F)c(F)c(F)c6F)c6ccc3[nH]6)C=C5)C=C4)cc2)CCC[C@@H]1CC[N@@H+](C)C1CCCC1
REMARK SMILES IDX 8 1 7 2 5 3 6 4 4 6 78 7 81 8 79 9 80 10 3 11 2 14 1 15
REMARK SMILES IDX 82 16 83 17 84 18 85 19 86 21 87 22 90 23 88 24 89 25 9 26
REMARK SMILES IDX 10 27 11 28 12 29 13 30 14 32 15 33 16 34 77 35 17 36 76 37
REMARK SMILES IDX 18 38 19 39 20 40 70 41 21 42 75 43 69 44 71 45 22 46 74 47
REMARK SMILES IDX 68 48 67 49 23 51 55 52 35 53 54 54 36 55 39 56 53 57 72 58
REMARK SMILES IDX 37 59 38 60 52 62 73 63 40 64 24 65 25 66 33 67 26 68 27 69
REMARK SMILES IDX 31 70 34 71 28 72 29 73 32 74 30 75 56 76 57 77 65 78 58 79
REMARK SMILES IDX 59 80 63 81 66 82 60 83 61 84 64 85 62 86 41 87 42 88 50 89
REMARK SMILES IDX 43 90 44 91 48 92 51 93 45 94 46 95 49 96 47 97
REMARK H PARENT 7 5 3 12 3 13 84 20 12 31 71 50 39 61
REMARK Flexibility Score: inf
ROOT
ATOM      1  C   UNL A   1      32.278  29.597  25.578  1.00  0.00     0.116 C 
ENDROOT
BRANCH   1   2
ATOM      2  N   UNL A   1      33.189  29.569  24.458  1.00  0.00    -0.351 N 
ATOM      3  C   UNL A   1      33.374  28.733  23.402  1.00  0.00     0.281 C 
ATOM      4  O   UNL A   1      34.400  28.999  22.757  1.00  0.00    -0.268 OA
ATOM      5  H   UNL A   1      33.817  30.327  24.458  1.00  0.00     0.163 HD
BRANCH   3   6
ATOM      6  C   UNL A   1      32.422  27.517  22.999  1.00  0.00     0.178 C 
ATOM      7  C   UNL A   1      30.959  27.938  22.724  1.00  0.00     0.079 C 
ATOM      8  C   UNL A   1      32.286  26.401  24.088  1.00  0.00     0.066 C 
ATOM      9  C   UNL A   1      30.084  27.340  23.825  1.00  0.00     0.008 C 
ATOM     10  C   UNL A   1      31.022  26.744  24.858  1.00  0.00     0.011 C 
BRANCH   6  11
ATOM     11  N   UNL A   1      33.016  26.844  21.803  1.00  0.00    -0.334 N 
ATOM     12  H   UNL A   1      33.042  27.525  21.043  1.00  0.00     0.347 HD
ATOM     13  H   UNL A   1      33.934  26.514  22.102  1.00  0.00     0.347 HD
BRANCH  11  14
ATOM     14  C   UNL A   1      32.315  25.659  21.314  1.00  0.00     0.257 C 
ATOM     15  C   UNL A   1      32.513  25.559  19.807  1.00  0.00     0.071 C 
ENDBRANCH  11  14
ENDBRANCH   6  11
BRANCH   8  16
ATOM     16  C   UNL A   1      33.552  26.079  24.900  1.00  0.00     0.072 C 
BRANCH  16  17
ATOM     17  C   UNL A   1      34.452  24.917  24.431  1.00  0.00     0.262 C 
BRANCH  17  18
ATOM     18  N   UNL A   1      34.379  23.622  25.140  1.00  0.00    -0.335 N 
ATOM     19  C   UNL A   1      33.459  23.766  26.285  1.00  0.00     0.332 C 
ATOM     20  H   UNL A   1      35.348  23.436  25.400  1.00  0.00     0.348 HD
BRANCH  18  21
ATOM     21  C   UNL A   1      33.999  22.421  24.373  1.00  0.00     0.183 C 
ATOM     22  C   UNL A   1      33.170  21.335  25.070  1.00  0.00     0.065 C 
ATOM     23  C   UNL A   1      33.347  22.675  23.006  1.00  0.00     0.065 C 
ATOM     24  C   UNL A   1      32.422  20.634  23.944  1.00  0.00     0.006 C 
ATOM     25  C   UNL A   1      32.169  21.713  22.902  1.00  0.00     0.006 C 
ENDBRANCH  18  21
ENDBRANCH  17  18
ENDBRANCH  16  17
ENDBRANCH   8  16
ENDBRANCH   3   6
ENDBRANCH   1   2
BRANCH   1  26
ATOM     26  C   UNL A   1      31.150  30.607  25.349  1.00  0.00     0.023 C 
BRANCH  26  27
ATOM     27  C   UNL A   1      31.094  31.756  26.350  1.00  0.00     0.023 C 
BRANCH  27  28
ATOM     28  C   UNL A   1      32.448  32.134  26.931  1.00  0.00     0.116 C 
BRANCH  28  29
ATOM     29  N   UNL A   1      32.547  33.519  27.373  1.00  0.00    -0.352 N 
ATOM     30  C   UNL A   1      33.578  34.083  28.091  1.00  0.00     0.251 C 
ATOM     31  H   UNL A   1      31.799  34.113  27.135  1.00  0.00     0.163 HD
ATOM     32  O   UNL A   1      33.540  35.247  28.469  1.00  0.00    -0.269 OA
BRANCH  30  33
ATOM     33  C   UNL A   1      34.706  33.208  28.451  1.00  0.00     0.039 A 
ATOM     34  C   UNL A   1      36.005  33.663  28.223  1.00  0.00     0.014 A 
ATOM     35  C   UNL A   1      34.465  32.031  29.163  1.00  0.00     0.014 A 
ATOM     36  C   UNL A   1      37.074  32.972  28.789  1.00  0.00     0.010 A 
ATOM     37  C   UNL A   1      35.525  31.393  29.791  1.00  0.00     0.010 A 
ATOM     38  C   UNL A   1      36.837  31.861  29.616  1.00  0.00    -0.014 A 
BRANCH  38  39
ATOM     39  C   UNL A   1      37.948  31.169  30.309  1.00  0.00     0.031 A 
ATOM     40  C   UNL A   1      38.256  31.512  31.737  1.00  0.00     0.074 A 
ATOM     41  C   UNL A   1      38.724  30.303  29.630  1.00  0.00     0.049 A 
ATOM     42  N   UNL A   1      39.234  31.091  32.497  1.00  0.00    -0.248 NA
ATOM     43  C   UNL A   1      37.366  32.489  32.386  1.00  0.00     0.031 C 
ATOM     44  C   UNL A   1      38.564  29.943  28.220  1.00  0.00     0.029 A 
ATOM     45  N   UNL A   1      39.815  29.575  30.035  1.00  0.00    -0.354 N 
ATOM     46  C   UNL A   1      39.091  31.770  33.699  1.00  0.00     0.074 A 
ATOM     47  C   UNL A   1      37.968  32.668  33.552  1.00  0.00     0.031 C 
ATOM     48  C   UNL A   1      39.505  29.044  27.885  1.00  0.00     0.029 A 
ATOM     49  C   UNL A   1      40.350  28.786  29.046  1.00  0.00     0.049 A 
ATOM     50  H   UNL A   1      40.179  29.613  30.949  1.00  0.00     0.167 HD
ATOM     51  C   UNL A   1      39.815  31.633  34.834  1.00  0.00     0.037 A 
ATOM     52  C   UNL A   1      41.403  27.949  29.080  1.00  0.00     0.037 A 
ATOM     53  C   UNL A   1      40.899  30.703  34.990  1.00  0.00     0.049 A 
ATOM     54  C   UNL A   1      42.164  27.783  30.367  1.00  0.00     0.074 A 
ATOM     55  C   UNL A   1      41.650  30.432  36.119  1.00  0.00     0.029 A 
ATOM     56  N   UNL A   1      41.381  29.882  33.980  1.00  0.00    -0.354 N 
ATOM     57  N   UNL A   1      41.976  28.375  31.521  1.00  0.00    -0.248 NA
ATOM     58  C   UNL A   1      43.279  26.826  30.359  1.00  0.00     0.031 C 
ATOM     59  C   UNL A   1      42.605  29.465  35.787  1.00  0.00     0.029 A 
ATOM     60  C   UNL A   1      42.425  29.110  34.460  1.00  0.00     0.049 A 
ATOM     61  H   UNL A   1      41.032  29.852  33.060  1.00  0.00     0.167 HD
ATOM     62  C   UNL A   1      42.925  27.845  32.382  1.00  0.00     0.074 A 
ATOM     63  C   UNL A   1      43.683  26.874  31.620  1.00  0.00     0.031 C 
ATOM     64  C   UNL A   1      43.153  28.137  33.686  1.00  0.00     0.037 A 
BRANCH  51  65
ATOM     65  C   UNL A   1      39.443  32.501  35.997  1.00  0.00     0.064 A 
ATOM     66  C   UNL A   1      40.037  33.757  36.194  1.00  0.00     0.173 A 
ATOM     67  C   UNL A   1      38.471  32.083  36.918  1.00  0.00     0.173 A 
ATOM     68  F   UNL A   1      40.985  34.194  35.351  1.00  0.00    -0.203 F 
ATOM     69  C   UNL A   1      39.693  34.550  37.285  1.00  0.00     0.198 A 
ATOM     70  C   UNL A   1      38.109  32.891  37.992  1.00  0.00     0.198 A 
ATOM     71  F   UNL A   1      37.873  30.890  36.775  1.00  0.00    -0.203 F 
ATOM     72  F   UNL A   1      40.313  35.722  37.481  1.00  0.00    -0.200 F 
ATOM     73  C   UNL A   1      38.726  34.118  38.180  1.00  0.00     0.200 A 
ATOM     74  F   UNL A   1      37.168  32.477  38.853  1.00  0.00    -0.200 F 
ATOM     75  F   UNL A   1      38.394  34.883  39.229  1.00  0.00    -0.200 F 
ENDBRANCH  51  65
BRANCH  52  76
ATOM     76  C   UNL A   1      41.776  27.171  27.870  1.00  0.00     0.064 A 
ATOM     77  C   UNL A   1      42.673  27.697  26.929  1.00  0.00     0.173 A 
ATOM     78  C   UNL A   1      41.243  25.898  27.624  1.00  0.00     0.173 A 
ATOM     79  F   UNL A   1      43.193  28.920  27.113  1.00  0.00    -0.203 F 
ATOM     80  C   UNL A   1      43.006  26.988  25.777  1.00  0.00     0.198 A 
ATOM     81  C   UNL A   1      41.596  25.181  26.482  1.00  0.00     0.198 A 
ATOM     82  F   UNL A   1      40.386  25.349  28.496  1.00  0.00    -0.203 F 
ATOM     83  F   UNL A   1      43.832  27.534  24.874  1.00  0.00    -0.200 F 
ATOM     84  C   UNL A   1      42.470  25.729  25.557  1.00  0.00     0.200 A 
ATOM     85  F   UNL A   1      41.085  23.959  26.278  1.00  0.00    -0.200 F 
ATOM     86  F   UNL A   1      42.791  25.048  24.448  1.00  0.00    -0.200 F 
ENDBRANCH  52  76
BRANCH  64  87
ATOM     87  C   UNL A   1      44.241  27.375  34.379  1.00  0.00     0.064 A 
ATOM     88  C   UNL A   1      45.549  27.871  34.457  1.00  0.00     0.173 A 
ATOM     89  C   UNL A   1      43.956  26.157  35.015  1.00  0.00     0.173 A 
ATOM     90  F   UNL A   1      45.871  29.024  33.850  1.00  0.00    -0.203 F 
ATOM     91  C   UNL A   1      46.541  27.165  35.132  1.00  0.00     0.198 A 
ATOM     92  C   UNL A   1      44.943  25.466  35.710  1.00  0.00     0.198 A 
ATOM     93  F   UNL A   1      42.716  25.645  34.973  1.00  0.00    -0.203 F 
ATOM     94  F   UNL A   1      47.794  27.638  35.162  1.00  0.00    -0.200 F 
ATOM     95  C   UNL A   1      46.236  25.968  35.764  1.00  0.00     0.200 A 
ATOM     96  F   UNL A   1      44.646  24.316  36.330  1.00  0.00    -0.200 F 
ATOM     97  F   UNL A   1      47.190  25.294  36.421  1.00  0.00    -0.200 F 
ENDBRANCH  64  87
ENDBRANCH  38  39
ENDBRANCH  30  33
ENDBRANCH  28  29
ENDBRANCH  27  28
ENDBRANCH  26  27
ENDBRANCH   1  26
TORSDOF 17
ENDMDL
MODEL 3
REMARK VINA RESULT:     -11.6      4.197      8.975
REMARK SMILES CC[NH2+][C@@]1(C(=O)NCCCCNC(=O)c2ccc(-c3c4nc(c(-c5c(F)c(F)c(F)c(F)c5F)c5ccc([nH]5)c(-c5c(F)c(F)c(F)c(F)c5F)c5nc(c(-c6c(F)c(F)c(F)c(F)c6F)c6ccc3[nH]6)C=C5)C=C4)cc2)CCC[C@@H]1CC[N@@H+](C)C1CCCC1
REMARK SMILES IDX 8 1 7 2 5 3 6 4 4 6 78 7 81 8 79 9 80 10 3 11 2 14 1 15
REMARK SMILES IDX 82 16 83 17 84 18 85 19 86 21 87 22 90 23 88 24 89 25 9 26
REMARK SMILES IDX 10 27 11 28 12 29 13 30 14 32 15 33 16 34 77 35 17 36 76 37
REMARK SMILES IDX 18 38 19 39 20 40 70 41 21 42 75 43 69 44 71 45 22 46 74 47
REMARK SMILES IDX 68 48 67 49 23 51 55 52 35 53 54 54 36 55 39 56 53 57 72 58
REMARK SMILES IDX 37 59 38 60 52 62 73 63 40 64 24 65 25 66 33 67 26 68 27 69
REMARK SMILES IDX 31 70 34 71 28 72 29 73 32 74 30 75 56 76 57 77 65 78 58 79
REMARK SMILES IDX 59 80 63 81 66 82 60 83 61 84 64 85 62 86 41 87 42 88 50 89
REMARK SMILES IDX 43 90 44 91 48 92 51 93 45 94 46 95 49 96 47 97
REMARK H PARENT 7 5 3 12 3 13 84 20 12 31 71 50 39 61
REMARK Flexibility Score: inf
ROOT
ATOM      1  C   UNL A   1      33.236  21.698  26.019  1.00  0.00     0.116 C 
ENDROOT
BRANCH   1   2
ATOM      2  N   UNL A   1      32.074  22.278  26.651  1.00  0.00    -0.351 N 
ATOM      3  C   UNL A   1      31.279  23.347  26.383  1.00  0.00     0.281 C 
ATOM      4  O   UNL A   1      30.476  23.585  27.299  1.00  0.00    -0.268 OA
ATOM      5  H   UNL A   1      31.794  21.787  27.458  1.00  0.00     0.163 HD
BRANCH   3   6
ATOM      6  C   UNL A   1      31.338  24.244  25.064  1.00  0.00     0.178 C 
ATOM      7  C   UNL A   1      31.878  23.492  23.825  1.00  0.00     0.079 C 
ATOM      8  C   UNL A   1      32.264  25.501  25.166  1.00  0.00     0.066 C 
ATOM      9  C   UNL A   1      33.229  24.106  23.457  1.00  0.00     0.008 C 
ATOM     10  C   UNL A   1      33.593  25.069  24.570  1.00  0.00     0.011 C 
BRANCH   6  11
ATOM     11  N   UNL A   1      29.963  24.774  24.807  1.00  0.00    -0.334 N 
ATOM     12  H   UNL A   1      29.347  23.977  24.645  1.00  0.00     0.347 HD
ATOM     13  H   UNL A   1      29.725  25.328  25.629  1.00  0.00     0.347 HD
BRANCH  11  14
ATOM     14  C   UNL A   1      29.824  25.683  23.671  1.00  0.00     0.257 C 
ATOM     15  C   UNL A   1      28.649  26.617  23.931  1.00  0.00     0.071 C 
ENDBRANCH  11  14
ENDBRANCH   6  11
BRANCH   8  16
ATOM     16  C   UNL A   1      32.290  26.223  26.524  1.00  0.00     0.072 C 
BRANCH  16  17
ATOM     17  C   UNL A   1      31.634  27.616  26.631  1.00  0.00     0.262 C 
BRANCH  17  18
ATOM     18  N   UNL A   1      32.459  28.818  26.387  1.00  0.00    -0.335 N 
ATOM     19  C   UNL A   1      33.752  28.646  27.077  1.00  0.00     0.332 C 
ATOM     20  H   UNL A   1      31.887  29.580  26.752  1.00  0.00     0.348 HD
BRANCH  18  21
ATOM     21  C   UNL A   1      32.714  29.226  24.993  1.00  0.00     0.183 C 
ATOM     22  C   UNL A   1      33.975  28.705  24.293  1.00  0.00     0.065 C 
ATOM     23  C   UNL A   1      31.547  29.036  24.013  1.00  0.00     0.065 C 
ATOM     24  C   UNL A   1      33.633  28.724  22.810  1.00  0.00     0.006 C 
ATOM     25  C   UNL A   1      32.140  28.442  22.741  1.00  0.00     0.006 C 
ENDBRANCH  18  21
ENDBRANCH  17  18
ENDBRANCH  16  17
ENDBRANCH   8  16
ENDBRANCH   3   6
ENDBRANCH   1   2
BRANCH   1  26
ATOM     26  C   UNL A   1      34.525  22.360  26.516  1.00  0.00     0.023 C 
BRANCH  26  27
ATOM     27  C   UNL A   1      35.733  22.200  25.600  1.00  0.00     0.023 C 
BRANCH  27  28
ATOM     28  C   UNL A   1      36.944  23.014  26.028  1.00  0.00     0.116 C 
BRANCH  28  29
ATOM     29  N   UNL A   1      38.195  22.266  26.048  1.00  0.00    -0.352 N 
ATOM     30  C   UNL A   1      39.428  22.734  26.442  1.00  0.00     0.251 C 
ATOM     31  H   UNL A   1      38.153  21.329  25.749  1.00  0.00     0.163 HD
ATOM     32  O   UNL A   1      40.435  22.043  26.366  1.00  0.00    -0.269 OA
BRANCH  30  33
ATOM     33  C   UNL A   1      39.504  24.133  26.897  1.00  0.00     0.039 A 
ATOM     34  C   UNL A   1      39.182  24.423  28.223  1.00  0.00     0.014 A 
ATOM     35  C   UNL A   1      40.057  25.101  26.057  1.00  0.00     0.014 A 
ATOM     36  C   UNL A   1      39.495  25.680  28.737  1.00  0.00     0.010 A 
ATOM     37  C   UNL A   1      40.441  26.321  26.594  1.00  0.00     0.010 A 
ATOM     38  C   UNL A   1      40.170  26.619  27.939  1.00  0.00    -0.014 A 
BRANCH  38  39
ATOM     39  C   UNL A   1      40.603  27.924  28.490  1.00  0.00     0.031 A 
ATOM     40  C   UNL A   1      42.046  28.136  28.840  1.00  0.00     0.074 A 
ATOM     41  C   UNL A   1      39.688  28.877  28.751  1.00  0.00     0.049 A 
ATOM     42  N   UNL A   1      42.617  29.165  29.412  1.00  0.00    -0.248 NA
ATOM     43  C   UNL A   1      42.967  27.027  28.540  1.00  0.00     0.031 C 
ATOM     44  C   UNL A   1      38.247  28.759  28.518  1.00  0.00     0.029 A 
ATOM     45  N   UNL A   1      39.834  30.133  29.285  1.00  0.00    -0.354 N 
ATOM     46  C   UNL A   1      43.951  28.816  29.563  1.00  0.00     0.074 A 
ATOM     47  C   UNL A   1      44.097  27.464  29.074  1.00  0.00     0.031 C 
ATOM     48  C   UNL A   1      37.647  29.904  28.882  1.00  0.00     0.029 A 
ATOM     49  C   UNL A   1      38.653  30.825  29.399  1.00  0.00     0.049 A 
ATOM     50  H   UNL A   1      40.704  30.504  29.558  1.00  0.00     0.167 HD
ATOM     51  C   UNL A   1      44.970  29.569  30.041  1.00  0.00     0.037 A 
ATOM     52  C   UNL A   1      38.416  32.064  29.867  1.00  0.00     0.037 A 
ATOM     53  C   UNL A   1      44.828  30.929  30.480  1.00  0.00     0.049 A 
ATOM     54  C   UNL A   1      39.572  32.896  30.352  1.00  0.00     0.074 A 
ATOM     55  C   UNL A   1      45.807  31.805  30.912  1.00  0.00     0.029 A 
ATOM     56  N   UNL A   1      43.623  31.615  30.533  1.00  0.00    -0.354 N 
ATOM     57  N   UNL A   1      40.844  32.583  30.422  1.00  0.00    -0.248 NA
ATOM     58  C   UNL A   1      39.264  34.256  30.814  1.00  0.00     0.031 C 
ATOM     59  C   UNL A   1      45.192  33.014  31.253  1.00  0.00     0.029 A 
ATOM     60  C   UNL A   1      43.834  32.902  30.999  1.00  0.00     0.049 A 
ATOM     61  H   UNL A   1      42.748  31.243  30.277  1.00  0.00     0.167 HD
ATOM     62  C   UNL A   1      41.488  33.711  30.908  1.00  0.00     0.074 A 
ATOM     63  C   UNL A   1      40.469  34.722  31.105  1.00  0.00     0.031 C 
ATOM     64  C   UNL A   1      42.805  33.894  31.171  1.00  0.00     0.037 A 
BRANCH  51  65
ATOM     65  C   UNL A   1      46.327  28.936  30.095  1.00  0.00     0.064 A 
ATOM     66  C   UNL A   1      46.744  28.191  31.210  1.00  0.00     0.173 A 
ATOM     67  C   UNL A   1      47.216  29.060  29.019  1.00  0.00     0.173 A 
ATOM     68  F   UNL A   1      45.936  28.058  32.273  1.00  0.00    -0.203 F 
ATOM     69  C   UNL A   1      48.012  27.618  31.255  1.00  0.00     0.198 A 
ATOM     70  C   UNL A   1      48.473  28.462  29.056  1.00  0.00     0.198 A 
ATOM     71  F   UNL A   1      46.866  29.762  27.929  1.00  0.00    -0.203 F 
ATOM     72  F   UNL A   1      48.407  26.956  32.352  1.00  0.00    -0.200 F 
ATOM     73  C   UNL A   1      48.873  27.750  30.176  1.00  0.00     0.200 A 
ATOM     74  F   UNL A   1      49.302  28.582  28.009  1.00  0.00    -0.200 F 
ATOM     75  F   UNL A   1      50.092  27.197  30.221  1.00  0.00    -0.200 F 
ENDBRANCH  51  65
BRANCH  52  76
ATOM     76  C   UNL A   1      37.035  32.612  29.862  1.00  0.00     0.064 A 
ATOM     77  C   UNL A   1      36.549  33.317  28.751  1.00  0.00     0.173 A 
ATOM     78  C   UNL A   1      36.179  32.453  30.960  1.00  0.00     0.173 A 
ATOM     79  F   UNL A   1      37.340  33.511  27.685  1.00  0.00    -0.203 F 
ATOM     80  C   UNL A   1      35.266  33.860  28.748  1.00  0.00     0.198 A 
ATOM     81  C   UNL A   1      34.888  32.977  30.946  1.00  0.00     0.198 A 
ATOM     82  F   UNL A   1      36.595  31.782  32.044  1.00  0.00    -0.203 F 
ATOM     83  F   UNL A   1      34.844  34.566  27.691  1.00  0.00    -0.200 F 
ATOM     84  C   UNL A   1      34.435  33.686  29.844  1.00  0.00     0.200 A 
ATOM     85  F   UNL A   1      34.083  32.797  32.002  1.00  0.00    -0.200 F 
ATOM     86  F   UNL A   1      33.202  34.209  29.840  1.00  0.00    -0.200 F 
ENDBRANCH  52  76
BRANCH  64  87
ATOM     87  C   UNL A   1      43.223  35.246  31.666  1.00  0.00     0.064 A 
ATOM     88  C   UNL A   1      43.252  35.550  33.034  1.00  0.00     0.173 A 
ATOM     89  C   UNL A   1      43.647  36.230  30.761  1.00  0.00     0.173 A 
ATOM     90  F   UNL A   1      42.840  34.644  33.934  1.00  0.00    -0.203 F 
ATOM     91  C   UNL A   1      43.672  36.800  33.478  1.00  0.00     0.198 A 
ATOM     92  C   UNL A   1      44.092  37.470  31.210  1.00  0.00     0.198 A 
ATOM     93  F   UNL A   1      43.644  35.984  29.441  1.00  0.00    -0.203 F 
ATOM     94  F   UNL A   1      43.656  37.083  34.788  1.00  0.00    -0.200 F 
ATOM     95  C   UNL A   1      44.099  37.755  32.567  1.00  0.00     0.200 A 
ATOM     96  F   UNL A   1      44.513  38.389  30.330  1.00  0.00    -0.200 F 
ATOM     97  F   UNL A   1      44.512  38.955  32.998  1.00  0.00    -0.200 F 
ENDBRANCH  64  87
ENDBRANCH  38  39
ENDBRANCH  30  33
ENDBRANCH  28  29
ENDBRANCH  27  28
ENDBRANCH  26  27
ENDBRANCH   1  26
TORSDOF 17
ENDMDL
