MODEL 1
REMARK VINA RESULT:     -11.3      0.000      0.000
REMARK SMILES [NH3+]CCOCC(=O)N[C@H](C(=O)NCCCCNC(=O)c1ccc(-c2c3nc(c(-c4c(F)c(F)c(F)c(F)c4F)c4ccc([nH]4)c(-c4c(F)c(F)c(F)c(F)c4F)c4nc(c(-c5c(F)c(F)c(F)c(F)c5F)c5ccc2[nH]5)C=C4)C=C3)cc1)c1ccccc1
REMARK SMILES IDX 10 1 11 2 12 3 9 5 8 6 6 7 7 8 5 10 4 11 3 12 2 13 1 14
REMARK SMILES IDX 83 18 84 19 88 20 85 21 87 22 86 23 13 24 14 25 15 26 16 27
REMARK SMILES IDX 17 28 18 29 19 31 20 32 21 33 82 34 22 35 81 36 23 37 24 38
REMARK SMILES IDX 25 39 75 40 26 41 80 42 74 43 76 44 27 45 79 46 73 47 72 48
REMARK SMILES IDX 28 50 60 51 40 52 59 53 41 54 44 55 58 56 77 57 42 58 43 59
REMARK SMILES IDX 57 61 78 62 45 63 29 64 30 65 38 66 31 67 32 68 36 69 39 70
REMARK SMILES IDX 33 71 34 72 37 73 35 74 61 75 62 76 70 77 63 78 64 79 68 80
REMARK SMILES IDX 71 81 65 82 66 83 69 84 67 85 46 86 47 87 55 88 48 89 49 90
REMARK SMILES IDX 53 91 56 92 50 93 51 94 54 95 52 96
REMARK H PARENT 12 4 8 9 1 15 1 16 1 17 17 30 76 49 44 60
REMARK Flexibility Score: inf
ROOT
ATOM      1  C   UNL A   1      33.529  28.759  24.809  1.00  0.00     0.247 C 
ATOM      2  O   UNL A   1      34.254  28.736  23.810  1.00  0.00    -0.272 OA
ATOM      3  N   UNL A   1      33.843  29.654  25.796  1.00  0.00    -0.354 N 
ATOM      4  H   UNL A   1      34.682  30.153  25.670  1.00  0.00     0.163 HD
ENDROOT
BRANCH   1   5
ATOM      5  C   UNL A   1      32.223  27.901  24.888  1.00  0.00     0.202 C 
BRANCH   5   6
ATOM      6  N   UNL A   1      31.609  27.770  23.556  1.00  0.00    -0.339 N 
ATOM      7  C   UNL A   1      30.584  28.455  22.983  1.00  0.00     0.246 C 
ATOM      8  O   UNL A   1      30.205  28.075  21.869  1.00  0.00    -0.272 OA
ATOM      9  H   UNL A   1      32.007  27.073  22.986  1.00  0.00     0.164 HD
BRANCH   7  10
ATOM     10  C   UNL A   1      29.973  29.705  23.632  1.00  0.00     0.260 C 
BRANCH  10  11
ATOM     11  O   UNL A   1      29.466  30.698  22.768  1.00  0.00    -0.366 OA
BRANCH  11  12
ATOM     12  C   UNL A   1      28.542  31.615  23.353  1.00  0.00     0.222 C 
BRANCH  12  13
ATOM     13  C   UNL A   1      28.702  33.075  22.892  1.00  0.00     0.287 C 
BRANCH  13  14
ATOM     14  N   UNL A   1      29.838  33.803  23.463  1.00  0.00    -0.356 N 
ATOM     15  H   UNL A   1      30.173  34.494  22.791  1.00  0.00     0.344 HD
ATOM     16  H   UNL A   1      30.589  33.146  23.679  1.00  0.00     0.344 HD
ATOM     17  H   UNL A   1      29.545  34.275  24.318  1.00  0.00     0.344 HD
ENDBRANCH  13  14
ENDBRANCH  12  13
ENDBRANCH  11  12
ENDBRANCH  10  11
ENDBRANCH   7  10
ENDBRANCH   5   6
BRANCH   5  18
ATOM     18  C   UNL A   1      32.572  26.546  25.540  1.00  0.00    -0.016 A 
ATOM     19  C   UNL A   1      33.866  26.012  25.355  1.00  0.00     0.006 A 
ATOM     20  C   UNL A   1      31.656  25.764  26.266  1.00  0.00     0.006 A 
ATOM     21  C   UNL A   1      34.189  24.715  25.762  1.00  0.00     0.000 A 
ATOM     22  C   UNL A   1      31.981  24.464  26.673  1.00  0.00     0.000 A 
ATOM     23  C   UNL A   1      33.237  23.932  26.400  1.00  0.00     0.000 A 
ENDBRANCH   5  18
ENDBRANCH   1   5
BRANCH   3  24
ATOM     24  C   UNL A   1      33.102  29.960  27.001  1.00  0.00     0.116 C 
BRANCH  24  25
ATOM     25  C   UNL A   1      31.723  30.525  26.669  1.00  0.00     0.023 C 
BRANCH  25  26
ATOM     26  C   UNL A   1      31.678  32.045  26.563  1.00  0.00     0.023 C 
BRANCH  26  27
ATOM     27  C   UNL A   1      32.730  32.750  27.397  1.00  0.00     0.116 C 
BRANCH  27  28
ATOM     28  N   UNL A   1      32.419  34.148  27.662  1.00  0.00    -0.352 N 
ATOM     29  C   UNL A   1      33.007  34.974  28.587  1.00  0.00     0.251 C 
ATOM     30  H   UNL A   1      31.706  34.547  27.115  1.00  0.00     0.163 HD
ATOM     31  O   UNL A   1      32.591  36.110  28.784  1.00  0.00    -0.269 OA
BRANCH  29  32
ATOM     32  C   UNL A   1      34.130  34.436  29.372  1.00  0.00     0.039 A 
ATOM     33  C   UNL A   1      33.857  33.688  30.515  1.00  0.00     0.014 A 
ATOM     34  C   UNL A   1      35.439  34.597  28.909  1.00  0.00     0.014 A 
ATOM     35  C   UNL A   1      34.907  33.056  31.175  1.00  0.00     0.010 A 
ATOM     36  C   UNL A   1      36.464  33.880  29.502  1.00  0.00     0.010 A 
ATOM     37  C   UNL A   1      36.212  33.128  30.659  1.00  0.00    -0.014 A 
BRANCH  37  38
ATOM     38  C   UNL A   1      37.342  32.473  31.354  1.00  0.00     0.031 A 
ATOM     39  C   UNL A   1      38.079  31.356  30.670  1.00  0.00     0.074 A 
ATOM     40  C   UNL A   1      37.667  32.851  32.605  1.00  0.00     0.049 A 
ATOM     41  N   UNL A   1      39.080  30.636  31.104  1.00  0.00    -0.248 NA
ATOM     42  C   UNL A   1      37.601  30.967  29.332  1.00  0.00     0.031 C 
ATOM     43  C   UNL A   1      36.971  33.870  33.391  1.00  0.00     0.029 A 
ATOM     44  N   UNL A   1      38.673  32.423  33.431  1.00  0.00    -0.354 N 
ATOM     45  C   UNL A   1      39.333  29.704  30.106  1.00  0.00     0.074 A 
ATOM     46  C   UNL A   1      38.334  29.895  29.080  1.00  0.00     0.031 C 
ATOM     47  C   UNL A   1      37.595  34.017  34.570  1.00  0.00     0.029 A 
ATOM     48  C   UNL A   1      38.719  33.088  34.630  1.00  0.00     0.049 A 
ATOM     49  H   UNL A   1      39.303  31.706  33.188  1.00  0.00     0.167 HD
ATOM     50  C   UNL A   1      40.335  28.797  30.033  1.00  0.00     0.037 A 
ATOM     51  C   UNL A   1      39.586  32.965  35.654  1.00  0.00     0.037 A 
ATOM     52  C   UNL A   1      41.352  28.651  31.037  1.00  0.00     0.049 A 
ATOM     53  C   UNL A   1      40.718  31.984  35.527  1.00  0.00     0.074 A 
ATOM     54  C   UNL A   1      42.453  27.816  31.037  1.00  0.00     0.029 A 
ATOM     55  N   UNL A   1      41.391  29.371  32.222  1.00  0.00    -0.354 N 
ATOM     56  N   UNL A   1      40.999  31.163  34.543  1.00  0.00    -0.248 NA
ATOM     57  C   UNL A   1      41.666  31.922  36.648  1.00  0.00     0.031 C 
ATOM     58  C   UNL A   1      43.140  28.005  32.241  1.00  0.00     0.029 A 
ATOM     59  C   UNL A   1      42.492  28.990  32.970  1.00  0.00     0.049 A 
ATOM     60  H   UNL A   1      40.732  30.052  32.493  1.00  0.00     0.167 HD
ATOM     61  C   UNL A   1      42.165  30.507  34.911  1.00  0.00     0.074 A 
ATOM     62  C   UNL A   1      42.552  31.043  36.202  1.00  0.00     0.031 C 
ATOM     63  C   UNL A   1      42.854  29.546  34.248  1.00  0.00     0.037 A 
BRANCH  50  64
ATOM     64  C   UNL A   1      40.380  27.916  28.818  1.00  0.00     0.064 A 
ATOM     65  C   UNL A   1      39.696  26.692  28.771  1.00  0.00     0.173 A 
ATOM     66  C   UNL A   1      41.113  28.300  27.686  1.00  0.00     0.173 A 
ATOM     67  F   UNL A   1      38.996  26.267  29.834  1.00  0.00    -0.203 F 
ATOM     68  C   UNL A   1      39.773  25.869  27.650  1.00  0.00     0.198 A 
ATOM     69  C   UNL A   1      41.160  27.491  26.554  1.00  0.00     0.198 A 
ATOM     70  F   UNL A   1      41.786  29.461  27.676  1.00  0.00    -0.203 F 
ATOM     71  F   UNL A   1      39.163  24.675  27.655  1.00  0.00    -0.200 F 
ATOM     72  C   UNL A   1      40.499  26.272  26.540  1.00  0.00     0.200 A 
ATOM     73  F   UNL A   1      41.855  27.886  25.478  1.00  0.00    -0.200 F 
ATOM     74  F   UNL A   1      40.571  25.480  25.462  1.00  0.00    -0.200 F 
ENDBRANCH  50  64
BRANCH  51  75
ATOM     75  C   UNL A   1      39.449  33.831  36.853  1.00  0.00     0.064 A 
ATOM     76  C   UNL A   1      38.752  33.387  37.986  1.00  0.00     0.173 A 
ATOM     77  C   UNL A   1      40.008  35.117  36.895  1.00  0.00     0.173 A 
ATOM     78  F   UNL A   1      38.186  32.171  37.988  1.00  0.00    -0.203 F 
ATOM     79  C   UNL A   1      38.597  34.204  39.104  1.00  0.00     0.198 A 
ATOM     80  C   UNL A   1      39.875  35.923  38.025  1.00  0.00     0.198 A 
ATOM     81  F   UNL A   1      40.692  35.586  35.842  1.00  0.00    -0.203 F 
ATOM     82  F   UNL A   1      37.885  33.771  40.154  1.00  0.00    -0.200 F 
ATOM     83  C   UNL A   1      39.162  35.470  39.124  1.00  0.00     0.200 A 
ATOM     84  F   UNL A   1      40.436  37.140  38.047  1.00  0.00    -0.200 F 
ATOM     85  F   UNL A   1      39.014  36.254  40.200  1.00  0.00    -0.200 F 
ENDBRANCH  51  75
BRANCH  63  86
ATOM     86  C   UNL A   1      44.107  29.037  34.897  1.00  0.00     0.064 A 
ATOM     87  C   UNL A   1      44.090  27.926  35.755  1.00  0.00     0.173 A 
ATOM     88  C   UNL A   1      45.341  29.648  34.633  1.00  0.00     0.173 A 
ATOM     89  F   UNL A   1      42.932  27.317  36.047  1.00  0.00    -0.203 F 
ATOM     90  C   UNL A   1      45.261  27.468  36.350  1.00  0.00     0.198 A 
ATOM     91  C   UNL A   1      46.514  29.166  35.205  1.00  0.00     0.198 A 
ATOM     92  F   UNL A   1      45.410  30.707  33.813  1.00  0.00    -0.203 F 
ATOM     93  F   UNL A   1      45.215  26.439  37.208  1.00  0.00    -0.200 F 
ATOM     94  C   UNL A   1      46.472  28.083  36.070  1.00  0.00     0.200 A 
ATOM     95  F   UNL A   1      47.686  29.753  34.922  1.00  0.00    -0.200 F 
ATOM     96  F   UNL A   1      47.598  27.637  36.641  1.00  0.00    -0.200 F 
ENDBRANCH  63  86
ENDBRANCH  37  38
ENDBRANCH  29  32
ENDBRANCH  27  28
ENDBRANCH  26  27
ENDBRANCH  25  26
ENDBRANCH  24  25
ENDBRANCH   3  24
TORSDOF 18
ENDMDL
MODEL 2
REMARK VINA RESULT:     -11.1      2.505      8.185
REMARK SMILES [NH3+]CCOCC(=O)N[C@H](C(=O)NCCCCNC(=O)c1ccc(-c2c3nc(c(-c4c(F)c(F)c(F)c(F)c4F)c4ccc([nH]4)c(-c4c(F)c(F)c(F)c(F)c4F)c4nc(c(-c5c(F)c(F)c(F)c(F)c5F)c5ccc2[nH]5)C=C4)C=C3)cc1)c1ccccc1
REMARK SMILES IDX 10 1 11 2 12 3 9 5 8 6 6 7 7 8 5 10 4 11 3 12 2 13 1 14
REMARK SMILES IDX 83 18 84 19 88 20 85 21 87 22 86 23 13 24 14 25 15 26 16 27
REMARK SMILES IDX 17 28 18 29 19 31 20 32 21 33 82 34 22 35 81 36 23 37 24 38
REMARK SMILES IDX 25 39 75 40 26 41 80 42 74 43 76 44 27 45 79 46 73 47 72 48
REMARK SMILES IDX 28 50 60 51 40 52 59 53 41 54 44 55 58 56 77 57 42 58 43 59
REMARK SMILES IDX 57 61 78 62 45 63 29 64 30 65 38 66 31 67 32 68 36 69 39 70
REMARK SMILES IDX 33 71 34 72 37 73 35 74 61 75 62 76 70 77 63 78 64 79 68 80
REMARK SMILES IDX 71 81 65 82 66 83 69 84 67 85 46 86 47 87 55 88 48 89 49 90
REMARK SMILES IDX 53 91 56 92 50 93 51 94 54 95 52 96
REMARK H PARENT 12 4 8 9 1 15 1 16 1 17 17 30 76 49 44 60
REMARK Flexibility Score: inf
ROOT
ATOM      1  C   UNL A   1      33.241  25.426  21.991  1.00  0.00     0.247 C 
ATOM      2  O   UNL A   1      33.279  25.254  20.769  1.00  0.00    -0.272 OA
ATOM      3  N   UNL A   1      33.174  26.715  22.445  1.00  0.00    -0.354 N 
ATOM      4  H   UNL A   1      33.252  27.415  21.758  1.00  0.00     0.163 HD
ENDROOT
BRANCH   1   5
ATOM      5  C   UNL A   1      33.131  24.218  22.980  1.00  0.00     0.202 C 
BRANCH   5   6
ATOM      6  N   UNL A   1      32.589  23.034  22.293  1.00  0.00    -0.339 N 
ATOM      7  C   UNL A   1      32.255  21.808  22.775  1.00  0.00     0.246 C 
ATOM      8  O   UNL A   1      31.903  20.955  21.952  1.00  0.00    -0.272 OA
ATOM      9  H   UNL A   1      32.444  23.150  21.326  1.00  0.00     0.164 HD
BRANCH   7  10
ATOM     10  C   UNL A   1      32.219  21.503  24.280  1.00  0.00     0.260 C 
BRANCH  10  11
ATOM     11  O   UNL A   1      31.126  22.009  25.015  1.00  0.00    -0.366 OA
BRANCH  11  12
ATOM     12  C   UNL A   1      31.448  22.964  26.023  1.00  0.00     0.222 C 
BRANCH  12  13
ATOM     13  C   UNL A   1      30.395  23.107  27.138  1.00  0.00     0.287 C 
BRANCH  13  14
ATOM     14  N   UNL A   1      29.164  22.335  26.954  1.00  0.00    -0.356 N 
ATOM     15  H   UNL A   1      28.412  22.758  27.499  1.00  0.00     0.344 HD
ATOM     16  H   UNL A   1      29.315  21.376  27.269  1.00  0.00     0.344 HD
ATOM     17  H   UNL A   1      28.908  22.332  25.967  1.00  0.00     0.344 HD
ENDBRANCH  13  14
ENDBRANCH  12  13
ENDBRANCH  11  12
ENDBRANCH  10  11
ENDBRANCH   7  10
ENDBRANCH   5   6
BRANCH   5  18
ATOM     18  C   UNL A   1      34.521  23.981  23.611  1.00  0.00    -0.016 A 
ATOM     19  C   UNL A   1      35.493  23.270  22.874  1.00  0.00     0.006 A 
ATOM     20  C   UNL A   1      34.870  24.377  24.914  1.00  0.00     0.006 A 
ATOM     21  C   UNL A   1      36.699  22.866  23.451  1.00  0.00     0.000 A 
ATOM     22  C   UNL A   1      36.080  23.972  25.491  1.00  0.00     0.000 A 
ATOM     23  C   UNL A   1      36.982  23.197  24.769  1.00  0.00     0.000 A 
ENDBRANCH   5  18
ENDBRANCH   1   5
BRANCH   3  24
ATOM     24  C   UNL A   1      33.005  27.181  23.806  1.00  0.00     0.116 C 
BRANCH  24  25
ATOM     25  C   UNL A   1      33.230  28.688  23.901  1.00  0.00     0.023 C 
BRANCH  25  26
ATOM     26  C   UNL A   1      32.355  29.386  24.936  1.00  0.00     0.023 C 
BRANCH  26  27
ATOM     27  C   UNL A   1      33.114  29.873  26.155  1.00  0.00     0.116 C 
BRANCH  27  28
ATOM     28  N   UNL A   1      32.795  31.244  26.530  1.00  0.00    -0.352 N 
ATOM     29  C   UNL A   1      33.502  32.066  27.370  1.00  0.00     0.251 C 
ATOM     30  H   UNL A   1      31.979  31.624  26.133  1.00  0.00     0.163 HD
ATOM     31  O   UNL A   1      33.079  33.173  27.684  1.00  0.00    -0.269 OA
BRANCH  29  32
ATOM     32  C   UNL A   1      34.768  31.559  27.922  1.00  0.00     0.039 A 
ATOM     33  C   UNL A   1      35.843  32.436  28.062  1.00  0.00     0.014 A 
ATOM     34  C   UNL A   1      34.843  30.244  28.389  1.00  0.00     0.014 A 
ATOM     35  C   UNL A   1      36.990  31.999  28.718  1.00  0.00     0.010 A 
ATOM     36  C   UNL A   1      35.940  29.848  29.135  1.00  0.00     0.010 A 
ATOM     37  C   UNL A   1      37.036  30.711  29.280  1.00  0.00    -0.014 A 
BRANCH  37  38
ATOM     38  C   UNL A   1      38.251  30.227  29.969  1.00  0.00     0.031 A 
ATOM     39  C   UNL A   1      38.520  30.664  31.382  1.00  0.00     0.074 A 
ATOM     40  C   UNL A   1      39.123  29.438  29.313  1.00  0.00     0.049 A 
ATOM     41  N   UNL A   1      39.530  30.375  32.161  1.00  0.00    -0.248 NA
ATOM     42  C   UNL A   1      37.543  31.586  31.989  1.00  0.00     0.031 C 
ATOM     43  C   UNL A   1      39.000  29.015  27.918  1.00  0.00     0.029 A 
ATOM     44  N   UNL A   1      40.285  28.848  29.738  1.00  0.00    -0.354 N 
ATOM     45  C   UNL A   1      39.317  31.092  33.332  1.00  0.00     0.074 A 
ATOM     46  C   UNL A   1      38.129  31.889  33.135  1.00  0.00     0.031 C 
ATOM     47  C   UNL A   1      40.023  28.200  27.614  1.00  0.00     0.029 A 
ATOM     48  C   UNL A   1      40.883  28.064  28.785  1.00  0.00     0.049 A 
ATOM     49  H   UNL A   1      40.654  28.975  30.642  1.00  0.00     0.167 HD
ATOM     50  C   UNL A   1      40.026  31.056  34.483  1.00  0.00     0.037 A 
ATOM     51  C   UNL A   1      41.996  27.309  28.861  1.00  0.00     0.037 A 
ATOM     52  C   UNL A   1      41.177  30.220  34.684  1.00  0.00     0.049 A 
ATOM     53  C   UNL A   1      42.740  27.249  30.167  1.00  0.00     0.074 A 
ATOM     54  C   UNL A   1      41.933  30.049  35.828  1.00  0.00     0.029 A 
ATOM     55  N   UNL A   1      41.734  29.406  33.707  1.00  0.00    -0.354 N 
ATOM     56  N   UNL A   1      42.485  27.866  31.296  1.00  0.00    -0.248 NA
ATOM     57  C   UNL A   1      43.918  26.373  30.214  1.00  0.00     0.031 C 
ATOM     58  C   UNL A   1      42.970  29.156  35.533  1.00  0.00     0.029 A 
ATOM     59  C   UNL A   1      42.833  28.737  34.219  1.00  0.00     0.049 A 
ATOM     60  H   UNL A   1      41.397  29.317  32.786  1.00  0.00     0.167 HD
ATOM     61  C   UNL A   1      43.452  27.437  32.194  1.00  0.00     0.074 A 
ATOM     62  C   UNL A   1      44.286  26.488  31.483  1.00  0.00     0.031 C 
ATOM     63  C   UNL A   1      43.639  27.795  33.488  1.00  0.00     0.037 A 
BRANCH  50  64
ATOM     64  C   UNL A   1      39.559  31.931  35.610  1.00  0.00     0.064 A 
ATOM     65  C   UNL A   1      38.612  31.484  36.545  1.00  0.00     0.173 A 
ATOM     66  C   UNL A   1      40.064  33.230  35.760  1.00  0.00     0.173 A 
ATOM     67  F   UNL A   1      38.082  30.256  36.436  1.00  0.00    -0.203 F 
ATOM     68  C   UNL A   1      38.164  32.317  37.566  1.00  0.00     0.198 A 
ATOM     69  C   UNL A   1      39.639  34.049  36.803  1.00  0.00     0.198 A 
ATOM     70  F   UNL A   1      40.971  33.708  34.895  1.00  0.00    -0.203 F 
ATOM     71  F   UNL A   1      37.212  31.889  38.408  1.00  0.00    -0.200 F 
ATOM     72  C   UNL A   1      38.681  33.597  37.699  1.00  0.00     0.200 A 
ATOM     73  F   UNL A   1      40.147  35.282  36.935  1.00  0.00    -0.200 F 
ATOM     74  F   UNL A   1      38.250  34.396  38.683  1.00  0.00    -0.200 F 
ENDBRANCH  50  64
BRANCH  51  75
ATOM     75  C   UNL A   1      42.435  26.510  27.688  1.00  0.00     0.064 A 
ATOM     76  C   UNL A   1      41.889  25.243  27.435  1.00  0.00     0.173 A 
ATOM     77  C   UNL A   1      43.407  26.990  26.798  1.00  0.00     0.173 A 
ATOM     78  F   UNL A   1      40.969  24.734  28.266  1.00  0.00    -0.203 F 
ATOM     79  C   UNL A   1      42.316  24.477  26.352  1.00  0.00     0.198 A 
ATOM     80  C   UNL A   1      43.813  26.234  25.699  1.00  0.00     0.198 A 
ATOM     81  F   UNL A   1      43.954  28.199  26.989  1.00  0.00    -0.203 F 
ATOM     82  F   UNL A   1      41.811  23.250  26.162  1.00  0.00    -0.200 F 
ATOM     83  C   UNL A   1      43.275  24.974  25.483  1.00  0.00     0.200 A 
ATOM     84  F   UNL A   1      44.729  26.724  24.852  1.00  0.00    -0.200 F 
ATOM     85  F   UNL A   1      43.683  24.238  24.441  1.00  0.00    -0.200 F 
ENDBRANCH  51  75
BRANCH  63  86
ATOM     86  C   UNL A   1      44.772  27.136  34.219  1.00  0.00     0.064 A 
ATOM     87  C   UNL A   1      44.602  25.915  34.888  1.00  0.00     0.173 A 
ATOM     88  C   UNL A   1      46.047  27.719  34.223  1.00  0.00     0.173 A 
ATOM     89  F   UNL A   1      43.398  25.326  34.923  1.00  0.00    -0.203 F 
ATOM     90  C   UNL A   1      45.663  25.318  35.562  1.00  0.00     0.198 A 
ATOM     91  C   UNL A   1      47.113  27.103  34.870  1.00  0.00     0.198 A 
ATOM     92  F   UNL A   1      46.262  28.882  33.589  1.00  0.00    -0.203 F 
ATOM     93  F   UNL A   1      45.466  24.179  36.240  1.00  0.00    -0.200 F 
ATOM     94  C   UNL A   1      46.918  25.908  35.547  1.00  0.00     0.200 A 
ATOM     95  F   UNL A   1      48.329  27.667  34.843  1.00  0.00    -0.200 F 
ATOM     96  F   UNL A   1      47.938  25.329  36.194  1.00  0.00    -0.200 F 
ENDBRANCH  63  86
ENDBRANCH  37  38
ENDBRANCH  29  32
ENDBRANCH  27  28
ENDBRANCH  26  27
ENDBRANCH  25  26
ENDBRANCH  24  25
ENDBRANCH   3  24
TORSDOF 18
ENDMDL
MODEL 3
REMARK VINA RESULT:     -11.1      1.183      7.589
REMARK SMILES [NH3+]CCOCC(=O)N[C@H](C(=O)NCCCCNC(=O)c1ccc(-c2c3nc(c(-c4c(F)c(F)c(F)c(F)c4F)c4ccc([nH]4)c(-c4c(F)c(F)c(F)c(F)c4F)c4nc(c(-c5c(F)c(F)c(F)c(F)c5F)c5ccc2[nH]5)C=C4)C=C3)cc1)c1ccccc1
REMARK SMILES IDX 10 1 11 2 12 3 9 5 8 6 6 7 7 8 5 10 4 11 3 12 2 13 1 14
REMARK SMILES IDX 83 18 84 19 88 20 85 21 87 22 86 23 13 24 14 25 15 26 16 27
REMARK SMILES IDX 17 28 18 29 19 31 20 32 21 33 82 34 22 35 81 36 23 37 24 38
REMARK SMILES IDX 25 39 75 40 26 41 80 42 74 43 76 44 27 45 79 46 73 47 72 48
REMARK SMILES IDX 28 50 60 51 40 52 59 53 41 54 44 55 58 56 77 57 42 58 43 59
REMARK SMILES IDX 57 61 78 62 45 63 29 64 30 65 38 66 31 67 32 68 36 69 39 70
REMARK SMILES IDX 33 71 34 72 37 73 35 74 61 75 62 76 70 77 63 78 64 79 68 80
REMARK SMILES IDX 71 81 65 82 66 83 69 84 67 85 46 86 47 87 55 88 48 89 49 90
REMARK SMILES IDX 53 91 56 92 50 93 51 94 54 95 52 96
REMARK H PARENT 12 4 8 9 1 15 1 16 1 17 17 30 76 49 44 60
REMARK Flexibility Score: inf
ROOT
ATOM      1  C   UNL A   1      33.580  27.810  26.277  1.00  0.00     0.247 C 
ATOM      2  O   UNL A   1      34.772  27.529  26.433  1.00  0.00    -0.272 OA
ATOM      3  N   UNL A   1      33.083  28.869  26.986  1.00  0.00    -0.354 N 
ATOM      4  H   UNL A   1      33.699  29.274  27.639  1.00  0.00     0.163 HD
ENDROOT
BRANCH   1   5
ATOM      5  C   UNL A   1      32.704  27.076  25.208  1.00  0.00     0.202 C 
BRANCH   5   6
ATOM      6  N   UNL A   1      33.374  27.083  23.897  1.00  0.00    -0.339 N 
ATOM      7  C   UNL A   1      32.938  26.665  22.679  1.00  0.00     0.246 C 
ATOM      8  O   UNL A   1      33.749  26.703  21.746  1.00  0.00    -0.272 OA
ATOM      9  H   UNL A   1      34.286  27.453  23.902  1.00  0.00     0.164 HD
BRANCH   7  10
ATOM     10  C   UNL A   1      31.481  26.248  22.431  1.00  0.00     0.260 C 
BRANCH  10  11
ATOM     11  O   UNL A   1      30.588  27.252  21.998  1.00  0.00    -0.366 OA
BRANCH  11  12
ATOM     12  C   UNL A   1      30.066  28.098  23.022  1.00  0.00     0.222 C 
BRANCH  12  13
ATOM     13  C   UNL A   1      30.112  29.603  22.701  1.00  0.00     0.287 C 
BRANCH  13  14
ATOM     14  N   UNL A   1      30.959  29.988  21.569  1.00  0.00    -0.356 N 
ATOM     15  H   UNL A   1      31.029  29.208  20.915  1.00  0.00     0.344 HD
ATOM     16  H   UNL A   1      31.890  30.232  21.909  1.00  0.00     0.344 HD
ATOM     17  H   UNL A   1      30.549  30.793  21.096  1.00  0.00     0.344 HD
ENDBRANCH  13  14
ENDBRANCH  12  13
ENDBRANCH  11  12
ENDBRANCH  10  11
ENDBRANCH   7  10
ENDBRANCH   5   6
BRANCH   5  18
ATOM     18  C   UNL A   1      32.390  25.657  25.730  1.00  0.00    -0.016 A 
ATOM     19  C   UNL A   1      33.419  24.691  25.744  1.00  0.00     0.006 A 
ATOM     20  C   UNL A   1      31.113  25.236  26.142  1.00  0.00     0.006 A 
ATOM     21  C   UNL A   1      33.161  23.349  26.030  1.00  0.00     0.000 A 
ATOM     22  C   UNL A   1      30.855  23.890  26.429  1.00  0.00     0.000 A 
ATOM     23  C   UNL A   1      31.872  22.944  26.350  1.00  0.00     0.000 A 
ENDBRANCH   5  18
ENDBRANCH   1   5
BRANCH   3  24
ATOM     24  C   UNL A   1      31.769  29.471  26.902  1.00  0.00     0.116 C 
BRANCH  24  25
ATOM     25  C   UNL A   1      31.808  30.764  26.093  1.00  0.00     0.023 C 
BRANCH  25  26
ATOM     26  C   UNL A   1      31.496  32.018  26.903  1.00  0.00     0.023 C 
BRANCH  26  27
ATOM     27  C   UNL A   1      32.714  32.865  27.217  1.00  0.00     0.116 C 
BRANCH  27  28
ATOM     28  N   UNL A   1      32.385  34.220  27.638  1.00  0.00    -0.352 N 
ATOM     29  C   UNL A   1      32.996  34.962  28.617  1.00  0.00     0.251 C 
ATOM     30  H   UNL A   1      31.639  34.654  27.166  1.00  0.00     0.163 HD
ATOM     31  O   UNL A   1      32.565  36.061  28.948  1.00  0.00    -0.269 OA
BRANCH  29  32
ATOM     32  C   UNL A   1      34.165  34.377  29.294  1.00  0.00     0.039 A 
ATOM     33  C   UNL A   1      33.960  33.520  30.374  1.00  0.00     0.014 A 
ATOM     34  C   UNL A   1      35.446  34.605  28.785  1.00  0.00     0.014 A 
ATOM     35  C   UNL A   1      35.051  32.851  30.921  1.00  0.00     0.010 A 
ATOM     36  C   UNL A   1      36.510  33.857  29.259  1.00  0.00     0.010 A 
ATOM     37  C   UNL A   1      36.328  32.996  30.352  1.00  0.00    -0.014 A 
BRANCH  37  38
ATOM     38  C   UNL A   1      37.500  32.302  30.928  1.00  0.00     0.031 A 
ATOM     39  C   UNL A   1      37.964  32.665  32.311  1.00  0.00     0.074 A 
ATOM     40  C   UNL A   1      38.163  31.388  30.195  1.00  0.00     0.049 A 
ATOM     41  N   UNL A   1      38.976  32.197  32.995  1.00  0.00    -0.248 NA
ATOM     42  C   UNL A   1      37.216  33.728  33.004  1.00  0.00     0.031 C 
ATOM     43  C   UNL A   1      37.846  31.015  28.815  1.00  0.00     0.029 A 
ATOM     44  N   UNL A   1      39.241  30.604  30.512  1.00  0.00    -0.354 N 
ATOM     45  C   UNL A   1      38.993  32.920  34.180  1.00  0.00     0.074 A 
ATOM     46  C   UNL A   1      37.944  33.910  34.093  1.00  0.00     0.031 C 
ATOM     47  C   UNL A   1      38.685  30.044  28.419  1.00  0.00     0.029 A 
ATOM     48  C   UNL A   1      39.611  29.746  29.507  1.00  0.00     0.049 A 
ATOM     49  H   UNL A   1      39.707  30.652  31.378  1.00  0.00     0.167 HD
ATOM     50  C   UNL A   1      39.786  32.746  35.263  1.00  0.00     0.037 A 
ATOM     51  C   UNL A   1      40.582  28.813  29.481  1.00  0.00     0.037 A 
ATOM     52  C   UNL A   1      40.792  31.724  35.357  1.00  0.00     0.049 A 
ATOM     53  C   UNL A   1      41.418  28.606  30.714  1.00  0.00     0.074 A 
ATOM     54  C   UNL A   1      41.607  31.410  36.428  1.00  0.00     0.029 A 
ATOM     55  N   UNL A   1      41.113  30.844  34.333  1.00  0.00    -0.354 N 
ATOM     56  N   UNL A   1      41.374  29.239  31.862  1.00  0.00    -0.248 NA
ATOM     57  C   UNL A   1      42.430  27.544  30.654  1.00  0.00     0.031 C 
ATOM     58  C   UNL A   1      42.447  30.360  36.039  1.00  0.00     0.029 A 
ATOM     59  C   UNL A   1      42.124  29.992  34.742  1.00  0.00     0.049 A 
ATOM     60  H   UNL A   1      40.685  30.829  33.446  1.00  0.00     0.167 HD
ATOM     61  C   UNL A   1      42.330  28.638  32.668  1.00  0.00     0.074 A 
ATOM     62  C   UNL A   1      42.924  27.574  31.883  1.00  0.00     0.031 C 
ATOM     63  C   UNL A   1      42.691  28.939  33.941  1.00  0.00     0.037 A 
BRANCH  50  64
ATOM     64  C   UNL A   1      39.576  33.669  36.428  1.00  0.00     0.064 A 
ATOM     65  C   UNL A   1      40.199  34.924  36.494  1.00  0.00     0.173 A 
ATOM     66  C   UNL A   1      38.739  33.297  37.490  1.00  0.00     0.173 A 
ATOM     67  F   UNL A   1      41.026  35.321  35.514  1.00  0.00    -0.203 F 
ATOM     68  C   UNL A   1      40.022  35.757  37.595  1.00  0.00     0.198 A 
ATOM     69  C   UNL A   1      38.536  34.147  38.574  1.00  0.00     0.198 A 
ATOM     70  F   UNL A   1      38.118  32.108  37.478  1.00  0.00    -0.203 F 
ATOM     71  F   UNL A   1      40.679  36.924  37.664  1.00  0.00    -0.200 F 
ATOM     72  C   UNL A   1      39.185  35.371  38.632  1.00  0.00     0.200 A 
ATOM     73  F   UNL A   1      37.720  33.776  39.570  1.00  0.00    -0.200 F 
ATOM     74  F   UNL A   1      39.013  36.174  39.690  1.00  0.00    -0.200 F 
ENDBRANCH  50  64
BRANCH  51  75
ATOM     75  C   UNL A   1      40.773  27.970  28.272  1.00  0.00     0.064 A 
ATOM     76  C   UNL A   1      41.574  28.409  27.208  1.00  0.00     0.173 A 
ATOM     77  C   UNL A   1      40.162  26.714  28.152  1.00  0.00     0.173 A 
ATOM     78  F   UNL A   1      42.166  29.611  27.269  1.00  0.00    -0.203 F 
ATOM     79  C   UNL A   1      41.736  27.636  26.060  1.00  0.00     0.198 A 
ATOM     80  C   UNL A   1      40.347  25.929  27.015  1.00  0.00     0.198 A 
ATOM     81  F   UNL A   1      39.393  26.243  29.145  1.00  0.00    -0.203 F 
ATOM     82  F   UNL A   1      42.468  28.102  25.039  1.00  0.00    -0.200 F 
ATOM     83  C   UNL A   1      41.125  26.395  25.966  1.00  0.00     0.200 A 
ATOM     84  F   UNL A   1      39.768  24.724  26.933  1.00  0.00    -0.200 F 
ATOM     85  F   UNL A   1      41.283  25.652  24.863  1.00  0.00    -0.200 F 
ENDBRANCH  51  75
BRANCH  63  86
ATOM     86  C   UNL A   1      43.756  28.087  34.565  1.00  0.00     0.064 A 
ATOM     87  C   UNL A   1      43.448  26.872  35.195  1.00  0.00     0.173 A 
ATOM     88  C   UNL A   1      45.101  28.476  34.503  1.00  0.00     0.173 A 
ATOM     89  F   UNL A   1      42.174  26.464  35.291  1.00  0.00    -0.203 F 
ATOM     90  C   UNL A   1      44.449  26.094  35.770  1.00  0.00     0.198 A 
ATOM     91  C   UNL A   1      46.102  27.680  35.051  1.00  0.00     0.198 A 
ATOM     92  F   UNL A   1      45.447  29.625  33.902  1.00  0.00    -0.203 F 
ATOM     93  F   UNL A   1      44.127  24.964  36.415  1.00  0.00    -0.200 F 
ATOM     94  C   UNL A   1      45.774  26.495  35.692  1.00  0.00     0.200 A 
ATOM     95  F   UNL A   1      47.384  28.061  34.962  1.00  0.00    -0.200 F 
ATOM     96  F   UNL A   1      46.735  25.742  36.244  1.00  0.00    -0.200 F 
ENDBRANCH  63  86
ENDBRANCH  37  38
ENDBRANCH  29  32
ENDBRANCH  27  28
ENDBRANCH  26  27
ENDBRANCH  25  26
ENDBRANCH  24  25
ENDBRANCH   3  24
TORSDOF 18
ENDMDL
