MODEL 1
REMARK VINA RESULT:     -12.0      0.000      0.000
REMARK SMILES C#CCNC(=O)[C@H](C)S(=O)(=O)c1ccc(C(=O)NCCCCNC(=O)c2ccc(-c3c4nc(c(-c5c(F)c(F)c(F)c(F)c5F)c5ccc([nH]5)c(-c5c(F)c(F)c(F)c(F)c5F)c5nc(c(-c6c(F)c(F)c(F)c(F)c6F)c6ccc3[nH]6)C=C5)C=C4)cc2)cc1F
REMARK SMILES IDX 19 1 18 2 16 3 17 4 15 6 12 7 13 8 90 9 14 10 89 11 91 12
REMARK SMILES IDX 9 13 10 14 11 15 7 16 8 17 5 18 4 19 6 21 3 22 2 23 1 24
REMARK SMILES IDX 20 25 21 26 22 27 23 28 24 29 25 31 26 32 27 33 88 34 28 35
REMARK SMILES IDX 87 36 29 37 30 38 31 39 81 40 32 41 86 42 80 43 82 44 33 45
REMARK SMILES IDX 85 46 79 47 78 48 34 50 66 51 46 52 65 53 47 54 50 55 64 56
REMARK SMILES IDX 83 57 48 58 49 59 63 61 84 62 51 63 35 64 36 65 44 66 37 67
REMARK SMILES IDX 38 68 42 69 45 70 39 71 40 72 43 73 41 74 67 75 68 76 76 77
REMARK SMILES IDX 69 78 70 79 74 80 77 81 71 82 72 83 75 84 73 85 52 86 53 87
REMARK SMILES IDX 61 88 54 89 55 90 59 91 62 92 56 93 57 94 60 95 58 96
REMARK H PARENT 18 5 4 20 23 30 82 49 50 60
REMARK Flexibility Score: inf
ROOT
ATOM      1  C   UNL A   1      37.052  21.876  25.789  1.00  0.00     0.116 C 
ENDROOT
BRANCH   1   2
ATOM      2  N   UNL A   1      35.803  21.562  26.457  1.00  0.00    -0.352 N 
ATOM      3  C   UNL A   1      34.544  22.082  26.310  1.00  0.00     0.251 C 
ATOM      4  O   UNL A   1      33.644  21.662  27.034  1.00  0.00    -0.269 OA
ATOM      5  H   UNL A   1      35.872  20.850  27.133  1.00  0.00     0.163 HD
BRANCH   3   6
ATOM      6  C   UNL A   1      34.215  23.065  25.250  1.00  0.00     0.042 A 
ATOM      7  C   UNL A   1      33.420  25.053  23.449  1.00  0.00     0.103 A 
ATOM      8  C   UNL A   1      33.911  25.414  24.706  1.00  0.00     0.024 A 
ATOM      9  C   UNL A   1      33.381  23.713  23.080  1.00  0.00     0.142 A 
ATOM     10  C   UNL A   1      34.321  24.420  25.595  1.00  0.00     0.015 A 
ATOM     11  C   UNL A   1      33.800  22.723  23.964  1.00  0.00     0.054 A 
ATOM     12  F   UNL A   1      32.923  23.319  21.886  1.00  0.00    -0.206 F 
BRANCH   7  13
ATOM     13  S   UNL A   1      32.729  26.286  22.393  1.00  0.00     0.192 S 
ATOM     14  O   UNL A   1      31.293  26.044  22.449  1.00  0.00    -0.223 OA
ATOM     15  O   UNL A   1      33.391  26.222  21.108  1.00  0.00    -0.223 OA
BRANCH  13  16
ATOM     16  C   UNL A   1      33.087  27.894  23.073  1.00  0.00     0.199 C 
ATOM     17  C   UNL A   1      34.236  28.541  22.282  1.00  0.00     0.036 C 
BRANCH  16  18
ATOM     18  C   UNL A   1      31.910  28.850  23.142  1.00  0.00     0.239 C 
ATOM     19  N   UNL A   1      31.568  29.548  24.259  1.00  0.00    -0.344 N 
ATOM     20  H   UNL A   1      31.130  30.413  24.087  1.00  0.00     0.164 HD
ATOM     21  O   UNL A   1      31.256  29.117  22.128  1.00  0.00    -0.274 OA
BRANCH  19  22
ATOM     22  C   UNL A   1      31.742  29.224  25.650  1.00  0.00     0.206 C 
BRANCH  22  23
ATOM     23  C   UNL A   1      31.319  27.808  26.005  1.00  0.00    -0.085 C 
ATOM     24  C   UNL A   1      30.955  26.593  26.310  1.00  0.00     0.006 C 
ENDBRANCH  22  23
ENDBRANCH  19  22
ENDBRANCH  16  18
ENDBRANCH  13  16
ENDBRANCH   7  13
ENDBRANCH   3   6
ENDBRANCH   1   2
BRANCH   1  25
ATOM     25  C   UNL A   1      37.282  20.902  24.632  1.00  0.00     0.023 C 
BRANCH  25  26
ATOM     26  C   UNL A   1      38.194  19.723  24.986  1.00  0.00     0.023 C 
BRANCH  26  27
ATOM     27  C   UNL A   1      39.391  20.087  25.855  1.00  0.00     0.116 C 
BRANCH  27  28
ATOM     28  N   UNL A   1      40.405  19.045  25.896  1.00  0.00    -0.352 N 
ATOM     29  C   UNL A   1      41.755  19.180  26.110  1.00  0.00     0.251 C 
ATOM     30  H   UNL A   1      40.083  18.126  25.752  1.00  0.00     0.163 HD
ATOM     31  O   UNL A   1      42.504  18.216  26.008  1.00  0.00    -0.269 OA
BRANCH  29  32
ATOM     32  C   UNL A   1      42.300  20.516  26.419  1.00  0.00     0.039 A 
ATOM     33  C   UNL A   1      42.684  21.342  25.361  1.00  0.00     0.014 A 
ATOM     34  C   UNL A   1      42.383  20.963  27.739  1.00  0.00     0.014 A 
ATOM     35  C   UNL A   1      43.088  22.651  25.625  1.00  0.00     0.010 A 
ATOM     36  C   UNL A   1      42.720  22.287  27.996  1.00  0.00     0.010 A 
ATOM     37  C   UNL A   1      43.072  23.143  26.941  1.00  0.00    -0.014 A 
BRANCH  37  38
ATOM     38  C   UNL A   1      43.403  24.558  27.229  1.00  0.00     0.031 A 
ATOM     39  C   UNL A   1      44.791  25.074  26.984  1.00  0.00     0.074 A 
ATOM     40  C   UNL A   1      42.464  25.361  27.767  1.00  0.00     0.049 A 
ATOM     41  N   UNL A   1      45.286  26.261  27.226  1.00  0.00    -0.248 NA
ATOM     42  C   UNL A   1      45.761  24.122  26.420  1.00  0.00     0.031 C 
ATOM     43  C   UNL A   1      41.097  24.957  28.094  1.00  0.00     0.029 A 
ATOM     44  N   UNL A   1      42.520  26.680  28.140  1.00  0.00    -0.354 N 
ATOM     45  C   UNL A   1      46.619  26.196  26.852  1.00  0.00     0.074 A 
ATOM     46  C   UNL A   1      46.875  24.839  26.419  1.00  0.00     0.031 C 
ATOM     47  C   UNL A   1      40.433  26.013  28.589  1.00  0.00     0.029 A 
ATOM     48  C   UNL A   1      41.337  27.159  28.648  1.00  0.00     0.049 A 
ATOM     49  H   UNL A   1      43.331  27.232  28.050  1.00  0.00     0.167 HD
ATOM     50  C   UNL A   1      47.541  27.188  26.846  1.00  0.00     0.037 A 
ATOM     51  C   UNL A   1      41.019  28.383  29.109  1.00  0.00     0.037 A 
ATOM     52  C   UNL A   1      47.271  28.542  27.250  1.00  0.00     0.049 A 
ATOM     53  C   UNL A   1      42.060  29.467  29.093  1.00  0.00     0.074 A 
ATOM     54  C   UNL A   1      48.122  29.633  27.220  1.00  0.00     0.029 A 
ATOM     55  N   UNL A   1      46.061  28.990  27.755  1.00  0.00    -0.354 N 
ATOM     56  N   UNL A   1      43.303  29.410  28.683  1.00  0.00    -0.248 NA
ATOM     57  C   UNL A   1      41.656  30.784  29.602  1.00  0.00     0.031 C 
ATOM     58  C   UNL A   1      47.438  30.733  27.748  1.00  0.00     0.029 A 
ATOM     59  C   UNL A   1      46.148  30.338  28.061  1.00  0.00     0.049 A 
ATOM     60  H   UNL A   1      45.258  28.433  27.878  1.00  0.00     0.167 HD
ATOM     61  C   UNL A   1      43.824  30.683  28.864  1.00  0.00     0.074 A 
ATOM     62  C   UNL A   1      42.757  31.497  29.410  1.00  0.00     0.031 C 
ATOM     63  C   UNL A   1      45.076  31.134  28.603  1.00  0.00     0.037 A 
BRANCH  50  64
ATOM     64  C   UNL A   1      48.923  26.852  26.373  1.00  0.00     0.064 A 
ATOM     65  C   UNL A   1      49.268  26.994  25.020  1.00  0.00     0.173 A 
ATOM     66  C   UNL A   1      49.890  26.331  27.245  1.00  0.00     0.173 A 
ATOM     67  F   UNL A   1      48.379  27.484  24.143  1.00  0.00    -0.203 F 
ATOM     68  C   UNL A   1      50.527  26.618  24.559  1.00  0.00     0.198 A 
ATOM     69  C   UNL A   1      51.158  25.983  26.786  1.00  0.00     0.198 A 
ATOM     70  F   UNL A   1      49.613  26.186  28.550  1.00  0.00    -0.203 F 
ATOM     71  F   UNL A   1      50.826  26.738  23.257  1.00  0.00    -0.200 F 
ATOM     72  C   UNL A   1      51.471  26.118  25.442  1.00  0.00     0.200 A 
ATOM     73  F   UNL A   1      52.077  25.523  27.646  1.00  0.00    -0.200 F 
ATOM     74  F   UNL A   1      52.687  25.768  24.998  1.00  0.00    -0.200 F 
ENDBRANCH  50  64
BRANCH  51  75
ATOM     75  C   UNL A   1      39.636  28.649  29.583  1.00  0.00     0.064 A 
ATOM     76  C   UNL A   1      38.654  29.163  28.724  1.00  0.00     0.173 A 
ATOM     77  C   UNL A   1      39.285  28.431  30.921  1.00  0.00     0.173 A 
ATOM     78  F   UNL A   1      38.944  29.396  27.435  1.00  0.00    -0.203 F 
ATOM     79  C   UNL A   1      37.378  29.468  29.192  1.00  0.00     0.198 A 
ATOM     80  C   UNL A   1      38.001  28.713  31.383  1.00  0.00     0.198 A 
ATOM     81  F   UNL A   1      40.184  27.923  31.775  1.00  0.00    -0.203 F 
ATOM     82  F   UNL A   1      36.468  29.991  28.359  1.00  0.00    -0.200 F 
ATOM     83  C   UNL A   1      37.051  29.239  30.520  1.00  0.00     0.200 A 
ATOM     84  F   UNL A   1      37.683  28.471  32.662  1.00  0.00    -0.200 F 
ATOM     85  F   UNL A   1      35.821  29.525  30.968  1.00  0.00    -0.200 F 
ENDBRANCH  51  75
BRANCH  63  86
ATOM     86  C   UNL A   1      45.366  32.577  28.888  1.00  0.00     0.064 A 
ATOM     87  C   UNL A   1      45.131  33.556  27.911  1.00  0.00     0.173 A 
ATOM     88  C   UNL A   1      45.958  32.979  30.094  1.00  0.00     0.173 A 
ATOM     89  F   UNL A   1      44.575  33.220  26.737  1.00  0.00    -0.203 F 
ATOM     90  C   UNL A   1      45.494  34.883  28.124  1.00  0.00     0.198 A 
ATOM     91  C   UNL A   1      46.295  34.311  30.315  1.00  0.00     0.198 A 
ATOM     92  F   UNL A   1      46.192  32.082  31.063  1.00  0.00    -0.203 F 
ATOM     93  F   UNL A   1      45.293  35.794  27.163  1.00  0.00    -0.200 F 
ATOM     94  C   UNL A   1      46.074  35.260  29.327  1.00  0.00     0.200 A 
ATOM     95  F   UNL A   1      46.835  34.678  31.486  1.00  0.00    -0.200 F 
ATOM     96  F   UNL A   1      46.417  36.538  29.534  1.00  0.00    -0.200 F 
ENDBRANCH  63  86
ENDBRANCH  37  38
ENDBRANCH  29  32
ENDBRANCH  27  28
ENDBRANCH  26  27
ENDBRANCH  25  26
ENDBRANCH   1  25
TORSDOF 16
ENDMDL
MODEL 2
REMARK VINA RESULT:     -12.0      0.783      1.811
REMARK SMILES C#CCNC(=O)[C@H](C)S(=O)(=O)c1ccc(C(=O)NCCCCNC(=O)c2ccc(-c3c4nc(c(-c5c(F)c(F)c(F)c(F)c5F)c5ccc([nH]5)c(-c5c(F)c(F)c(F)c(F)c5F)c5nc(c(-c6c(F)c(F)c(F)c(F)c6F)c6ccc3[nH]6)C=C5)C=C4)cc2)cc1F
REMARK SMILES IDX 19 1 18 2 16 3 17 4 15 6 12 7 13 8 90 9 14 10 89 11 91 12
REMARK SMILES IDX 9 13 10 14 11 15 7 16 8 17 5 18 4 19 6 21 3 22 2 23 1 24
REMARK SMILES IDX 20 25 21 26 22 27 23 28 24 29 25 31 26 32 27 33 88 34 28 35
REMARK SMILES IDX 87 36 29 37 30 38 31 39 81 40 32 41 86 42 80 43 82 44 33 45
REMARK SMILES IDX 85 46 79 47 78 48 34 50 66 51 46 52 65 53 47 54 50 55 64 56
REMARK SMILES IDX 83 57 48 58 49 59 63 61 84 62 51 63 35 64 36 65 44 66 37 67
REMARK SMILES IDX 38 68 42 69 45 70 39 71 40 72 43 73 41 74 67 75 68 76 76 77
REMARK SMILES IDX 69 78 70 79 74 80 77 81 71 82 72 83 75 84 73 85 52 86 53 87
REMARK SMILES IDX 61 88 54 89 55 90 59 91 62 92 56 93 57 94 60 95 58 96
REMARK H PARENT 18 5 4 20 23 30 82 49 50 60
REMARK Flexibility Score: inf
ROOT
ATOM      1  C   UNL A   1      36.983  21.844  25.961  1.00  0.00     0.116 C 
ENDROOT
BRANCH   1   2
ATOM      2  N   UNL A   1      35.697  21.466  26.515  1.00  0.00    -0.352 N 
ATOM      3  C   UNL A   1      34.437  21.959  26.297  1.00  0.00     0.251 C 
ATOM      4  O   UNL A   1      33.498  21.481  26.929  1.00  0.00    -0.269 OA
ATOM      5  H   UNL A   1      35.736  20.723  27.161  1.00  0.00     0.163 HD
BRANCH   3   6
ATOM      6  C   UNL A   1      34.160  22.984  25.262  1.00  0.00     0.042 A 
ATOM      7  C   UNL A   1      33.451  25.041  23.504  1.00  0.00     0.103 A 
ATOM      8  C   UNL A   1      33.872  25.352  24.798  1.00  0.00     0.024 A 
ATOM      9  C   UNL A   1      33.440  23.717  23.079  1.00  0.00     0.142 A 
ATOM     10  C   UNL A   1      34.240  24.324  25.667  1.00  0.00     0.015 A 
ATOM     11  C   UNL A   1      33.816  22.693  23.942  1.00  0.00     0.054 A 
ATOM     12  F   UNL A   1      33.048  23.371  21.846  1.00  0.00    -0.206 F 
BRANCH   7  13
ATOM     13  S   UNL A   1      32.811  26.314  22.463  1.00  0.00     0.192 S 
ATOM     14  O   UNL A   1      31.376  26.064  22.431  1.00  0.00    -0.223 OA
ATOM     15  O   UNL A   1      33.541  26.305  21.214  1.00  0.00    -0.223 OA
BRANCH  13  16
ATOM     16  C   UNL A   1      33.122  27.894  23.226  1.00  0.00     0.199 C 
ATOM     17  C   UNL A   1      34.320  28.569  22.538  1.00  0.00     0.036 C 
BRANCH  16  18
ATOM     18  C   UNL A   1      31.943  28.849  23.255  1.00  0.00     0.239 C 
ATOM     19  N   UNL A   1      31.484  29.450  24.387  1.00  0.00    -0.344 N 
ATOM     20  H   UNL A   1      31.065  30.330  24.246  1.00  0.00     0.164 HD
ATOM     21  O   UNL A   1      31.398  29.207  22.205  1.00  0.00    -0.274 OA
BRANCH  19  22
ATOM     22  C   UNL A   1      31.513  29.006  25.755  1.00  0.00     0.206 C 
BRANCH  22  23
ATOM     23  C   UNL A   1      32.916  28.767  26.290  1.00  0.00    -0.085 C 
ATOM     24  C   UNL A   1      34.120  28.562  26.749  1.00  0.00     0.006 C 
ENDBRANCH  22  23
ENDBRANCH  19  22
ENDBRANCH  16  18
ENDBRANCH  13  16
ENDBRANCH   7  13
ENDBRANCH   3   6
ENDBRANCH   1   2
BRANCH   1  25
ATOM     25  C   UNL A   1      37.236  21.071  24.664  1.00  0.00     0.023 C 
BRANCH  25  26
ATOM     26  C   UNL A   1      38.233  19.919  24.815  1.00  0.00     0.023 C 
BRANCH  26  27
ATOM     27  C   UNL A   1      39.342  20.168  25.830  1.00  0.00     0.116 C 
BRANCH  27  28
ATOM     28  N   UNL A   1      40.328  19.099  25.874  1.00  0.00    -0.352 N 
ATOM     29  C   UNL A   1      41.671  19.192  26.138  1.00  0.00     0.251 C 
ATOM     30  H   UNL A   1      39.987  18.194  25.692  1.00  0.00     0.163 HD
ATOM     31  O   UNL A   1      42.400  18.212  26.033  1.00  0.00    -0.269 OA
BRANCH  29  32
ATOM     32  C   UNL A   1      42.239  20.504  26.505  1.00  0.00     0.039 A 
ATOM     33  C   UNL A   1      42.698  21.342  25.486  1.00  0.00     0.014 A 
ATOM     34  C   UNL A   1      42.271  20.918  27.838  1.00  0.00     0.014 A 
ATOM     35  C   UNL A   1      43.125  22.632  25.802  1.00  0.00     0.010 A 
ATOM     36  C   UNL A   1      42.634  22.225  28.142  1.00  0.00     0.010 A 
ATOM     37  C   UNL A   1      43.060  23.094  27.127  1.00  0.00    -0.014 A 
BRANCH  37  38
ATOM     38  C   UNL A   1      43.418  24.492  27.465  1.00  0.00     0.031 A 
ATOM     39  C   UNL A   1      44.856  24.920  27.484  1.00  0.00     0.074 A 
ATOM     40  C   UNL A   1      42.446  25.358  27.812  1.00  0.00     0.049 A 
ATOM     41  N   UNL A   1      45.368  26.080  27.808  1.00  0.00    -0.248 NA
ATOM     42  C   UNL A   1      45.854  23.903  27.117  1.00  0.00     0.031 C 
ATOM     43  C   UNL A   1      41.019  25.041  27.877  1.00  0.00     0.029 A 
ATOM     44  N   UNL A   1      42.511  26.677  28.181  1.00  0.00    -0.354 N 
ATOM     45  C   UNL A   1      46.742  25.929  27.693  1.00  0.00     0.074 A 
ATOM     46  C   UNL A   1      46.991  24.553  27.322  1.00  0.00     0.031 C 
ATOM     47  C   UNL A   1      40.340  26.143  28.232  1.00  0.00     0.029 A 
ATOM     48  C   UNL A   1      41.286  27.234  28.454  1.00  0.00     0.049 A 
ATOM     49  H   UNL A   1      43.357  27.178  28.243  1.00  0.00     0.167 HD
ATOM     50  C   UNL A   1      47.707  26.864  27.855  1.00  0.00     0.037 A 
ATOM     51  C   UNL A   1      40.962  28.482  28.841  1.00  0.00     0.037 A 
ATOM     52  C   UNL A   1      47.451  28.239  28.193  1.00  0.00     0.049 A 
ATOM     53  C   UNL A   1      42.052  29.502  29.016  1.00  0.00     0.074 A 
ATOM     54  C   UNL A   1      48.357  29.277  28.319  1.00  0.00     0.029 A 
ATOM     55  N   UNL A   1      46.196  28.767  28.459  1.00  0.00    -0.354 N 
ATOM     56  N   UNL A   1      43.345  29.364  28.848  1.00  0.00    -0.248 NA
ATOM     57  C   UNL A   1      41.641  30.850  29.433  1.00  0.00     0.031 C 
ATOM     58  C   UNL A   1      47.655  30.424  28.702  1.00  0.00     0.029 A 
ATOM     59  C   UNL A   1      46.307  30.112  28.769  1.00  0.00     0.049 A 
ATOM     60  H   UNL A   1      45.352  28.261  28.431  1.00  0.00     0.167 HD
ATOM     61  C   UNL A   1      43.900  30.607  29.117  1.00  0.00     0.074 A 
ATOM     62  C   UNL A   1      42.801  31.492  29.448  1.00  0.00     0.031 C 
ATOM     63  C   UNL A   1      45.203  30.979  29.094  1.00  0.00     0.037 A 
BRANCH  50  64
ATOM     64  C   UNL A   1      49.131  26.439  27.653  1.00  0.00     0.064 A 
ATOM     65  C   UNL A   1      49.982  26.250  28.753  1.00  0.00     0.173 A 
ATOM     66  C   UNL A   1      49.673  26.280  26.369  1.00  0.00     0.173 A 
ATOM     67  F   UNL A   1      49.515  26.394  30.001  1.00  0.00    -0.203 F 
ATOM     68  C   UNL A   1      51.323  25.924  28.572  1.00  0.00     0.198 A 
ATOM     69  C   UNL A   1      51.007  25.926  26.192  1.00  0.00     0.198 A 
ATOM     70  F   UNL A   1      48.897  26.440  25.286  1.00  0.00    -0.203 F 
ATOM     71  F   UNL A   1      52.125  25.774  29.636  1.00  0.00    -0.200 F 
ATOM     72  C   UNL A   1      51.834  25.759  27.293  1.00  0.00     0.200 A 
ATOM     73  F   UNL A   1      51.492  25.743  24.957  1.00  0.00    -0.200 F 
ATOM     74  F   UNL A   1      53.123  25.433  27.121  1.00  0.00    -0.200 F 
ENDBRANCH  50  64
BRANCH  51  75
ATOM     75  C   UNL A   1      39.534  28.838  29.044  1.00  0.00     0.064 A 
ATOM     76  C   UNL A   1      38.754  29.359  28.001  1.00  0.00     0.173 A 
ATOM     77  C   UNL A   1      38.936  28.701  30.302  1.00  0.00     0.173 A 
ATOM     78  F   UNL A   1      39.284  29.516  26.779  1.00  0.00    -0.203 F 
ATOM     79  C   UNL A   1      37.434  29.748  28.217  1.00  0.00     0.198 A 
ATOM     80  C   UNL A   1      37.608  29.067  30.511  1.00  0.00     0.198 A 
ATOM     81  F   UNL A   1      39.636  28.190  31.325  1.00  0.00    -0.203 F 
ATOM     82  F   UNL A   1      36.720  30.275  27.213  1.00  0.00    -0.200 F 
ATOM     83  C   UNL A   1      36.860  29.597  29.471  1.00  0.00     0.200 A 
ATOM     84  F   UNL A   1      37.051  28.901  31.719  1.00  0.00    -0.200 F 
ATOM     85  F   UNL A   1      35.588  29.964  29.675  1.00  0.00    -0.200 F 
ENDBRANCH  51  75
BRANCH  63  86
ATOM     86  C   UNL A   1      45.523  32.407  29.421  1.00  0.00     0.064 A 
ATOM     87  C   UNL A   1      45.775  32.793  30.747  1.00  0.00     0.173 A 
ATOM     88  C   UNL A   1      45.495  33.406  28.438  1.00  0.00     0.173 A 
ATOM     89  F   UNL A   1      45.803  31.875  31.725  1.00  0.00    -0.203 F 
ATOM     90  C   UNL A   1      45.969  34.131  31.078  1.00  0.00     0.198 A 
ATOM     91  C   UNL A   1      45.717  34.740  28.769  1.00  0.00     0.198 A 
ATOM     92  F   UNL A   1      45.270  33.085  27.155  1.00  0.00    -0.203 F 
ATOM     93  F   UNL A   1      46.171  34.481  32.355  1.00  0.00    -0.200 F 
ATOM     94  C   UNL A   1      45.942  35.103  30.089  1.00  0.00     0.200 A 
ATOM     95  F   UNL A   1      45.712  35.676  27.809  1.00  0.00    -0.200 F 
ATOM     96  F   UNL A   1      46.136  36.390  30.407  1.00  0.00    -0.200 F 
ENDBRANCH  63  86
ENDBRANCH  37  38
ENDBRANCH  29  32
ENDBRANCH  27  28
ENDBRANCH  26  27
ENDBRANCH  25  26
ENDBRANCH   1  25
TORSDOF 16
ENDMDL
MODEL 3
REMARK VINA RESULT:     -11.9      0.881      7.308
REMARK SMILES C#CCNC(=O)[C@H](C)S(=O)(=O)c1ccc(C(=O)NCCCCNC(=O)c2ccc(-c3c4nc(c(-c5c(F)c(F)c(F)c(F)c5F)c5ccc([nH]5)c(-c5c(F)c(F)c(F)c(F)c5F)c5nc(c(-c6c(F)c(F)c(F)c(F)c6F)c6ccc3[nH]6)C=C5)C=C4)cc2)cc1F
REMARK SMILES IDX 19 1 18 2 16 3 17 4 15 6 12 7 13 8 90 9 14 10 89 11 91 12
REMARK SMILES IDX 9 13 10 14 11 15 7 16 8 17 5 18 4 19 6 21 3 22 2 23 1 24
REMARK SMILES IDX 20 25 21 26 22 27 23 28 24 29 25 31 26 32 27 33 88 34 28 35
REMARK SMILES IDX 87 36 29 37 30 38 31 39 81 40 32 41 86 42 80 43 82 44 33 45
REMARK SMILES IDX 85 46 79 47 78 48 34 50 66 51 46 52 65 53 47 54 50 55 64 56
REMARK SMILES IDX 83 57 48 58 49 59 63 61 84 62 51 63 35 64 36 65 44 66 37 67
REMARK SMILES IDX 38 68 42 69 45 70 39 71 40 72 43 73 41 74 67 75 68 76 76 77
REMARK SMILES IDX 69 78 70 79 74 80 77 81 71 82 72 83 75 84 73 85 52 86 53 87
REMARK SMILES IDX 61 88 54 89 55 90 59 91 62 92 56 93 57 94 60 95 58 96
REMARK H PARENT 18 5 4 20 23 30 82 49 50 60
REMARK Flexibility Score: inf
ROOT
ATOM      1  C   UNL A   1      36.381  21.807  25.705  1.00  0.00     0.116 C 
ENDROOT
BRANCH   1   2
ATOM      2  N   UNL A   1      35.180  20.994  25.687  1.00  0.00    -0.352 N 
ATOM      3  C   UNL A   1      33.903  21.277  25.279  1.00  0.00     0.251 C 
ATOM      4  O   UNL A   1      33.039  20.412  25.400  1.00  0.00    -0.269 OA
ATOM      5  H   UNL A   1      35.305  20.078  26.026  1.00  0.00     0.163 HD
BRANCH   3   6
ATOM      6  C   UNL A   1      33.551  22.556  24.615  1.00  0.00     0.042 A 
ATOM      7  C   UNL A   1      32.950  24.834  23.108  1.00  0.00     0.103 A 
ATOM      8  C   UNL A   1      32.364  23.611  22.776  1.00  0.00     0.024 A 
ATOM      9  C   UNL A   1      33.784  24.924  24.217  1.00  0.00     0.142 A 
ATOM     10  C   UNL A   1      32.655  22.480  23.540  1.00  0.00     0.015 A 
ATOM     11  C   UNL A   1      34.065  23.798  24.984  1.00  0.00     0.054 A 
ATOM     12  F   UNL A   1      34.365  26.076  24.576  1.00  0.00    -0.206 F 
BRANCH   7  13
ATOM     13  S   UNL A   1      32.736  26.224  22.042  1.00  0.00     0.192 S 
ATOM     14  O   UNL A   1      31.783  25.765  21.039  1.00  0.00    -0.223 OA
ATOM     15  O   UNL A   1      34.038  26.676  21.601  1.00  0.00    -0.223 OA
BRANCH  13  16
ATOM     16  C   UNL A   1      32.019  27.562  22.974  1.00  0.00     0.199 C 
ATOM     17  C   UNL A   1      32.866  28.831  22.784  1.00  0.00     0.036 C 
BRANCH  16  18
ATOM     18  C   UNL A   1      30.564  27.865  22.669  1.00  0.00     0.239 C 
ATOM     19  N   UNL A   1      29.519  27.319  23.347  1.00  0.00    -0.344 N 
ATOM     20  H   UNL A   1      28.714  27.884  23.390  1.00  0.00     0.164 HD
ATOM     21  O   UNL A   1      30.263  28.724  21.831  1.00  0.00    -0.274 OA
BRANCH  19  22
ATOM     22  C   UNL A   1      29.402  26.049  24.012  1.00  0.00     0.206 C 
BRANCH  22  23
ATOM     23  C   UNL A   1      30.235  25.943  25.279  1.00  0.00    -0.085 C 
ATOM     24  C   UNL A   1      30.951  25.852  26.365  1.00  0.00     0.006 C 
ENDBRANCH  22  23
ENDBRANCH  19  22
ENDBRANCH  16  18
ENDBRANCH  13  16
ENDBRANCH   7  13
ENDBRANCH   3   6
ENDBRANCH   1   2
BRANCH   1  25
ATOM     25  C   UNL A   1      37.341  21.341  24.609  1.00  0.00     0.023 C 
BRANCH  25  26
ATOM     26  C   UNL A   1      38.117  20.070  24.965  1.00  0.00     0.023 C 
BRANCH  26  27
ATOM     27  C   UNL A   1      39.273  20.283  25.934  1.00  0.00     0.116 C 
BRANCH  27  28
ATOM     28  N   UNL A   1      40.227  19.185  25.938  1.00  0.00    -0.352 N 
ATOM     29  C   UNL A   1      41.588  19.241  26.103  1.00  0.00     0.251 C 
ATOM     30  H   UNL A   1      39.847  18.286  25.805  1.00  0.00     0.163 HD
ATOM     31  O   UNL A   1      42.278  18.236  25.973  1.00  0.00    -0.269 OA
BRANCH  29  32
ATOM     32  C   UNL A   1      42.220  20.543  26.393  1.00  0.00     0.039 A 
ATOM     33  C   UNL A   1      42.551  21.379  25.324  1.00  0.00     0.014 A 
ATOM     34  C   UNL A   1      42.436  20.952  27.711  1.00  0.00     0.014 A 
ATOM     35  C   UNL A   1      43.037  22.660  25.582  1.00  0.00     0.010 A 
ATOM     36  C   UNL A   1      42.856  22.252  27.966  1.00  0.00     0.010 A 
ATOM     37  C   UNL A   1      43.156  23.119  26.904  1.00  0.00    -0.014 A 
BRANCH  37  38
ATOM     38  C   UNL A   1      43.577  24.510  27.194  1.00  0.00     0.031 A 
ATOM     39  C   UNL A   1      42.584  25.503  27.725  1.00  0.00     0.074 A 
ATOM     40  C   UNL A   1      44.840  24.889  26.923  1.00  0.00     0.049 A 
ATOM     41  N   UNL A   1      42.748  26.775  27.987  1.00  0.00    -0.248 NA
ATOM     42  C   UNL A   1      41.219  25.010  27.968  1.00  0.00     0.031 C 
ATOM     43  C   UNL A   1      45.877  24.024  26.360  1.00  0.00     0.029 A 
ATOM     44  N   UNL A   1      45.465  26.101  27.077  1.00  0.00    -0.354 N 
ATOM     45  C   UNL A   1      41.511  27.233  28.414  1.00  0.00     0.074 A 
ATOM     46  C   UNL A   1      40.590  26.120  28.327  1.00  0.00     0.031 C 
ATOM     47  C   UNL A   1      47.018  24.723  26.245  1.00  0.00     0.029 A 
ATOM     48  C   UNL A   1      46.783  26.094  26.692  1.00  0.00     0.049 A 
ATOM     49  H   UNL A   1      45.011  26.900  27.432  1.00  0.00     0.167 HD
ATOM     50  C   UNL A   1      41.181  28.466  28.866  1.00  0.00     0.037 A 
ATOM     51  C   UNL A   1      47.698  27.081  26.699  1.00  0.00     0.037 A 
ATOM     52  C   UNL A   1      42.109  29.559  28.979  1.00  0.00     0.049 A 
ATOM     53  C   UNL A   1      47.306  28.442  27.203  1.00  0.00     0.074 A 
ATOM     54  C   UNL A   1      41.885  30.828  29.483  1.00  0.00     0.029 A 
ATOM     55  N   UNL A   1      43.437  29.513  28.583  1.00  0.00    -0.354 N 
ATOM     56  N   UNL A   1      46.148  28.849  27.661  1.00  0.00    -0.248 NA
ATOM     57  C   UNL A   1      48.347  29.479  27.194  1.00  0.00     0.031 C 
ATOM     58  C   UNL A   1      43.067  31.564  29.353  1.00  0.00     0.029 A 
ATOM     59  C   UNL A   1      44.040  30.739  28.811  1.00  0.00     0.049 A 
ATOM     60  H   UNL A   1      43.885  28.727  28.196  1.00  0.00     0.167 HD
ATOM     61  C   UNL A   1      46.322  30.180  28.012  1.00  0.00     0.074 A 
ATOM     62  C   UNL A   1      47.704  30.509  27.727  1.00  0.00     0.031 C 
ATOM     63  C   UNL A   1      45.417  31.050  28.523  1.00  0.00     0.037 A 
BRANCH  50  64
ATOM     64  C   UNL A   1      39.761  28.697  29.288  1.00  0.00     0.064 A 
ATOM     65  C   UNL A   1      38.824  29.222  28.385  1.00  0.00     0.173 A 
ATOM     66  C   UNL A   1      39.340  28.456  30.605  1.00  0.00     0.173 A 
ATOM     67  F   UNL A   1      39.176  29.474  27.116  1.00  0.00    -0.203 F 
ATOM     68  C   UNL A   1      37.522  29.505  28.789  1.00  0.00     0.198 A 
ATOM     69  C   UNL A   1      38.030  28.714  30.997  1.00  0.00     0.198 A 
ATOM     70  F   UNL A   1      40.195  27.944  31.503  1.00  0.00    -0.203 F 
ATOM     71  F   UNL A   1      36.651  30.032  27.916  1.00  0.00    -0.200 F 
ATOM     72  C   UNL A   1      37.125  29.247  30.092  1.00  0.00     0.200 A 
ATOM     73  F   UNL A   1      37.642  28.441  32.250  1.00  0.00    -0.200 F 
ATOM     74  F   UNL A   1      35.867  29.509  30.475  1.00  0.00    -0.200 F 
ENDBRANCH  50  64
BRANCH  51  75
ATOM     75  C   UNL A   1      49.085  26.795  26.250  1.00  0.00     0.064 A 
ATOM     76  C   UNL A   1      49.483  27.004  24.922  1.00  0.00     0.173 A 
ATOM     77  C   UNL A   1      50.029  26.267  27.140  1.00  0.00     0.173 A 
ATOM     78  F   UNL A   1      48.612  27.502  24.031  1.00  0.00    -0.203 F 
ATOM     79  C   UNL A   1      50.768  26.676  24.496  1.00  0.00     0.198 A 
ATOM     80  C   UNL A   1      51.322  25.961  26.719  1.00  0.00     0.198 A 
ATOM     81  F   UNL A   1      49.701  26.067  28.424  1.00  0.00    -0.203 F 
ATOM     82  F   UNL A   1      51.113  26.852  23.213  1.00  0.00    -0.200 F 
ATOM     83  C   UNL A   1      51.688  26.158  25.396  1.00  0.00     0.200 A 
ATOM     84  F   UNL A   1      52.214  25.481  27.595  1.00  0.00    -0.200 F 
ATOM     85  F   UNL A   1      52.926  25.849  24.987  1.00  0.00    -0.200 F 
ENDBRANCH  51  75
BRANCH  63  86
ATOM     86  C   UNL A   1      45.886  32.442  28.824  1.00  0.00     0.064 A 
ATOM     87  C   UNL A   1      46.384  32.766  30.095  1.00  0.00     0.173 A 
ATOM     88  C   UNL A   1      45.760  33.474  27.883  1.00  0.00     0.173 A 
ATOM     89  F   UNL A   1      46.515  31.814  31.031  1.00  0.00    -0.203 F 
ATOM     90  C   UNL A   1      46.724  34.076  30.418  1.00  0.00     0.198 A 
ATOM     91  C   UNL A   1      46.126  34.779  28.202  1.00  0.00     0.198 A 
ATOM     92  F   UNL A   1      45.299  33.212  26.651  1.00  0.00    -0.203 F 
ATOM     93  F   UNL A   1      47.164  34.368  31.650  1.00  0.00    -0.200 F 
ATOM     94  C   UNL A   1      46.596  35.081  29.472  1.00  0.00     0.200 A 
ATOM     95  F   UNL A   1      46.023  35.746  27.278  1.00  0.00    -0.200 F 
ATOM     96  F   UNL A   1      46.929  36.341  29.782  1.00  0.00    -0.200 F 
ENDBRANCH  63  86
ENDBRANCH  37  38
ENDBRANCH  29  32
ENDBRANCH  27  28
ENDBRANCH  26  27
ENDBRANCH  25  26
ENDBRANCH   1  25
TORSDOF 16
ENDMDL
