MODEL 1
REMARK VINA RESULT:     -10.5      0.000      0.000
REMARK SMILES C[C@@H](C(=O)NCCCCNC(=O)c1ccc(-c2c3nc(c(-c4c(F)c(F)c(F)c(F)c4F)c4ccc([nH]4)c(-c4c(F)c(F)c(F)c(F)c4F)c4nc(c(-c5c(F)c(F)c(F)c(F)c5F)c5ccc2[nH]5)C=C4)C=C3)cc1)c1ccc(-c2cccc(OC(=O)Nc3ccccc3)c2)c(F)c1
REMARK SMILES IDX 6 1 5 2 3 3 4 4 2 6 1 7 76 8 77 9 98 10 78 11 96 12 79 13
REMARK SMILES IDX 97 14 80 15 81 16 95 17 82 18 84 19 83 20 85 21 86 22 87 23
REMARK SMILES IDX 88 24 89 26 90 27 94 28 91 29 93 30 92 31 7 32 8 33 9 34
REMARK SMILES IDX 10 35 11 36 12 38 13 39 14 40 75 41 15 42 74 43 16 44 17 45
REMARK SMILES IDX 18 46 68 47 19 48 73 49 67 50 69 51 20 52 72 53 66 54 65 55
REMARK SMILES IDX 21 57 53 58 33 59 52 60 34 61 37 62 51 63 70 64 35 65 36 66
REMARK SMILES IDX 50 68 71 69 38 70 22 71 23 72 31 73 24 74 25 75 29 76 32 77
REMARK SMILES IDX 26 78 27 79 30 80 28 81 54 82 55 83 63 84 56 85 57 86 61 87
REMARK SMILES IDX 64 88 58 89 59 90 62 91 60 92 39 93 40 94 48 95 41 96 42 97
REMARK SMILES IDX 46 98 49 99 43 100 44 101 47 102 45 103
REMARK H PARENT 5 5 88 25 10 37 69 56 37 67
REMARK Flexibility Score: inf
ROOT
ATOM      1  C   UNL A   1      43.721  24.070  24.734  1.00  0.00     0.116 C 
ENDROOT
BRANCH   1   2
ATOM      2  N   UNL A   1      42.653  23.128  25.002  1.00  0.00    -0.356 N 
ATOM      3  C   UNL A   1      42.150  22.700  26.200  1.00  0.00     0.227 C 
ATOM      4  O   UNL A   1      41.441  21.692  26.167  1.00  0.00    -0.274 OA
ATOM      5  H   UNL A   1      42.227  22.737  24.204  1.00  0.00     0.163 HD
BRANCH   3   6
ATOM      6  C   UNL A   1      42.464  23.489  27.484  1.00  0.00     0.105 C 
ATOM      7  C   UNL A   1      42.532  22.512  28.668  1.00  0.00     0.023 C 
BRANCH   6   8
ATOM      8  C   UNL A   1      41.509  24.654  27.766  1.00  0.00    -0.033 A 
ATOM      9  C   UNL A   1      40.154  24.617  27.393  1.00  0.00     0.005 A 
ATOM     10  C   UNL A   1      41.977  25.835  28.362  1.00  0.00     0.044 A 
ATOM     11  C   UNL A   1      39.288  25.683  27.676  1.00  0.00     0.012 A 
ATOM     12  C   UNL A   1      41.118  26.891  28.634  1.00  0.00     0.131 A 
ATOM     13  C   UNL A   1      39.760  26.840  28.305  1.00  0.00     0.018 A 
ATOM     14  F   UNL A   1      41.637  27.982  29.219  1.00  0.00    -0.206 F 
BRANCH  13  15
ATOM     15  C   UNL A   1      38.900  27.999  28.544  1.00  0.00    -0.012 A 
ATOM     16  C   UNL A   1      38.658  28.970  27.562  1.00  0.00     0.009 A 
ATOM     17  C   UNL A   1      38.276  28.133  29.794  1.00  0.00     0.056 A 
ATOM     18  C   UNL A   1      37.800  30.041  27.823  1.00  0.00     0.004 A 
ATOM     19  C   UNL A   1      37.434  29.203  30.058  1.00  0.00     0.133 A 
ATOM     20  C   UNL A   1      37.185  30.158  29.072  1.00  0.00     0.047 A 
BRANCH  19  21
ATOM     21  O   UNL A   1      36.795  29.415  31.303  1.00  0.00    -0.410 OA
BRANCH  21  22
ATOM     22  C   UNL A   1      37.385  29.286  32.561  1.00  0.00     0.417 C 
ATOM     23  O   UNL A   1      37.404  28.269  33.250  1.00  0.00    -0.224 OA
ATOM     24  N   UNL A   1      38.091  30.383  32.977  1.00  0.00    -0.291 N 
ATOM     25  H   UNL A   1      38.633  30.243  33.788  1.00  0.00     0.173 HD
BRANCH  24  26
ATOM     26  C   UNL A   1      38.167  31.672  32.437  1.00  0.00     0.044 A 
ATOM     27  C   UNL A   1      39.339  32.001  31.746  1.00  0.00     0.026 A 
ATOM     28  C   UNL A   1      37.167  32.636  32.582  1.00  0.00     0.026 A 
ATOM     29  C   UNL A   1      39.486  33.258  31.163  1.00  0.00     0.002 A 
ATOM     30  C   UNL A   1      37.325  33.903  32.015  1.00  0.00     0.002 A 
ATOM     31  C   UNL A   1      38.479  34.210  31.297  1.00  0.00     0.000 A 
ENDBRANCH  24  26
ENDBRANCH  21  22
ENDBRANCH  19  21
ENDBRANCH  13  15
ENDBRANCH   6   8
ENDBRANCH   3   6
ENDBRANCH   1   2
BRANCH   1  32
ATOM     32  C   UNL A   1      45.019  23.336  24.380  1.00  0.00     0.023 C 
BRANCH  32  33
ATOM     33  C   UNL A   1      45.982  23.140  25.550  1.00  0.00     0.023 C 
BRANCH  33  34
ATOM     34  C   UNL A   1      46.696  24.403  25.994  1.00  0.00     0.116 C 
BRANCH  34  35
ATOM     35  N   UNL A   1      47.236  25.166  24.878  1.00  0.00    -0.352 N 
ATOM     36  C   UNL A   1      47.108  26.510  24.632  1.00  0.00     0.251 C 
ATOM     37  H   UNL A   1      47.759  24.654  24.219  1.00  0.00     0.163 HD
ATOM     38  O   UNL A   1      47.504  27.003  23.582  1.00  0.00    -0.269 OA
BRANCH  36  39
ATOM     39  C   UNL A   1      46.448  27.349  25.649  1.00  0.00     0.039 A 
ATOM     40  C   UNL A   1      45.054  27.431  25.667  1.00  0.00     0.014 A 
ATOM     41  C   UNL A   1      47.215  27.985  26.629  1.00  0.00     0.014 A 
ATOM     42  C   UNL A   1      44.420  28.095  26.717  1.00  0.00     0.010 A 
ATOM     43  C   UNL A   1      46.582  28.576  27.712  1.00  0.00     0.010 A 
ATOM     44  C   UNL A   1      45.180  28.640  27.765  1.00  0.00    -0.014 A 
BRANCH  44  45
ATOM     45  C   UNL A   1      44.550  29.303  28.932  1.00  0.00     0.031 A 
ATOM     46  C   UNL A   1      44.266  30.775  28.871  1.00  0.00     0.074 A 
ATOM     47  C   UNL A   1      44.352  28.617  30.073  1.00  0.00     0.049 A 
ATOM     48  N   UNL A   1      43.903  31.592  29.827  1.00  0.00    -0.248 NA
ATOM     49  C   UNL A   1      44.457  31.422  27.564  1.00  0.00     0.031 C 
ATOM     50  C   UNL A   1      44.628  27.194  30.265  1.00  0.00     0.029 A 
ATOM     51  N   UNL A   1      43.900  29.038  31.298  1.00  0.00    -0.354 N 
ATOM     52  C   UNL A   1      43.861  32.851  29.245  1.00  0.00     0.074 A 
ATOM     53  C   UNL A   1      44.279  32.699  27.869  1.00  0.00     0.031 C 
ATOM     54  C   UNL A   1      44.339  26.858  31.532  1.00  0.00     0.029 A 
ATOM     55  C   UNL A   1      43.901  28.051  32.253  1.00  0.00     0.049 A 
ATOM     56  H   UNL A   1      43.604  29.960  31.476  1.00  0.00     0.167 HD
ATOM     57  C   UNL A   1      43.492  34.026  29.807  1.00  0.00     0.037 A 
ATOM     58  C   UNL A   1      43.604  28.108  33.564  1.00  0.00     0.037 A 
ATOM     59  C   UNL A   1      43.043  34.161  31.167  1.00  0.00     0.049 A 
ATOM     60  C   UNL A   1      43.182  29.421  34.166  1.00  0.00     0.074 A 
ATOM     61  C   UNL A   1      42.577  35.291  31.815  1.00  0.00     0.029 A 
ATOM     62  N   UNL A   1      43.007  33.125  32.091  1.00  0.00    -0.354 N 
ATOM     63  N   UNL A   1      43.089  30.598  33.598  1.00  0.00    -0.248 NA
ATOM     64  C   UNL A   1      42.818  29.413  35.590  1.00  0.00     0.031 C 
ATOM     65  C   UNL A   1      42.301  34.949  33.143  1.00  0.00     0.029 A 
ATOM     66  C   UNL A   1      42.544  33.595  33.308  1.00  0.00     0.049 A 
ATOM     67  H   UNL A   1      43.270  32.195  31.907  1.00  0.00     0.167 HD
ATOM     68  C   UNL A   1      42.629  31.463  34.580  1.00  0.00     0.074 A 
ATOM     69  C   UNL A   1      42.458  30.674  35.783  1.00  0.00     0.031 C 
ATOM     70  C   UNL A   1      42.366  32.790  34.491  1.00  0.00     0.037 A 
BRANCH  57  71
ATOM     71  C   UNL A   1      43.571  35.255  28.947  1.00  0.00     0.064 A 
ATOM     72  C   UNL A   1      42.437  35.792  28.318  1.00  0.00     0.173 A 
ATOM     73  C   UNL A   1      44.800  35.902  28.749  1.00  0.00     0.173 A 
ATOM     74  F   UNL A   1      41.241  35.203  28.465  1.00  0.00    -0.203 F 
ATOM     75  C   UNL A   1      42.539  36.904  27.486  1.00  0.00     0.198 A 
ATOM     76  C   UNL A   1      44.890  37.035  27.944  1.00  0.00     0.198 A 
ATOM     77  F   UNL A   1      45.914  35.435  29.331  1.00  0.00    -0.203 F 
ATOM     78  F   UNL A   1      41.455  37.357  26.842  1.00  0.00    -0.200 F 
ATOM     79  C   UNL A   1      43.764  37.527  27.303  1.00  0.00     0.200 A 
ATOM     80  F   UNL A   1      46.074  37.644  27.779  1.00  0.00    -0.200 F 
ATOM     81  F   UNL A   1      43.861  38.596  26.500  1.00  0.00    -0.200 F 
ENDBRANCH  57  71
BRANCH  58  82
ATOM     82  C   UNL A   1      43.678  26.873  34.386  1.00  0.00     0.064 A 
ATOM     83  C   UNL A   1      42.518  26.155  34.707  1.00  0.00     0.173 A 
ATOM     84  C   UNL A   1      44.907  26.368  34.837  1.00  0.00     0.173 A 
ATOM     85  F   UNL A   1      41.320  26.609  34.313  1.00  0.00    -0.203 F 
ATOM     86  C   UNL A   1      42.583  24.981  35.455  1.00  0.00     0.198 A 
ATOM     87  C   UNL A   1      44.972  25.181  35.564  1.00  0.00     0.198 A 
ATOM     88  F   UNL A   1      46.045  27.015  34.550  1.00  0.00    -0.203 F 
ATOM     89  F   UNL A   1      41.456  24.329  35.774  1.00  0.00    -0.200 F 
ATOM     90  C   UNL A   1      43.810  24.491  35.877  1.00  0.00     0.200 A 
ATOM     91  F   UNL A   1      46.161  24.702  35.956  1.00  0.00    -0.200 F 
ATOM     92  F   UNL A   1      43.873  23.355  36.584  1.00  0.00    -0.200 F 
ENDBRANCH  58  82
BRANCH  70  93
ATOM     93  C   UNL A   1      41.817  33.472  35.710  1.00  0.00     0.064 A 
ATOM     94  C   UNL A   1      42.654  34.081  36.655  1.00  0.00     0.173 A 
ATOM     95  C   UNL A   1      40.430  33.577  35.894  1.00  0.00     0.173 A 
ATOM     96  F   UNL A   1      43.987  33.995  36.531  1.00  0.00    -0.203 F 
ATOM     97  C   UNL A   1      42.121  34.761  37.747  1.00  0.00     0.198 A 
ATOM     98  C   UNL A   1      39.900  34.280  36.971  1.00  0.00     0.198 A 
ATOM     99  F   UNL A   1      39.587  33.016  35.013  1.00  0.00    -0.203 F 
ATOM    100  F   UNL A   1      42.938  35.309  38.657  1.00  0.00    -0.200 F 
ATOM    101  C   UNL A   1      40.746  34.868  37.898  1.00  0.00     0.200 A 
ATOM    102  F   UNL A   1      38.572  34.395  37.107  1.00  0.00    -0.200 F 
ATOM    103  F   UNL A   1      40.236  35.537  38.941  1.00  0.00    -0.200 F 
ENDBRANCH  70  93
ENDBRANCH  44  45
ENDBRANCH  36  39
ENDBRANCH  34  35
ENDBRANCH  33  34
ENDBRANCH  32  33
ENDBRANCH   1  32
TORSDOF 16
ENDMDL
MODEL 2
REMARK VINA RESULT:     -10.5      3.399      9.478
REMARK SMILES C[C@@H](C(=O)NCCCCNC(=O)c1ccc(-c2c3nc(c(-c4c(F)c(F)c(F)c(F)c4F)c4ccc([nH]4)c(-c4c(F)c(F)c(F)c(F)c4F)c4nc(c(-c5c(F)c(F)c(F)c(F)c5F)c5ccc2[nH]5)C=C4)C=C3)cc1)c1ccc(-c2cccc(OC(=O)Nc3ccccc3)c2)c(F)c1
REMARK SMILES IDX 6 1 5 2 3 3 4 4 2 6 1 7 76 8 77 9 98 10 78 11 96 12 79 13
REMARK SMILES IDX 97 14 80 15 81 16 95 17 82 18 84 19 83 20 85 21 86 22 87 23
REMARK SMILES IDX 88 24 89 26 90 27 94 28 91 29 93 30 92 31 7 32 8 33 9 34
REMARK SMILES IDX 10 35 11 36 12 38 13 39 14 40 75 41 15 42 74 43 16 44 17 45
REMARK SMILES IDX 18 46 68 47 19 48 73 49 67 50 69 51 20 52 72 53 66 54 65 55
REMARK SMILES IDX 21 57 53 58 33 59 52 60 34 61 37 62 51 63 70 64 35 65 36 66
REMARK SMILES IDX 50 68 71 69 38 70 22 71 23 72 31 73 24 74 25 75 29 76 32 77
REMARK SMILES IDX 26 78 27 79 30 80 28 81 54 82 55 83 63 84 56 85 57 86 61 87
REMARK SMILES IDX 64 88 58 89 59 90 62 91 60 92 39 93 40 94 48 95 41 96 42 97
REMARK SMILES IDX 46 98 49 99 43 100 44 101 47 102 45 103
REMARK H PARENT 5 5 88 25 10 37 69 56 37 67
REMARK Flexibility Score: inf
ROOT
ATOM      1  C   UNL A   1      36.705  33.191  30.743  1.00  0.00     0.116 C 
ENDROOT
BRANCH   1   2
ATOM      2  N   UNL A   1      37.559  34.022  31.567  1.00  0.00    -0.356 N 
ATOM      3  C   UNL A   1      37.821  33.940  32.908  1.00  0.00     0.227 C 
ATOM      4  O   UNL A   1      38.353  34.925  33.422  1.00  0.00    -0.274 OA
ATOM      5  H   UNL A   1      38.018  34.753  31.094  1.00  0.00     0.163 HD
BRANCH   3   6
ATOM      6  C   UNL A   1      37.471  32.652  33.675  1.00  0.00     0.105 C 
ATOM      7  C   UNL A   1      37.008  33.024  35.092  1.00  0.00     0.023 C 
BRANCH   6   8
ATOM      8  C   UNL A   1      38.587  31.602  33.703  1.00  0.00    -0.033 A 
ATOM      9  C   UNL A   1      39.863  31.882  34.222  1.00  0.00     0.005 A 
ATOM     10  C   UNL A   1      38.386  30.329  33.148  1.00  0.00     0.044 A 
ATOM     11  C   UNL A   1      40.869  30.906  34.257  1.00  0.00     0.012 A 
ATOM     12  C   UNL A   1      39.386  29.366  33.180  1.00  0.00     0.131 A 
ATOM     13  C   UNL A   1      40.642  29.627  33.736  1.00  0.00     0.018 A 
ATOM     14  F   UNL A   1      39.114  28.166  32.643  1.00  0.00    -0.206 F 
BRANCH  13  15
ATOM     15  C   UNL A   1      41.694  28.611  33.688  1.00  0.00    -0.012 A 
ATOM     16  C   UNL A   1      42.225  28.136  32.481  1.00  0.00     0.009 A 
ATOM     17  C   UNL A   1      42.206  28.109  34.895  1.00  0.00     0.056 A 
ATOM     18  C   UNL A   1      43.255  27.192  32.485  1.00  0.00     0.004 A 
ATOM     19  C   UNL A   1      43.220  27.162  34.899  1.00  0.00     0.133 A 
ATOM     20  C   UNL A   1      43.755  26.704  33.694  1.00  0.00     0.047 A 
BRANCH  19  21
ATOM     21  O   UNL A   1      43.763  26.594  36.075  1.00  0.00    -0.410 OA
BRANCH  21  22
ATOM     22  C   UNL A   1      43.061  25.855  37.029  1.00  0.00     0.417 C 
ATOM     23  O   UNL A   1      42.411  26.314  37.965  1.00  0.00    -0.224 OA
ATOM     24  N   UNL A   1      43.032  24.505  36.799  1.00  0.00    -0.291 N 
ATOM     25  H   UNL A   1      42.415  24.001  37.378  1.00  0.00     0.173 HD
BRANCH  24  26
ATOM     26  C   UNL A   1      43.738  23.727  35.874  1.00  0.00     0.044 A 
ATOM     27  C   UNL A   1      45.034  23.339  36.232  1.00  0.00     0.026 A 
ATOM     28  C   UNL A   1      43.236  23.359  34.624  1.00  0.00     0.026 A 
ATOM     29  C   UNL A   1      45.798  22.550  35.374  1.00  0.00     0.002 A 
ATOM     30  C   UNL A   1      44.010  22.585  33.756  1.00  0.00     0.002 A 
ATOM     31  C   UNL A   1      45.286  22.172  34.135  1.00  0.00     0.000 A 
ENDBRANCH  24  26
ENDBRANCH  21  22
ENDBRANCH  19  21
ENDBRANCH  13  15
ENDBRANCH   6   8
ENDBRANCH   3   6
ENDBRANCH   1   2
BRANCH   1  32
ATOM     32  C   UNL A   1      35.297  33.789  30.640  1.00  0.00     0.023 C 
BRANCH  32  33
ATOM     33  C   UNL A   1      34.816  34.049  29.214  1.00  0.00     0.023 C 
BRANCH  33  34
ATOM     34  C   UNL A   1      35.248  33.002  28.205  1.00  0.00     0.116 C 
BRANCH  34  35
ATOM     35  N   UNL A   1      34.244  31.968  28.002  1.00  0.00    -0.352 N 
ATOM     36  C   UNL A   1      34.433  30.610  27.918  1.00  0.00     0.251 C 
ATOM     37  H   UNL A   1      33.315  32.280  27.915  1.00  0.00     0.163 HD
ATOM     38  O   UNL A   1      33.514  29.860  27.614  1.00  0.00    -0.269 OA
BRANCH  36  39
ATOM     39  C   UNL A   1      35.783  30.074  28.171  1.00  0.00     0.039 A 
ATOM     40  C   UNL A   1      36.722  30.074  27.137  1.00  0.00     0.014 A 
ATOM     41  C   UNL A   1      36.132  29.649  29.455  1.00  0.00     0.014 A 
ATOM     42  C   UNL A   1      38.042  29.713  27.410  1.00  0.00     0.010 A 
ATOM     43  C   UNL A   1      37.460  29.367  29.741  1.00  0.00     0.010 A 
ATOM     44  C   UNL A   1      38.426  29.393  28.722  1.00  0.00    -0.014 A 
BRANCH  44  45
ATOM     45  C   UNL A   1      39.827  29.061  29.073  1.00  0.00     0.031 A 
ATOM     46  C   UNL A   1      40.674  30.092  29.760  1.00  0.00     0.074 A 
ATOM     47  C   UNL A   1      40.366  27.896  28.669  1.00  0.00     0.049 A 
ATOM     48  N   UNL A   1      41.963  30.094  29.986  1.00  0.00    -0.248 NA
ATOM     49  C   UNL A   1      39.980  31.307  30.215  1.00  0.00     0.031 C 
ATOM     50  C   UNL A   1      39.654  26.834  27.958  1.00  0.00     0.029 A 
ATOM     51  N   UNL A   1      41.651  27.426  28.773  1.00  0.00    -0.354 N 
ATOM     52  C   UNL A   1      42.237  31.320  30.574  1.00  0.00     0.074 A 
ATOM     53  C   UNL A   1      40.992  32.055  30.627  1.00  0.00     0.031 C 
ATOM     54  C   UNL A   1      40.510  25.836  27.691  1.00  0.00     0.029 A 
ATOM     55  C   UNL A   1      41.840  26.206  28.169  1.00  0.00     0.049 A 
ATOM     56  H   UNL A   1      42.369  27.916  29.234  1.00  0.00     0.167 HD
ATOM     57  C   UNL A   1      43.420  31.785  31.041  1.00  0.00     0.037 A 
ATOM     58  C   UNL A   1      42.962  25.483  28.003  1.00  0.00     0.037 A 
ATOM     59  C   UNL A   1      44.646  31.032  31.015  1.00  0.00     0.049 A 
ATOM     60  C   UNL A   1      44.264  26.009  28.542  1.00  0.00     0.074 A 
ATOM     61  C   UNL A   1      45.883  31.379  31.527  1.00  0.00     0.029 A 
ATOM     62  N   UNL A   1      44.786  29.774  30.443  1.00  0.00    -0.354 N 
ATOM     63  N   UNL A   1      44.507  27.145  29.148  1.00  0.00    -0.248 NA
ATOM     64  C   UNL A   1      45.447  25.152  28.379  1.00  0.00     0.031 C 
ATOM     65  C   UNL A   1      46.783  30.351  31.225  1.00  0.00     0.029 A 
ATOM     66  C   UNL A   1      46.094  29.340  30.573  1.00  0.00     0.049 A 
ATOM     67  H   UNL A   1      44.062  29.267  30.010  1.00  0.00     0.167 HD
ATOM     68  C   UNL A   1      45.858  27.129  29.466  1.00  0.00     0.074 A 
ATOM     69  C   UNL A   1      46.383  25.866  28.988  1.00  0.00     0.031 C 
ATOM     70  C   UNL A   1      46.594  28.072  30.103  1.00  0.00     0.037 A 
BRANCH  57  71
ATOM     71  C   UNL A   1      43.438  33.175  31.606  1.00  0.00     0.064 A 
ATOM     72  C   UNL A   1      43.467  33.411  32.990  1.00  0.00     0.173 A 
ATOM     73  C   UNL A   1      43.426  34.288  30.752  1.00  0.00     0.173 A 
ATOM     74  F   UNL A   1      43.466  32.382  33.850  1.00  0.00    -0.203 F 
ATOM     75  C   UNL A   1      43.435  34.708  33.496  1.00  0.00     0.198 A 
ATOM     76  C   UNL A   1      43.430  35.584  31.262  1.00  0.00     0.198 A 
ATOM     77  F   UNL A   1      43.405  34.120  29.421  1.00  0.00    -0.203 F 
ATOM     78  F   UNL A   1      43.392  34.906  34.821  1.00  0.00    -0.200 F 
ATOM     79  C   UNL A   1      43.421  35.793  32.633  1.00  0.00     0.200 A 
ATOM     80  F   UNL A   1      43.430  36.631  30.425  1.00  0.00    -0.200 F 
ATOM     81  F   UNL A   1      43.388  37.040  33.122  1.00  0.00    -0.200 F 
ENDBRANCH  57  71
BRANCH  58  82
ATOM     82  C   UNL A   1      42.890  24.170  27.311  1.00  0.00     0.064 A 
ATOM     83  C   UNL A   1      43.195  24.060  25.948  1.00  0.00     0.173 A 
ATOM     84  C   UNL A   1      42.549  22.997  28.002  1.00  0.00     0.173 A 
ATOM     85  F   UNL A   1      43.509  25.156  25.242  1.00  0.00    -0.203 F 
ATOM     86  C   UNL A   1      43.155  22.828  25.299  1.00  0.00     0.198 A 
ATOM     87  C   UNL A   1      42.533  21.763  27.358  1.00  0.00     0.198 A 
ATOM     88  F   UNL A   1      42.255  23.050  29.309  1.00  0.00    -0.203 F 
ATOM     89  F   UNL A   1      43.424  22.755  23.988  1.00  0.00    -0.200 F 
ATOM     90  C   UNL A   1      42.832  21.679  26.005  1.00  0.00     0.200 A 
ATOM     91  F   UNL A   1      42.236  20.652  28.047  1.00  0.00    -0.200 F 
ATOM     92  F   UNL A   1      42.807  20.493  25.383  1.00  0.00    -0.200 F 
ENDBRANCH  58  82
BRANCH  70  93
ATOM     93  C   UNL A   1      48.039  27.763  30.369  1.00  0.00     0.064 A 
ATOM     94  C   UNL A   1      49.051  28.141  29.475  1.00  0.00     0.173 A 
ATOM     95  C   UNL A   1      48.417  27.143  31.569  1.00  0.00     0.173 A 
ATOM     96  F   UNL A   1      48.739  28.723  28.308  1.00  0.00    -0.203 F 
ATOM     97  C   UNL A   1      50.390  27.897  29.770  1.00  0.00     0.198 A 
ATOM     98  C   UNL A   1      49.757  26.925  31.873  1.00  0.00     0.198 A 
ATOM     99  F   UNL A   1      47.485  26.768  32.459  1.00  0.00    -0.203 F 
ATOM    100  F   UNL A   1      51.341  28.238  28.890  1.00  0.00    -0.200 F 
ATOM    101  C   UNL A   1      50.742  27.300  30.973  1.00  0.00     0.200 A 
ATOM    102  F   UNL A   1      50.095  26.362  33.041  1.00  0.00    -0.200 F 
ATOM    103  F   UNL A   1      52.032  27.082  31.261  1.00  0.00    -0.200 F 
ENDBRANCH  70  93
ENDBRANCH  44  45
ENDBRANCH  36  39
ENDBRANCH  34  35
ENDBRANCH  33  34
ENDBRANCH  32  33
ENDBRANCH   1  32
TORSDOF 16
ENDMDL
MODEL 3
REMARK VINA RESULT:     -10.3      3.114      8.153
REMARK SMILES C[C@@H](C(=O)NCCCCNC(=O)c1ccc(-c2c3nc(c(-c4c(F)c(F)c(F)c(F)c4F)c4ccc([nH]4)c(-c4c(F)c(F)c(F)c(F)c4F)c4nc(c(-c5c(F)c(F)c(F)c(F)c5F)c5ccc2[nH]5)C=C4)C=C3)cc1)c1ccc(-c2cccc(OC(=O)Nc3ccccc3)c2)c(F)c1
REMARK SMILES IDX 6 1 5 2 3 3 4 4 2 6 1 7 76 8 77 9 98 10 78 11 96 12 79 13
REMARK SMILES IDX 97 14 80 15 81 16 95 17 82 18 84 19 83 20 85 21 86 22 87 23
REMARK SMILES IDX 88 24 89 26 90 27 94 28 91 29 93 30 92 31 7 32 8 33 9 34
REMARK SMILES IDX 10 35 11 36 12 38 13 39 14 40 75 41 15 42 74 43 16 44 17 45
REMARK SMILES IDX 18 46 68 47 19 48 73 49 67 50 69 51 20 52 72 53 66 54 65 55
REMARK SMILES IDX 21 57 53 58 33 59 52 60 34 61 37 62 51 63 70 64 35 65 36 66
REMARK SMILES IDX 50 68 71 69 38 70 22 71 23 72 31 73 24 74 25 75 29 76 32 77
REMARK SMILES IDX 26 78 27 79 30 80 28 81 54 82 55 83 63 84 56 85 57 86 61 87
REMARK SMILES IDX 64 88 58 89 59 90 62 91 60 92 39 93 40 94 48 95 41 96 42 97
REMARK SMILES IDX 46 98 49 99 43 100 44 101 47 102 45 103
REMARK H PARENT 5 5 88 25 10 37 69 56 37 67
REMARK Flexibility Score: inf
ROOT
ATOM      1  C   UNL A   1      42.657  18.440  26.274  1.00  0.00     0.116 C 
ENDROOT
BRANCH   1   2
ATOM      2  N   UNL A   1      44.100  18.313  26.311  1.00  0.00    -0.356 N 
ATOM      3  C   UNL A   1      45.039  18.802  25.445  1.00  0.00     0.227 C 
ATOM      4  O   UNL A   1      46.171  18.324  25.539  1.00  0.00    -0.274 OA
ATOM      5  H   UNL A   1      44.457  17.800  27.072  1.00  0.00     0.163 HD
BRANCH   3   6
ATOM      6  C   UNL A   1      44.652  19.907  24.446  1.00  0.00     0.105 C 
ATOM      7  C   UNL A   1      45.127  19.501  23.042  1.00  0.00     0.023 C 
BRANCH   6   8
ATOM      8  C   UNL A   1      45.141  21.309  24.824  1.00  0.00    -0.033 A 
ATOM      9  C   UNL A   1      45.694  22.189  23.878  1.00  0.00     0.005 A 
ATOM     10  C   UNL A   1      45.108  21.743  26.159  1.00  0.00     0.044 A 
ATOM     11  C   UNL A   1      46.120  23.476  24.236  1.00  0.00     0.012 A 
ATOM     12  C   UNL A   1      45.536  23.016  26.511  1.00  0.00     0.131 A 
ATOM     13  C   UNL A   1      46.044  23.910  25.564  1.00  0.00     0.018 A 
ATOM     14  F   UNL A   1      45.459  23.364  27.805  1.00  0.00    -0.206 F 
BRANCH  13  15
ATOM     15  C   UNL A   1      46.551  25.217  25.983  1.00  0.00    -0.012 A 
ATOM     16  C   UNL A   1      47.921  25.509  26.040  1.00  0.00     0.009 A 
ATOM     17  C   UNL A   1      45.633  26.223  26.320  1.00  0.00     0.056 A 
ATOM     18  C   UNL A   1      48.358  26.783  26.410  1.00  0.00     0.004 A 
ATOM     19  C   UNL A   1      46.066  27.485  26.701  1.00  0.00     0.133 A 
ATOM     20  C   UNL A   1      47.431  27.774  26.740  1.00  0.00     0.047 A 
BRANCH  19  21
ATOM     21  O   UNL A   1      45.198  28.536  27.080  1.00  0.00    -0.410 OA
BRANCH  21  22
ATOM     22  C   UNL A   1      44.071  28.964  26.376  1.00  0.00     0.417 C 
ATOM     23  O   UNL A   1      43.286  28.247  25.761  1.00  0.00    -0.224 OA
ATOM     24  N   UNL A   1      43.792  30.299  26.501  1.00  0.00    -0.291 N 
ATOM     25  H   UNL A   1      42.920  30.575  26.136  1.00  0.00     0.173 HD
BRANCH  24  26
ATOM     26  C   UNL A   1      44.548  31.335  27.064  1.00  0.00     0.044 A 
ATOM     27  C   UNL A   1      44.326  31.617  28.417  1.00  0.00     0.026 A 
ATOM     28  C   UNL A   1      45.464  32.107  26.347  1.00  0.00     0.026 A 
ATOM     29  C   UNL A   1      45.049  32.622  29.057  1.00  0.00     0.002 A 
ATOM     30  C   UNL A   1      46.173  33.128  26.985  1.00  0.00     0.002 A 
ATOM     31  C   UNL A   1      45.973  33.378  28.341  1.00  0.00     0.000 A 
ENDBRANCH  24  26
ENDBRANCH  21  22
ENDBRANCH  19  21
ENDBRANCH  13  15
ENDBRANCH   6   8
ENDBRANCH   3   6
ENDBRANCH   1   2
BRANCH   1  32
ATOM     32  C   UNL A   1      42.208  19.757  26.917  1.00  0.00     0.023 C 
BRANCH  32  33
ATOM     33  C   UNL A   1      40.764  20.155  26.618  1.00  0.00     0.023 C 
BRANCH  33  34
ATOM     34  C   UNL A   1      40.533  21.651  26.517  1.00  0.00     0.116 C 
BRANCH  34  35
ATOM     35  N   UNL A   1      39.234  21.983  25.951  1.00  0.00    -0.352 N 
ATOM     36  C   UNL A   1      38.524  23.150  26.091  1.00  0.00     0.251 C 
ATOM     37  H   UNL A   1      38.813  21.285  25.400  1.00  0.00     0.163 HD
ATOM     38  O   UNL A   1      37.379  23.250  25.667  1.00  0.00    -0.269 OA
BRANCH  36  39
ATOM     39  C   UNL A   1      39.161  24.278  26.795  1.00  0.00     0.039 A 
ATOM     40  C   UNL A   1      39.952  25.174  26.074  1.00  0.00     0.014 A 
ATOM     41  C   UNL A   1      38.902  24.484  28.153  1.00  0.00     0.014 A 
ATOM     42  C   UNL A   1      40.430  26.325  26.701  1.00  0.00     0.010 A 
ATOM     43  C   UNL A   1      39.312  25.665  28.752  1.00  0.00     0.010 A 
ATOM     44  C   UNL A   1      40.081  26.596  28.034  1.00  0.00    -0.014 A 
BRANCH  44  45
ATOM     45  C   UNL A   1      40.514  27.833  28.725  1.00  0.00     0.031 A 
ATOM     46  C   UNL A   1      41.893  27.898  29.313  1.00  0.00     0.074 A 
ATOM     47  C   UNL A   1      39.638  28.834  28.929  1.00  0.00     0.049 A 
ATOM     48  N   UNL A   1      42.413  28.790  30.116  1.00  0.00    -0.248 NA
ATOM     49  C   UNL A   1      42.795  26.784  28.984  1.00  0.00     0.031 C 
ATOM     50  C   UNL A   1      38.259  28.866  28.442  1.00  0.00     0.029 A 
ATOM     51  N   UNL A   1      39.773  30.006  29.631  1.00  0.00    -0.354 N 
ATOM     52  C   UNL A   1      43.685  28.325  30.417  1.00  0.00     0.074 A 
ATOM     53  C   UNL A   1      43.842  27.051  29.749  1.00  0.00     0.031 C 
ATOM     54  C   UNL A   1      37.675  30.001  28.858  1.00  0.00     0.029 A 
ATOM     55  C   UNL A   1      38.621  30.753  29.678  1.00  0.00     0.049 A 
ATOM     56  H   UNL A   1      40.614  30.284  30.060  1.00  0.00     0.167 HD
ATOM     57  C   UNL A   1      44.642  28.915  31.172  1.00  0.00     0.037 A 
ATOM     58  C   UNL A   1      38.355  31.902  30.327  1.00  0.00     0.037 A 
ATOM     59  C   UNL A   1      44.489  30.199  31.803  1.00  0.00     0.049 A 
ATOM     60  C   UNL A   1      39.436  32.550  31.148  1.00  0.00     0.074 A 
ATOM     61  C   UNL A   1      45.419  30.921  32.528  1.00  0.00     0.029 A 
ATOM     62  N   UNL A   1      43.323  30.953  31.783  1.00  0.00    -0.354 N 
ATOM     63  N   UNL A   1      40.656  32.134  31.383  1.00  0.00    -0.248 NA
ATOM     64  C   UNL A   1      39.106  33.830  31.790  1.00  0.00     0.031 C 
ATOM     65  C   UNL A   1      44.803  32.091  32.985  1.00  0.00     0.029 A 
ATOM     66  C   UNL A   1      43.505  32.124  32.499  1.00  0.00     0.049 A 
ATOM     67  H   UNL A   1      42.491  30.693  31.326  1.00  0.00     0.167 HD
ATOM     68  C   UNL A   1      41.249  33.109  32.172  1.00  0.00     0.074 A 
ATOM     69  C   UNL A   1      40.254  34.143  32.374  1.00  0.00     0.031 C 
ATOM     70  C   UNL A   1      42.507  33.148  32.676  1.00  0.00     0.037 A 
BRANCH  57  71
ATOM     71  C   UNL A   1      45.930  28.167  31.360  1.00  0.00     0.064 A 
ATOM     72  C   UNL A   1      47.041  28.388  30.531  1.00  0.00     0.173 A 
ATOM     73  C   UNL A   1      46.053  27.215  32.382  1.00  0.00     0.173 A 
ATOM     74  F   UNL A   1      46.971  29.278  29.530  1.00  0.00    -0.203 F 
ATOM     75  C   UNL A   1      48.211  27.650  30.690  1.00  0.00     0.198 A 
ATOM     76  C   UNL A   1      47.238  26.505  32.560  1.00  0.00     0.198 A 
ATOM     77  F   UNL A   1      45.025  26.969  33.207  1.00  0.00    -0.203 F 
ATOM     78  F   UNL A   1      49.234  27.829  29.843  1.00  0.00    -0.200 F 
ATOM     79  C   UNL A   1      48.310  26.713  31.707  1.00  0.00     0.200 A 
ATOM     80  F   UNL A   1      47.336  25.608  33.552  1.00  0.00    -0.200 F 
ATOM     81  F   UNL A   1      49.437  26.002  31.858  1.00  0.00    -0.200 F 
ENDBRANCH  57  71
BRANCH  58  82
ATOM     82  C   UNL A   1      37.009  32.517  30.202  1.00  0.00     0.064 A 
ATOM     83  C   UNL A   1      36.039  32.328  31.196  1.00  0.00     0.173 A 
ATOM     84  C   UNL A   1      36.676  33.331  29.109  1.00  0.00     0.173 A 
ATOM     85  F   UNL A   1      36.306  31.543  32.250  1.00  0.00    -0.203 F 
ATOM     86  C   UNL A   1      34.783  32.924  31.098  1.00  0.00     0.198 A 
ATOM     87  C   UNL A   1      35.429  33.946  29.025  1.00  0.00     0.198 A 
ATOM     88  F   UNL A   1      37.572  33.549  28.136  1.00  0.00    -0.203 F 
ATOM     89  F   UNL A   1      33.864  32.703  32.048  1.00  0.00    -0.200 F 
ATOM     90  C   UNL A   1      34.482  33.739  30.017  1.00  0.00     0.200 A 
ATOM     91  F   UNL A   1      35.146  34.746  27.987  1.00  0.00    -0.200 F 
ATOM     92  F   UNL A   1      33.279  34.322  29.931  1.00  0.00    -0.200 F 
ENDBRANCH  58  82
BRANCH  70  93
ATOM     93  C   UNL A   1      42.904  34.367  33.457  1.00  0.00     0.064 A 
ATOM     94  C   UNL A   1      43.409  35.514  32.829  1.00  0.00     0.173 A 
ATOM     95  C   UNL A   1      42.708  34.408  34.846  1.00  0.00     0.173 A 
ATOM     96  F   UNL A   1      43.628  35.519  31.506  1.00  0.00    -0.203 F 
ATOM     97  C   UNL A   1      43.714  36.655  33.567  1.00  0.00     0.198 A 
ATOM     98  C   UNL A   1      42.987  35.559  35.576  1.00  0.00     0.198 A 
ATOM     99  F   UNL A   1      42.221  33.337  35.492  1.00  0.00    -0.203 F 
ATOM    100  F   UNL A   1      44.225  37.731  32.953  1.00  0.00    -0.200 F 
ATOM    101  C   UNL A   1      43.493  36.680  34.937  1.00  0.00     0.200 A 
ATOM    102  F   UNL A   1      42.760  35.585  36.896  1.00  0.00    -0.200 F 
ATOM    103  F   UNL A   1      43.772  37.785  35.641  1.00  0.00    -0.200 F 
ENDBRANCH  70  93
ENDBRANCH  44  45
ENDBRANCH  36  39
ENDBRANCH  34  35
ENDBRANCH  33  34
ENDBRANCH  32  33
ENDBRANCH   1  32
TORSDOF 16
ENDMDL
