MODEL 1
REMARK VINA RESULT:     -10.0      0.000      0.000
REMARK SMILES CCOc1ccc(-c2csc3ncn([C@H](C)C(=O)NCCCCNC(=O)c4ccc(-c5c6nc(c(-c7c(F)c(F)c(F)c(F)c7F)c7ccc([nH]7)c(-c7c(F)c(F)c(F)c(F)c7F)c7nc(c(-c8c(F)c(F)c(F)c(F)c8F)c8ccc5[nH]8)C=C7)C=C6)cc4)c(=O)c23)cc1
REMARK SMILES IDX 20 1 19 2 17 3 18 4 15 6 16 7 14 8 8 9 9 10 92 11 10 12
REMARK SMILES IDX 11 13 90 14 12 15 91 16 13 17 7 18 4 19 5 20 94 21 6 22
REMARK SMILES IDX 93 23 3 24 2 25 1 26 21 27 22 28 23 29 24 30 25 31 26 33
REMARK SMILES IDX 27 34 28 35 89 36 29 37 88 38 30 39 31 40 32 41 82 42 33 43
REMARK SMILES IDX 87 44 81 45 83 46 34 47 86 48 80 49 79 50 35 52 67 53 47 54
REMARK SMILES IDX 66 55 48 56 51 57 65 58 84 59 49 60 50 61 64 63 85 64 52 65
REMARK SMILES IDX 36 66 37 67 45 68 38 69 39 70 43 71 46 72 40 73 41 74 44 75
REMARK SMILES IDX 42 76 68 77 69 78 77 79 70 80 71 81 75 82 78 83 72 84 73 85
REMARK SMILES IDX 76 86 74 87 53 88 54 89 62 90 55 91 56 92 60 93 63 94 57 95
REMARK SMILES IDX 58 96 61 97 59 98
REMARK H PARENT 19 5 24 32 83 51 51 62
REMARK Flexibility Score: inf
ROOT
ATOM      1  C   UNL A   1      44.277  25.979  25.528  1.00  0.00     0.116 C 
ENDROOT
BRANCH   1   2
ATOM      2  N   UNL A   1      44.929  27.081  24.849  1.00  0.00    -0.354 N 
ATOM      3  C   UNL A   1      46.216  27.532  24.905  1.00  0.00     0.242 C 
ATOM      4  O   UNL A   1      46.412  28.687  24.513  1.00  0.00    -0.273 OA
ATOM      5  H   UNL A   1      44.344  27.591  24.243  1.00  0.00     0.163 HD
BRANCH   3   6
ATOM      6  C   UNL A   1      47.357  26.722  25.570  1.00  0.00     0.177 C 
ATOM      7  C   UNL A   1      48.278  26.202  24.472  1.00  0.00     0.042 C 
BRANCH   6   8
ATOM      8  N   UNL A   1      47.989  27.478  26.665  1.00  0.00    -0.286 N 
ATOM      9  C   UNL A   1      47.837  27.883  30.400  1.00  0.00     0.007 A 
ATOM     10  C   UNL A   1      48.565  28.832  31.089  1.00  0.00     0.076 A 
ATOM     11  C   UNL A   1      48.177  27.875  29.013  1.00  0.00     0.085 A 
ATOM     12  S   UNL A   1      49.625  29.703  30.057  1.00  0.00    -0.123 S 
ATOM     13  C   UNL A   1      49.097  28.841  28.683  1.00  0.00     0.131 A 
ATOM     14  C   UNL A   1      47.643  27.054  27.950  1.00  0.00     0.263 A 
ATOM     15  N   UNL A   1      49.542  29.123  27.434  1.00  0.00    -0.227 NA
ATOM     16  O   UNL A   1      46.939  26.071  28.162  1.00  0.00    -0.268 OA
ATOM     17  C   UNL A   1      48.965  28.440  26.493  1.00  0.00     0.204 A 
BRANCH   9  18
ATOM     18  C   UNL A   1      46.796  27.094  31.031  1.00  0.00    -0.016 A 
ATOM     19  C   UNL A   1      44.754  25.507  32.108  1.00  0.00     0.119 A 
ATOM     20  C   UNL A   1      46.090  25.156  32.296  1.00  0.00     0.047 A 
ATOM     21  C   UNL A   1      44.439  26.635  31.354  1.00  0.00     0.047 A 
ATOM     22  C   UNL A   1      47.111  25.939  31.751  1.00  0.00     0.012 A 
ATOM     23  C   UNL A   1      45.456  27.434  30.827  1.00  0.00     0.012 A 
BRANCH  19  24
ATOM     24  O   UNL A   1      43.839  24.780  32.815  1.00  0.00    -0.494 OA
BRANCH  24  25
ATOM     25  C   UNL A   1      43.946  24.821  34.238  1.00  0.00     0.226 C 
ATOM     26  C   UNL A   1      43.006  23.826  34.893  1.00  0.00     0.049 C 
ENDBRANCH  24  25
ENDBRANCH  19  24
ENDBRANCH   9  18
ENDBRANCH   6   8
ENDBRANCH   3   6
ENDBRANCH   1   2
BRANCH   1  27
ATOM     27  C   UNL A   1      44.705  24.629  24.945  1.00  0.00     0.023 C 
BRANCH  27  28
ATOM     28  C   UNL A   1      43.573  23.629  24.673  1.00  0.00     0.023 C 
BRANCH  28  29
ATOM     29  C   UNL A   1      43.202  22.751  25.861  1.00  0.00     0.116 C 
BRANCH  29  30
ATOM     30  N   UNL A   1      41.768  22.486  25.947  1.00  0.00    -0.352 N 
ATOM     31  C   UNL A   1      40.815  23.206  26.649  1.00  0.00     0.251 C 
ATOM     32  H   UNL A   1      41.440  21.704  25.447  1.00  0.00     0.163 HD
ATOM     33  O   UNL A   1      39.757  22.704  26.982  1.00  0.00    -0.269 OA
BRANCH  31  34
ATOM     34  C   UNL A   1      41.110  24.612  26.977  1.00  0.00     0.039 A 
ATOM     35  C   UNL A   1      40.648  25.659  26.175  1.00  0.00     0.014 A 
ATOM     36  C   UNL A   1      41.829  24.864  28.143  1.00  0.00     0.014 A 
ATOM     37  C   UNL A   1      40.836  26.969  26.611  1.00  0.00     0.010 A 
ATOM     38  C   UNL A   1      41.896  26.142  28.637  1.00  0.00     0.010 A 
ATOM     39  C   UNL A   1      41.436  27.202  27.860  1.00  0.00    -0.014 A 
BRANCH  39  40
ATOM     40  C   UNL A   1      41.436  28.536  28.459  1.00  0.00     0.031 A 
ATOM     41  C   UNL A   1      42.587  29.370  28.033  1.00  0.00     0.074 A 
ATOM     42  C   UNL A   1      40.374  29.030  29.137  1.00  0.00     0.049 A 
ATOM     43  N   UNL A   1      43.569  29.777  28.765  1.00  0.00    -0.248 NA
ATOM     44  C   UNL A   1      42.766  29.656  26.598  1.00  0.00     0.031 C 
ATOM     45  C   UNL A   1      39.101  28.344  29.363  1.00  0.00     0.029 A 
ATOM     46  N   UNL A   1      40.150  30.262  29.693  1.00  0.00    -0.354 N 
ATOM     47  C   UNL A   1      44.342  30.590  27.941  1.00  0.00     0.074 A 
ATOM     48  C   UNL A   1      43.941  30.290  26.595  1.00  0.00     0.031 C 
ATOM     49  C   UNL A   1      38.183  29.219  29.818  1.00  0.00     0.029 A 
ATOM     50  C   UNL A   1      38.816  30.503  30.051  1.00  0.00     0.049 A 
ATOM     51  H   UNL A   1      40.867  30.923  29.830  1.00  0.00     0.167 HD
ATOM     52  C   UNL A   1      44.965  31.680  28.472  1.00  0.00     0.037 A 
ATOM     53  C   UNL A   1      38.280  31.670  30.508  1.00  0.00     0.037 A 
ATOM     54  C   UNL A   1      44.979  31.586  29.912  1.00  0.00     0.049 A 
ATOM     55  C   UNL A   1      39.420  32.436  31.082  1.00  0.00     0.074 A 
ATOM     56  C   UNL A   1      45.663  30.874  30.872  1.00  0.00     0.029 A 
ATOM     57  N   UNL A   1      43.841  32.073  30.499  1.00  0.00    -0.354 N 
ATOM     58  N   UNL A   1      40.044  32.068  32.168  1.00  0.00    -0.248 NA
ATOM     59  C   UNL A   1      40.114  33.448  30.288  1.00  0.00     0.031 C 
ATOM     60  C   UNL A   1      44.819  30.842  32.024  1.00  0.00     0.029 A 
ATOM     61  C   UNL A   1      43.665  31.573  31.757  1.00  0.00     0.049 A 
ATOM     62  H   UNL A   1      43.224  32.706  30.065  1.00  0.00     0.167 HD
ATOM     63  C   UNL A   1      41.354  32.447  31.952  1.00  0.00     0.074 A 
ATOM     64  C   UNL A   1      41.304  33.441  30.892  1.00  0.00     0.031 C 
ATOM     65  C   UNL A   1      42.381  31.675  32.407  1.00  0.00     0.037 A 
BRANCH  52  66
ATOM     66  C   UNL A   1      45.049  33.051  27.809  1.00  0.00     0.064 A 
ATOM     67  C   UNL A   1      46.331  33.561  27.499  1.00  0.00     0.173 A 
ATOM     68  C   UNL A   1      44.008  34.003  27.794  1.00  0.00     0.173 A 
ATOM     69  F   UNL A   1      47.401  32.754  27.472  1.00  0.00    -0.203 F 
ATOM     70  C   UNL A   1      46.562  34.928  27.308  1.00  0.00     0.198 A 
ATOM     71  C   UNL A   1      44.237  35.359  27.561  1.00  0.00     0.198 A 
ATOM     72  F   UNL A   1      42.745  33.698  28.107  1.00  0.00    -0.203 F 
ATOM     73  F   UNL A   1      47.815  35.377  27.154  1.00  0.00    -0.200 F 
ATOM     74  C   UNL A   1      45.516  35.828  27.356  1.00  0.00     0.200 A 
ATOM     75  F   UNL A   1      43.209  36.218  27.628  1.00  0.00    -0.200 F 
ATOM     76  F   UNL A   1      45.740  37.144  27.250  1.00  0.00    -0.200 F 
ENDBRANCH  52  66
BRANCH  53  77
ATOM     77  C   UNL A   1      36.899  32.249  30.413  1.00  0.00     0.064 A 
ATOM     78  C   UNL A   1      35.993  32.082  31.483  1.00  0.00     0.173 A 
ATOM     79  C   UNL A   1      36.486  33.172  29.436  1.00  0.00     0.173 A 
ATOM     80  F   UNL A   1      36.232  31.180  32.446  1.00  0.00    -0.203 F 
ATOM     81  C   UNL A   1      34.853  32.881  31.634  1.00  0.00     0.198 A 
ATOM     82  C   UNL A   1      35.348  33.975  29.587  1.00  0.00     0.198 A 
ATOM     83  F   UNL A   1      37.189  33.358  28.315  1.00  0.00    -0.203 F 
ATOM     84  F   UNL A   1      34.075  32.729  32.715  1.00  0.00    -0.200 F 
ATOM     85  C   UNL A   1      34.555  33.858  30.707  1.00  0.00     0.200 A 
ATOM     86  F   UNL A   1      35.053  34.891  28.652  1.00  0.00    -0.200 F 
ATOM     87  F   UNL A   1      33.511  34.679  30.892  1.00  0.00    -0.200 F 
ENDBRANCH  53  77
BRANCH  65  88
ATOM     88  C   UNL A   1      42.090  30.800  33.579  1.00  0.00     0.064 A 
ATOM     89  C   UNL A   1      42.077  31.228  34.915  1.00  0.00     0.173 A 
ATOM     90  C   UNL A   1      41.791  29.456  33.318  1.00  0.00     0.173 A 
ATOM     91  F   UNL A   1      42.283  32.512  35.230  1.00  0.00    -0.203 F 
ATOM     92  C   UNL A   1      41.825  30.328  35.949  1.00  0.00     0.198 A 
ATOM     93  C   UNL A   1      41.505  28.570  34.348  1.00  0.00     0.198 A 
ATOM     94  F   UNL A   1      41.759  29.008  32.053  1.00  0.00    -0.203 F 
ATOM     95  F   UNL A   1      41.850  30.745  37.224  1.00  0.00    -0.200 F 
ATOM     96  C   UNL A   1      41.537  29.002  35.664  1.00  0.00     0.200 A 
ATOM     97  F   UNL A   1      41.191  27.299  34.063  1.00  0.00    -0.200 F 
ATOM     98  F   UNL A   1      41.276  28.141  36.657  1.00  0.00    -0.200 F 
ENDBRANCH  65  88
ENDBRANCH  39  40
ENDBRANCH  31  34
ENDBRANCH  29  30
ENDBRANCH  28  29
ENDBRANCH  27  28
ENDBRANCH   1  27
TORSDOF 15
ENDMDL
MODEL 2
REMARK VINA RESULT:      -9.9      4.982      8.579
REMARK SMILES CCOc1ccc(-c2csc3ncn([C@H](C)C(=O)NCCCCNC(=O)c4ccc(-c5c6nc(c(-c7c(F)c(F)c(F)c(F)c7F)c7ccc([nH]7)c(-c7c(F)c(F)c(F)c(F)c7F)c7nc(c(-c8c(F)c(F)c(F)c(F)c8F)c8ccc5[nH]8)C=C7)C=C6)cc4)c(=O)c23)cc1
REMARK SMILES IDX 20 1 19 2 17 3 18 4 15 6 16 7 14 8 8 9 9 10 92 11 10 12
REMARK SMILES IDX 11 13 90 14 12 15 91 16 13 17 7 18 4 19 5 20 94 21 6 22
REMARK SMILES IDX 93 23 3 24 2 25 1 26 21 27 22 28 23 29 24 30 25 31 26 33
REMARK SMILES IDX 27 34 28 35 89 36 29 37 88 38 30 39 31 40 32 41 82 42 33 43
REMARK SMILES IDX 87 44 81 45 83 46 34 47 86 48 80 49 79 50 35 52 67 53 47 54
REMARK SMILES IDX 66 55 48 56 51 57 65 58 84 59 49 60 50 61 64 63 85 64 52 65
REMARK SMILES IDX 36 66 37 67 45 68 38 69 39 70 43 71 46 72 40 73 41 74 44 75
REMARK SMILES IDX 42 76 68 77 69 78 77 79 70 80 71 81 75 82 78 83 72 84 73 85
REMARK SMILES IDX 76 86 74 87 53 88 54 89 62 90 55 91 56 92 60 93 63 94 57 95
REMARK SMILES IDX 58 96 61 97 59 98
REMARK H PARENT 19 5 24 32 83 51 51 62
REMARK Flexibility Score: inf
ROOT
ATOM      1  C   UNL A   1      34.256  22.721  27.160  1.00  0.00     0.116 C 
ENDROOT
BRANCH   1   2
ATOM      2  N   UNL A   1      32.947  22.128  26.973  1.00  0.00    -0.354 N 
ATOM      3  C   UNL A   1      32.082  22.182  25.919  1.00  0.00     0.242 C 
ATOM      4  O   UNL A   1      30.904  21.896  26.158  1.00  0.00    -0.273 OA
ATOM      5  H   UNL A   1      32.627  21.594  27.736  1.00  0.00     0.163 HD
BRANCH   3   6
ATOM      6  C   UNL A   1      32.493  22.726  24.528  1.00  0.00     0.177 C 
ATOM      7  C   UNL A   1      32.534  21.557  23.549  1.00  0.00     0.042 C 
BRANCH   6   8
ATOM      8  N   UNL A   1      31.676  23.889  24.140  1.00  0.00    -0.286 N 
ATOM      9  C   UNL A   1      31.480  27.612  24.632  1.00  0.00     0.007 A 
ATOM     10  C   UNL A   1      30.437  28.384  24.162  1.00  0.00     0.076 A 
ATOM     11  C   UNL A   1      31.357  26.256  24.202  1.00  0.00     0.085 A 
ATOM     12  S   UNL A   1      29.327  27.465  23.230  1.00  0.00    -0.123 S 
ATOM     13  C   UNL A   1      30.213  26.028  23.475  1.00  0.00     0.131 A 
ATOM     14  C   UNL A   1      32.219  25.130  24.483  1.00  0.00     0.263 A 
ATOM     15  N   UNL A   1      29.792  24.827  23.010  1.00  0.00    -0.227 NA
ATOM     16  O   UNL A   1      33.331  25.256  24.986  1.00  0.00    -0.268 OA
ATOM     17  C   UNL A   1      30.532  23.823  23.369  1.00  0.00     0.204 A 
BRANCH   9  18
ATOM     18  C   UNL A   1      32.489  28.135  25.535  1.00  0.00    -0.016 A 
ATOM     19  C   UNL A   1      34.385  29.292  27.242  1.00  0.00     0.119 A 
ATOM     20  C   UNL A   1      33.237  28.700  27.766  1.00  0.00     0.047 A 
ATOM     21  C   UNL A   1      34.570  29.333  25.862  1.00  0.00     0.047 A 
ATOM     22  C   UNL A   1      32.284  28.131  26.916  1.00  0.00     0.012 A 
ATOM     23  C   UNL A   1      33.631  28.746  25.011  1.00  0.00     0.012 A 
BRANCH  19  24
ATOM     24  O   UNL A   1      35.333  29.668  28.152  1.00  0.00    -0.494 OA
BRANCH  24  25
ATOM     25  C   UNL A   1      36.394  30.492  27.670  1.00  0.00     0.226 C 
ATOM     26  C   UNL A   1      37.698  29.720  27.586  1.00  0.00     0.049 C 
ENDBRANCH  24  25
ENDBRANCH  19  24
ENDBRANCH   9  18
ENDBRANCH   6   8
ENDBRANCH   3   6
ENDBRANCH   1   2
BRANCH   1  27
ATOM     27  C   UNL A   1      35.317  22.018  26.309  1.00  0.00     0.023 C 
BRANCH  27  28
ATOM     28  C   UNL A   1      35.937  22.859  25.184  1.00  0.00     0.023 C 
BRANCH  28  29
ATOM     29  C   UNL A   1      37.369  23.308  25.444  1.00  0.00     0.116 C 
BRANCH  29  30
ATOM     30  N   UNL A   1      38.280  22.193  25.693  1.00  0.00    -0.352 N 
ATOM     31  C   UNL A   1      39.547  22.244  26.248  1.00  0.00     0.251 C 
ATOM     32  H   UNL A   1      37.953  21.301  25.436  1.00  0.00     0.163 HD
ATOM     33  O   UNL A   1      40.362  21.360  26.054  1.00  0.00    -0.269 OA
BRANCH  31  34
ATOM     34  C   UNL A   1      39.888  23.400  27.096  1.00  0.00     0.039 A 
ATOM     35  C   UNL A   1      41.032  23.400  27.900  1.00  0.00     0.014 A 
ATOM     36  C   UNL A   1      39.054  24.513  27.034  1.00  0.00     0.014 A 
ATOM     37  C   UNL A   1      41.379  24.571  28.570  1.00  0.00     0.010 A 
ATOM     38  C   UNL A   1      39.466  25.701  27.583  1.00  0.00     0.010 A 
ATOM     39  C   UNL A   1      40.605  25.729  28.382  1.00  0.00    -0.014 A 
BRANCH  39  40
ATOM     40  C   UNL A   1      41.064  27.029  28.869  1.00  0.00     0.031 A 
ATOM     41  C   UNL A   1      42.264  27.531  28.154  1.00  0.00     0.074 A 
ATOM     42  C   UNL A   1      40.333  27.792  29.714  1.00  0.00     0.049 A 
ATOM     43  N   UNL A   1      43.451  27.686  28.635  1.00  0.00    -0.248 NA
ATOM     44  C   UNL A   1      42.190  27.736  26.696  1.00  0.00     0.031 C 
ATOM     45  C   UNL A   1      39.011  27.460  30.248  1.00  0.00     0.029 A 
ATOM     46  N   UNL A   1      40.547  29.050  30.212  1.00  0.00    -0.354 N 
ATOM     47  C   UNL A   1      44.202  28.257  27.611  1.00  0.00     0.074 A 
ATOM     48  C   UNL A   1      43.455  28.046  26.404  1.00  0.00     0.031 C 
ATOM     49  C   UNL A   1      38.460  28.550  30.817  1.00  0.00     0.029 A 
ATOM     50  C   UNL A   1      39.425  29.633  30.819  1.00  0.00     0.049 A 
ATOM     51  H   UNL A   1      41.417  29.507  30.148  1.00  0.00     0.167 HD
ATOM     52  C   UNL A   1      45.176  29.160  27.921  1.00  0.00     0.037 A 
ATOM     53  C   UNL A   1      39.307  30.906  31.291  1.00  0.00     0.037 A 
ATOM     54  C   UNL A   1      45.480  29.092  29.330  1.00  0.00     0.049 A 
ATOM     55  C   UNL A   1      40.698  31.364  31.558  1.00  0.00     0.074 A 
ATOM     56  C   UNL A   1      46.160  28.246  30.177  1.00  0.00     0.029 A 
ATOM     57  N   UNL A   1      44.654  29.866  30.102  1.00  0.00    -0.354 N 
ATOM     58  N   UNL A   1      41.434  30.868  32.516  1.00  0.00    -0.248 NA
ATOM     59  C   UNL A   1      41.430  32.148  30.565  1.00  0.00     0.031 C 
ATOM     60  C   UNL A   1      45.607  28.453  31.478  1.00  0.00     0.029 A 
ATOM     61  C   UNL A   1      44.640  29.451  31.402  1.00  0.00     0.049 A 
ATOM     62  H   UNL A   1      44.133  30.628  29.760  1.00  0.00     0.167 HD
ATOM     63  C   UNL A   1      42.717  30.893  32.006  1.00  0.00     0.074 A 
ATOM     64  C   UNL A   1      42.683  31.847  30.910  1.00  0.00     0.031 C 
ATOM     65  C   UNL A   1      43.596  29.892  32.294  1.00  0.00     0.037 A 
BRANCH  52  66
ATOM     66  C   UNL A   1      45.449  30.450  27.156  1.00  0.00     0.064 A 
ATOM     67  C   UNL A   1      46.796  30.823  26.940  1.00  0.00     0.173 A 
ATOM     68  C   UNL A   1      44.505  31.479  26.949  1.00  0.00     0.173 A 
ATOM     69  F   UNL A   1      47.786  29.931  27.095  1.00  0.00    -0.203 F 
ATOM     70  C   UNL A   1      47.168  32.142  26.659  1.00  0.00     0.198 A 
ATOM     71  C   UNL A   1      44.878  32.784  26.627  1.00  0.00     0.198 A 
ATOM     72  F   UNL A   1      43.195  31.310  27.152  1.00  0.00    -0.203 F 
ATOM     73  F   UNL A   1      48.465  32.470  26.601  1.00  0.00    -0.200 F 
ATOM     74  C   UNL A   1      46.208  33.125  26.519  1.00  0.00     0.200 A 
ATOM     75  F   UNL A   1      43.931  33.727  26.512  1.00  0.00    -0.200 F 
ATOM     76  F   UNL A   1      46.561  34.403  26.325  1.00  0.00    -0.200 F 
ENDBRANCH  52  66
BRANCH  53  77
ATOM     77  C   UNL A   1      38.126  31.818  31.441  1.00  0.00     0.064 A 
ATOM     78  C   UNL A   1      37.644  32.532  30.322  1.00  0.00     0.173 A 
ATOM     79  C   UNL A   1      37.280  31.851  32.564  1.00  0.00     0.173 A 
ATOM     80  F   UNL A   1      38.385  32.639  29.210  1.00  0.00    -0.203 F 
ATOM     81  C   UNL A   1      36.362  33.095  30.285  1.00  0.00     0.198 A 
ATOM     82  C   UNL A   1      35.996  32.410  32.528  1.00  0.00     0.198 A 
ATOM     83  F   UNL A   1      37.650  31.310  33.728  1.00  0.00    -0.203 F 
ATOM     84  F   UNL A   1      35.930  33.689  29.164  1.00  0.00    -0.200 F 
ATOM     85  C   UNL A   1      35.521  32.995  31.374  1.00  0.00     0.200 A 
ATOM     86  F   UNL A   1      35.210  32.339  33.613  1.00  0.00    -0.200 F 
ATOM     87  F   UNL A   1      34.266  33.460  31.313  1.00  0.00    -0.200 F 
ENDBRANCH  53  77
BRANCH  65  88
ATOM     88  C   UNL A   1      43.361  29.142  33.562  1.00  0.00     0.064 A 
ATOM     89  C   UNL A   1      42.563  27.993  33.678  1.00  0.00     0.173 A 
ATOM     90  C   UNL A   1      44.001  29.614  34.716  1.00  0.00     0.173 A 
ATOM     91  F   UNL A   1      41.980  27.447  32.603  1.00  0.00    -0.203 F 
ATOM     92  C   UNL A   1      42.376  27.377  34.913  1.00  0.00     0.198 A 
ATOM     93  C   UNL A   1      43.841  28.975  35.938  1.00  0.00     0.198 A 
ATOM     94  F   UNL A   1      44.801  30.690  34.648  1.00  0.00    -0.203 F 
ATOM     95  F   UNL A   1      41.583  26.299  35.013  1.00  0.00    -0.200 F 
ATOM     96  C   UNL A   1      43.017  27.867  36.040  1.00  0.00     0.200 A 
ATOM     97  F   UNL A   1      44.493  29.433  37.016  1.00  0.00    -0.200 F 
ATOM     98  F   UNL A   1      42.853  27.262  37.225  1.00  0.00    -0.200 F 
ENDBRANCH  65  88
ENDBRANCH  39  40
ENDBRANCH  31  34
ENDBRANCH  29  30
ENDBRANCH  28  29
ENDBRANCH  27  28
ENDBRANCH   1  27
TORSDOF 15
ENDMDL
MODEL 3
REMARK VINA RESULT:      -9.9      3.806     10.466
REMARK SMILES CCOc1ccc(-c2csc3ncn([C@H](C)C(=O)NCCCCNC(=O)c4ccc(-c5c6nc(c(-c7c(F)c(F)c(F)c(F)c7F)c7ccc([nH]7)c(-c7c(F)c(F)c(F)c(F)c7F)c7nc(c(-c8c(F)c(F)c(F)c(F)c8F)c8ccc5[nH]8)C=C7)C=C6)cc4)c(=O)c23)cc1
REMARK SMILES IDX 20 1 19 2 17 3 18 4 15 6 16 7 14 8 8 9 9 10 92 11 10 12
REMARK SMILES IDX 11 13 90 14 12 15 91 16 13 17 7 18 4 19 5 20 94 21 6 22
REMARK SMILES IDX 93 23 3 24 2 25 1 26 21 27 22 28 23 29 24 30 25 31 26 33
REMARK SMILES IDX 27 34 28 35 89 36 29 37 88 38 30 39 31 40 32 41 82 42 33 43
REMARK SMILES IDX 87 44 81 45 83 46 34 47 86 48 80 49 79 50 35 52 67 53 47 54
REMARK SMILES IDX 66 55 48 56 51 57 65 58 84 59 49 60 50 61 64 63 85 64 52 65
REMARK SMILES IDX 36 66 37 67 45 68 38 69 39 70 43 71 46 72 40 73 41 74 44 75
REMARK SMILES IDX 42 76 68 77 69 78 77 79 70 80 71 81 75 82 78 83 72 84 73 85
REMARK SMILES IDX 76 86 74 87 53 88 54 89 62 90 55 91 56 92 60 93 63 94 57 95
REMARK SMILES IDX 58 96 61 97 59 98
REMARK H PARENT 19 5 24 32 83 51 51 62
REMARK Flexibility Score: inf
ROOT
ATOM      1  C   UNL A   1      37.920  31.154  33.285  1.00  0.00     0.116 C 
ENDROOT
BRANCH   1   2
ATOM      2  N   UNL A   1      37.793  30.710  34.659  1.00  0.00    -0.354 N 
ATOM      3  C   UNL A   1      38.153  31.309  35.831  1.00  0.00     0.242 C 
ATOM      4  O   UNL A   1      38.262  30.573  36.816  1.00  0.00    -0.273 OA
ATOM      5  H   UNL A   1      37.374  29.825  34.766  1.00  0.00     0.163 HD
BRANCH   3   6
ATOM      6  C   UNL A   1      38.569  32.800  35.913  1.00  0.00     0.177 C 
ATOM      7  C   UNL A   1      37.780  33.455  37.042  1.00  0.00     0.042 C 
BRANCH   6   8
ATOM      8  N   UNL A   1      40.033  32.950  35.951  1.00  0.00    -0.286 N 
ATOM      9  C   UNL A   1      42.926  33.915  33.750  1.00  0.00     0.007 A 
ATOM     10  C   UNL A   1      44.245  33.821  34.148  1.00  0.00     0.076 A 
ATOM     11  C   UNL A   1      42.037  33.598  34.822  1.00  0.00     0.085 A 
ATOM     12  S   UNL A   1      44.387  33.338  35.789  1.00  0.00    -0.123 S 
ATOM     13  C   UNL A   1      42.695  33.222  35.968  1.00  0.00     0.131 A 
ATOM     14  C   UNL A   1      40.592  33.560  34.825  1.00  0.00     0.263 A 
ATOM     15  N   UNL A   1      42.114  32.788  37.114  1.00  0.00    -0.227 NA
ATOM     16  O   UNL A   1      39.915  34.019  33.910  1.00  0.00    -0.268 OA
ATOM     17  C   UNL A   1      40.824  32.666  37.047  1.00  0.00     0.204 A 
BRANCH   9  18
ATOM     18  C   UNL A   1      42.546  34.199  32.379  1.00  0.00    -0.016 A 
ATOM     19  C   UNL A   1      41.963  34.716  29.688  1.00  0.00     0.119 A 
ATOM     20  C   UNL A   1      41.575  33.511  30.272  1.00  0.00     0.047 A 
ATOM     21  C   UNL A   1      42.671  35.648  30.442  1.00  0.00     0.047 A 
ATOM     22  C   UNL A   1      41.873  33.245  31.611  1.00  0.00     0.012 A 
ATOM     23  C   UNL A   1      42.952  35.397  31.787  1.00  0.00     0.012 A 
BRANCH  19  24
ATOM     24  O   UNL A   1      41.483  34.954  28.431  1.00  0.00    -0.494 OA
BRANCH  24  25
ATOM     25  C   UNL A   1      41.917  36.155  27.795  1.00  0.00     0.226 C 
ATOM     26  C   UNL A   1      42.657  35.861  26.503  1.00  0.00     0.049 C 
ENDBRANCH  24  25
ENDBRANCH  19  24
ENDBRANCH   9  18
ENDBRANCH   6   8
ENDBRANCH   3   6
ENDBRANCH   1   2
BRANCH   1  27
ATOM     27  C   UNL A   1      36.648  30.864  32.483  1.00  0.00     0.023 C 
BRANCH  27  28
ATOM     28  C   UNL A   1      35.567  31.953  32.527  1.00  0.00     0.023 C 
BRANCH  28  29
ATOM     29  C   UNL A   1      35.509  32.841  31.291  1.00  0.00     0.116 C 
BRANCH  29  30
ATOM     30  N   UNL A   1      34.611  32.325  30.261  1.00  0.00    -0.352 N 
ATOM     31  C   UNL A   1      34.955  31.714  29.067  1.00  0.00     0.251 C 
ATOM     32  H   UNL A   1      33.647  32.423  30.436  1.00  0.00     0.163 HD
ATOM     33  O   UNL A   1      34.186  31.682  28.124  1.00  0.00    -0.269 OA
BRANCH  31  34
ATOM     34  C   UNL A   1      36.285  31.087  28.966  1.00  0.00     0.039 A 
ATOM     35  C   UNL A   1      37.456  31.845  29.059  1.00  0.00     0.014 A 
ATOM     36  C   UNL A   1      36.336  29.703  28.819  1.00  0.00     0.014 A 
ATOM     37  C   UNL A   1      38.681  31.183  29.100  1.00  0.00     0.010 A 
ATOM     38  C   UNL A   1      37.527  29.045  28.993  1.00  0.00     0.010 A 
ATOM     39  C   UNL A   1      38.707  29.777  29.095  1.00  0.00    -0.014 A 
BRANCH  39  40
ATOM     40  C   UNL A   1      39.941  29.046  29.376  1.00  0.00     0.031 A 
ATOM     41  C   UNL A   1      40.155  28.792  30.822  1.00  0.00     0.074 A 
ATOM     42  C   UNL A   1      40.680  28.462  28.404  1.00  0.00     0.049 A 
ATOM     43  N   UNL A   1      41.076  29.294  31.574  1.00  0.00    -0.248 NA
ATOM     44  C   UNL A   1      39.143  28.022  31.567  1.00  0.00     0.031 C 
ATOM     45  C   UNL A   1      40.370  28.456  26.973  1.00  0.00     0.029 A 
ATOM     46  N   UNL A   1      41.802  27.678  28.469  1.00  0.00    -0.354 N 
ATOM     47  C   UNL A   1      40.915  28.693  32.820  1.00  0.00     0.074 A 
ATOM     48  C   UNL A   1      39.599  28.119  32.818  1.00  0.00     0.031 C 
ATOM     49  C   UNL A   1      41.148  27.556  26.340  1.00  0.00     0.029 A 
ATOM     50  C   UNL A   1      42.110  27.007  27.276  1.00  0.00     0.049 A 
ATOM     51  H   UNL A   1      42.347  27.594  29.284  1.00  0.00     0.167 HD
ATOM     52  C   UNL A   1      42.015  28.418  33.577  1.00  0.00     0.037 A 
ATOM     53  C   UNL A   1      43.086  26.077  27.080  1.00  0.00     0.037 A 
ATOM     54  C   UNL A   1      43.156  29.140  33.067  1.00  0.00     0.049 A 
ATOM     55  C   UNL A   1      44.089  26.316  28.153  1.00  0.00     0.074 A 
ATOM     56  C   UNL A   1      43.617  30.437  33.078  1.00  0.00     0.029 A 
ATOM     57  N   UNL A   1      43.807  28.483  32.057  1.00  0.00    -0.354 N 
ATOM     58  N   UNL A   1      44.841  27.382  28.195  1.00  0.00    -0.248 NA
ATOM     59  C   UNL A   1      44.056  25.541  29.392  1.00  0.00     0.031 C 
ATOM     60  C   UNL A   1      44.477  30.566  31.944  1.00  0.00     0.029 A 
ATOM     61  C   UNL A   1      44.556  29.335  31.297  1.00  0.00     0.049 A 
ATOM     62  H   UNL A   1      43.743  27.514  31.898  1.00  0.00     0.167 HD
ATOM     63  C   UNL A   1      44.991  27.641  29.542  1.00  0.00     0.074 A 
ATOM     64  C   UNL A   1      44.660  26.397  30.218  1.00  0.00     0.031 C 
ATOM     65  C   UNL A   1      45.034  28.924  30.000  1.00  0.00     0.037 A 
BRANCH  52  66
ATOM     66  C   UNL A   1      42.234  27.136  34.371  1.00  0.00     0.064 A 
ATOM     67  C   UNL A   1      41.919  27.146  35.750  1.00  0.00     0.173 A 
ATOM     68  C   UNL A   1      43.038  26.055  33.951  1.00  0.00     0.173 A 
ATOM     69  F   UNL A   1      41.153  28.116  36.270  1.00  0.00    -0.203 F 
ATOM     70  C   UNL A   1      42.465  26.220  36.645  1.00  0.00     0.198 A 
ATOM     71  C   UNL A   1      43.546  25.109  34.842  1.00  0.00     0.198 A 
ATOM     72  F   UNL A   1      43.464  25.918  32.692  1.00  0.00    -0.203 F 
ATOM     73  F   UNL A   1      42.247  26.356  37.960  1.00  0.00    -0.200 F 
ATOM     74  C   UNL A   1      43.292  25.211  36.192  1.00  0.00     0.200 A 
ATOM     75  F   UNL A   1      44.360  24.147  34.382  1.00  0.00    -0.200 F 
ATOM     76  F   UNL A   1      43.878  24.368  37.052  1.00  0.00    -0.200 F 
ENDBRANCH  52  66
BRANCH  53  77
ATOM     77  C   UNL A   1      43.203  24.927  26.123  1.00  0.00     0.064 A 
ATOM     78  C   UNL A   1      44.319  24.840  25.263  1.00  0.00     0.173 A 
ATOM     79  C   UNL A   1      42.407  23.768  26.168  1.00  0.00     0.173 A 
ATOM     80  F   UNL A   1      45.119  25.899  25.074  1.00  0.00    -0.203 F 
ATOM     81  C   UNL A   1      44.686  23.648  24.626  1.00  0.00     0.198 A 
ATOM     82  C   UNL A   1      42.775  22.573  25.535  1.00  0.00     0.198 A 
ATOM     83  F   UNL A   1      41.263  23.737  26.856  1.00  0.00    -0.203 F 
ATOM     84  F   UNL A   1      45.803  23.608  23.887  1.00  0.00    -0.200 F 
ATOM     85  C   UNL A   1      43.937  22.502  24.798  1.00  0.00     0.200 A 
ATOM     86  F   UNL A   1      42.009  21.481  25.681  1.00  0.00    -0.200 F 
ATOM     87  F   UNL A   1      44.331  21.341  24.258  1.00  0.00    -0.200 F 
ENDBRANCH  53  77
BRANCH  65  88
ATOM     88  C   UNL A   1      45.492  29.963  29.033  1.00  0.00     0.064 A 
ATOM     89  C   UNL A   1      46.831  30.203  28.689  1.00  0.00     0.173 A 
ATOM     90  C   UNL A   1      44.506  30.742  28.412  1.00  0.00     0.173 A 
ATOM     91  F   UNL A   1      47.818  29.449  29.190  1.00  0.00    -0.203 F 
ATOM     92  C   UNL A   1      47.167  31.220  27.798  1.00  0.00     0.198 A 
ATOM     93  C   UNL A   1      44.842  31.730  27.497  1.00  0.00     0.198 A 
ATOM     94  F   UNL A   1      43.209  30.526  28.684  1.00  0.00    -0.203 F 
ATOM     95  F   UNL A   1      48.454  31.459  27.505  1.00  0.00    -0.200 F 
ATOM     96  C   UNL A   1      46.172  31.979  27.201  1.00  0.00     0.200 A 
ATOM     97  F   UNL A   1      43.874  32.435  26.896  1.00  0.00    -0.200 F 
ATOM     98  F   UNL A   1      46.494  32.944  26.328  1.00  0.00    -0.200 F 
ENDBRANCH  65  88
ENDBRANCH  39  40
ENDBRANCH  31  34
ENDBRANCH  29  30
ENDBRANCH  28  29
ENDBRANCH  27  28
ENDBRANCH   1  27
TORSDOF 15
ENDMDL
