MODEL 1
REMARK VINA RESULT:     -11.4      0.000      0.000
REMARK SMILES C[N@@H+]1CCC[C@@H](C[NH2+]CC(=O)NCCCCNC(=O)c2ccc(-c3c4nc(c(-c5c(F)c(F)c(F)c(F)c5F)c5ccc([nH]5)c(-c5c(F)c(F)c(F)c(F)c5F)c5nc(c(-c6c(F)c(F)c(F)c(F)c6F)c6ccc3[nH]6)C=C5)C=C4)cc2)C1
REMARK SMILES IDX 14 1 13 2 12 3 10 4 11 5 9 7 8 8 7 11 6 12 1 13 2 14 3 15
REMARK SMILES IDX 83 16 4 18 5 19 15 20 16 21 17 22 18 23 19 25 20 26 21 27
REMARK SMILES IDX 82 28 22 29 81 30 23 31 24 32 25 33 75 34 26 35 80 36 74 37
REMARK SMILES IDX 76 38 27 39 79 40 73 41 72 42 28 44 60 45 40 46 59 47 41 48
REMARK SMILES IDX 44 49 58 50 77 51 42 52 43 53 57 55 78 56 45 57 29 58 30 59
REMARK SMILES IDX 38 60 31 61 32 62 36 63 39 64 33 65 34 66 37 67 35 68 61 69
REMARK SMILES IDX 62 70 70 71 63 72 64 73 68 74 71 75 65 76 66 77 69 78 67 79
REMARK SMILES IDX 46 80 47 81 55 82 48 83 49 84 53 85 56 86 50 87 51 88 54 89
REMARK SMILES IDX 52 90
REMARK H PARENT 12 6 8 9 8 10 2 17 17 24 76 43 44 54
REMARK Flexibility Score: inf
ROOT
ATOM      1  C   UNL A   1      31.407  28.645  25.901  1.00  0.00     0.023 C 
ENDROOT
BRANCH   1   2
ATOM      2  C   UNL A   1      32.442  27.534  25.737  1.00  0.00     0.116 C 
BRANCH   2   3
ATOM      3  N   UNL A   1      31.880  26.435  24.979  1.00  0.00    -0.351 N 
ATOM      4  C   UNL A   1      31.489  26.403  23.670  1.00  0.00     0.275 C 
ATOM      5  O   UNL A   1      30.779  25.460  23.308  1.00  0.00    -0.269 OA
ATOM      6  H   UNL A   1      31.763  25.594  25.477  1.00  0.00     0.163 HD
BRANCH   4   7
ATOM      7  C   UNL A   1      31.922  27.494  22.673  1.00  0.00     0.361 C 
BRANCH   7   8
ATOM      8  N   UNL A   1      30.769  28.161  22.025  1.00  0.00    -0.338 N 
ATOM      9  H   UNL A   1      30.936  28.209  21.021  1.00  0.00     0.346 HD
ATOM     10  H   UNL A   1      29.931  27.616  22.234  1.00  0.00     0.346 HD
BRANCH   8  11
ATOM     11  C   UNL A   1      30.562  29.516  22.535  1.00  0.00     0.270 C 
BRANCH  11  12
ATOM     12  C   UNL A   1      29.145  29.856  23.045  1.00  0.00     0.099 C 
ATOM     13  C   UNL A   1      29.261  33.629  23.259  1.00  0.00     0.332 C 
ATOM     14  N   UNL A   1      29.187  32.308  22.633  1.00  0.00    -0.337 N 
ATOM     15  C   UNL A   1      28.076  32.255  21.674  1.00  0.00     0.262 C 
ATOM     16  C   UNL A   1      29.016  31.262  23.655  1.00  0.00     0.271 C 
ATOM     17  H   UNL A   1      30.062  32.142  22.135  1.00  0.00     0.347 HD
ATOM     18  C   UNL A   1      28.028  30.906  20.959  1.00  0.00     0.062 C 
ATOM     19  C   UNL A   1      28.106  29.703  21.905  1.00  0.00     0.021 C 
ENDBRANCH  11  12
ENDBRANCH   8  11
ENDBRANCH   7   8
ENDBRANCH   4   7
ENDBRANCH   2   3
ENDBRANCH   1   2
BRANCH   1  20
ATOM     20  C   UNL A   1      31.917  30.068  25.842  1.00  0.00     0.023 C 
BRANCH  20  21
ATOM     21  C   UNL A   1      32.490  30.577  27.151  1.00  0.00     0.116 C 
BRANCH  21  22
ATOM     22  N   UNL A   1      32.609  32.029  27.231  1.00  0.00    -0.352 N 
ATOM     23  C   UNL A   1      33.667  32.807  27.641  1.00  0.00     0.251 C 
ATOM     24  H   UNL A   1      31.809  32.530  26.946  1.00  0.00     0.163 HD
ATOM     25  O   UNL A   1      33.548  34.028  27.697  1.00  0.00    -0.269 OA
BRANCH  23  26
ATOM     26  C   UNL A   1      34.928  32.166  28.073  1.00  0.00     0.039 A 
ATOM     27  C   UNL A   1      36.056  32.963  28.284  1.00  0.00     0.014 A 
ATOM     28  C   UNL A   1      34.983  30.798  28.341  1.00  0.00     0.014 A 
ATOM     29  C   UNL A   1      37.195  32.404  28.865  1.00  0.00     0.010 A 
ATOM     30  C   UNL A   1      36.058  30.278  29.047  1.00  0.00     0.010 A 
ATOM     31  C   UNL A   1      37.182  31.072  29.308  1.00  0.00    -0.014 A 
BRANCH  31  32
ATOM     32  C   UNL A   1      38.331  30.488  30.046  1.00  0.00     0.031 A 
ATOM     33  C   UNL A   1      38.576  30.862  31.483  1.00  0.00     0.074 A 
ATOM     34  C   UNL A   1      39.195  29.680  29.399  1.00  0.00     0.049 A 
ATOM     35  N   UNL A   1      39.545  30.490  32.281  1.00  0.00    -0.248 NA
ATOM     36  C   UNL A   1      37.634  31.815  32.093  1.00  0.00     0.031 C 
ATOM     37  C   UNL A   1      39.121  29.319  27.981  1.00  0.00     0.029 A 
ATOM     38  N   UNL A   1      40.308  29.016  29.850  1.00  0.00    -0.354 N 
ATOM     39  C   UNL A   1      39.338  31.180  33.469  1.00  0.00     0.074 A 
ATOM     40  C   UNL A   1      38.202  32.048  33.265  1.00  0.00     0.031 C 
ATOM     41  C   UNL A   1      40.114  28.463  27.692  1.00  0.00     0.029 A 
ATOM     42  C   UNL A   1      40.912  28.239  28.892  1.00  0.00     0.049 A 
ATOM     43  H   UNL A   1      40.643  29.090  30.773  1.00  0.00     0.167 HD
ATOM     44  C   UNL A   1      40.011  31.071  34.639  1.00  0.00     0.037 A 
ATOM     45  C   UNL A   1      41.984  27.429  28.977  1.00  0.00     0.037 A 
ATOM     46  C   UNL A   1      41.110  30.169  34.851  1.00  0.00     0.049 A 
ATOM     47  C   UNL A   1      42.684  27.286  30.301  1.00  0.00     0.074 A 
ATOM     48  C   UNL A   1      41.808  29.916  36.018  1.00  0.00     0.029 A 
ATOM     49  N   UNL A   1      41.668  29.365  33.867  1.00  0.00    -0.354 N 
ATOM     50  N   UNL A   1      42.422  27.873  31.443  1.00  0.00    -0.248 NA
ATOM     51  C   UNL A   1      43.822  26.358  30.349  1.00  0.00     0.031 C 
ATOM     52  C   UNL A   1      42.814  28.988  35.732  1.00  0.00     0.029 A 
ATOM     53  C   UNL A   1      42.714  28.627  34.396  1.00  0.00     0.049 A 
ATOM     54  H   UNL A   1      41.366  29.325  32.931  1.00  0.00     0.167 HD
ATOM     55  C   UNL A   1      43.346  27.373  32.350  1.00  0.00     0.074 A 
ATOM     56  C   UNL A   1      44.159  26.414  31.629  1.00  0.00     0.031 C 
ATOM     57  C   UNL A   1      43.510  27.681  33.660  1.00  0.00     0.037 A 
BRANCH  44  58
ATOM     58  C   UNL A   1      39.559  31.934  35.780  1.00  0.00     0.064 A 
ATOM     59  C   UNL A   1      38.521  31.534  36.639  1.00  0.00     0.173 A 
ATOM     60  C   UNL A   1      40.180  33.166  36.034  1.00  0.00     0.173 A 
ATOM     61  F   UNL A   1      37.884  30.372  36.430  1.00  0.00    -0.203 F 
ATOM     62  C   UNL A   1      38.100  32.350  37.685  1.00  0.00     0.198 A 
ATOM     63  C   UNL A   1      39.777  33.965  37.102  1.00  0.00     0.198 A 
ATOM     64  F   UNL A   1      41.177  33.596  35.248  1.00  0.00    -0.203 F 
ATOM     65  F   UNL A   1      37.069  31.972  38.452  1.00  0.00    -0.200 F 
ATOM     66  C   UNL A   1      38.733  33.561  37.920  1.00  0.00     0.200 A 
ATOM     67  F   UNL A   1      40.396  35.131  37.335  1.00  0.00    -0.200 F 
ATOM     68  F   UNL A   1      38.329  34.344  38.930  1.00  0.00    -0.200 F 
ENDBRANCH  44  58
BRANCH  45  69
ATOM     69  C   UNL A   1      42.425  26.651  27.790  1.00  0.00     0.064 A 
ATOM     70  C   UNL A   1      43.383  27.173  26.908  1.00  0.00     0.173 A 
ATOM     71  C   UNL A   1      41.910  25.378  27.513  1.00  0.00     0.173 A 
ATOM     72  F   UNL A   1      43.892  28.396  27.120  1.00  0.00    -0.203 F 
ATOM     73  C   UNL A   1      43.791  26.461  25.782  1.00  0.00     0.198 A 
ATOM     74  C   UNL A   1      42.340  24.653  26.402  1.00  0.00     0.198 A 
ATOM     75  F   UNL A   1      40.999  24.830  28.330  1.00  0.00    -0.203 F 
ATOM     76  F   UNL A   1      44.675  27.002  24.933  1.00  0.00    -0.200 F 
ATOM     77  C   UNL A   1      43.273  25.199  25.533  1.00  0.00     0.200 A 
ATOM     78  F   UNL A   1      41.848  23.428  26.173  1.00  0.00    -0.200 F 
ATOM     79  F   UNL A   1      43.669  24.510  24.454  1.00  0.00    -0.200 F 
ENDBRANCH  45  69
BRANCH  57  80
ATOM     80  C   UNL A   1      44.599  26.960  34.398  1.00  0.00     0.064 A 
ATOM     81  C   UNL A   1      44.375  25.713  35.000  1.00  0.00     0.173 A 
ATOM     82  C   UNL A   1      45.888  27.509  34.477  1.00  0.00     0.173 A 
ATOM     83  F   UNL A   1      43.156  25.155  34.962  1.00  0.00    -0.203 F 
ATOM     84  C   UNL A   1      45.395  25.056  35.683  1.00  0.00     0.198 A 
ATOM     85  C   UNL A   1      46.913  26.835  35.136  1.00  0.00     0.198 A 
ATOM     86  F   UNL A   1      46.155  28.696  33.911  1.00  0.00    -0.203 F 
ATOM     87  F   UNL A   1      45.144  23.891  36.296  1.00  0.00    -0.200 F 
ATOM     88  C   UNL A   1      46.663  25.614  35.744  1.00  0.00     0.200 A 
ATOM     89  F   UNL A   1      48.141  27.368  35.183  1.00  0.00    -0.200 F 
ATOM     90  F   UNL A   1      47.644  24.979  36.399  1.00  0.00    -0.200 F 
ENDBRANCH  57  80
ENDBRANCH  31  32
ENDBRANCH  23  26
ENDBRANCH  21  22
ENDBRANCH  20  21
ENDBRANCH   1  20
TORSDOF 14
ENDMDL
MODEL 2
REMARK VINA RESULT:     -11.4      0.556      2.100
REMARK SMILES C[N@@H+]1CCC[C@@H](C[NH2+]CC(=O)NCCCCNC(=O)c2ccc(-c3c4nc(c(-c5c(F)c(F)c(F)c(F)c5F)c5ccc([nH]5)c(-c5c(F)c(F)c(F)c(F)c5F)c5nc(c(-c6c(F)c(F)c(F)c(F)c6F)c6ccc3[nH]6)C=C5)C=C4)cc2)C1
REMARK SMILES IDX 14 1 13 2 12 3 10 4 11 5 9 7 8 8 7 11 6 12 1 13 2 14 3 15
REMARK SMILES IDX 83 16 4 18 5 19 15 20 16 21 17 22 18 23 19 25 20 26 21 27
REMARK SMILES IDX 82 28 22 29 81 30 23 31 24 32 25 33 75 34 26 35 80 36 74 37
REMARK SMILES IDX 76 38 27 39 79 40 73 41 72 42 28 44 60 45 40 46 59 47 41 48
REMARK SMILES IDX 44 49 58 50 77 51 42 52 43 53 57 55 78 56 45 57 29 58 30 59
REMARK SMILES IDX 38 60 31 61 32 62 36 63 39 64 33 65 34 66 37 67 35 68 61 69
REMARK SMILES IDX 62 70 70 71 63 72 64 73 68 74 71 75 65 76 66 77 69 78 67 79
REMARK SMILES IDX 46 80 47 81 55 82 48 83 49 84 53 85 56 86 50 87 51 88 54 89
REMARK SMILES IDX 52 90
REMARK H PARENT 12 6 8 9 8 10 2 17 17 24 76 43 44 54
REMARK Flexibility Score: inf
ROOT
ATOM      1  C   UNL A   1      33.499  27.734  25.823  1.00  0.00     0.023 C 
ENDROOT
BRANCH   1   2
ATOM      2  C   UNL A   1      33.643  26.914  24.543  1.00  0.00     0.116 C 
BRANCH   2   3
ATOM      3  N   UNL A   1      32.403  26.226  24.249  1.00  0.00    -0.351 N 
ATOM      4  C   UNL A   1      31.384  26.604  23.419  1.00  0.00     0.275 C 
ATOM      5  O   UNL A   1      30.305  26.014  23.534  1.00  0.00    -0.269 OA
ATOM      6  H   UNL A   1      32.276  25.366  24.710  1.00  0.00     0.163 HD
BRANCH   4   7
ATOM      7  C   UNL A   1      31.570  27.716  22.370  1.00  0.00     0.361 C 
BRANCH   7   8
ATOM      8  N   UNL A   1      30.327  28.486  22.134  1.00  0.00    -0.338 N 
ATOM      9  H   UNL A   1      30.369  28.904  21.205  1.00  0.00     0.346 HD
ATOM     10  H   UNL A   1      29.538  27.844  22.215  1.00  0.00     0.346 HD
BRANCH   8  11
ATOM     11  C   UNL A   1      30.146  29.550  23.122  1.00  0.00     0.270 C 
BRANCH  11  12
ATOM     12  C   UNL A   1      28.711  30.093  23.299  1.00  0.00     0.099 C 
ATOM     13  C   UNL A   1      29.270  33.832  23.299  1.00  0.00     0.332 C 
ATOM     14  N   UNL A   1      29.154  32.478  22.755  1.00  0.00    -0.337 N 
ATOM     15  C   UNL A   1      28.261  32.469  21.588  1.00  0.00     0.262 C 
ATOM     16  C   UNL A   1      28.646  31.553  23.780  1.00  0.00     0.271 C 
ATOM     17  H   UNL A   1      30.081  32.170  22.463  1.00  0.00     0.347 HD
ATOM     18  C   UNL A   1      28.184  31.076  20.964  1.00  0.00     0.062 C 
ATOM     19  C   UNL A   1      27.913  29.960  21.978  1.00  0.00     0.021 C 
ENDBRANCH  11  12
ENDBRANCH   8  11
ENDBRANCH   7   8
ENDBRANCH   4   7
ENDBRANCH   2   3
ENDBRANCH   1   2
BRANCH   1  20
ATOM     20  C   UNL A   1      32.891  29.113  25.687  1.00  0.00     0.023 C 
BRANCH  20  21
ATOM     21  C   UNL A   1      32.368  29.691  26.987  1.00  0.00     0.116 C 
BRANCH  21  22
ATOM     22  N   UNL A   1      32.375  31.150  27.042  1.00  0.00    -0.352 N 
ATOM     23  C   UNL A   1      33.371  32.013  27.433  1.00  0.00     0.251 C 
ATOM     24  H   UNL A   1      31.537  31.582  26.755  1.00  0.00     0.163 HD
ATOM     25  O   UNL A   1      33.159  33.223  27.470  1.00  0.00    -0.269 OA
BRANCH  23  26
ATOM     26  C   UNL A   1      34.680  31.480  27.868  1.00  0.00     0.039 A 
ATOM     27  C   UNL A   1      35.766  32.352  27.976  1.00  0.00     0.014 A 
ATOM     28  C   UNL A   1      34.823  30.142  28.239  1.00  0.00     0.014 A 
ATOM     29  C   UNL A   1      36.954  31.905  28.558  1.00  0.00     0.010 A 
ATOM     30  C   UNL A   1      35.947  29.740  28.944  1.00  0.00     0.010 A 
ATOM     31  C   UNL A   1      37.031  30.613  29.103  1.00  0.00    -0.014 A 
BRANCH  31  32
ATOM     32  C   UNL A   1      38.235  30.154  29.842  1.00  0.00     0.031 A 
ATOM     33  C   UNL A   1      38.479  30.617  31.253  1.00  0.00     0.074 A 
ATOM     34  C   UNL A   1      39.144  29.379  29.216  1.00  0.00     0.049 A 
ATOM     35  N   UNL A   1      39.489  30.360  32.046  1.00  0.00    -0.248 NA
ATOM     36  C   UNL A   1      37.480  31.529  31.837  1.00  0.00     0.031 C 
ATOM     37  C   UNL A   1      39.070  28.942  27.820  1.00  0.00     0.029 A 
ATOM     38  N   UNL A   1      40.312  28.823  29.673  1.00  0.00    -0.354 N 
ATOM     39  C   UNL A   1      39.254  31.092  33.202  1.00  0.00     0.074 A 
ATOM     40  C   UNL A   1      38.052  31.863  32.982  1.00  0.00     0.031 C 
ATOM     41  C   UNL A   1      40.118  28.147  27.550  1.00  0.00     0.029 A 
ATOM     42  C   UNL A   1      40.954  28.045  28.741  1.00  0.00     0.049 A 
ATOM     43  H   UNL A   1      40.658  28.968  30.584  1.00  0.00     0.167 HD
ATOM     44  C   UNL A   1      39.956  31.093  34.360  1.00  0.00     0.037 A 
ATOM     45  C   UNL A   1      42.084  27.320  28.842  1.00  0.00     0.037 A 
ATOM     46  C   UNL A   1      41.123  30.286  34.591  1.00  0.00     0.049 A 
ATOM     47  C   UNL A   1      42.819  27.298  30.155  1.00  0.00     0.074 A 
ATOM     48  C   UNL A   1      41.860  30.145  35.753  1.00  0.00     0.029 A 
ATOM     49  N   UNL A   1      41.720  29.476  33.636  1.00  0.00    -0.354 N 
ATOM     50  N   UNL A   1      42.535  27.921  31.272  1.00  0.00    -0.248 NA
ATOM     51  C   UNL A   1      44.023  26.459  30.222  1.00  0.00     0.031 C 
ATOM     52  C   UNL A   1      42.927  29.280  35.490  1.00  0.00     0.029 A 
ATOM     53  C   UNL A   1      42.828  28.845  34.177  1.00  0.00     0.049 A 
ATOM     54  H   UNL A   1      41.403  29.366  32.711  1.00  0.00     0.167 HD
ATOM     55  C   UNL A   1      43.512  27.538  32.181  1.00  0.00     0.074 A 
ATOM     56  C   UNL A   1      44.380  26.606  31.491  1.00  0.00     0.031 C 
ATOM     57  C   UNL A   1      43.678  27.923  33.470  1.00  0.00     0.037 A 
BRANCH  44  58
ATOM     58  C   UNL A   1      39.462  31.977  35.468  1.00  0.00     0.064 A 
ATOM     59  C   UNL A   1      39.875  33.315  35.581  1.00  0.00     0.173 A 
ATOM     60  C   UNL A   1      38.550  31.492  36.417  1.00  0.00     0.173 A 
ATOM     61  F   UNL A   1      40.758  33.824  34.708  1.00  0.00    -0.203 F 
ATOM     62  C   UNL A   1      39.422  34.121  36.622  1.00  0.00     0.198 A 
ATOM     63  C   UNL A   1      38.074  32.311  37.438  1.00  0.00     0.198 A 
ATOM     64  F   UNL A   1      38.121  30.223  36.355  1.00  0.00    -0.203 F 
ATOM     65  F   UNL A   1      39.878  35.375  36.741  1.00  0.00    -0.200 F 
ATOM     66  C   UNL A   1      38.517  33.621  37.544  1.00  0.00     0.200 A 
ATOM     67  F   UNL A   1      37.191  31.830  38.324  1.00  0.00    -0.200 F 
ATOM     68  F   UNL A   1      38.079  34.399  38.544  1.00  0.00    -0.200 F 
ENDBRANCH  44  58
BRANCH  45  69
ATOM     69  C   UNL A   1      42.560  26.518  27.685  1.00  0.00     0.064 A 
ATOM     70  C   UNL A   1      42.078  25.219  27.468  1.00  0.00     0.173 A 
ATOM     71  C   UNL A   1      43.496  27.027  26.774  1.00  0.00     0.173 A 
ATOM     72  F   UNL A   1      41.194  24.681  28.322  1.00  0.00    -0.203 F 
ATOM     73  C   UNL A   1      42.530  24.452  26.397  1.00  0.00     0.198 A 
ATOM     74  C   UNL A   1      43.927  26.268  25.686  1.00  0.00     0.198 A 
ATOM     75  F   UNL A   1      43.982  28.267  26.932  1.00  0.00    -0.203 F 
ATOM     76  F   UNL A   1      42.085  23.197  26.238  1.00  0.00    -0.200 F 
ATOM     77  C   UNL A   1      43.451  24.979  25.504  1.00  0.00     0.200 A 
ATOM     78  F   UNL A   1      44.805  26.787  24.817  1.00  0.00    -0.200 F 
ATOM     79  F   UNL A   1      43.882  24.243  24.470  1.00  0.00    -0.200 F 
ENDBRANCH  45  69
BRANCH  57  80
ATOM     80  C   UNL A   1      44.832  27.323  34.218  1.00  0.00     0.064 A 
ATOM     81  C   UNL A   1      46.092  27.939  34.238  1.00  0.00     0.173 A 
ATOM     82  C   UNL A   1      44.666  26.135  34.945  1.00  0.00     0.173 A 
ATOM     83  F   UNL A   1      46.303  29.069  33.547  1.00  0.00    -0.203 F 
ATOM     84  C   UNL A   1      47.154  27.369  34.935  1.00  0.00     0.198 A 
ATOM     85  C   UNL A   1      45.723  25.584  35.665  1.00  0.00     0.198 A 
ATOM     86  F   UNL A   1      43.478  25.512  34.963  1.00  0.00    -0.203 F 
ATOM     87  F   UNL A   1      48.363  27.947  34.898  1.00  0.00    -0.200 F 
ATOM     88  C   UNL A   1      46.966  26.198  35.652  1.00  0.00     0.200 A 
ATOM     89  F   UNL A   1      45.538  24.459  36.369  1.00  0.00    -0.200 F 
ATOM     90  F   UNL A   1      47.989  25.653  36.326  1.00  0.00    -0.200 F 
ENDBRANCH  57  80
ENDBRANCH  31  32
ENDBRANCH  23  26
ENDBRANCH  21  22
ENDBRANCH  20  21
ENDBRANCH   1  20
TORSDOF 14
ENDMDL
MODEL 3
REMARK VINA RESULT:     -11.4      1.849      7.970
REMARK SMILES C[N@@H+]1CCC[C@@H](C[NH2+]CC(=O)NCCCCNC(=O)c2ccc(-c3c4nc(c(-c5c(F)c(F)c(F)c(F)c5F)c5ccc([nH]5)c(-c5c(F)c(F)c(F)c(F)c5F)c5nc(c(-c6c(F)c(F)c(F)c(F)c6F)c6ccc3[nH]6)C=C5)C=C4)cc2)C1
REMARK SMILES IDX 14 1 13 2 12 3 10 4 11 5 9 7 8 8 7 11 6 12 1 13 2 14 3 15
REMARK SMILES IDX 83 16 4 18 5 19 15 20 16 21 17 22 18 23 19 25 20 26 21 27
REMARK SMILES IDX 82 28 22 29 81 30 23 31 24 32 25 33 75 34 26 35 80 36 74 37
REMARK SMILES IDX 76 38 27 39 79 40 73 41 72 42 28 44 60 45 40 46 59 47 41 48
REMARK SMILES IDX 44 49 58 50 77 51 42 52 43 53 57 55 78 56 45 57 29 58 30 59
REMARK SMILES IDX 38 60 31 61 32 62 36 63 39 64 33 65 34 66 37 67 35 68 61 69
REMARK SMILES IDX 62 70 70 71 63 72 64 73 68 74 71 75 65 76 66 77 69 78 67 79
REMARK SMILES IDX 46 80 47 81 55 82 48 83 49 84 53 85 56 86 50 87 51 88 54 89
REMARK SMILES IDX 52 90
REMARK H PARENT 12 6 8 9 8 10 2 17 17 24 76 43 44 54
REMARK Flexibility Score: inf
ROOT
ATOM      1  C   UNL A   1      32.267  30.469  26.367  1.00  0.00     0.023 C 
ENDROOT
BRANCH   1   2
ATOM      2  C   UNL A   1      31.576  29.250  26.974  1.00  0.00     0.116 C 
BRANCH   2   3
ATOM      3  N   UNL A   1      32.197  28.033  26.494  1.00  0.00    -0.351 N 
ATOM      4  C   UNL A   1      31.825  27.229  25.453  1.00  0.00     0.275 C 
ATOM      5  O   UNL A   1      32.322  26.100  25.397  1.00  0.00    -0.269 OA
ATOM      6  H   UNL A   1      32.999  27.744  26.986  1.00  0.00     0.163 HD
BRANCH   4   7
ATOM      7  C   UNL A   1      30.831  27.710  24.379  1.00  0.00     0.361 C 
BRANCH   7   8
ATOM      8  N   UNL A   1      31.511  28.306  23.205  1.00  0.00    -0.338 N 
ATOM      9  H   UNL A   1      32.454  28.582  23.474  1.00  0.00     0.346 HD
ATOM     10  H   UNL A   1      31.529  27.606  22.462  1.00  0.00     0.346 HD
BRANCH   8  11
ATOM     11  C   UNL A   1      30.801  29.481  22.699  1.00  0.00     0.270 C 
BRANCH  11  12
ATOM     12  C   UNL A   1      29.398  29.750  23.287  1.00  0.00     0.099 C 
ATOM     13  C   UNL A   1      29.200  33.523  23.179  1.00  0.00     0.332 C 
ATOM     14  N   UNL A   1      29.198  32.150  22.672  1.00  0.00    -0.337 N 
ATOM     15  C   UNL A   1      28.032  31.923  21.810  1.00  0.00     0.262 C 
ATOM     16  C   UNL A   1      29.192  31.189  23.787  1.00  0.00     0.271 C 
ATOM     17  H   UNL A   1      30.047  32.012  22.122  1.00  0.00     0.347 HD
ATOM     18  C   UNL A   1      28.051  30.516  21.214  1.00  0.00     0.062 C 
ATOM     19  C   UNL A   1      28.300  29.412  22.249  1.00  0.00     0.021 C 
ENDBRANCH  11  12
ENDBRANCH   8  11
ENDBRANCH   7   8
ENDBRANCH   4   7
ENDBRANCH   2   3
ENDBRANCH   1   2
BRANCH   1  20
ATOM     20  C   UNL A   1      31.803  31.827  26.845  1.00  0.00     0.023 C 
BRANCH  20  21
ATOM     21  C   UNL A   1      32.923  32.735  27.314  1.00  0.00     0.116 C 
BRANCH  21  22
ATOM     22  N   UNL A   1      32.495  34.086  27.664  1.00  0.00    -0.352 N 
ATOM     23  C   UNL A   1      32.996  34.954  28.607  1.00  0.00     0.251 C 
ATOM     24  H   UNL A   1      31.732  34.430  27.144  1.00  0.00     0.163 HD
ATOM     25  O   UNL A   1      32.450  36.038  28.796  1.00  0.00    -0.269 OA
BRANCH  23  26
ATOM     26  C   UNL A   1      34.154  34.554  29.435  1.00  0.00     0.039 A 
ATOM     27  C   UNL A   1      33.929  34.060  30.722  1.00  0.00     0.014 A 
ATOM     28  C   UNL A   1      35.451  34.596  28.923  1.00  0.00     0.014 A 
ATOM     29  C   UNL A   1      34.990  33.509  31.443  1.00  0.00     0.010 A 
ATOM     30  C   UNL A   1      36.471  33.922  29.578  1.00  0.00     0.010 A 
ATOM     31  C   UNL A   1      36.256  33.380  30.851  1.00  0.00    -0.014 A 
BRANCH  31  32
ATOM     32  C   UNL A   1      37.369  32.683  31.544  1.00  0.00     0.031 A 
ATOM     33  C   UNL A   1      38.070  31.529  30.878  1.00  0.00     0.074 A 
ATOM     34  C   UNL A   1      37.699  33.041  32.801  1.00  0.00     0.049 A 
ATOM     35  N   UNL A   1      39.034  30.771  31.336  1.00  0.00    -0.248 NA
ATOM     36  C   UNL A   1      37.596  31.146  29.537  1.00  0.00     0.031 C 
ATOM     37  C   UNL A   1      37.031  34.079  33.590  1.00  0.00     0.029 A 
ATOM     38  N   UNL A   1      38.678  32.571  33.638  1.00  0.00    -0.354 N 
ATOM     39  C   UNL A   1      39.260  29.816  30.353  1.00  0.00     0.074 A 
ATOM     40  C   UNL A   1      38.285  30.040  29.310  1.00  0.00     0.031 C 
ATOM     41  C   UNL A   1      37.651  34.199  34.776  1.00  0.00     0.029 A 
ATOM     42  C   UNL A   1      38.737  33.227  34.843  1.00  0.00     0.049 A 
ATOM     43  H   UNL A   1      39.283  31.831  33.399  1.00  0.00     0.167 HD
ATOM     44  C   UNL A   1      40.219  28.862  30.304  1.00  0.00     0.037 A 
ATOM     45  C   UNL A   1      39.580  33.070  35.881  1.00  0.00     0.037 A 
ATOM     46  C   UNL A   1      41.218  28.676  31.322  1.00  0.00     0.049 A 
ATOM     47  C   UNL A   1      40.669  32.037  35.782  1.00  0.00     0.074 A 
ATOM     48  C   UNL A   1      42.286  27.797  31.334  1.00  0.00     0.029 A 
ATOM     49  N   UNL A   1      41.271  29.390  32.510  1.00  0.00    -0.354 N 
ATOM     50  N   UNL A   1      40.932  31.202  34.806  1.00  0.00    -0.248 NA
ATOM     51  C   UNL A   1      41.587  31.934  36.924  1.00  0.00     0.031 C 
ATOM     52  C   UNL A   1      42.964  27.952  32.548  1.00  0.00     0.029 A 
ATOM     53  C   UNL A   1      42.345  28.960  33.272  1.00  0.00     0.049 A 
ATOM     54  H   UNL A   1      40.639  30.097  32.773  1.00  0.00     0.167 HD
ATOM     55  C   UNL A   1      42.053  30.489  35.206  1.00  0.00     0.074 A 
ATOM     56  C   UNL A   1      42.437  31.009  36.502  1.00  0.00     0.031 C 
ATOM     57  C   UNL A   1      42.706  29.491  34.561  1.00  0.00     0.037 A 
BRANCH  44  58
ATOM     58  C   UNL A   1      40.243  27.965  29.101  1.00  0.00     0.064 A 
ATOM     59  C   UNL A   1      40.984  28.294  27.953  1.00  0.00     0.173 A 
ATOM     60  C   UNL A   1      39.536  26.754  29.098  1.00  0.00     0.173 A 
ATOM     61  F   UNL A   1      41.666  29.448  27.898  1.00  0.00    -0.203 F 
ATOM     62  C   UNL A   1      40.986  27.462  26.837  1.00  0.00     0.198 A 
ATOM     63  C   UNL A   1      39.567  25.908  27.992  1.00  0.00     0.198 A 
ATOM     64  F   UNL A   1      38.814  26.390  30.167  1.00  0.00    -0.203 F 
ATOM     65  F   UNL A   1      41.653  27.827  25.734  1.00  0.00    -0.200 F 
ATOM     66  C   UNL A   1      40.284  26.267  26.860  1.00  0.00     0.200 A 
ATOM     67  F   UNL A   1      38.896  24.748  28.018  1.00  0.00    -0.200 F 
ATOM     68  F   UNL A   1      40.290  25.465  25.786  1.00  0.00    -0.200 F 
ENDBRANCH  44  58
BRANCH  45  69
ATOM     69  C   UNL A   1      39.461  33.945  37.076  1.00  0.00     0.064 A 
ATOM     70  C   UNL A   1      40.050  35.218  37.094  1.00  0.00     0.173 A 
ATOM     71  C   UNL A   1      38.759  33.536  38.218  1.00  0.00     0.173 A 
ATOM     72  F   UNL A   1      40.749  35.647  36.032  1.00  0.00    -0.203 F 
ATOM     73  C   UNL A   1      39.960  36.038  38.216  1.00  0.00     0.198 A 
ATOM     74  C   UNL A   1      38.645  34.369  39.330  1.00  0.00     0.198 A 
ATOM     75  F   UNL A   1      38.169  32.331  38.248  1.00  0.00    -0.203 F 
ATOM     76  F   UNL A   1      40.570  37.231  38.222  1.00  0.00    -0.200 F 
ATOM     77  C   UNL A   1      39.253  35.615  39.331  1.00  0.00     0.200 A 
ATOM     78  F   UNL A   1      37.948  33.963  40.400  1.00  0.00    -0.200 F 
ATOM     79  F   UNL A   1      39.161  36.407  40.409  1.00  0.00    -0.200 F 
ENDBRANCH  45  69
BRANCH  57  80
ATOM     80  C   UNL A   1      43.911  28.912  35.242  1.00  0.00     0.064 A 
ATOM     81  C   UNL A   1      45.197  29.423  35.016  1.00  0.00     0.173 A 
ATOM     82  C   UNL A   1      43.771  27.854  36.153  1.00  0.00     0.173 A 
ATOM     83  F   UNL A   1      45.381  30.425  34.143  1.00  0.00    -0.203 F 
ATOM     84  C   UNL A   1      46.306  28.875  35.654  1.00  0.00     0.198 A 
ATOM     85  C   UNL A   1      44.880  27.329  36.813  1.00  0.00     0.198 A 
ATOM     86  F   UNL A   1      42.561  27.336  36.410  1.00  0.00    -0.203 F 
ATOM     87  F   UNL A   1      47.531  29.345  35.383  1.00  0.00    -0.200 F 
ATOM     88  C   UNL A   1      46.145  27.835  36.556  1.00  0.00     0.200 A 
ATOM     89  F   UNL A   1      44.722  26.332  37.694  1.00  0.00    -0.200 F 
ATOM     90  F   UNL A   1      47.213  27.310  37.172  1.00  0.00    -0.200 F 
ENDBRANCH  57  80
ENDBRANCH  31  32
ENDBRANCH  23  26
ENDBRANCH  21  22
ENDBRANCH  20  21
ENDBRANCH   1  20
TORSDOF 14
ENDMDL
