MODEL 1
REMARK VINA RESULT:      -9.4      0.000      0.000
REMARK SMILES CCCc1noc(C2C[NH+](CC(=O)NCCCCNC(=O)c3ccc(-c4c5nc(c(-c6c(F)c(F)c(F)c(F)c6F)c6ccc([nH]6)c(-c6c(F)c(F)c(F)c(F)c6F)c6nc(c(-c7c(F)c(F)c(F)c(F)c7F)c7ccc4[nH]7)C=C6)C=C5)cc3)C2)n1
REMARK SMILES IDX 15 1 14 2 12 3 13 4 11 6 10 7 8 8 9 9 85 10 7 12 4 13 5 14
REMARK SMILES IDX 86 15 6 16 3 17 2 18 1 19 16 20 17 21 18 22 19 23 20 24
REMARK SMILES IDX 21 26 22 27 23 28 84 29 24 30 83 31 25 32 26 33 27 34 77 35
REMARK SMILES IDX 28 36 82 37 76 38 78 39 29 40 81 41 75 42 74 43 30 45 62 46
REMARK SMILES IDX 42 47 61 48 43 49 46 50 60 51 79 52 44 53 45 54 59 56 80 57
REMARK SMILES IDX 47 58 31 59 32 60 40 61 33 62 34 63 38 64 41 65 35 66 36 67
REMARK SMILES IDX 39 68 37 69 63 70 64 71 72 72 65 73 66 74 70 75 73 76 67 77
REMARK SMILES IDX 68 78 71 79 69 80 48 81 49 82 57 83 50 84 51 85 55 86 58 87
REMARK SMILES IDX 52 88 53 89 56 90 54 91
REMARK H PARENT 14 5 10 11 19 25 78 44 46 55
REMARK Flexibility Score: inf
ROOT
ATOM      1  C   UNL A   1      37.308  33.555  30.797  1.00  0.00     0.116 C 
ENDROOT
BRANCH   1   2
ATOM      2  N   UNL A   1      36.656  34.586  31.585  1.00  0.00    -0.351 N 
ATOM      3  C   UNL A   1      36.232  34.588  32.886  1.00  0.00     0.275 C 
ATOM      4  O   UNL A   1      35.666  35.611  33.286  1.00  0.00    -0.269 OA
ATOM      5  H   UNL A   1      36.491  35.426  31.101  1.00  0.00     0.163 HD
BRANCH   3   6
ATOM      6  C   UNL A   1      36.411  33.370  33.801  1.00  0.00     0.363 C 
BRANCH   6   7
ATOM      7  N   UNL A   1      37.656  33.263  34.613  1.00  0.00    -0.325 N 
ATOM      8  C   UNL A   1      38.326  31.251  34.438  1.00  0.00     0.188 C 
ATOM      9  C   UNL A   1      37.717  32.118  35.564  1.00  0.00     0.282 C 
ATOM     10  C   UNL A   1      38.771  32.635  33.879  1.00  0.00     0.282 C 
ATOM     11  H   UNL A   1      37.688  34.222  34.958  1.00  0.00     0.348 HD
BRANCH   8  12
ATOM     12  C   UNL A   1      39.444  30.299  34.761  1.00  0.00     0.241 A 
ATOM     13  C   UNL A   1      40.905  28.805  34.733  1.00  0.00     0.171 A 
ATOM     14  N   UNL A   1      40.786  29.077  36.037  1.00  0.00    -0.062 NA
ATOM     15  N   UNL A   1      40.082  29.532  33.909  1.00  0.00    -0.196 NA
ATOM     16  O   UNL A   1      39.816  30.070  36.061  1.00  0.00    -0.339 OA
BRANCH  13  17
ATOM     17  C   UNL A   1      41.903  27.842  34.216  1.00  0.00     0.081 C 
BRANCH  17  18
ATOM     18  C   UNL A   1      43.316  28.129  34.726  1.00  0.00     0.005 C 
ATOM     19  C   UNL A   1      44.301  27.010  34.410  1.00  0.00     0.004 C 
ENDBRANCH  17  18
ENDBRANCH  13  17
ENDBRANCH   8  12
ENDBRANCH   6   7
ENDBRANCH   3   6
ENDBRANCH   1   2
BRANCH   1  20
ATOM     20  C   UNL A   1      37.155  33.762  29.285  1.00  0.00     0.023 C 
BRANCH  20  21
ATOM     21  C   UNL A   1      35.747  33.595  28.727  1.00  0.00     0.023 C 
BRANCH  21  22
ATOM     22  C   UNL A   1      34.892  32.601  29.489  1.00  0.00     0.116 C 
BRANCH  22  23
ATOM     23  N   UNL A   1      34.143  31.711  28.612  1.00  0.00    -0.352 N 
ATOM     24  C   UNL A   1      34.557  30.565  27.973  1.00  0.00     0.251 C 
ATOM     25  H   UNL A   1      33.205  31.965  28.456  1.00  0.00     0.163 HD
ATOM     26  O   UNL A   1      33.833  30.010  27.163  1.00  0.00    -0.269 OA
BRANCH  24  27
ATOM     27  C   UNL A   1      35.905  30.034  28.260  1.00  0.00     0.039 A 
ATOM     28  C   UNL A   1      36.917  30.210  27.316  1.00  0.00     0.014 A 
ATOM     29  C   UNL A   1      36.168  29.401  29.477  1.00  0.00     0.014 A 
ATOM     30  C   UNL A   1      38.218  29.813  27.626  1.00  0.00     0.010 A 
ATOM     31  C   UNL A   1      37.477  29.100  29.822  1.00  0.00     0.010 A 
ATOM     32  C   UNL A   1      38.512  29.291  28.896  1.00  0.00    -0.014 A 
BRANCH  32  33
ATOM     33  C   UNL A   1      39.891  28.908  29.277  1.00  0.00     0.031 A 
ATOM     34  C   UNL A   1      40.701  29.827  30.148  1.00  0.00     0.074 A 
ATOM     35  C   UNL A   1      40.434  27.780  28.781  1.00  0.00     0.049 A 
ATOM     36  N   UNL A   1      41.952  29.729  30.519  1.00  0.00    -0.248 NA
ATOM     37  C   UNL A   1      40.025  31.042  30.632  1.00  0.00     0.031 C 
ATOM     38  C   UNL A   1      39.761  26.838  27.885  1.00  0.00     0.029 A 
ATOM     39  N   UNL A   1      41.682  27.240  28.955  1.00  0.00    -0.354 N 
ATOM     40  C   UNL A   1      42.213  30.874  31.260  1.00  0.00     0.074 A 
ATOM     41  C   UNL A   1      41.016  31.685  31.227  1.00  0.00     0.031 C 
ATOM     42  C   UNL A   1      40.592  25.819  27.617  1.00  0.00     0.029 A 
ATOM     43  C   UNL A   1      41.866  26.054  28.288  1.00  0.00     0.049 A 
ATOM     44  H   UNL A   1      42.381  27.663  29.506  1.00  0.00     0.167 HD
ATOM     45  C   UNL A   1      43.339  31.204  31.935  1.00  0.00     0.037 A 
ATOM     46  C   UNL A   1      42.944  25.250  28.230  1.00  0.00     0.037 A 
ATOM     47  C   UNL A   1      44.512  30.376  31.990  1.00  0.00     0.049 A 
ATOM     48  C   UNL A   1      44.184  25.640  28.988  1.00  0.00     0.074 A 
ATOM     49  C   UNL A   1      45.688  30.586  32.688  1.00  0.00     0.029 A 
ATOM     50  N   UNL A   1      44.656  29.170  31.317  1.00  0.00    -0.354 N 
ATOM     51  N   UNL A   1      44.401  26.693  29.737  1.00  0.00    -0.248 NA
ATOM     52  C   UNL A   1      45.329  24.723  28.893  1.00  0.00     0.031 C 
ATOM     53  C   UNL A   1      46.557  29.527  32.407  1.00  0.00     0.029 A 
ATOM     54  C   UNL A   1      45.906  28.633  31.571  1.00  0.00     0.049 A 
ATOM     55  H   UNL A   1      43.969  28.759  30.744  1.00  0.00     0.167 HD
ATOM     56  C   UNL A   1      45.692  26.553  30.228  1.00  0.00     0.074 A 
ATOM     57  C   UNL A   1      46.205  25.306  29.701  1.00  0.00     0.031 C 
ATOM     58  C   UNL A   1      46.390  27.382  31.042  1.00  0.00     0.037 A 
BRANCH  45  59
ATOM     59  C   UNL A   1      43.340  32.512  32.672  1.00  0.00     0.064 A 
ATOM     60  C   UNL A   1      43.701  33.712  32.038  1.00  0.00     0.173 A 
ATOM     61  C   UNL A   1      42.978  32.570  34.025  1.00  0.00     0.173 A 
ATOM     62  F   UNL A   1      44.072  33.710  30.748  1.00  0.00    -0.203 F 
ATOM     63  C   UNL A   1      43.739  34.912  32.742  1.00  0.00     0.198 A 
ATOM     64  C   UNL A   1      42.984  33.779  34.718  1.00  0.00     0.198 A 
ATOM     65  F   UNL A   1      42.622  31.455  34.680  1.00  0.00    -0.203 F 
ATOM     66  F   UNL A   1      44.150  36.032  32.132  1.00  0.00    -0.200 F 
ATOM     67  C   UNL A   1      43.375  34.946  34.080  1.00  0.00     0.200 A 
ATOM     68  F   UNL A   1      42.622  33.812  36.008  1.00  0.00    -0.200 F 
ATOM     69  F   UNL A   1      43.412  36.102  34.756  1.00  0.00    -0.200 F 
ENDBRANCH  45  59
BRANCH  46  70
ATOM     70  C   UNL A   1      42.881  23.977  27.469  1.00  0.00     0.064 A 
ATOM     71  C   UNL A   1      43.263  23.934  26.120  1.00  0.00     0.173 A 
ATOM     72  C   UNL A   1      42.446  22.784  28.062  1.00  0.00     0.173 A 
ATOM     73  F   UNL A   1      43.668  25.053  25.504  1.00  0.00    -0.203 F 
ATOM     74  C   UNL A   1      43.197  22.748  25.391  1.00  0.00     0.198 A 
ATOM     75  C   UNL A   1      42.404  21.594  27.339  1.00  0.00     0.198 A 
ATOM     76  F   UNL A   1      42.074  22.772  29.351  1.00  0.00    -0.203 F 
ATOM     77  F   UNL A   1      43.530  22.744  24.093  1.00  0.00    -0.200 F 
ATOM     78  C   UNL A   1      42.773  21.578  26.002  1.00  0.00     0.200 A 
ATOM     79  F   UNL A   1      42.005  20.462  27.936  1.00  0.00    -0.200 F 
ATOM     80  F   UNL A   1      42.712  20.438  25.301  1.00  0.00    -0.200 F 
ENDBRANCH  46  70
BRANCH  58  81
ATOM     81  C   UNL A   1      47.769  26.947  31.443  1.00  0.00     0.064 A 
ATOM     82  C   UNL A   1      47.979  26.042  32.492  1.00  0.00     0.173 A 
ATOM     83  C   UNL A   1      48.891  27.413  30.739  1.00  0.00     0.173 A 
ATOM     84  F   UNL A   1      46.940  25.581  33.205  1.00  0.00    -0.203 F 
ATOM     85  C   UNL A   1      49.264  25.636  32.839  1.00  0.00     0.198 A 
ATOM     86  C   UNL A   1      50.172  26.982  31.069  1.00  0.00     0.198 A 
ATOM     87  F   UNL A   1      48.741  28.276  29.723  1.00  0.00    -0.203 F 
ATOM     88  F   UNL A   1      49.447  24.806  33.874  1.00  0.00    -0.200 F 
ATOM     89  C   UNL A   1      50.359  26.100  32.123  1.00  0.00     0.200 A 
ATOM     90  F   UNL A   1      51.226  27.421  30.368  1.00  0.00    -0.200 F 
ATOM     91  F   UNL A   1      51.595  25.702  32.453  1.00  0.00    -0.200 F 
ENDBRANCH  58  81
ENDBRANCH  32  33
ENDBRANCH  24  27
ENDBRANCH  22  23
ENDBRANCH  21  22
ENDBRANCH  20  21
ENDBRANCH   1  20
TORSDOF 15
ENDMDL
MODEL 2
REMARK VINA RESULT:      -9.3      4.149     10.543
REMARK SMILES CCCc1noc(C2C[NH+](CC(=O)NCCCCNC(=O)c3ccc(-c4c5nc(c(-c6c(F)c(F)c(F)c(F)c6F)c6ccc([nH]6)c(-c6c(F)c(F)c(F)c(F)c6F)c6nc(c(-c7c(F)c(F)c(F)c(F)c7F)c7ccc4[nH]7)C=C6)C=C5)cc3)C2)n1
REMARK SMILES IDX 15 1 14 2 12 3 13 4 11 6 10 7 8 8 9 9 85 10 7 12 4 13 5 14
REMARK SMILES IDX 86 15 6 16 3 17 2 18 1 19 16 20 17 21 18 22 19 23 20 24
REMARK SMILES IDX 21 26 22 27 23 28 84 29 24 30 83 31 25 32 26 33 27 34 77 35
REMARK SMILES IDX 28 36 82 37 76 38 78 39 29 40 81 41 75 42 74 43 30 45 62 46
REMARK SMILES IDX 42 47 61 48 43 49 46 50 60 51 79 52 44 53 45 54 59 56 80 57
REMARK SMILES IDX 47 58 31 59 32 60 40 61 33 62 34 63 38 64 41 65 35 66 36 67
REMARK SMILES IDX 39 68 37 69 63 70 64 71 72 72 65 73 66 74 70 75 73 76 67 77
REMARK SMILES IDX 68 78 71 79 69 80 48 81 49 82 57 83 50 84 51 85 55 86 58 87
REMARK SMILES IDX 52 88 53 89 56 90 54 91
REMARK H PARENT 14 5 10 11 19 25 78 44 46 55
REMARK Flexibility Score: inf
ROOT
ATOM      1  C   UNL A   1      32.179  29.776  25.565  1.00  0.00     0.116 C 
ENDROOT
BRANCH   1   2
ATOM      2  N   UNL A   1      31.477  29.902  24.300  1.00  0.00    -0.351 N 
ATOM      3  C   UNL A   1      30.636  29.042  23.650  1.00  0.00     0.275 C 
ATOM      4  O   UNL A   1      30.207  29.405  22.550  1.00  0.00    -0.269 OA
ATOM      5  H   UNL A   1      31.633  30.753  23.830  1.00  0.00     0.163 HD
BRANCH   3   6
ATOM      6  C   UNL A   1      30.268  27.671  24.231  1.00  0.00     0.363 C 
BRANCH   6   7
ATOM      7  N   UNL A   1      31.176  26.517  23.972  1.00  0.00    -0.325 N 
ATOM      8  C   UNL A   1      31.488  25.556  25.844  1.00  0.00     0.188 C 
ATOM      9  C   UNL A   1      32.352  26.397  24.878  1.00  0.00     0.282 C 
ATOM     10  C   UNL A   1      30.679  25.253  24.547  1.00  0.00     0.282 C 
ATOM     11  H   UNL A   1      31.307  26.659  22.971  1.00  0.00     0.348 HD
BRANCH   8  12
ATOM     12  C   UNL A   1      32.091  24.355  26.520  1.00  0.00     0.241 A 
ATOM     13  C   UNL A   1      33.235  22.686  27.044  1.00  0.00     0.171 A 
ATOM     14  N   UNL A   1      32.167  22.575  27.842  1.00  0.00    -0.062 NA
ATOM     15  N   UNL A   1      33.220  23.769  26.200  1.00  0.00    -0.196 NA
ATOM     16  O   UNL A   1      31.403  23.683  27.498  1.00  0.00    -0.339 OA
BRANCH  13  17
ATOM     17  C   UNL A   1      34.377  21.747  27.119  1.00  0.00     0.081 C 
BRANCH  17  18
ATOM     18  C   UNL A   1      35.004  21.474  25.751  1.00  0.00     0.005 C 
ATOM     19  C   UNL A   1      34.320  20.338  25.000  1.00  0.00     0.004 C 
ENDBRANCH  17  18
ENDBRANCH  13  17
ENDBRANCH   8  12
ENDBRANCH   6   7
ENDBRANCH   3   6
ENDBRANCH   1   2
BRANCH   1  20
ATOM     20  C   UNL A   1      31.541  30.593  26.695  1.00  0.00     0.023 C 
BRANCH  20  21
ATOM     21  C   UNL A   1      31.590  32.108  26.535  1.00  0.00     0.023 C 
BRANCH  21  22
ATOM     22  C   UNL A   1      32.699  32.778  27.323  1.00  0.00     0.116 C 
BRANCH  22  23
ATOM     23  N   UNL A   1      32.416  34.175  27.622  1.00  0.00    -0.352 N 
ATOM     24  C   UNL A   1      32.979  34.995  28.572  1.00  0.00     0.251 C 
ATOM     25  H   UNL A   1      31.722  34.593  27.063  1.00  0.00     0.163 HD
ATOM     26  O   UNL A   1      32.527  36.109  28.778  1.00  0.00    -0.269 OA
BRANCH  24  27
ATOM     27  C   UNL A   1      34.122  34.494  29.362  1.00  0.00     0.039 A 
ATOM     28  C   UNL A   1      33.881  33.901  30.603  1.00  0.00     0.014 A 
ATOM     29  C   UNL A   1      35.420  34.575  28.854  1.00  0.00     0.014 A 
ATOM     30  C   UNL A   1      34.940  33.324  31.303  1.00  0.00     0.010 A 
ATOM     31  C   UNL A   1      36.452  33.914  29.502  1.00  0.00     0.010 A 
ATOM     32  C   UNL A   1      36.225  33.293  30.739  1.00  0.00    -0.014 A 
BRANCH  32  33
ATOM     33  C   UNL A   1      37.361  32.643  31.430  1.00  0.00     0.031 A 
ATOM     34  C   UNL A   1      38.080  31.504  30.764  1.00  0.00     0.074 A 
ATOM     35  C   UNL A   1      37.693  33.025  32.679  1.00  0.00     0.049 A 
ATOM     36  N   UNL A   1      39.033  30.738  31.231  1.00  0.00    -0.248 NA
ATOM     37  C   UNL A   1      37.639  31.152  29.404  1.00  0.00     0.031 C 
ATOM     38  C   UNL A   1      37.032  34.082  33.445  1.00  0.00     0.029 A 
ATOM     39  N   UNL A   1      38.665  32.558  33.525  1.00  0.00    -0.354 N 
ATOM     40  C   UNL A   1      39.288  29.807  30.232  1.00  0.00     0.074 A 
ATOM     41  C   UNL A   1      38.345  30.058  29.165  1.00  0.00     0.031 C 
ATOM     42  C   UNL A   1      37.641  34.207  34.635  1.00  0.00     0.029 A 
ATOM     43  C   UNL A   1      38.707  33.215  34.730  1.00  0.00     0.049 A 
ATOM     44  H   UNL A   1      39.275  31.821  33.291  1.00  0.00     0.167 HD
ATOM     45  C   UNL A   1      40.245  28.851  30.193  1.00  0.00     0.037 A 
ATOM     46  C   UNL A   1      39.517  33.034  35.788  1.00  0.00     0.037 A 
ATOM     47  C   UNL A   1      41.201  28.631  31.244  1.00  0.00     0.049 A 
ATOM     48  C   UNL A   1      40.573  31.963  35.722  1.00  0.00     0.074 A 
ATOM     49  C   UNL A   1      42.247  27.728  31.287  1.00  0.00     0.029 A 
ATOM     50  N   UNL A   1      41.225  29.330  32.444  1.00  0.00    -0.354 N 
ATOM     51  N   UNL A   1      40.847  31.129  34.749  1.00  0.00    -0.248 NA
ATOM     52  C   UNL A   1      41.433  31.812  36.904  1.00  0.00     0.031 C 
ATOM     53  C   UNL A   1      42.882  27.853  32.527  1.00  0.00     0.029 A 
ATOM     54  C   UNL A   1      42.259  28.867  33.240  1.00  0.00     0.049 A 
ATOM     55  H   UNL A   1      40.599  30.048  32.691  1.00  0.00     0.167 HD
ATOM     56  C   UNL A   1      41.929  30.376  35.185  1.00  0.00     0.074 A 
ATOM     57  C   UNL A   1      42.268  30.861  36.507  1.00  0.00     0.031 C 
ATOM     58  C   UNL A   1      42.584  29.374  34.549  1.00  0.00     0.037 A 
BRANCH  45  59
ATOM     59  C   UNL A   1      40.303  27.985  28.969  1.00  0.00     0.064 A 
ATOM     60  C   UNL A   1      39.617  26.761  28.902  1.00  0.00     0.173 A 
ATOM     61  C   UNL A   1      41.050  28.378  27.849  1.00  0.00     0.173 A 
ATOM     62  F   UNL A   1      38.901  26.329  29.951  1.00  0.00    -0.203 F 
ATOM     63  C   UNL A   1      39.712  25.946  27.777  1.00  0.00     0.198 A 
ATOM     64  C   UNL A   1      41.114  27.576  26.712  1.00  0.00     0.198 A 
ATOM     65  F   UNL A   1      41.723  29.539  27.858  1.00  0.00    -0.203 F 
ATOM     66  F   UNL A   1      39.102  24.753  27.763  1.00  0.00    -0.200 F 
ATOM     67  C   UNL A   1      40.455  26.357  26.681  1.00  0.00     0.200 A 
ATOM     68  F   UNL A   1      41.825  27.979  25.650  1.00  0.00    -0.200 F 
ATOM     69  F   UNL A   1      40.545  25.571  25.599  1.00  0.00    -0.200 F 
ENDBRANCH  45  59
BRANCH  46  70
ATOM     70  C   UNL A   1      39.396  33.916  36.977  1.00  0.00     0.064 A 
ATOM     71  C   UNL A   1      38.662  33.504  38.098  1.00  0.00     0.173 A 
ATOM     72  C   UNL A   1      40.007  35.177  37.024  1.00  0.00     0.173 A 
ATOM     73  F   UNL A   1      38.044  32.315  38.093  1.00  0.00    -0.203 F 
ATOM     74  C   UNL A   1      38.530  34.328  39.215  1.00  0.00     0.198 A 
ATOM     75  C   UNL A   1      39.896  35.989  38.150  1.00  0.00     0.198 A 
ATOM     76  F   UNL A   1      40.725  35.614  35.979  1.00  0.00    -0.203 F 
ATOM     77  F   UNL A   1      37.789  33.926  40.256  1.00  0.00    -0.200 F 
ATOM     78  C   UNL A   1      39.152  35.567  39.242  1.00  0.00     0.200 A 
ATOM     79  F   UNL A   1      40.508  37.181  38.179  1.00  0.00    -0.200 F 
ATOM     80  F   UNL A   1      39.026  36.357  40.317  1.00  0.00    -0.200 F 
ENDBRANCH  46  70
BRANCH  58  81
ATOM     81  C   UNL A   1      43.755  28.762  35.259  1.00  0.00     0.064 A 
ATOM     82  C   UNL A   1      45.056  29.258  35.094  1.00  0.00     0.173 A 
ATOM     83  C   UNL A   1      43.565  27.693  36.147  1.00  0.00     0.173 A 
ATOM     84  F   UNL A   1      45.291  30.269  34.243  1.00  0.00    -0.203 F 
ATOM     85  C   UNL A   1      46.129  28.688  35.774  1.00  0.00     0.198 A 
ATOM     86  C   UNL A   1      44.635  27.145  36.849  1.00  0.00     0.198 A 
ATOM     87  F   UNL A   1      42.338  27.187  36.345  1.00  0.00    -0.203 F 
ATOM     88  F   UNL A   1      47.370  29.147  35.566  1.00  0.00    -0.200 F 
ATOM     89  C   UNL A   1      45.917  27.639  36.656  1.00  0.00     0.200 A 
ATOM     90  F   UNL A   1      44.426  26.140  37.710  1.00  0.00    -0.200 F 
ATOM     91  F   UNL A   1      46.950  27.098  37.316  1.00  0.00    -0.200 F 
ENDBRANCH  58  81
ENDBRANCH  32  33
ENDBRANCH  24  27
ENDBRANCH  22  23
ENDBRANCH  21  22
ENDBRANCH  20  21
ENDBRANCH   1  20
TORSDOF 15
ENDMDL
MODEL 3
REMARK VINA RESULT:      -9.2      0.692      2.180
REMARK SMILES CCCc1noc(C2C[NH+](CC(=O)NCCCCNC(=O)c3ccc(-c4c5nc(c(-c6c(F)c(F)c(F)c(F)c6F)c6ccc([nH]6)c(-c6c(F)c(F)c(F)c(F)c6F)c6nc(c(-c7c(F)c(F)c(F)c(F)c7F)c7ccc4[nH]7)C=C6)C=C5)cc3)C2)n1
REMARK SMILES IDX 15 1 14 2 12 3 13 4 11 6 10 7 8 8 9 9 85 10 7 12 4 13 5 14
REMARK SMILES IDX 86 15 6 16 3 17 2 18 1 19 16 20 17 21 18 22 19 23 20 24
REMARK SMILES IDX 21 26 22 27 23 28 84 29 24 30 83 31 25 32 26 33 27 34 77 35
REMARK SMILES IDX 28 36 82 37 76 38 78 39 29 40 81 41 75 42 74 43 30 45 62 46
REMARK SMILES IDX 42 47 61 48 43 49 46 50 60 51 79 52 44 53 45 54 59 56 80 57
REMARK SMILES IDX 47 58 31 59 32 60 40 61 33 62 34 63 38 64 41 65 35 66 36 67
REMARK SMILES IDX 39 68 37 69 63 70 64 71 72 72 65 73 66 74 70 75 73 76 67 77
REMARK SMILES IDX 68 78 71 79 69 80 48 81 49 82 57 83 50 84 51 85 55 86 58 87
REMARK SMILES IDX 52 88 53 89 56 90 54 91
REMARK H PARENT 14 5 10 11 19 25 78 44 46 55
REMARK Flexibility Score: inf
ROOT
ATOM      1  C   UNL A   1      36.891  33.513  30.439  1.00  0.00     0.116 C 
ENDROOT
BRANCH   1   2
ATOM      2  N   UNL A   1      36.403  34.579  31.296  1.00  0.00    -0.351 N 
ATOM      3  C   UNL A   1      36.089  34.588  32.628  1.00  0.00     0.275 C 
ATOM      4  O   UNL A   1      35.654  35.647  33.091  1.00  0.00    -0.269 OA
ATOM      5  H   UNL A   1      36.278  35.443  30.842  1.00  0.00     0.163 HD
BRANCH   3   6
ATOM      6  C   UNL A   1      36.229  33.336  33.504  1.00  0.00     0.363 C 
BRANCH   6   7
ATOM      7  N   UNL A   1      37.557  33.029  34.105  1.00  0.00    -0.325 N 
ATOM      8  C   UNL A   1      37.974  30.992  33.652  1.00  0.00     0.188 C 
ATOM      9  C   UNL A   1      37.629  31.790  34.930  1.00  0.00     0.282 C 
ATOM     10  C   UNL A   1      38.482  32.380  33.157  1.00  0.00     0.282 C 
ATOM     11  H   UNL A   1      37.741  33.940  34.525  1.00  0.00     0.348 HD
BRANCH   8  12
ATOM     12  C   UNL A   1      39.017  29.911  33.715  1.00  0.00     0.241 A 
ATOM     13  C   UNL A   1      40.773  28.801  33.941  1.00  0.00     0.171 A 
ATOM     14  N   UNL A   1      39.995  27.981  33.226  1.00  0.00    -0.062 NA
ATOM     15  N   UNL A   1      40.209  30.013  34.254  1.00  0.00    -0.196 NA
ATOM     16  O   UNL A   1      38.826  28.714  33.073  1.00  0.00    -0.339 OA
BRANCH  13  17
ATOM     17  C   UNL A   1      42.116  28.398  34.417  1.00  0.00     0.081 C 
BRANCH  17  18
ATOM     18  C   UNL A   1      42.986  27.819  33.300  1.00  0.00     0.005 C 
ATOM     19  C   UNL A   1      43.834  26.639  33.759  1.00  0.00     0.004 C 
ENDBRANCH  17  18
ENDBRANCH  13  17
ENDBRANCH   8  12
ENDBRANCH   6   7
ENDBRANCH   3   6
ENDBRANCH   1   2
BRANCH   1  20
ATOM     20  C   UNL A   1      36.677  33.792  28.947  1.00  0.00     0.023 C 
BRANCH  20  21
ATOM     21  C   UNL A   1      35.334  33.359  28.371  1.00  0.00     0.023 C 
BRANCH  21  22
ATOM     22  C   UNL A   1      34.603  32.329  29.211  1.00  0.00     0.116 C 
BRANCH  22  23
ATOM     23  N   UNL A   1      34.080  31.223  28.421  1.00  0.00    -0.352 N 
ATOM     24  C   UNL A   1      34.733  30.117  27.930  1.00  0.00     0.251 C 
ATOM     25  H   UNL A   1      33.120  31.274  28.208  1.00  0.00     0.163 HD
ATOM     26  O   UNL A   1      34.169  29.350  27.168  1.00  0.00    -0.269 OA
BRANCH  24  27
ATOM     27  C   UNL A   1      36.141  29.888  28.315  1.00  0.00     0.039 A 
ATOM     28  C   UNL A   1      36.420  29.354  29.574  1.00  0.00     0.014 A 
ATOM     29  C   UNL A   1      37.172  30.164  27.415  1.00  0.00     0.014 A 
ATOM     30  C   UNL A   1      37.736  29.029  29.903  1.00  0.00     0.010 A 
ATOM     31  C   UNL A   1      38.462  29.747  27.703  1.00  0.00     0.010 A 
ATOM     32  C   UNL A   1      38.759  29.188  28.954  1.00  0.00    -0.014 A 
BRANCH  32  33
ATOM     33  C   UNL A   1      40.159  28.804  29.251  1.00  0.00     0.031 A 
ATOM     34  C   UNL A   1      41.025  29.730  30.058  1.00  0.00     0.074 A 
ATOM     35  C   UNL A   1      40.667  27.670  28.732  1.00  0.00     0.049 A 
ATOM     36  N   UNL A   1      42.297  29.632  30.349  1.00  0.00    -0.248 NA
ATOM     37  C   UNL A   1      40.384  30.951  30.572  1.00  0.00     0.031 C 
ATOM     38  C   UNL A   1      39.935  26.721  27.891  1.00  0.00     0.029 A 
ATOM     39  N   UNL A   1      41.922  27.129  28.831  1.00  0.00    -0.354 N 
ATOM     40  C   UNL A   1      42.608  30.784  31.060  1.00  0.00     0.074 A 
ATOM     41  C   UNL A   1      41.413  31.598  31.096  1.00  0.00     0.031 C 
ATOM     42  C   UNL A   1      40.745  25.697  27.580  1.00  0.00     0.029 A 
ATOM     43  C   UNL A   1      42.060  25.935  28.166  1.00  0.00     0.049 A 
ATOM     44  H   UNL A   1      42.655  27.555  29.332  1.00  0.00     0.167 HD
ATOM     45  C   UNL A   1      43.775  31.117  31.659  1.00  0.00     0.037 A 
ATOM     46  C   UNL A   1      43.130  25.128  28.048  1.00  0.00     0.037 A 
ATOM     47  C   UNL A   1      44.948  30.286  31.646  1.00  0.00     0.049 A 
ATOM     48  C   UNL A   1      44.418  25.521  28.721  1.00  0.00     0.074 A 
ATOM     49  C   UNL A   1      46.166  30.500  32.266  1.00  0.00     0.029 A 
ATOM     50  N   UNL A   1      45.045  29.073  30.978  1.00  0.00    -0.354 N 
ATOM     51  N   UNL A   1      44.684  26.581  29.443  1.00  0.00    -0.248 NA
ATOM     52  C   UNL A   1      45.551  24.600  28.562  1.00  0.00     0.031 C 
ATOM     53  C   UNL A   1      47.014  29.435  31.941  1.00  0.00     0.029 A 
ATOM     54  C   UNL A   1      46.308  28.535  31.157  1.00  0.00     0.049 A 
ATOM     55  H   UNL A   1      44.322  28.658  30.454  1.00  0.00     0.167 HD
ATOM     56  C   UNL A   1      46.004  26.443  29.852  1.00  0.00     0.074 A 
ATOM     57  C   UNL A   1      46.479  25.188  29.305  1.00  0.00     0.031 C 
ATOM     58  C   UNL A   1      46.755  27.277  30.611  1.00  0.00     0.037 A 
BRANCH  45  59
ATOM     59  C   UNL A   1      43.826  32.432  32.381  1.00  0.00     0.064 A 
ATOM     60  C   UNL A   1      43.503  32.535  33.744  1.00  0.00     0.173 A 
ATOM     61  C   UNL A   1      44.200  33.604  31.708  1.00  0.00     0.173 A 
ATOM     62  F   UNL A   1      43.123  31.447  34.432  1.00  0.00    -0.203 F 
ATOM     63  C   UNL A   1      43.514  33.766  34.393  1.00  0.00     0.198 A 
ATOM     64  C   UNL A   1      44.242  34.829  32.369  1.00  0.00     0.198 A 
ATOM     65  F   UNL A   1      44.520  33.563  30.405  1.00  0.00    -0.203 F 
ATOM     66  F   UNL A   1      43.138  33.847  35.677  1.00  0.00    -0.200 F 
ATOM     67  C   UNL A   1      43.888  34.911  33.707  1.00  0.00     0.200 A 
ATOM     68  F   UNL A   1      44.613  35.933  31.707  1.00  0.00    -0.200 F 
ATOM     69  F   UNL A   1      43.896  36.096  34.333  1.00  0.00    -0.200 F 
ENDBRANCH  45  59
BRANCH  46  70
ATOM     70  C   UNL A   1      43.016  23.847  27.304  1.00  0.00     0.064 A 
ATOM     71  C   UNL A   1      42.532  22.695  27.940  1.00  0.00     0.173 A 
ATOM     72  C   UNL A   1      43.378  23.744  25.954  1.00  0.00     0.173 A 
ATOM     73  F   UNL A   1      42.191  22.739  29.236  1.00  0.00    -0.203 F 
ATOM     74  C   UNL A   1      42.432  21.484  27.258  1.00  0.00     0.198 A 
ATOM     75  C   UNL A   1      43.254  22.539  25.265  1.00  0.00     0.198 A 
ATOM     76  F   UNL A   1      43.841  24.819  25.300  1.00  0.00    -0.203 F 
ATOM     77  F   UNL A   1      42.006  20.389  27.900  1.00  0.00    -0.200 F 
ATOM     78  C   UNL A   1      42.788  21.408  25.919  1.00  0.00     0.200 A 
ATOM     79  F   UNL A   1      43.587  22.473  23.969  1.00  0.00    -0.200 F 
ATOM     80  F   UNL A   1      42.689  20.244  25.263  1.00  0.00    -0.200 F 
ENDBRANCH  46  70
BRANCH  58  81
ATOM     81  C   UNL A   1      48.155  26.843  30.927  1.00  0.00     0.064 A 
ATOM     82  C   UNL A   1      49.248  27.268  30.161  1.00  0.00     0.173 A 
ATOM     83  C   UNL A   1      48.408  26.022  32.038  1.00  0.00     0.173 A 
ATOM     84  F   UNL A   1      49.056  28.040  29.080  1.00  0.00    -0.203 F 
ATOM     85  C   UNL A   1      50.543  26.868  30.479  1.00  0.00     0.198 A 
ATOM     86  C   UNL A   1      49.706  25.649  32.372  1.00  0.00     0.198 A 
ATOM     87  F   UNL A   1      47.395  25.594  32.807  1.00  0.00    -0.203 F 
ATOM     88  F   UNL A   1      51.569  27.249  29.706  1.00  0.00    -0.200 F 
ATOM     89  C   UNL A   1      50.771  26.066  31.588  1.00  0.00     0.200 A 
ATOM     90  F   UNL A   1      49.926  24.886  33.451  1.00  0.00    -0.200 F 
ATOM     91  F   UNL A   1      52.020  25.690  31.898  1.00  0.00    -0.200 F 
ENDBRANCH  58  81
ENDBRANCH  32  33
ENDBRANCH  24  27
ENDBRANCH  22  23
ENDBRANCH  21  22
ENDBRANCH  20  21
ENDBRANCH   1  20
TORSDOF 15
ENDMDL
