MODEL 1
REMARK VINA RESULT:     -12.6      0.000      0.000
REMARK SMILES O=C(NCCCCNC(=O)c1cc(/C=C/c2cc(O)cc(O)c2)ccc1O)c1ccc(-c2c3nc(c(-c4c(F)c(F)c(F)c(F)c4F)c4ccc([nH]4)c(-c4c(F)c(F)c(F)c(F)c4F)c4nc(c(-c5c(F)c(F)c(F)c(F)c5F)c5ccc2[nH]5)C=C4)C=C3)cc1
REMARK SMILES IDX 6 1 5 2 4 3 3 4 1 5 2 6 28 8 29 9 90 10 30 11 89 12 31 13
REMARK SMILES IDX 32 14 33 15 83 16 34 17 88 18 82 19 84 20 35 21 87 22 81 23
REMARK SMILES IDX 80 24 36 26 68 27 48 28 67 29 49 30 52 31 66 32 85 33 50 34
REMARK SMILES IDX 51 35 65 37 86 38 53 39 37 40 38 41 46 42 39 43 40 44 44 45
REMARK SMILES IDX 47 46 41 47 42 48 45 49 43 50 69 51 70 52 78 53 71 54 72 55
REMARK SMILES IDX 76 56 79 57 73 58 74 59 77 60 75 61 54 62 55 63 63 64 56 65
REMARK SMILES IDX 57 66 61 67 64 68 58 69 59 70 62 71 60 72 7 73 8 74 9 75
REMARK SMILES IDX 10 77 11 78 12 79 26 80 13 81 25 82 24 83 27 84 14 86 15 87
REMARK SMILES IDX 16 88 17 89 23 90 18 91 21 92 20 93 19 94 22 96
REMARK H PARENT 3 7 84 25 52 36 8 76 27 85 19 95 22 97
REMARK Flexibility Score: inf
ROOT
ATOM      1  C   UNL A   1      31.820  28.942  23.225  1.00  0.00     0.023 C 
ENDROOT
BRANCH   1   2
ATOM      2  C   UNL A   1      33.301  28.823  23.574  1.00  0.00     0.023 C 
BRANCH   2   3
ATOM      3  C   UNL A   1      33.636  28.991  25.049  1.00  0.00     0.116 C 
BRANCH   3   4
ATOM      4  N   UNL A   1      32.976  30.139  25.656  1.00  0.00    -0.352 N 
ATOM      5  O   UNL A   1      32.565  31.710  27.223  1.00  0.00    -0.269 OA
ATOM      6  C   UNL A   1      33.316  30.845  26.784  1.00  0.00     0.251 C 
ATOM      7  H   UNL A   1      32.168  30.455  25.189  1.00  0.00     0.163 HD
BRANCH   6   8
ATOM      8  C   UNL A   1      34.579  30.539  27.490  1.00  0.00     0.039 A 
ATOM      9  C   UNL A   1      34.816  29.262  28.000  1.00  0.00     0.014 A 
ATOM     10  C   UNL A   1      35.532  31.549  27.649  1.00  0.00     0.014 A 
ATOM     11  C   UNL A   1      35.929  29.036  28.803  1.00  0.00     0.010 A 
ATOM     12  C   UNL A   1      36.696  31.294  28.381  1.00  0.00     0.010 A 
ATOM     13  C   UNL A   1      36.886  30.047  28.993  1.00  0.00    -0.014 A 
BRANCH  13  14
ATOM     14  C   UNL A   1      38.103  29.748  29.789  1.00  0.00     0.031 A 
ATOM     15  C   UNL A   1      38.280  30.291  31.179  1.00  0.00     0.074 A 
ATOM     16  C   UNL A   1      39.042  28.948  29.251  1.00  0.00     0.049 A 
ATOM     17  N   UNL A   1      39.273  30.109  32.015  1.00  0.00    -0.248 NA
ATOM     18  C   UNL A   1      37.213  31.160  31.700  1.00  0.00     0.031 C 
ATOM     19  C   UNL A   1      38.985  28.377  27.903  1.00  0.00     0.029 A 
ATOM     20  N   UNL A   1      40.214  28.462  29.769  1.00  0.00    -0.354 N 
ATOM     21  C   UNL A   1      38.962  30.851  33.146  1.00  0.00     0.074 A 
ATOM     22  C   UNL A   1      37.698  31.506  32.885  1.00  0.00     0.031 C 
ATOM     23  C   UNL A   1      40.049  27.583  27.717  1.00  0.00     0.029 A 
ATOM     24  C   UNL A   1      40.891  27.636  28.907  1.00  0.00     0.049 A 
ATOM     25  H   UNL A   1      40.539  28.684  30.672  1.00  0.00     0.167 HD
ATOM     26  C   UNL A   1      39.667  30.967  34.298  1.00  0.00     0.037 A 
ATOM     27  C   UNL A   1      42.068  27.001  29.049  1.00  0.00     0.037 A 
ATOM     28  C   UNL A   1      40.913  30.293  34.561  1.00  0.00     0.049 A 
ATOM     29  C   UNL A   1      42.826  27.149  30.335  1.00  0.00     0.074 A 
ATOM     30  C   UNL A   1      41.679  30.312  35.713  1.00  0.00     0.029 A 
ATOM     31  N   UNL A   1      41.578  29.479  33.655  1.00  0.00    -0.354 N 
ATOM     32  N   UNL A   1      42.504  27.827  31.409  1.00  0.00    -0.248 NA
ATOM     33  C   UNL A   1      44.112  26.446  30.429  1.00  0.00     0.031 C 
ATOM     34  C   UNL A   1      42.827  29.544  35.491  1.00  0.00     0.029 A 
ATOM     35  C   UNL A   1      42.755  29.009  34.215  1.00  0.00     0.049 A 
ATOM     36  H   UNL A   1      41.260  29.266  32.747  1.00  0.00     0.167 HD
ATOM     37  C   UNL A   1      43.540  27.627  32.311  1.00  0.00     0.074 A 
ATOM     38  C   UNL A   1      44.489  26.743  31.665  1.00  0.00     0.031 C 
ATOM     39  C   UNL A   1      43.692  28.134  33.557  1.00  0.00     0.037 A 
BRANCH  26  40
ATOM     40  C   UNL A   1      39.119  31.869  35.366  1.00  0.00     0.064 A 
ATOM     41  C   UNL A   1      38.332  31.375  36.417  1.00  0.00     0.173 A 
ATOM     42  C   UNL A   1      39.439  33.235  35.373  1.00  0.00     0.173 A 
ATOM     43  F   UNL A   1      37.989  30.078  36.452  1.00  0.00    -0.203 F 
ATOM     44  C   UNL A   1      37.871  32.219  37.424  1.00  0.00     0.198 A 
ATOM     45  C   UNL A   1      38.997  34.072  36.395  1.00  0.00     0.198 A 
ATOM     46  F   UNL A   1      40.195  33.757  34.395  1.00  0.00    -0.203 F 
ATOM     47  F   UNL A   1      37.091  31.732  38.399  1.00  0.00    -0.200 F 
ATOM     48  C   UNL A   1      38.209  33.563  37.417  1.00  0.00     0.200 A 
ATOM     49  F   UNL A   1      39.336  35.368  36.392  1.00  0.00    -0.200 F 
ATOM     50  F   UNL A   1      37.773  34.372  38.393  1.00  0.00    -0.200 F 
ENDBRANCH  26  40
BRANCH  27  51
ATOM     51  C   UNL A   1      42.592  26.172  27.934  1.00  0.00     0.064 A 
ATOM     52  C   UNL A   1      43.436  26.721  26.961  1.00  0.00     0.173 A 
ATOM     53  C   UNL A   1      42.281  24.807  27.839  1.00  0.00     0.173 A 
ATOM     54  F   UNL A   1      43.748  28.024  27.001  1.00  0.00    -0.203 F 
ATOM     55  C   UNL A   1      43.943  25.936  25.927  1.00  0.00     0.198 A 
ATOM     56  C   UNL A   1      42.812  24.019  26.822  1.00  0.00     0.198 A 
ATOM     57  F   UNL A   1      41.483  24.236  28.751  1.00  0.00    -0.203 F 
ATOM     58  F   UNL A   1      44.722  26.492  24.988  1.00  0.00    -0.200 F 
ATOM     59  C   UNL A   1      43.637  24.585  25.863  1.00  0.00     0.200 A 
ATOM     60  F   UNL A   1      42.527  22.710  26.775  1.00  0.00    -0.200 F 
ATOM     61  F   UNL A   1      44.136  23.829  24.875  1.00  0.00    -0.200 F 
ENDBRANCH  27  51
BRANCH  39  62
ATOM     62  C   UNL A   1      44.924  27.730  34.309  1.00  0.00     0.064 A 
ATOM     63  C   UNL A   1      44.951  26.576  35.106  1.00  0.00     0.173 A 
ATOM     64  C   UNL A   1      46.099  28.492  34.212  1.00  0.00     0.173 A 
ATOM     65  F   UNL A   1      43.847  25.826  35.244  1.00  0.00    -0.203 F 
ATOM     66  C   UNL A   1      46.101  26.214  35.801  1.00  0.00     0.198 A 
ATOM     67  C   UNL A   1      47.255  28.112  34.887  1.00  0.00     0.198 A 
ATOM     68  F   UNL A   1      46.125  29.601  33.459  1.00  0.00    -0.203 F 
ATOM     69  F   UNL A   1      46.090  25.135  36.595  1.00  0.00    -0.200 F 
ATOM     70  C   UNL A   1      47.253  26.978  35.686  1.00  0.00     0.200 A 
ATOM     71  F   UNL A   1      48.370  28.845  34.768  1.00  0.00    -0.200 F 
ATOM     72  F   UNL A   1      48.360  26.627  36.354  1.00  0.00    -0.200 F 
ENDBRANCH  39  62
ENDBRANCH  13  14
ENDBRANCH   6   8
ENDBRANCH   3   4
ENDBRANCH   2   3
ENDBRANCH   1   2
BRANCH   1  73
ATOM     73  C   UNL A   1      31.227  27.751  22.481  1.00  0.00     0.116 C 
BRANCH  73  74
ATOM     74  N   UNL A   1      29.882  27.427  22.920  1.00  0.00    -0.352 N 
ATOM     75  C   UNL A   1      29.498  26.526  23.883  1.00  0.00     0.255 C 
ATOM     76  H   UNL A   1      29.154  27.913  22.471  1.00  0.00     0.163 HD
ATOM     77  O   UNL A   1      28.308  26.331  24.112  1.00  0.00    -0.269 OA
BRANCH  75  78
ATOM     78  C   UNL A   1      30.519  25.718  24.574  1.00  0.00     0.082 A 
ATOM     79  C   UNL A   1      30.725  24.416  24.097  1.00  0.00     0.025 A 
ATOM     80  C   UNL A   1      31.264  26.202  25.652  1.00  0.00     0.128 A 
ATOM     81  C   UNL A   1      31.710  23.599  24.660  1.00  0.00    -0.025 A 
ATOM     82  C   UNL A   1      32.259  25.408  26.213  1.00  0.00     0.047 A 
ATOM     83  C   UNL A   1      32.484  24.120  25.711  1.00  0.00     0.012 A 
BRANCH  80  84
ATOM     84  O   UNL A   1      31.035  27.454  26.148  1.00  0.00    -0.507 OA
ATOM     85  H   UNL A   1      30.779  27.565  27.043  1.00  0.00     0.293 HD
ENDBRANCH  80  84
BRANCH  81  86
ATOM     86  C   UNL A   1      31.968  22.216  24.218  1.00  0.00     0.009 C 
ATOM     87  C   UNL A   1      32.780  21.333  24.824  1.00  0.00     0.009 C 
BRANCH  87  88
ATOM     88  C   UNL A   1      33.058  19.990  24.292  1.00  0.00    -0.018 A 
ATOM     89  C   UNL A   1      34.008  19.149  24.890  1.00  0.00     0.054 A 
ATOM     90  C   UNL A   1      32.293  19.506  23.222  1.00  0.00     0.054 A 
ATOM     91  C   UNL A   1      34.199  17.857  24.403  1.00  0.00     0.119 A 
ATOM     92  C   UNL A   1      32.500  18.210  22.750  1.00  0.00     0.119 A 
ATOM     93  C   UNL A   1      33.452  17.382  23.333  1.00  0.00     0.092 A 
BRANCH  91  94
ATOM     94  O   UNL A   1      35.112  17.016  24.968  1.00  0.00    -0.508 OA
ATOM     95  H   UNL A   1      35.070  16.096  24.796  1.00  0.00     0.293 HD
ENDBRANCH  91  94
BRANCH  92  96
ATOM     96  O   UNL A   1      31.773  17.708  21.711  1.00  0.00    -0.508 OA
ATOM     97  H   UNL A   1      31.408  16.847  21.767  1.00  0.00     0.293 HD
ENDBRANCH  92  96
ENDBRANCH  87  88
ENDBRANCH  81  86
ENDBRANCH  75  78
ENDBRANCH  73  74
ENDBRANCH   1  73
TORSDOF 16
ENDMDL
MODEL 2
REMARK VINA RESULT:     -12.6      4.700     10.336
REMARK SMILES O=C(NCCCCNC(=O)c1cc(/C=C/c2cc(O)cc(O)c2)ccc1O)c1ccc(-c2c3nc(c(-c4c(F)c(F)c(F)c(F)c4F)c4ccc([nH]4)c(-c4c(F)c(F)c(F)c(F)c4F)c4nc(c(-c5c(F)c(F)c(F)c(F)c5F)c5ccc2[nH]5)C=C4)C=C3)cc1
REMARK SMILES IDX 6 1 5 2 4 3 3 4 1 5 2 6 28 8 29 9 90 10 30 11 89 12 31 13
REMARK SMILES IDX 32 14 33 15 83 16 34 17 88 18 82 19 84 20 35 21 87 22 81 23
REMARK SMILES IDX 80 24 36 26 68 27 48 28 67 29 49 30 52 31 66 32 85 33 50 34
REMARK SMILES IDX 51 35 65 37 86 38 53 39 37 40 38 41 46 42 39 43 40 44 44 45
REMARK SMILES IDX 47 46 41 47 42 48 45 49 43 50 69 51 70 52 78 53 71 54 72 55
REMARK SMILES IDX 76 56 79 57 73 58 74 59 77 60 75 61 54 62 55 63 63 64 56 65
REMARK SMILES IDX 57 66 61 67 64 68 58 69 59 70 62 71 60 72 7 73 8 74 9 75
REMARK SMILES IDX 10 77 11 78 12 79 26 80 13 81 25 82 24 83 27 84 14 86 15 87
REMARK SMILES IDX 16 88 17 89 23 90 18 91 21 92 20 93 19 94 22 96
REMARK H PARENT 3 7 84 25 52 36 8 76 27 85 19 95 22 97
REMARK Flexibility Score: inf
ROOT
ATOM      1  C   UNL A   1      36.728  20.303  24.945  1.00  0.00     0.023 C 
ENDROOT
BRANCH   1   2
ATOM      2  C   UNL A   1      38.080  19.622  24.742  1.00  0.00     0.023 C 
BRANCH   2   3
ATOM      3  C   UNL A   1      39.151  19.994  25.757  1.00  0.00     0.116 C 
BRANCH   3   4
ATOM      4  N   UNL A   1      40.218  19.008  25.848  1.00  0.00    -0.352 N 
ATOM      5  O   UNL A   1      42.339  18.249  25.991  1.00  0.00    -0.269 OA
ATOM      6  C   UNL A   1      41.560  19.193  26.078  1.00  0.00     0.251 C 
ATOM      7  H   UNL A   1      39.937  18.072  25.725  1.00  0.00     0.163 HD
BRANCH   6   8
ATOM      8  C   UNL A   1      42.071  20.542  26.402  1.00  0.00     0.039 A 
ATOM      9  C   UNL A   1      42.217  20.948  27.729  1.00  0.00     0.014 A 
ATOM     10  C   UNL A   1      42.399  21.414  25.359  1.00  0.00     0.014 A 
ATOM     11  C   UNL A   1      42.538  22.270  28.015  1.00  0.00     0.010 A 
ATOM     12  C   UNL A   1      42.809  22.719  25.650  1.00  0.00     0.010 A 
ATOM     13  C   UNL A   1      42.847  23.167  26.979  1.00  0.00    -0.014 A 
BRANCH  13  14
ATOM     14  C   UNL A   1      43.264  24.550  27.321  1.00  0.00     0.031 A 
ATOM     15  C   UNL A   1      44.665  25.030  27.067  1.00  0.00     0.074 A 
ATOM     16  C   UNL A   1      42.346  25.387  27.841  1.00  0.00     0.049 A 
ATOM     17  N   UNL A   1      45.184  26.213  27.289  1.00  0.00    -0.248 NA
ATOM     18  C   UNL A   1      45.612  24.059  26.499  1.00  0.00     0.031 C 
ATOM     19  C   UNL A   1      40.960  25.026  28.146  1.00  0.00     0.029 A 
ATOM     20  N   UNL A   1      42.429  26.711  28.186  1.00  0.00    -0.354 N 
ATOM     21  C   UNL A   1      46.516  26.123  26.909  1.00  0.00     0.074 A 
ATOM     22  C   UNL A   1      46.735  24.763  26.462  1.00  0.00     0.031 C 
ATOM     23  C   UNL A   1      40.311  26.111  28.592  1.00  0.00     0.029 A 
ATOM     24  C   UNL A   1      41.248  27.227  28.658  1.00  0.00     0.049 A 
ATOM     25  H   UNL A   1      43.256  27.240  28.105  1.00  0.00     0.167 HD
ATOM     26  C   UNL A   1      47.465  27.091  26.927  1.00  0.00     0.037 A 
ATOM     27  C   UNL A   1      40.952  28.459  29.110  1.00  0.00     0.037 A 
ATOM     28  C   UNL A   1      47.234  28.448  27.352  1.00  0.00     0.049 A 
ATOM     29  C   UNL A   1      42.023  29.509  29.119  1.00  0.00     0.074 A 
ATOM     30  C   UNL A   1      48.120  29.512  27.364  1.00  0.00     0.029 A 
ATOM     31  N   UNL A   1      46.028  28.929  27.842  1.00  0.00    -0.354 N 
ATOM     32  N   UNL A   1      43.270  29.420  28.725  1.00  0.00    -0.248 NA
ATOM     33  C   UNL A   1      41.648  30.831  29.636  1.00  0.00     0.031 C 
ATOM     34  C   UNL A   1      47.463  30.625  27.900  1.00  0.00     0.029 A 
ATOM     35  C   UNL A   1      46.154  30.268  28.179  1.00  0.00     0.049 A 
ATOM     36  H   UNL A   1      45.204  28.398  27.935  1.00  0.00     0.167 HD
ATOM     37  C   UNL A   1      43.827  30.673  28.938  1.00  0.00     0.074 A 
ATOM     38  C   UNL A   1      42.774  31.512  29.472  1.00  0.00     0.031 C 
ATOM     39  C   UNL A   1      45.097  31.087  28.716  1.00  0.00     0.037 A 
BRANCH  26  40
ATOM     40  C   UNL A   1      48.853  26.720  26.490  1.00  0.00     0.064 A 
ATOM     41  C   UNL A   1      49.278  26.889  25.164  1.00  0.00     0.173 A 
ATOM     42  C   UNL A   1      49.788  26.248  27.423  1.00  0.00     0.173 A 
ATOM     43  F   UNL A   1      48.420  27.328  24.230  1.00  0.00    -0.203 F 
ATOM     44  C   UNL A   1      50.583  26.583  24.786  1.00  0.00     0.198 A 
ATOM     45  C   UNL A   1      51.098  25.965  27.047  1.00  0.00     0.198 A 
ATOM     46  F   UNL A   1      49.434  26.075  28.706  1.00  0.00    -0.203 F 
ATOM     47  F   UNL A   1      50.958  26.719  23.506  1.00  0.00    -0.200 F 
ATOM     48  C   UNL A   1      51.493  26.129  25.728  1.00  0.00     0.200 A 
ATOM     49  F   UNL A   1      51.980  25.539  27.962  1.00  0.00    -0.200 F 
ATOM     50  F   UNL A   1      52.752  25.844  25.364  1.00  0.00    -0.200 F 
ENDBRANCH  26  40
BRANCH  27  51
ATOM     51  C   UNL A   1      39.578  28.752  29.590  1.00  0.00     0.064 A 
ATOM     52  C   UNL A   1      39.213  28.519  30.922  1.00  0.00     0.173 A 
ATOM     53  C   UNL A   1      38.613  29.299  28.731  1.00  0.00     0.173 A 
ATOM     54  F   UNL A   1      40.097  27.981  31.775  1.00  0.00    -0.203 F 
ATOM     55  C   UNL A   1      37.929  28.813  31.375  1.00  0.00     0.198 A 
ATOM     56  C   UNL A   1      37.339  29.619  29.193  1.00  0.00     0.198 A 
ATOM     57  F   UNL A   1      38.917  29.546  27.449  1.00  0.00    -0.203 F 
ATOM     58  F   UNL A   1      37.594  28.550  32.646  1.00  0.00    -0.200 F 
ATOM     59  C   UNL A   1      36.996  29.371  30.513  1.00  0.00     0.200 A 
ATOM     60  F   UNL A   1      36.447  30.174  28.361  1.00  0.00    -0.200 F 
ATOM     61  F   UNL A   1      35.765  29.665  30.954  1.00  0.00    -0.200 F 
ENDBRANCH  27  51
BRANCH  39  62
ATOM     62  C   UNL A   1      45.410  32.518  29.036  1.00  0.00     0.064 A 
ATOM     63  C   UNL A   1      45.922  32.893  30.288  1.00  0.00     0.173 A 
ATOM     64  C   UNL A   1      45.219  33.521  28.075  1.00  0.00     0.173 A 
ATOM     65  F   UNL A   1      46.104  31.971  31.246  1.00  0.00    -0.203 F 
ATOM     66  C   UNL A   1      46.205  34.225  30.574  1.00  0.00     0.198 A 
ATOM     67  C   UNL A   1      45.529  34.848  28.356  1.00  0.00     0.198 A 
ATOM     68  F   UNL A   1      44.737  33.212  26.862  1.00  0.00    -0.203 F 
ATOM     69  F   UNL A   1      46.647  34.567  31.792  1.00  0.00    -0.200 F 
ATOM     70  C   UNL A   1      46.015  35.200  29.606  1.00  0.00     0.200 A 
ATOM     71  F   UNL A   1      45.354  35.789  27.416  1.00  0.00    -0.200 F 
ATOM     72  F   UNL A   1      46.291  36.482  29.882  1.00  0.00    -0.200 F 
ENDBRANCH  39  62
ENDBRANCH  13  14
ENDBRANCH   6   8
ENDBRANCH   3   4
ENDBRANCH   2   3
ENDBRANCH   1   2
BRANCH   1  73
ATOM     73  C   UNL A   1      36.588  21.679  24.303  1.00  0.00     0.116 C 
BRANCH  73  74
ATOM     74  N   UNL A   1      37.237  22.726  25.072  1.00  0.00    -0.352 N 
ATOM     75  C   UNL A   1      36.653  23.677  25.870  1.00  0.00     0.255 C 
ATOM     76  H   UNL A   1      38.218  22.758  25.012  1.00  0.00     0.163 HD
ATOM     77  O   UNL A   1      37.340  24.529  26.425  1.00  0.00    -0.269 OA
BRANCH  75  78
ATOM     78  C   UNL A   1      35.184  23.734  25.982  1.00  0.00     0.082 A 
ATOM     79  C   UNL A   1      34.536  24.758  25.277  1.00  0.00     0.025 A 
ATOM     80  C   UNL A   1      34.447  22.823  26.741  1.00  0.00     0.128 A 
ATOM     81  C   UNL A   1      33.140  24.855  25.284  1.00  0.00    -0.025 A 
ATOM     82  C   UNL A   1      33.057  22.894  26.745  1.00  0.00     0.047 A 
ATOM     83  C   UNL A   1      32.413  23.898  26.012  1.00  0.00     0.012 A 
BRANCH  80  84
ATOM     84  O   UNL A   1      35.078  21.850  27.464  1.00  0.00    -0.507 OA
ATOM     85  H   UNL A   1      34.676  21.011  27.572  1.00  0.00     0.293 HD
ENDBRANCH  80  84
BRANCH  81  86
ATOM     86  C   UNL A   1      32.396  25.915  24.579  1.00  0.00     0.009 C 
ATOM     87  C   UNL A   1      31.059  26.034  24.519  1.00  0.00     0.009 C 
BRANCH  87  88
ATOM     88  C   UNL A   1      30.372  27.070  23.735  1.00  0.00    -0.018 A 
ATOM     89  C   UNL A   1      28.972  27.165  23.715  1.00  0.00     0.054 A 
ATOM     90  C   UNL A   1      31.132  28.040  23.066  1.00  0.00     0.054 A 
ATOM     91  C   UNL A   1      28.354  28.200  23.017  1.00  0.00     0.119 A 
ATOM     92  C   UNL A   1      30.493  29.067  22.373  1.00  0.00     0.119 A 
ATOM     93  C   UNL A   1      29.107  29.153  22.342  1.00  0.00     0.092 A 
BRANCH  91  94
ATOM     94  O   UNL A   1      26.995  28.321  22.985  1.00  0.00    -0.508 OA
ATOM     95  H   UNL A   1      26.462  27.740  23.491  1.00  0.00     0.293 HD
ENDBRANCH  91  94
BRANCH  92  96
ATOM     96  O   UNL A   1      31.203  30.026  21.713  1.00  0.00    -0.508 OA
ATOM     97  H   UNL A   1      32.128  29.927  21.595  1.00  0.00     0.293 HD
ENDBRANCH  92  96
ENDBRANCH  87  88
ENDBRANCH  81  86
ENDBRANCH  75  78
ENDBRANCH  73  74
ENDBRANCH   1  73
TORSDOF 16
ENDMDL
MODEL 3
REMARK VINA RESULT:     -12.6      2.522      8.010
REMARK SMILES O=C(NCCCCNC(=O)c1cc(/C=C/c2cc(O)cc(O)c2)ccc1O)c1ccc(-c2c3nc(c(-c4c(F)c(F)c(F)c(F)c4F)c4ccc([nH]4)c(-c4c(F)c(F)c(F)c(F)c4F)c4nc(c(-c5c(F)c(F)c(F)c(F)c5F)c5ccc2[nH]5)C=C4)C=C3)cc1
REMARK SMILES IDX 6 1 5 2 4 3 3 4 1 5 2 6 28 8 29 9 90 10 30 11 89 12 31 13
REMARK SMILES IDX 32 14 33 15 83 16 34 17 88 18 82 19 84 20 35 21 87 22 81 23
REMARK SMILES IDX 80 24 36 26 68 27 48 28 67 29 49 30 52 31 66 32 85 33 50 34
REMARK SMILES IDX 51 35 65 37 86 38 53 39 37 40 38 41 46 42 39 43 40 44 44 45
REMARK SMILES IDX 47 46 41 47 42 48 45 49 43 50 69 51 70 52 78 53 71 54 72 55
REMARK SMILES IDX 76 56 79 57 73 58 74 59 77 60 75 61 54 62 55 63 63 64 56 65
REMARK SMILES IDX 57 66 61 67 64 68 58 69 59 70 62 71 60 72 7 73 8 74 9 75
REMARK SMILES IDX 10 77 11 78 12 79 26 80 13 81 25 82 24 83 27 84 14 86 15 87
REMARK SMILES IDX 16 88 17 89 23 90 18 91 21 92 20 93 19 94 22 96
REMARK H PARENT 3 7 84 25 52 36 8 76 27 85 19 95 22 97
REMARK Flexibility Score: inf
ROOT
ATOM      1  C   UNL A   1      34.284  31.380  27.975  1.00  0.00     0.023 C 
ENDROOT
BRANCH   1   2
ATOM      2  C   UNL A   1      33.951  32.755  27.400  1.00  0.00     0.023 C 
BRANCH   2   3
ATOM      3  C   UNL A   1      32.534  33.243  27.668  1.00  0.00     0.116 C 
BRANCH   3   4
ATOM      4  N   UNL A   1      32.471  34.661  27.994  1.00  0.00    -0.352 N 
ATOM      5  O   UNL A   1      32.916  36.549  29.149  1.00  0.00    -0.269 OA
ATOM      6  C   UNL A   1      33.196  35.377  28.916  1.00  0.00     0.251 C 
ATOM      7  H   UNL A   1      31.814  35.182  27.479  1.00  0.00     0.163 HD
BRANCH   6   8
ATOM      8  C   UNL A   1      34.297  34.722  29.653  1.00  0.00     0.039 A 
ATOM      9  C   UNL A   1      35.610  34.794  29.184  1.00  0.00     0.014 A 
ATOM     10  C   UNL A   1      34.007  34.018  30.827  1.00  0.00     0.014 A 
ATOM     11  C   UNL A   1      36.603  34.037  29.794  1.00  0.00     0.010 A 
ATOM     12  C   UNL A   1      35.027  33.329  31.491  1.00  0.00     0.010 A 
ATOM     13  C   UNL A   1      36.325  33.305  30.961  1.00  0.00    -0.014 A 
BRANCH  13  14
ATOM     14  C   UNL A   1      37.426  32.571  31.633  1.00  0.00     0.031 A 
ATOM     15  C   UNL A   1      38.124  31.422  30.963  1.00  0.00     0.074 A 
ATOM     16  C   UNL A   1      37.815  32.978  32.857  1.00  0.00     0.049 A 
ATOM     17  N   UNL A   1      39.117  30.690  31.405  1.00  0.00    -0.248 NA
ATOM     18  C   UNL A   1      37.643  31.034  29.628  1.00  0.00     0.031 C 
ATOM     19  C   UNL A   1      37.199  34.071  33.612  1.00  0.00     0.029 A 
ATOM     20  N   UNL A   1      38.825  32.538  33.672  1.00  0.00    -0.354 N 
ATOM     21  C   UNL A   1      39.366  29.747  30.417  1.00  0.00     0.074 A 
ATOM     22  C   UNL A   1      38.406  29.983  29.359  1.00  0.00     0.031 C 
ATOM     23  C   UNL A   1      37.871  34.246  34.759  1.00  0.00     0.029 A 
ATOM     24  C   UNL A   1      38.925  33.242  34.846  1.00  0.00     0.049 A 
ATOM     25  H   UNL A   1      39.421  31.789  33.439  1.00  0.00     0.167 HD
ATOM     26  C   UNL A   1      40.314  28.779  30.395  1.00  0.00     0.037 A 
ATOM     27  C   UNL A   1      39.762  33.089  35.888  1.00  0.00     0.037 A 
ATOM     28  C   UNL A   1      41.282  28.565  31.441  1.00  0.00     0.049 A 
ATOM     29  C   UNL A   1      40.800  32.007  35.836  1.00  0.00     0.074 A 
ATOM     30  C   UNL A   1      42.310  27.639  31.490  1.00  0.00     0.029 A 
ATOM     31  N   UNL A   1      41.339  29.286  32.625  1.00  0.00    -0.354 N 
ATOM     32  N   UNL A   1      41.046  31.144  34.881  1.00  0.00    -0.248 NA
ATOM     33  C   UNL A   1      41.677  31.877  37.007  1.00  0.00     0.031 C 
ATOM     34  C   UNL A   1      42.963  27.772  32.721  1.00  0.00     0.029 A 
ATOM     35  C   UNL A   1      42.371  28.811  33.420  1.00  0.00     0.049 A 
ATOM     36  H   UNL A   1      40.737  30.027  32.865  1.00  0.00     0.167 HD
ATOM     37  C   UNL A   1      42.110  30.374  35.328  1.00  0.00     0.074 A 
ATOM     38  C   UNL A   1      42.478  30.889  36.632  1.00  0.00     0.031 C 
ATOM     39  C   UNL A   1      42.721  29.331  34.717  1.00  0.00     0.037 A 
BRANCH  26  40
ATOM     40  C   UNL A   1      40.349  27.859  29.209  1.00  0.00     0.064 A 
ATOM     41  C   UNL A   1      39.569  26.694  29.155  1.00  0.00     0.173 A 
ATOM     42  C   UNL A   1      41.126  28.180  28.085  1.00  0.00     0.173 A 
ATOM     43  F   UNL A   1      38.816  26.337  30.207  1.00  0.00    -0.203 F 
ATOM     44  C   UNL A   1      39.579  25.877  28.027  1.00  0.00     0.198 A 
ATOM     45  C   UNL A   1      41.115  27.373  26.950  1.00  0.00     0.198 A 
ATOM     46  F   UNL A   1      41.885  29.287  28.083  1.00  0.00    -0.203 F 
ATOM     47  F   UNL A   1      38.852  24.751  28.012  1.00  0.00    -0.200 F 
ATOM     48  C   UNL A   1      40.345  26.220  26.924  1.00  0.00     0.200 A 
ATOM     49  F   UNL A   1      41.846  27.714  25.881  1.00  0.00    -0.200 F 
ATOM     50  F   UNL A   1      40.346  25.437  25.836  1.00  0.00    -0.200 F 
ENDBRANCH  26  40
BRANCH  27  51
ATOM     51  C   UNL A   1      39.640  33.988  37.063  1.00  0.00     0.064 A 
ATOM     52  C   UNL A   1      40.275  35.235  37.087  1.00  0.00     0.173 A 
ATOM     53  C   UNL A   1      38.860  33.628  38.172  1.00  0.00     0.173 A 
ATOM     54  F   UNL A   1      41.045  35.615  36.057  1.00  0.00    -0.203 F 
ATOM     55  C   UNL A   1      40.144  36.086  38.182  1.00  0.00     0.198 A 
ATOM     56  C   UNL A   1      38.706  34.491  39.253  1.00  0.00     0.198 A 
ATOM     57  F   UNL A   1      38.226  32.446  38.192  1.00  0.00    -0.203 F 
ATOM     58  F   UNL A   1      40.789  37.261  38.195  1.00  0.00    -0.200 F 
ATOM     59  C   UNL A   1      39.352  35.717  39.260  1.00  0.00     0.200 A 
ATOM     60  F   UNL A   1      37.926  34.138  40.284  1.00  0.00    -0.200 F 
ATOM     61  F   UNL A   1      39.216  36.542  40.307  1.00  0.00    -0.200 F 
ENDBRANCH  27  51
BRANCH  39  62
ATOM     62  C   UNL A   1      43.862  28.690  35.447  1.00  0.00     0.064 A 
ATOM     63  C   UNL A   1      45.189  29.090  35.229  1.00  0.00     0.173 A 
ATOM     64  C   UNL A   1      43.625  27.681  36.393  1.00  0.00     0.173 A 
ATOM     65  F   UNL A   1      45.466  30.039  34.321  1.00  0.00    -0.203 F 
ATOM     66  C   UNL A   1      46.240  28.485  35.911  1.00  0.00     0.198 A 
ATOM     67  C   UNL A   1      44.677  27.097  37.093  1.00  0.00     0.198 A 
ATOM     68  F   UNL A   1      42.374  27.267  36.640  1.00  0.00    -0.203 F 
ATOM     69  F   UNL A   1      47.503  28.849  35.651  1.00  0.00    -0.200 F 
ATOM     70  C   UNL A   1      45.983  27.494  36.847  1.00  0.00     0.200 A 
ATOM     71  F   UNL A   1      44.426  26.146  38.004  1.00  0.00    -0.200 F 
ATOM     72  F   UNL A   1      46.995  26.914  37.505  1.00  0.00    -0.200 F 
ENDBRANCH  39  62
ENDBRANCH  13  14
ENDBRANCH   6   8
ENDBRANCH   3   4
ENDBRANCH   2   3
ENDBRANCH   1   2
BRANCH   1  73
ATOM     73  C   UNL A   1      33.888  30.195  27.101  1.00  0.00     0.116 C 
BRANCH  73  74
ATOM     74  N   UNL A   1      32.768  29.447  27.643  1.00  0.00    -0.352 N 
ATOM     75  C   UNL A   1      32.137  28.355  27.101  1.00  0.00     0.255 C 
ATOM     76  H   UNL A   1      32.416  29.763  28.505  1.00  0.00     0.163 HD
ATOM     77  O   UNL A   1      31.167  27.856  27.664  1.00  0.00    -0.269 OA
BRANCH  75  78
ATOM     78  C   UNL A   1      32.565  27.842  25.787  1.00  0.00     0.082 A 
ATOM     79  C   UNL A   1      33.359  26.687  25.788  1.00  0.00     0.025 A 
ATOM     80  C   UNL A   1      32.208  28.452  24.583  1.00  0.00     0.128 A 
ATOM     81  C   UNL A   1      33.766  26.101  24.585  1.00  0.00    -0.025 A 
ATOM     82  C   UNL A   1      32.590  27.874  23.377  1.00  0.00     0.047 A 
ATOM     83  C   UNL A   1      33.355  26.701  23.383  1.00  0.00     0.012 A 
BRANCH  80  84
ATOM     84  O   UNL A   1      31.471  29.603  24.580  1.00  0.00    -0.507 OA
ATOM     85  H   UNL A   1      31.880  30.421  24.378  1.00  0.00     0.293 HD
ENDBRANCH  80  84
BRANCH  81  86
ATOM     86  C   UNL A   1      34.615  24.897  24.514  1.00  0.00     0.009 C 
ATOM     87  C   UNL A   1      35.145  24.243  25.562  1.00  0.00     0.009 C 
BRANCH  87  88
ATOM     88  C   UNL A   1      36.049  23.091  25.426  1.00  0.00    -0.018 A 
ATOM     89  C   UNL A   1      37.436  23.227  25.591  1.00  0.00     0.054 A 
ATOM     90  C   UNL A   1      35.506  21.816  25.217  1.00  0.00     0.054 A 
ATOM     91  C   UNL A   1      38.257  22.103  25.523  1.00  0.00     0.119 A 
ATOM     92  C   UNL A   1      36.347  20.705  25.153  1.00  0.00     0.119 A 
ATOM     93  C   UNL A   1      37.721  20.841  25.301  1.00  0.00     0.092 A 
BRANCH  91  94
ATOM     94  O   UNL A   1      39.608  22.203  25.685  1.00  0.00    -0.508 OA
ATOM     95  H   UNL A   1      39.978  22.199  26.545  1.00  0.00     0.293 HD
ENDBRANCH  91  94
BRANCH  92  96
ATOM     96  O   UNL A   1      35.850  19.451  24.951  1.00  0.00    -0.508 OA
ATOM     97  H   UNL A   1      34.937  19.330  24.779  1.00  0.00     0.293 HD
ENDBRANCH  92  96
ENDBRANCH  87  88
ENDBRANCH  81  86
ENDBRANCH  75  78
ENDBRANCH  73  74
ENDBRANCH   1  73
TORSDOF 16
ENDMDL
