MODEL 1
REMARK VINA RESULT:     -11.3      0.000      0.000
REMARK SMILES CCC(CC)[C@H](C(=O)NCCCCNC(=O)c1ccc(-c2c3nc(c(-c4c(F)c(F)c(F)c(F)c4F)c4ccc([nH]4)c(-c4c(F)c(F)c(F)c(F)c4F)c4nc(c(-c5c(F)c(F)c(F)c(F)c5F)c5ccc2[nH]5)C=C4)C=C3)cc1)c1ccccc1
REMARK SMILES IDX 11 1 10 2 9 3 7 4 8 5 6 7 3 8 2 9 1 10 4 11 5 12 80 13 81 14
REMARK SMILES IDX 85 15 82 16 84 17 83 18 12 19 13 20 14 21 15 22 16 24 17 25
REMARK SMILES IDX 18 26 79 27 19 28 78 29 20 30 21 31 22 32 72 33 23 34 77 35
REMARK SMILES IDX 71 36 73 37 24 38 76 39 70 40 69 41 25 43 57 44 37 45 56 46
REMARK SMILES IDX 38 47 41 48 55 49 74 50 39 51 40 52 54 54 75 55 42 56 26 57
REMARK SMILES IDX 27 58 35 59 28 60 29 61 33 62 36 63 30 64 31 65 34 66 32 67
REMARK SMILES IDX 58 68 59 69 67 70 60 71 61 72 65 73 68 74 62 75 63 76 66 77
REMARK SMILES IDX 64 78 43 79 44 80 52 81 45 82 46 83 50 84 53 85 47 86 48 87
REMARK SMILES IDX 51 88 49 89
REMARK H PARENT 9 6 14 23 73 42 41 53
REMARK Flexibility Score: inf
ROOT
ATOM      1  C   UNL A   1      32.141  29.839  26.805  1.00  0.00     0.023 C 
ENDROOT
BRANCH   1   2
ATOM      2  C   UNL A   1      33.596  29.384  26.740  1.00  0.00     0.116 C 
BRANCH   2   3
ATOM      3  N   UNL A   1      34.115  29.119  25.414  1.00  0.00    -0.356 N 
ATOM      4  C   UNL A   1      33.769  28.136  24.518  1.00  0.00     0.227 C 
ATOM      5  O   UNL A   1      34.066  28.378  23.345  1.00  0.00    -0.274 OA
ATOM      6  H   UNL A   1      34.820  29.735  25.109  1.00  0.00     0.163 HD
BRANCH   4   7
ATOM      7  C   UNL A   1      33.114  26.794  24.981  1.00  0.00     0.111 C 
BRANCH   7   8
ATOM      8  C   UNL A   1      31.552  26.581  24.758  1.00  0.00     0.005 C 
BRANCH   8   9
ATOM      9  C   UNL A   1      30.808  26.040  25.991  1.00  0.00     0.001 C 
ATOM     10  C   UNL A   1      30.706  24.529  26.149  1.00  0.00     0.004 C 
ENDBRANCH   8   9
BRANCH   8  11
ATOM     11  C   UNL A   1      30.779  27.735  24.074  1.00  0.00     0.001 C 
ATOM     12  C   UNL A   1      29.459  27.351  23.426  1.00  0.00     0.004 C 
ENDBRANCH   8  11
ENDBRANCH   7   8
BRANCH   7  13
ATOM     13  C   UNL A   1      33.913  25.545  24.541  1.00  0.00    -0.035 A 
ATOM     14  C   UNL A   1      34.828  24.949  25.427  1.00  0.00     0.004 A 
ATOM     15  C   UNL A   1      33.651  24.874  23.331  1.00  0.00     0.004 A 
ATOM     16  C   UNL A   1      35.424  23.718  25.125  1.00  0.00     0.000 A 
ATOM     17  C   UNL A   1      34.233  23.639  23.038  1.00  0.00     0.000 A 
ATOM     18  C   UNL A   1      35.115  23.056  23.939  1.00  0.00     0.000 A 
ENDBRANCH   7  13
ENDBRANCH   4   7
ENDBRANCH   2   3
ENDBRANCH   1   2
BRANCH   1  19
ATOM     19  C   UNL A   1      31.912  31.354  26.748  1.00  0.00     0.023 C 
BRANCH  19  20
ATOM     20  C   UNL A   1      32.913  32.243  27.487  1.00  0.00     0.116 C 
BRANCH  20  21
ATOM     21  N   UNL A   1      32.482  33.625  27.652  1.00  0.00    -0.352 N 
ATOM     22  C   UNL A   1      33.012  34.625  28.438  1.00  0.00     0.251 C 
ATOM     23  H   UNL A   1      31.693  33.883  27.122  1.00  0.00     0.163 HD
ATOM     24  O   UNL A   1      32.470  35.725  28.496  1.00  0.00    -0.269 OA
BRANCH  22  25
ATOM     25  C   UNL A   1      34.210  34.356  29.261  1.00  0.00     0.039 A 
ATOM     26  C   UNL A   1      34.048  33.781  30.524  1.00  0.00     0.014 A 
ATOM     27  C   UNL A   1      35.489  34.608  28.762  1.00  0.00     0.014 A 
ATOM     28  C   UNL A   1      35.169  33.341  31.233  1.00  0.00     0.010 A 
ATOM     29  C   UNL A   1      36.597  34.098  29.432  1.00  0.00     0.010 A 
ATOM     30  C   UNL A   1      36.447  33.433  30.660  1.00  0.00    -0.014 A 
BRANCH  30  31
ATOM     31  C   UNL A   1      37.641  32.811  31.291  1.00  0.00     0.031 A 
ATOM     32  C   UNL A   1      38.317  31.643  30.632  1.00  0.00     0.074 A 
ATOM     33  C   UNL A   1      38.040  33.215  32.514  1.00  0.00     0.049 A 
ATOM     34  N   UNL A   1      39.241  30.843  31.102  1.00  0.00    -0.248 NA
ATOM     35  C   UNL A   1      37.867  31.308  29.271  1.00  0.00     0.031 C 
ATOM     36  C   UNL A   1      37.447  34.312  33.281  1.00  0.00     0.029 A 
ATOM     37  N   UNL A   1      39.026  32.730  33.340  1.00  0.00    -0.354 N 
ATOM     38  C   UNL A   1      39.459  29.896  30.112  1.00  0.00     0.074 A 
ATOM     39  C   UNL A   1      38.545  30.195  29.030  1.00  0.00     0.031 C 
ATOM     40  C   UNL A   1      38.084  34.422  34.459  1.00  0.00     0.029 A 
ATOM     41  C   UNL A   1      39.096  33.374  34.552  1.00  0.00     0.049 A 
ATOM     42  H   UNL A   1      39.625  31.991  33.088  1.00  0.00     0.167 HD
ATOM     43  C   UNL A   1      40.350  28.876  30.100  1.00  0.00     0.037 A 
ATOM     44  C   UNL A   1      39.872  33.133  35.628  1.00  0.00     0.037 A 
ATOM     45  C   UNL A   1      41.285  28.603  31.160  1.00  0.00     0.049 A 
ATOM     46  C   UNL A   1      40.853  31.993  35.590  1.00  0.00     0.074 A 
ATOM     47  C   UNL A   1      42.272  27.634  31.211  1.00  0.00     0.029 A 
ATOM     48  N   UNL A   1      41.350  29.304  32.355  1.00  0.00    -0.354 N 
ATOM     49  N   UNL A   1      41.086  31.135  34.628  1.00  0.00    -0.248 NA
ATOM     50  C   UNL A   1      41.680  31.788  36.788  1.00  0.00     0.031 C 
ATOM     51  C   UNL A   1      42.909  27.724  32.453  1.00  0.00     0.029 A 
ATOM     52  C   UNL A   1      42.349  28.778  33.156  1.00  0.00     0.049 A 
ATOM     53  H   UNL A   1      40.771  30.063  32.598  1.00  0.00     0.167 HD
ATOM     54  C   UNL A   1      42.103  30.310  35.089  1.00  0.00     0.074 A 
ATOM     55  C   UNL A   1      42.448  30.773  36.417  1.00  0.00     0.031 C 
ATOM     56  C   UNL A   1      42.697  29.264  34.467  1.00  0.00     0.037 A 
BRANCH  43  57
ATOM     57  C   UNL A   1      40.362  27.979  28.898  1.00  0.00     0.064 A 
ATOM     58  C   UNL A   1      41.109  28.293  27.753  1.00  0.00     0.173 A 
ATOM     59  C   UNL A   1      39.644  26.774  28.903  1.00  0.00     0.173 A 
ATOM     60  F   UNL A   1      41.804  29.439  27.694  1.00  0.00    -0.203 F 
ATOM     61  C   UNL A   1      41.113  27.448  26.647  1.00  0.00     0.198 A 
ATOM     62  C   UNL A   1      39.674  25.917  27.806  1.00  0.00     0.198 A 
ATOM     63  F   UNL A   1      38.918  26.423  29.976  1.00  0.00    -0.203 F 
ATOM     64  F   UNL A   1      41.794  27.793  25.545  1.00  0.00    -0.200 F 
ATOM     65  C   UNL A   1      40.401  26.258  26.676  1.00  0.00     0.200 A 
ATOM     66  F   UNL A   1      38.996  24.761  27.842  1.00  0.00    -0.200 F 
ATOM     67  F   UNL A   1      40.411  25.443  25.612  1.00  0.00    -0.200 F 
ENDBRANCH  43  57
BRANCH  44  68
ATOM     68  C   UNL A   1      39.761  33.997  36.832  1.00  0.00     0.064 A 
ATOM     69  C   UNL A   1      38.947  33.622  37.910  1.00  0.00     0.173 A 
ATOM     70  C   UNL A   1      40.455  35.212  36.931  1.00  0.00     0.173 A 
ATOM     71  F   UNL A   1      38.245  32.480  37.852  1.00  0.00    -0.203 F 
ATOM     72  C   UNL A   1      38.815  34.438  39.032  1.00  0.00     0.198 A 
ATOM     73  C   UNL A   1      40.344  36.014  38.065  1.00  0.00     0.198 A 
ATOM     74  F   UNL A   1      41.250  35.615  35.929  1.00  0.00    -0.203 F 
ATOM     75  F   UNL A   1      37.996  34.076  40.028  1.00  0.00    -0.200 F 
ATOM     76  C   UNL A   1      39.519  35.631  39.111  1.00  0.00     0.200 A 
ATOM     77  F   UNL A   1      41.035  37.160  38.143  1.00  0.00    -0.200 F 
ATOM     78  F   UNL A   1      39.395  36.413  40.192  1.00  0.00    -0.200 F 
ENDBRANCH  44  68
BRANCH  56  79
ATOM     79  C   UNL A   1      43.817  28.573  35.186  1.00  0.00     0.064 A 
ATOM     80  C   UNL A   1      45.151  28.974  35.028  1.00  0.00     0.173 A 
ATOM     81  C   UNL A   1      43.541  27.540  36.096  1.00  0.00     0.173 A 
ATOM     82  F   UNL A   1      45.466  29.945  34.158  1.00  0.00    -0.203 F 
ATOM     83  C   UNL A   1      46.170  28.356  35.748  1.00  0.00     0.198 A 
ATOM     84  C   UNL A   1      44.560  26.944  36.832  1.00  0.00     0.198 A 
ATOM     85  F   UNL A   1      42.280  27.125  36.285  1.00  0.00    -0.203 F 
ATOM     86  F   UNL A   1      47.444  28.733  35.559  1.00  0.00    -0.200 F 
ATOM     87  C   UNL A   1      45.874  27.350  36.655  1.00  0.00     0.200 A 
ATOM     88  F   UNL A   1      44.269  25.981  37.718  1.00  0.00    -0.200 F 
ATOM     89  F   UNL A   1      46.856  26.769  37.358  1.00  0.00    -0.200 F 
ENDBRANCH  56  79
ENDBRANCH  30  31
ENDBRANCH  22  25
ENDBRANCH  20  21
ENDBRANCH  19  20
ENDBRANCH   1  19
TORSDOF 15
ENDMDL
MODEL 2
REMARK VINA RESULT:     -11.3      0.656      7.591
REMARK SMILES CCC(CC)[C@H](C(=O)NCCCCNC(=O)c1ccc(-c2c3nc(c(-c4c(F)c(F)c(F)c(F)c4F)c4ccc([nH]4)c(-c4c(F)c(F)c(F)c(F)c4F)c4nc(c(-c5c(F)c(F)c(F)c(F)c5F)c5ccc2[nH]5)C=C4)C=C3)cc1)c1ccccc1
REMARK SMILES IDX 11 1 10 2 9 3 7 4 8 5 6 7 3 8 2 9 1 10 4 11 5 12 80 13 81 14
REMARK SMILES IDX 85 15 82 16 84 17 83 18 12 19 13 20 14 21 15 22 16 24 17 25
REMARK SMILES IDX 18 26 79 27 19 28 78 29 20 30 21 31 22 32 72 33 23 34 77 35
REMARK SMILES IDX 71 36 73 37 24 38 76 39 70 40 69 41 25 43 57 44 37 45 56 46
REMARK SMILES IDX 38 47 41 48 55 49 74 50 39 51 40 52 54 54 75 55 42 56 26 57
REMARK SMILES IDX 27 58 35 59 28 60 29 61 33 62 36 63 30 64 31 65 34 66 32 67
REMARK SMILES IDX 58 68 59 69 67 70 60 71 61 72 65 73 68 74 62 75 63 76 66 77
REMARK SMILES IDX 64 78 43 79 44 80 52 81 45 82 46 83 50 84 53 85 47 86 48 87
REMARK SMILES IDX 51 88 49 89
REMARK H PARENT 9 6 14 23 73 42 41 53
REMARK Flexibility Score: inf
ROOT
ATOM      1  C   UNL A   1      31.748  30.469  26.769  1.00  0.00     0.023 C 
ENDROOT
BRANCH   1   2
ATOM      2  C   UNL A   1      33.176  29.940  26.689  1.00  0.00     0.116 C 
BRANCH   2   3
ATOM      3  N   UNL A   1      33.714  29.776  25.355  1.00  0.00    -0.356 N 
ATOM      4  C   UNL A   1      33.329  28.916  24.354  1.00  0.00     0.227 C 
ATOM      5  O   UNL A   1      33.675  29.255  23.219  1.00  0.00    -0.274 OA
ATOM      6  H   UNL A   1      34.468  30.368  25.131  1.00  0.00     0.163 HD
BRANCH   4   7
ATOM      7  C   UNL A   1      32.570  27.584  24.662  1.00  0.00     0.111 C 
BRANCH   7   8
ATOM      8  C   UNL A   1      31.130  27.351  24.023  1.00  0.00     0.005 C 
BRANCH   8   9
ATOM      9  C   UNL A   1      30.354  26.171  24.634  1.00  0.00     0.001 C 
ATOM     10  C   UNL A   1      30.216  24.906  23.799  1.00  0.00     0.004 C 
ENDBRANCH   8   9
BRANCH   8  11
ATOM     11  C   UNL A   1      30.235  28.601  23.840  1.00  0.00     0.001 C 
ATOM     12  C   UNL A   1      29.303  28.574  22.641  1.00  0.00     0.004 C 
ENDBRANCH   8  11
ENDBRANCH   7   8
BRANCH   7  13
ATOM     13  C   UNL A   1      33.458  26.328  24.499  1.00  0.00    -0.035 A 
ATOM     14  C   UNL A   1      33.980  25.685  25.635  1.00  0.00     0.004 A 
ATOM     15  C   UNL A   1      33.648  25.699  23.253  1.00  0.00     0.004 A 
ATOM     16  C   UNL A   1      34.629  24.448  25.527  1.00  0.00     0.000 A 
ATOM     17  C   UNL A   1      34.281  24.458  23.148  1.00  0.00     0.000 A 
ATOM     18  C   UNL A   1      34.766  23.828  24.287  1.00  0.00     0.000 A 
ENDBRANCH   7  13
ENDBRANCH   4   7
ENDBRANCH   2   3
ENDBRANCH   1   2
BRANCH   1  19
ATOM     19  C   UNL A   1      31.598  31.995  26.759  1.00  0.00     0.023 C 
BRANCH  19  20
ATOM     20  C   UNL A   1      32.769  32.817  27.299  1.00  0.00     0.116 C 
BRANCH  20  21
ATOM     21  N   UNL A   1      32.427  34.190  27.650  1.00  0.00    -0.352 N 
ATOM     22  C   UNL A   1      32.983  35.021  28.599  1.00  0.00     0.251 C 
ATOM     23  H   UNL A   1      31.688  34.582  27.132  1.00  0.00     0.163 HD
ATOM     24  O   UNL A   1      32.518  36.139  28.798  1.00  0.00    -0.269 OA
BRANCH  22  25
ATOM     25  C   UNL A   1      34.115  34.543  29.421  1.00  0.00     0.039 A 
ATOM     26  C   UNL A   1      33.852  33.995  30.680  1.00  0.00     0.014 A 
ATOM     27  C   UNL A   1      35.420  34.575  28.927  1.00  0.00     0.014 A 
ATOM     28  C   UNL A   1      34.879  33.363  31.387  1.00  0.00     0.010 A 
ATOM     29  C   UNL A   1      36.422  33.877  29.595  1.00  0.00     0.010 A 
ATOM     30  C   UNL A   1      36.155  33.239  30.817  1.00  0.00    -0.014 A 
BRANCH  30  31
ATOM     31  C   UNL A   1      37.222  32.415  31.446  1.00  0.00     0.031 A 
ATOM     32  C   UNL A   1      37.744  32.773  32.808  1.00  0.00     0.074 A 
ATOM     33  C   UNL A   1      37.806  31.424  30.742  1.00  0.00     0.049 A 
ATOM     34  N   UNL A   1      38.789  32.309  33.445  1.00  0.00    -0.248 NA
ATOM     35  C   UNL A   1      37.009  33.819  33.537  1.00  0.00     0.031 C 
ATOM     36  C   UNL A   1      37.422  30.999  29.395  1.00  0.00     0.029 A 
ATOM     37  N   UNL A   1      38.870  30.610  31.053  1.00  0.00    -0.354 N 
ATOM     38  C   UNL A   1      38.856  33.027  34.631  1.00  0.00     0.074 A 
ATOM     39  C   UNL A   1      37.770  33.983  34.610  1.00  0.00     0.031 C 
ATOM     40  C   UNL A   1      38.229  30.001  28.999  1.00  0.00     0.029 A 
ATOM     41  C   UNL A   1      39.218  29.747  30.042  1.00  0.00     0.049 A 
ATOM     42  H   UNL A   1      39.337  30.643  31.919  1.00  0.00     0.167 HD
ATOM     43  C   UNL A   1      39.735  32.891  35.653  1.00  0.00     0.037 A 
ATOM     44  C   UNL A   1      40.235  28.867  29.954  1.00  0.00     0.037 A 
ATOM     45  C   UNL A   1      40.791  31.914  35.689  1.00  0.00     0.049 A 
ATOM     46  C   UNL A   1      41.200  28.737  31.102  1.00  0.00     0.074 A 
ATOM     47  C   UNL A   1      41.691  31.655  36.709  1.00  0.00     0.029 A 
ATOM     48  N   UNL A   1      41.087  31.031  34.661  1.00  0.00    -0.354 N 
ATOM     49  N   UNL A   1      41.222  29.386  32.240  1.00  0.00    -0.248 NA
ATOM     50  C   UNL A   1      42.281  27.752  30.952  1.00  0.00     0.031 C 
ATOM     51  C   UNL A   1      42.555  30.641  36.281  1.00  0.00     0.029 A 
ATOM     52  C   UNL A   1      42.165  30.238  35.015  1.00  0.00     0.049 A 
ATOM     53  H   UNL A   1      40.601  30.977  33.805  1.00  0.00     0.167 HD
ATOM     54  C   UNL A   1      42.295  28.868  32.953  1.00  0.00     0.074 A 
ATOM     55  C   UNL A   1      42.897  27.847  32.122  1.00  0.00     0.031 C 
ATOM     56  C   UNL A   1      42.740  29.209  34.186  1.00  0.00     0.037 A 
BRANCH  43  57
ATOM     57  C   UNL A   1      39.590  33.821  36.820  1.00  0.00     0.064 A 
ATOM     58  C   UNL A   1      38.843  33.468  37.953  1.00  0.00     0.173 A 
ATOM     59  C   UNL A   1      40.235  35.067  36.821  1.00  0.00     0.173 A 
ATOM     60  F   UNL A   1      38.198  32.292  37.997  1.00  0.00    -0.203 F 
ATOM     61  C   UNL A   1      38.722  34.341  39.031  1.00  0.00     0.198 A 
ATOM     62  C   UNL A   1      40.136  35.924  37.914  1.00  0.00     0.198 A 
ATOM     63  F   UNL A   1      40.969  35.450  35.765  1.00  0.00    -0.203 F 
ATOM     64  F   UNL A   1      37.961  34.002  40.082  1.00  0.00    -0.200 F 
ATOM     65  C   UNL A   1      39.373  35.565  39.013  1.00  0.00     0.200 A 
ATOM     66  F   UNL A   1      40.778  37.102  37.900  1.00  0.00    -0.200 F 
ATOM     67  F   UNL A   1      39.260  36.401  40.055  1.00  0.00    -0.200 F 
ENDBRANCH  43  57
BRANCH  44  68
ATOM     68  C   UNL A   1      40.389  28.029  28.736  1.00  0.00     0.064 A 
ATOM     69  C   UNL A   1      39.773  26.773  28.649  1.00  0.00     0.173 A 
ATOM     70  C   UNL A   1      41.156  28.456  27.643  1.00  0.00     0.173 A 
ATOM     71  F   UNL A   1      39.047  26.311  29.679  1.00  0.00    -0.203 F 
ATOM     72  C   UNL A   1      39.933  25.968  27.523  1.00  0.00     0.198 A 
ATOM     73  C   UNL A   1      41.294  27.662  26.506  1.00  0.00     0.198 A 
ATOM     74  F   UNL A   1      41.765  29.651  27.675  1.00  0.00    -0.203 F 
ATOM     75  F   UNL A   1      39.368  24.754  27.485  1.00  0.00    -0.200 F 
ATOM     76  C   UNL A   1      40.689  26.416  26.450  1.00  0.00     0.200 A 
ATOM     77  F   UNL A   1      42.015  28.103  25.467  1.00  0.00    -0.200 F 
ATOM     78  F   UNL A   1      40.839  25.643  25.366  1.00  0.00    -0.200 F 
ENDBRANCH  44  68
BRANCH  56  79
ATOM     79  C   UNL A   1      43.903  28.443  34.742  1.00  0.00     0.064 A 
ATOM     80  C   UNL A   1      43.727  27.238  35.436  1.00  0.00     0.173 A 
ATOM     81  C   UNL A   1      45.214  28.891  34.517  1.00  0.00     0.173 A 
ATOM     82  F   UNL A   1      42.493  26.780  35.689  1.00  0.00    -0.203 F 
ATOM     83  C   UNL A   1      44.823  26.513  35.895  1.00  0.00     0.198 A 
ATOM     84  C   UNL A   1      46.307  28.149  34.954  1.00  0.00     0.198 A 
ATOM     85  F   UNL A   1      45.434  30.035  33.854  1.00  0.00    -0.203 F 
ATOM     86  F   UNL A   1      44.633  25.379  36.584  1.00  0.00    -0.200 F 
ATOM     87  C   UNL A   1      46.112  26.963  35.646  1.00  0.00     0.200 A 
ATOM     88  F   UNL A   1      47.552  28.580  34.701  1.00  0.00    -0.200 F 
ATOM     89  F   UNL A   1      47.165  26.255  36.074  1.00  0.00    -0.200 F 
ENDBRANCH  56  79
ENDBRANCH  30  31
ENDBRANCH  22  25
ENDBRANCH  20  21
ENDBRANCH  19  20
ENDBRANCH   1  19
TORSDOF 15
ENDMDL
MODEL 3
REMARK VINA RESULT:     -11.2      5.874     11.185
REMARK SMILES CCC(CC)[C@H](C(=O)NCCCCNC(=O)c1ccc(-c2c3nc(c(-c4c(F)c(F)c(F)c(F)c4F)c4ccc([nH]4)c(-c4c(F)c(F)c(F)c(F)c4F)c4nc(c(-c5c(F)c(F)c(F)c(F)c5F)c5ccc2[nH]5)C=C4)C=C3)cc1)c1ccccc1
REMARK SMILES IDX 11 1 10 2 9 3 7 4 8 5 6 7 3 8 2 9 1 10 4 11 5 12 80 13 81 14
REMARK SMILES IDX 85 15 82 16 84 17 83 18 12 19 13 20 14 21 15 22 16 24 17 25
REMARK SMILES IDX 18 26 79 27 19 28 78 29 20 30 21 31 22 32 72 33 23 34 77 35
REMARK SMILES IDX 71 36 73 37 24 38 76 39 70 40 69 41 25 43 57 44 37 45 56 46
REMARK SMILES IDX 38 47 41 48 55 49 74 50 39 51 40 52 54 54 75 55 42 56 26 57
REMARK SMILES IDX 27 58 35 59 28 60 29 61 33 62 36 63 30 64 31 65 34 66 32 67
REMARK SMILES IDX 58 68 59 69 67 70 60 71 61 72 65 73 68 74 62 75 63 76 66 77
REMARK SMILES IDX 64 78 43 79 44 80 52 81 45 82 46 83 50 84 53 85 47 86 48 87
REMARK SMILES IDX 51 88 49 89
REMARK H PARENT 9 6 14 23 73 42 41 53
REMARK Flexibility Score: inf
ROOT
ATOM      1  C   UNL A   1      37.143  21.782  24.516  1.00  0.00     0.023 C 
ENDROOT
BRANCH   1   2
ATOM      2  C   UNL A   1      37.241  23.045  25.367  1.00  0.00     0.116 C 
BRANCH   2   3
ATOM      3  N   UNL A   1      36.322  23.125  26.484  1.00  0.00    -0.356 N 
ATOM      4  C   UNL A   1      34.958  23.296  26.486  1.00  0.00     0.227 C 
ATOM      5  O   UNL A   1      34.394  22.931  27.521  1.00  0.00    -0.274 OA
ATOM      6  H   UNL A   1      36.737  23.047  27.373  1.00  0.00     0.163 HD
BRANCH   4   7
ATOM      7  C   UNL A   1      34.211  23.963  25.287  1.00  0.00     0.111 C 
BRANCH   7   8
ATOM      8  C   UNL A   1      33.554  23.034  24.174  1.00  0.00     0.005 C 
BRANCH   8   9
ATOM      9  C   UNL A   1      34.079  23.290  22.750  1.00  0.00     0.001 C 
ATOM     10  C   UNL A   1      33.064  23.319  21.616  1.00  0.00     0.004 C 
ENDBRANCH   8   9
BRANCH   8  11
ATOM     11  C   UNL A   1      33.455  21.523  24.492  1.00  0.00     0.001 C 
ATOM     12  C   UNL A   1      32.173  21.075  25.174  1.00  0.00     0.004 C 
ENDBRANCH   8  11
ENDBRANCH   7   8
BRANCH   7  13
ATOM     13  C   UNL A   1      33.233  25.079  25.726  1.00  0.00    -0.035 A 
ATOM     14  C   UNL A   1      33.664  26.416  25.761  1.00  0.00     0.004 A 
ATOM     15  C   UNL A   1      31.865  24.832  25.951  1.00  0.00     0.004 A 
ATOM     16  C   UNL A   1      32.754  27.460  25.975  1.00  0.00     0.000 A 
ATOM     17  C   UNL A   1      30.955  25.874  26.149  1.00  0.00     0.000 A 
ATOM     18  C   UNL A   1      31.399  27.190  26.153  1.00  0.00     0.000 A 
ENDBRANCH   7  13
ENDBRANCH   4   7
ENDBRANCH   2   3
ENDBRANCH   1   2
BRANCH   1  19
ATOM     19  C   UNL A   1      37.824  20.535  25.091  1.00  0.00     0.023 C 
BRANCH  19  20
ATOM     20  C   UNL A   1      39.175  20.729  25.781  1.00  0.00     0.116 C 
BRANCH  20  21
ATOM     21  N   UNL A   1      40.002  19.530  25.832  1.00  0.00    -0.352 N 
ATOM     22  C   UNL A   1      41.346  19.398  26.103  1.00  0.00     0.251 C 
ATOM     23  H   UNL A   1      39.528  18.687  25.644  1.00  0.00     0.163 HD
ATOM     24  O   UNL A   1      41.890  18.300  26.039  1.00  0.00    -0.269 OA
BRANCH  22  25
ATOM     25  C   UNL A   1      42.153  20.596  26.420  1.00  0.00     0.039 A 
ATOM     26  C   UNL A   1      42.597  21.408  25.372  1.00  0.00     0.014 A 
ATOM     27  C   UNL A   1      42.413  20.951  27.744  1.00  0.00     0.014 A 
ATOM     28  C   UNL A   1      43.189  22.641  25.657  1.00  0.00     0.010 A 
ATOM     29  C   UNL A   1      42.929  22.213  28.025  1.00  0.00     0.010 A 
ATOM     30  C   UNL A   1      43.296  23.083  26.985  1.00  0.00    -0.014 A 
BRANCH  30  31
ATOM     31  C   UNL A   1      43.744  24.460  27.325  1.00  0.00     0.031 A 
ATOM     32  C   UNL A   1      42.750  25.475  27.811  1.00  0.00     0.074 A 
ATOM     33  C   UNL A   1      45.017  24.831  27.078  1.00  0.00     0.049 A 
ATOM     34  N   UNL A   1      42.893  26.766  27.976  1.00  0.00    -0.248 NA
ATOM     35  C   UNL A   1      41.401  24.975  28.120  1.00  0.00     0.031 C 
ATOM     36  C   UNL A   1      46.073  23.954  26.570  1.00  0.00     0.029 A 
ATOM     37  N   UNL A   1      45.632  26.055  27.197  1.00  0.00    -0.354 N 
ATOM     38  C   UNL A   1      41.650  27.235  28.376  1.00  0.00     0.074 A 
ATOM     39  C   UNL A   1      40.753  26.099  28.392  1.00  0.00     0.031 C 
ATOM     40  C   UNL A   1      47.205  24.663  26.429  1.00  0.00     0.029 A 
ATOM     41  C   UNL A   1      46.944  26.054  26.788  1.00  0.00     0.049 A 
ATOM     42  H   UNL A   1      45.176  26.856  27.542  1.00  0.00     0.167 HD
ATOM     43  C   UNL A   1      41.292  28.497  28.714  1.00  0.00     0.037 A 
ATOM     44  C   UNL A   1      47.831  27.064  26.691  1.00  0.00     0.037 A 
ATOM     45  C   UNL A   1      42.194  29.618  28.734  1.00  0.00     0.049 A 
ATOM     46  C   UNL A   1      47.408  28.457  27.070  1.00  0.00     0.074 A 
ATOM     47  C   UNL A   1      41.940  30.922  29.125  1.00  0.00     0.029 A 
ATOM     48  N   UNL A   1      43.525  29.568  28.350  1.00  0.00    -0.354 N 
ATOM     49  N   UNL A   1      46.243  28.879  27.495  1.00  0.00    -0.248 NA
ATOM     50  C   UNL A   1      48.423  29.515  26.954  1.00  0.00     0.031 C 
ATOM     51  C   UNL A   1      43.109  31.668  28.941  1.00  0.00     0.029 A 
ATOM     52  C   UNL A   1      44.102  30.820  28.479  1.00  0.00     0.049 A 
ATOM     53  H   UNL A   1      43.992  28.760  28.032  1.00  0.00     0.167 HD
ATOM     54  C   UNL A   1      46.392  30.240  27.727  1.00  0.00     0.074 A 
ATOM     55  C   UNL A   1      47.762  30.574  27.401  1.00  0.00     0.031 C 
ATOM     56  C   UNL A   1      45.474  31.132  28.172  1.00  0.00     0.037 A 
BRANCH  43  57
ATOM     57  C   UNL A   1      39.860  28.733  29.093  1.00  0.00     0.064 A 
ATOM     58  C   UNL A   1      39.412  28.570  30.412  1.00  0.00     0.173 A 
ATOM     59  C   UNL A   1      38.932  29.161  28.132  1.00  0.00     0.173 A 
ATOM     60  F   UNL A   1      40.258  28.151  31.365  1.00  0.00    -0.203 F 
ATOM     61  C   UNL A   1      38.080  28.797  30.749  1.00  0.00     0.198 A 
ATOM     62  C   UNL A   1      37.608  29.417  28.480  1.00  0.00     0.198 A 
ATOM     63  F   UNL A   1      39.310  29.341  26.857  1.00  0.00    -0.203 F 
ATOM     64  F   UNL A   1      37.665  28.586  32.006  1.00  0.00    -0.200 F 
ATOM     65  C   UNL A   1      37.181  29.227  29.785  1.00  0.00     0.200 A 
ATOM     66  F   UNL A   1      36.742  29.845  27.549  1.00  0.00    -0.200 F 
ATOM     67  F   UNL A   1      35.901  29.451  30.113  1.00  0.00    -0.200 F 
ENDBRANCH  43  57
BRANCH  44  68
ATOM     68  C   UNL A   1      49.217  26.794  26.224  1.00  0.00     0.064 A 
ATOM     69  C   UNL A   1      50.209  26.385  27.125  1.00  0.00     0.173 A 
ATOM     70  C   UNL A   1      49.580  26.944  24.878  1.00  0.00     0.173 A 
ATOM     71  F   UNL A   1      49.915  26.249  28.428  1.00  0.00    -0.203 F 
ATOM     72  C   UNL A   1      51.517  26.155  26.703  1.00  0.00     0.198 A 
ATOM     73  C   UNL A   1      50.881  26.689  24.451  1.00  0.00     0.198 A 
ATOM     74  F   UNL A   1      48.667  27.331  23.975  1.00  0.00    -0.203 F 
ATOM     75  F   UNL A   1      52.455  25.807  27.593  1.00  0.00    -0.200 F 
ATOM     76  C   UNL A   1      51.850  26.302  25.364  1.00  0.00     0.200 A 
ATOM     77  F   UNL A   1      51.197  26.820  23.156  1.00  0.00    -0.200 F 
ATOM     78  F   UNL A   1      53.107  26.077  24.958  1.00  0.00    -0.200 F 
ENDBRANCH  44  68
BRANCH  56  79
ATOM     79  C   UNL A   1      45.926  32.546  28.384  1.00  0.00     0.064 A 
ATOM     80  C   UNL A   1      45.807  33.515  27.378  1.00  0.00     0.173 A 
ATOM     81  C   UNL A   1      46.423  32.949  29.633  1.00  0.00     0.173 A 
ATOM     82  F   UNL A   1      45.353  33.175  26.163  1.00  0.00    -0.203 F 
ATOM     83  C   UNL A   1      46.179  34.836  27.613  1.00  0.00     0.198 A 
ATOM     84  C   UNL A   1      46.769  34.275  29.872  1.00  0.00     0.198 A 
ATOM     85  F   UNL A   1      46.551  32.059  30.629  1.00  0.00    -0.203 F 
ATOM     86  F   UNL A   1      46.087  35.741  26.628  1.00  0.00    -0.200 F 
ATOM     87  C   UNL A   1      46.650  35.217  28.861  1.00  0.00     0.200 A 
ATOM     88  F   UNL A   1      47.212  34.643  31.082  1.00  0.00    -0.200 F 
ATOM     89  F   UNL A   1      46.993  36.492  29.089  1.00  0.00    -0.200 F 
ENDBRANCH  56  79
ENDBRANCH  30  31
ENDBRANCH  22  25
ENDBRANCH  20  21
ENDBRANCH  19  20
ENDBRANCH   1  19
TORSDOF 15
ENDMDL
