MODEL 1
REMARK VINA RESULT:     -11.9      0.000      0.000
REMARK SMILES CCC(CC)NC(=O)NC[C@H]1CC[C@H](C(=O)NCCCCNC(=O)c2ccc(-c3c4nc(c(-c5c(F)c(F)c(F)c(F)c5F)c5ccc([nH]5)c(-c5c(F)c(F)c(F)c(F)c5F)c5nc(c(-c6c(F)c(F)c(F)c(F)c6F)c6ccc3[nH]6)C=C5)C=C4)cc2)O1
REMARK SMILES IDX 18 1 17 2 15 3 16 4 14 6 11 7 12 8 88 9 13 10 10 11 9 12
REMARK SMILES IDX 6 13 7 14 8 16 3 18 2 19 1 20 4 21 5 22 19 23 20 24 21 25
REMARK SMILES IDX 22 26 23 27 24 29 25 30 26 31 87 32 27 33 86 34 28 35 29 36
REMARK SMILES IDX 30 37 80 38 31 39 85 40 79 41 81 42 32 43 84 44 78 45 77 46
REMARK SMILES IDX 33 48 65 49 45 50 64 51 46 52 49 53 63 54 82 55 47 56 48 57
REMARK SMILES IDX 62 59 83 60 50 61 34 62 35 63 43 64 36 65 37 66 41 67 44 68
REMARK SMILES IDX 38 69 39 70 42 71 40 72 66 73 67 74 75 75 68 76 69 77 73 78
REMARK SMILES IDX 76 79 70 80 71 81 74 82 72 83 51 84 52 85 60 86 53 87 54 88
REMARK SMILES IDX 58 89 61 90 55 91 56 92 59 93 57 94
REMARK H PARENT 17 5 6 15 9 17 22 28 81 47 49 58
REMARK Flexibility Score: inf
ROOT
ATOM      1  C   UNL A   1      31.849  29.635  25.157  1.00  0.00     0.116 C 
ENDROOT
BRANCH   1   2
ATOM      2  N   UNL A   1      32.958  29.618  24.234  1.00  0.00    -0.354 N 
ATOM      3  C   UNL A   1      33.623  28.554  23.696  1.00  0.00     0.249 C 
ATOM      4  O   UNL A   1      34.567  28.802  22.938  1.00  0.00    -0.272 OA
ATOM      5  H   UNL A   1      33.284  30.503  23.951  1.00  0.00     0.163 HD
BRANCH   3   6
ATOM      6  C   UNL A   1      33.274  27.095  24.075  1.00  0.00     0.207 C 
ATOM      7  C   UNL A   1      31.348  26.046  24.924  1.00  0.00     0.138 C 
ATOM      8  C   UNL A   1      32.259  26.296  26.115  1.00  0.00     0.037 C 
ATOM      9  O   UNL A   1      31.954  26.654  23.776  1.00  0.00    -0.363 OA
ATOM     10  C   UNL A   1      33.563  26.791  25.535  1.00  0.00     0.045 C 
BRANCH   7  11
ATOM     11  C   UNL A   1      30.969  24.563  24.712  1.00  0.00     0.149 C 
BRANCH  11  12
ATOM     12  N   UNL A   1      30.139  23.989  25.752  1.00  0.00    -0.336 N 
ATOM     13  N   UNL A   1      31.558  22.633  27.066  1.00  0.00    -0.335 N 
ATOM     14  C   UNL A   1      30.384  23.229  26.824  1.00  0.00     0.315 C 
ATOM     15  H   UNL A   1      31.614  22.235  27.965  1.00  0.00     0.165 HD
ATOM     16  O   UNL A   1      29.477  23.074  27.645  1.00  0.00    -0.249 OA
ATOM     17  H   UNL A   1      29.185  24.207  25.645  1.00  0.00     0.165 HD
BRANCH  13  18
ATOM     18  C   UNL A   1      32.771  22.448  26.282  1.00  0.00     0.083 C 
BRANCH  18  19
ATOM     19  C   UNL A   1      34.008  22.678  27.163  1.00  0.00     0.021 C 
ATOM     20  C   UNL A   1      35.227  23.129  26.371  1.00  0.00     0.006 C 
ENDBRANCH  18  19
BRANCH  18  21
ATOM     21  C   UNL A   1      32.740  21.101  25.535  1.00  0.00     0.021 C 
ATOM     22  C   UNL A   1      32.549  21.187  24.030  1.00  0.00     0.006 C 
ENDBRANCH  18  21
ENDBRANCH  13  18
ENDBRANCH  11  12
ENDBRANCH   7  11
ENDBRANCH   3   6
ENDBRANCH   1   2
BRANCH   1  23
ATOM     23  C   UNL A   1      32.253  30.188  26.522  1.00  0.00     0.023 C 
BRANCH  23  24
ATOM     24  C   UNL A   1      31.811  31.627  26.783  1.00  0.00     0.023 C 
BRANCH  24  25
ATOM     25  C   UNL A   1      32.878  32.516  27.408  1.00  0.00     0.116 C 
BRANCH  25  26
ATOM     26  N   UNL A   1      32.447  33.888  27.631  1.00  0.00    -0.352 N 
ATOM     27  C   UNL A   1      32.978  34.807  28.505  1.00  0.00     0.251 C 
ATOM     28  H   UNL A   1      31.683  34.195  27.091  1.00  0.00     0.163 HD
ATOM     29  O   UNL A   1      32.467  35.909  28.650  1.00  0.00    -0.269 OA
BRANCH  27  30
ATOM     30  C   UNL A   1      34.150  34.412  29.312  1.00  0.00     0.039 A 
ATOM     31  C   UNL A   1      33.939  33.821  30.558  1.00  0.00     0.014 A 
ATOM     32  C   UNL A   1      35.440  34.553  28.795  1.00  0.00     0.014 A 
ATOM     33  C   UNL A   1      35.023  33.293  31.257  1.00  0.00     0.010 A 
ATOM     34  C   UNL A   1      36.509  33.963  29.458  1.00  0.00     0.010 A 
ATOM     35  C   UNL A   1      36.309  33.324  30.691  1.00  0.00    -0.014 A 
BRANCH  35  36
ATOM     36  C   UNL A   1      37.461  32.688  31.369  1.00  0.00     0.031 A 
ATOM     37  C   UNL A   1      38.168  31.535  30.719  1.00  0.00     0.074 A 
ATOM     38  C   UNL A   1      37.812  33.091  32.605  1.00  0.00     0.049 A 
ATOM     39  N   UNL A   1      39.136  30.787  31.186  1.00  0.00    -0.248 NA
ATOM     40  C   UNL A   1      37.699  31.147  29.380  1.00  0.00     0.031 C 
ATOM     41  C   UNL A   1      37.154  34.155  33.366  1.00  0.00     0.029 A 
ATOM     42  N   UNL A   1      38.796  32.640  33.447  1.00  0.00    -0.354 N 
ATOM     43  C   UNL A   1      39.376  29.834  30.207  1.00  0.00     0.074 A 
ATOM     44  C   UNL A   1      38.420  30.061  29.147  1.00  0.00     0.031 C 
ATOM     45  C   UNL A   1      37.759  34.282  34.557  1.00  0.00     0.029 A 
ATOM     46  C   UNL A   1      38.830  33.293  34.653  1.00  0.00     0.049 A 
ATOM     47  H   UNL A   1      39.419  31.917  33.207  1.00  0.00     0.167 HD
ATOM     48  C   UNL A   1      40.328  28.870  30.184  1.00  0.00     0.037 A 
ATOM     49  C   UNL A   1      39.632  33.110  35.718  1.00  0.00     0.037 A 
ATOM     50  C   UNL A   1      41.296  28.667  31.228  1.00  0.00     0.049 A 
ATOM     51  C   UNL A   1      40.707  32.061  35.655  1.00  0.00     0.074 A 
ATOM     52  C   UNL A   1      42.340  27.761  31.274  1.00  0.00     0.029 A 
ATOM     53  N   UNL A   1      41.334  29.385  32.415  1.00  0.00    -0.354 N 
ATOM     54  N   UNL A   1      40.973  31.209  34.694  1.00  0.00    -0.248 NA
ATOM     55  C   UNL A   1      41.598  31.954  36.819  1.00  0.00     0.031 C 
ATOM     56  C   UNL A   1      42.995  27.912  32.502  1.00  0.00     0.029 A 
ATOM     57  C   UNL A   1      42.380  28.936  33.206  1.00  0.00     0.049 A 
ATOM     58  H   UNL A   1      40.712  30.107  32.659  1.00  0.00     0.167 HD
ATOM     59  C   UNL A   1      42.070  30.478  35.126  1.00  0.00     0.074 A 
ATOM     60  C   UNL A   1      42.430  30.997  36.431  1.00  0.00     0.031 C 
ATOM     61  C   UNL A   1      42.721  29.468  34.500  1.00  0.00     0.037 A 
BRANCH  48  62
ATOM     62  C   UNL A   1      40.365  27.975  28.982  1.00  0.00     0.064 A 
ATOM     63  C   UNL A   1      41.097  28.319  27.835  1.00  0.00     0.173 A 
ATOM     64  C   UNL A   1      39.663  26.761  28.974  1.00  0.00     0.173 A 
ATOM     65  F   UNL A   1      41.771  29.477  27.788  1.00  0.00    -0.203 F 
ATOM     66  C   UNL A   1      41.093  27.499  26.710  1.00  0.00     0.198 A 
ATOM     67  C   UNL A   1      39.685  25.930  27.857  1.00  0.00     0.198 A 
ATOM     68  F   UNL A   1      38.949  26.384  30.045  1.00  0.00    -0.203 F 
ATOM     69  F   UNL A   1      41.751  27.879  25.605  1.00  0.00    -0.200 F 
ATOM     70  C   UNL A   1      40.392  26.303  26.723  1.00  0.00     0.200 A 
ATOM     71  F   UNL A   1      39.014  24.769  27.873  1.00  0.00    -0.200 F 
ATOM     72  F   UNL A   1      40.386  25.517  25.638  1.00  0.00    -0.200 F 
ENDBRANCH  48  62
BRANCH  49  73
ATOM     73  C   UNL A   1      39.466  33.969  36.917  1.00  0.00     0.064 A 
ATOM     74  C   UNL A   1      38.733  33.520  38.025  1.00  0.00     0.173 A 
ATOM     75  C   UNL A   1      40.054  35.239  36.991  1.00  0.00     0.173 A 
ATOM     76  F   UNL A   1      38.138  32.318  37.991  1.00  0.00    -0.203 F 
ATOM     77  C   UNL A   1      38.587  34.314  39.160  1.00  0.00     0.198 A 
ATOM     78  C   UNL A   1      39.925  36.024  38.135  1.00  0.00     0.198 A 
ATOM     79  F   UNL A   1      40.771  35.708  35.960  1.00  0.00    -0.203 F 
ATOM     80  F   UNL A   1      37.857  33.875  40.194  1.00  0.00    -0.200 F 
ATOM     81  C   UNL A   1      39.188  35.563  39.216  1.00  0.00     0.200 A 
ATOM     82  F   UNL A   1      40.518  37.224  38.192  1.00  0.00    -0.200 F 
ATOM     83  F   UNL A   1      39.055  36.324  40.312  1.00  0.00    -0.200 F 
ENDBRANCH  49  73
BRANCH  61  84
ATOM     84  C   UNL A   1      43.898  28.868  35.210  1.00  0.00     0.064 A 
ATOM     85  C   UNL A   1      43.746  27.795  36.099  1.00  0.00     0.173 A 
ATOM     86  C   UNL A   1      45.194  29.344  34.962  1.00  0.00     0.173 A 
ATOM     87  F   UNL A   1      42.524  27.317  36.379  1.00  0.00    -0.203 F 
ATOM     88  C   UNL A   1      44.851  27.231  36.731  1.00  0.00     0.198 A 
ATOM     89  C   UNL A   1      46.298  28.762  35.576  1.00  0.00     0.198 A 
ATOM     90  F   UNL A   1      45.389  30.366  34.115  1.00  0.00    -0.203 F 
ATOM     91  F   UNL A   1      44.682  26.231  37.606  1.00  0.00    -0.200 F 
ATOM     92  C   UNL A   1      46.126  27.709  36.464  1.00  0.00     0.200 A 
ATOM     93  F   UNL A   1      47.530  29.219  35.311  1.00  0.00    -0.200 F 
ATOM     94  F   UNL A   1      47.188  27.160  37.068  1.00  0.00    -0.200 F 
ENDBRANCH  61  84
ENDBRANCH  35  36
ENDBRANCH  27  30
ENDBRANCH  25  26
ENDBRANCH  24  25
ENDBRANCH  23  24
ENDBRANCH   1  23
TORSDOF 16
ENDMDL
MODEL 2
REMARK VINA RESULT:     -11.7      0.769      2.167
REMARK SMILES CCC(CC)NC(=O)NC[C@H]1CC[C@H](C(=O)NCCCCNC(=O)c2ccc(-c3c4nc(c(-c5c(F)c(F)c(F)c(F)c5F)c5ccc([nH]5)c(-c5c(F)c(F)c(F)c(F)c5F)c5nc(c(-c6c(F)c(F)c(F)c(F)c6F)c6ccc3[nH]6)C=C5)C=C4)cc2)O1
REMARK SMILES IDX 18 1 17 2 15 3 16 4 14 6 11 7 12 8 88 9 13 10 10 11 9 12
REMARK SMILES IDX 6 13 7 14 8 16 3 18 2 19 1 20 4 21 5 22 19 23 20 24 21 25
REMARK SMILES IDX 22 26 23 27 24 29 25 30 26 31 87 32 27 33 86 34 28 35 29 36
REMARK SMILES IDX 30 37 80 38 31 39 85 40 79 41 81 42 32 43 84 44 78 45 77 46
REMARK SMILES IDX 33 48 65 49 45 50 64 51 46 52 49 53 63 54 82 55 47 56 48 57
REMARK SMILES IDX 62 59 83 60 50 61 34 62 35 63 43 64 36 65 37 66 41 67 44 68
REMARK SMILES IDX 38 69 39 70 42 71 40 72 66 73 67 74 75 75 68 76 69 77 73 78
REMARK SMILES IDX 76 79 70 80 71 81 74 82 72 83 51 84 52 85 60 86 53 87 54 88
REMARK SMILES IDX 58 89 61 90 55 91 56 92 59 93 57 94
REMARK H PARENT 17 5 6 15 9 17 22 28 81 47 49 58
REMARK Flexibility Score: inf
ROOT
ATOM      1  C   UNL A   1      33.266  29.640  26.596  1.00  0.00     0.116 C 
ENDROOT
BRANCH   1   2
ATOM      2  N   UNL A   1      33.534  29.694  25.178  1.00  0.00    -0.354 N 
ATOM      3  C   UNL A   1      33.034  28.920  24.171  1.00  0.00     0.249 C 
ATOM      4  O   UNL A   1      33.440  29.149  23.027  1.00  0.00    -0.272 OA
ATOM      5  H   UNL A   1      34.170  30.391  24.897  1.00  0.00     0.163 HD
BRANCH   3   6
ATOM      6  C   UNL A   1      32.064  27.746  24.447  1.00  0.00     0.207 C 
ATOM      7  C   UNL A   1      31.098  26.078  23.099  1.00  0.00     0.138 C 
ATOM      8  C   UNL A   1      30.052  27.171  23.241  1.00  0.00     0.037 C 
ATOM      9  O   UNL A   1      32.300  26.539  23.729  1.00  0.00    -0.363 OA
ATOM     10  C   UNL A   1      30.610  28.140  24.258  1.00  0.00     0.045 C 
BRANCH   7  11
ATOM     11  C   UNL A   1      30.636  24.687  23.590  1.00  0.00     0.149 C 
BRANCH  11  12
ATOM     12  N   UNL A   1      30.575  24.536  25.029  1.00  0.00    -0.336 N 
ATOM     13  N   UNL A   1      32.725  23.842  25.720  1.00  0.00    -0.335 N 
ATOM     14  C   UNL A   1      31.479  24.260  25.976  1.00  0.00     0.315 C 
ATOM     15  H   UNL A   1      33.301  23.827  26.519  1.00  0.00     0.165 HD
ATOM     16  O   UNL A   1      31.149  24.407  27.154  1.00  0.00    -0.249 OA
ATOM     17  H   UNL A   1      29.668  24.664  25.390  1.00  0.00     0.165 HD
BRANCH  13  18
ATOM     18  C   UNL A   1      33.411  23.406  24.512  1.00  0.00     0.083 C 
BRANCH  18  19
ATOM     19  C   UNL A   1      34.696  24.222  24.311  1.00  0.00     0.021 C 
ATOM     20  C   UNL A   1      35.735  23.973  25.396  1.00  0.00     0.006 C 
ENDBRANCH  18  19
BRANCH  18  21
ATOM     21  C   UNL A   1      33.598  21.878  24.511  1.00  0.00     0.021 C 
ATOM     22  C   UNL A   1      32.320  21.057  24.465  1.00  0.00     0.006 C 
ENDBRANCH  18  21
ENDBRANCH  13  18
ENDBRANCH  11  12
ENDBRANCH   7  11
ENDBRANCH   3   6
ENDBRANCH   1   2
BRANCH   1  23
ATOM     23  C   UNL A   1      31.929  30.290  26.948  1.00  0.00     0.023 C 
BRANCH  23  24
ATOM     24  C   UNL A   1      31.860  31.791  26.676  1.00  0.00     0.023 C 
BRANCH  24  25
ATOM     25  C   UNL A   1      32.874  32.624  27.448  1.00  0.00     0.116 C 
BRANCH  25  26
ATOM     26  N   UNL A   1      32.449  33.994  27.695  1.00  0.00    -0.352 N 
ATOM     27  C   UNL A   1      32.990  34.899  28.577  1.00  0.00     0.251 C 
ATOM     28  H   UNL A   1      31.680  34.310  27.166  1.00  0.00     0.163 HD
ATOM     29  O   UNL A   1      32.483  36.000  28.742  1.00  0.00    -0.269 OA
BRANCH  27  30
ATOM     30  C   UNL A   1      34.169  34.491  29.366  1.00  0.00     0.039 A 
ATOM     31  C   UNL A   1      33.970  33.916  30.622  1.00  0.00     0.014 A 
ATOM     32  C   UNL A   1      35.452  34.600  28.824  1.00  0.00     0.014 A 
ATOM     33  C   UNL A   1      35.057  33.376  31.307  1.00  0.00     0.010 A 
ATOM     34  C   UNL A   1      36.522  33.997  29.474  1.00  0.00     0.010 A 
ATOM     35  C   UNL A   1      36.332  33.375  30.717  1.00  0.00    -0.014 A 
BRANCH  35  36
ATOM     36  C   UNL A   1      37.485  32.725  31.381  1.00  0.00     0.031 A 
ATOM     37  C   UNL A   1      38.184  31.579  30.711  1.00  0.00     0.074 A 
ATOM     38  C   UNL A   1      37.841  33.108  32.622  1.00  0.00     0.049 A 
ATOM     39  N   UNL A   1      39.151  30.820  31.162  1.00  0.00    -0.248 NA
ATOM     40  C   UNL A   1      37.708  31.213  29.368  1.00  0.00     0.031 C 
ATOM     41  C   UNL A   1      37.190  34.162  33.401  1.00  0.00     0.029 A 
ATOM     42  N   UNL A   1      38.827  32.639  33.452  1.00  0.00    -0.354 N 
ATOM     43  C   UNL A   1      39.384  29.881  30.168  1.00  0.00     0.074 A 
ATOM     44  C   UNL A   1      38.424  30.129  29.115  1.00  0.00     0.031 C 
ATOM     45  C   UNL A   1      37.801  34.268  34.592  1.00  0.00     0.029 A 
ATOM     46  C   UNL A   1      38.868  33.273  34.669  1.00  0.00     0.049 A 
ATOM     47  H   UNL A   1      39.446  31.917  33.199  1.00  0.00     0.167 HD
ATOM     48  C   UNL A   1      40.332  28.915  30.126  1.00  0.00     0.037 A 
ATOM     49  C   UNL A   1      39.673  33.071  35.727  1.00  0.00     0.037 A 
ATOM     50  C   UNL A   1      41.302  28.691  31.164  1.00  0.00     0.049 A 
ATOM     51  C   UNL A   1      40.743  32.019  35.645  1.00  0.00     0.074 A 
ATOM     52  C   UNL A   1      42.343  27.781  31.192  1.00  0.00     0.029 A 
ATOM     53  N   UNL A   1      41.348  29.391  32.361  1.00  0.00    -0.354 N 
ATOM     54  N   UNL A   1      41.003  31.181  34.670  1.00  0.00    -0.248 NA
ATOM     55  C   UNL A   1      41.638  31.890  36.803  1.00  0.00     0.031 C 
ATOM     56  C   UNL A   1      43.004  27.910  32.420  1.00  0.00     0.029 A 
ATOM     57  C   UNL A   1      42.395  28.925  33.141  1.00  0.00     0.049 A 
ATOM     58  H   UNL A   1      40.730  30.111  32.618  1.00  0.00     0.167 HD
ATOM     59  C   UNL A   1      42.098  30.439  35.086  1.00  0.00     0.074 A 
ATOM     60  C   UNL A   1      42.465  30.936  36.397  1.00  0.00     0.031 C 
ATOM     61  C   UNL A   1      42.743  29.436  34.442  1.00  0.00     0.037 A 
BRANCH  48  62
ATOM     62  C   UNL A   1      40.360  28.038  28.910  1.00  0.00     0.064 A 
ATOM     63  C   UNL A   1      39.659  26.823  28.867  1.00  0.00     0.173 A 
ATOM     64  C   UNL A   1      41.094  28.413  27.776  1.00  0.00     0.173 A 
ATOM     65  F   UNL A   1      38.956  26.412  29.933  1.00  0.00    -0.203 F 
ATOM     66  C   UNL A   1      39.723  25.998  27.748  1.00  0.00     0.198 A 
ATOM     67  C   UNL A   1      41.133  27.599  26.647  1.00  0.00     0.198 A 
ATOM     68  F   UNL A   1      41.780  29.566  27.764  1.00  0.00    -0.203 F 
ATOM     69  F   UNL A   1      39.094  24.814  27.754  1.00  0.00    -0.200 F 
ATOM     70  C   UNL A   1      40.456  26.388  26.637  1.00  0.00     0.200 A 
ATOM     71  F   UNL A   1      41.834  27.981  25.570  1.00  0.00    -0.200 F 
ATOM     72  F   UNL A   1      40.519  25.592  25.561  1.00  0.00    -0.200 F 
ENDBRANCH  48  62
BRANCH  49  73
ATOM     73  C   UNL A   1      39.514  33.912  36.941  1.00  0.00     0.064 A 
ATOM     74  C   UNL A   1      40.118  35.174  37.024  1.00  0.00     0.173 A 
ATOM     75  C   UNL A   1      38.738  33.484  38.027  1.00  0.00     0.173 A 
ATOM     76  F   UNL A   1      40.884  35.616  36.015  1.00  0.00    -0.203 F 
ATOM     77  C   UNL A   1      39.961  35.974  38.153  1.00  0.00     0.198 A 
ATOM     78  C   UNL A   1      38.564  34.294  39.147  1.00  0.00     0.198 A 
ATOM     79  F   UNL A   1      38.134  32.287  37.990  1.00  0.00    -0.203 F 
ATOM     80  F   UNL A   1      40.573  37.164  38.220  1.00  0.00    -0.200 F 
ATOM     81  C   UNL A   1      39.179  35.535  39.211  1.00  0.00     0.200 A 
ATOM     82  F   UNL A   1      37.796  33.873  40.162  1.00  0.00    -0.200 F 
ATOM     83  F   UNL A   1      39.019  36.309  40.294  1.00  0.00    -0.200 F 
ENDBRANCH  49  73
BRANCH  61  84
ATOM     84  C   UNL A   1      43.920  28.820  35.138  1.00  0.00     0.064 A 
ATOM     85  C   UNL A   1      45.216  29.329  34.969  1.00  0.00     0.173 A 
ATOM     86  C   UNL A   1      43.742  27.740  36.014  1.00  0.00     0.173 A 
ATOM     87  F   UNL A   1      45.436  30.351  34.129  1.00  0.00    -0.203 F 
ATOM     88  C   UNL A   1      46.296  28.764  35.641  1.00  0.00     0.198 A 
ATOM     89  C   UNL A   1      44.820  27.194  36.703  1.00  0.00     0.198 A 
ATOM     90  F   UNL A   1      42.520  27.223  36.211  1.00  0.00    -0.203 F 
ATOM     91  F   UNL A   1      47.532  29.240  35.438  1.00  0.00    -0.200 F 
ATOM     92  C   UNL A   1      46.097  27.703  36.513  1.00  0.00     0.200 A 
ATOM     93  F   UNL A   1      44.626  26.174  37.551  1.00  0.00    -0.200 F 
ATOM     94  F   UNL A   1      47.137  27.166  37.164  1.00  0.00    -0.200 F 
ENDBRANCH  61  84
ENDBRANCH  35  36
ENDBRANCH  27  30
ENDBRANCH  25  26
ENDBRANCH  24  25
ENDBRANCH  23  24
ENDBRANCH   1  23
TORSDOF 16
ENDMDL
MODEL 3
REMARK VINA RESULT:     -11.6      5.595      9.977
REMARK SMILES CCC(CC)NC(=O)NC[C@H]1CC[C@H](C(=O)NCCCCNC(=O)c2ccc(-c3c4nc(c(-c5c(F)c(F)c(F)c(F)c5F)c5ccc([nH]5)c(-c5c(F)c(F)c(F)c(F)c5F)c5nc(c(-c6c(F)c(F)c(F)c(F)c6F)c6ccc3[nH]6)C=C5)C=C4)cc2)O1
REMARK SMILES IDX 18 1 17 2 15 3 16 4 14 6 11 7 12 8 88 9 13 10 10 11 9 12
REMARK SMILES IDX 6 13 7 14 8 16 3 18 2 19 1 20 4 21 5 22 19 23 20 24 21 25
REMARK SMILES IDX 22 26 23 27 24 29 25 30 26 31 87 32 27 33 86 34 28 35 29 36
REMARK SMILES IDX 30 37 80 38 31 39 85 40 79 41 81 42 32 43 84 44 78 45 77 46
REMARK SMILES IDX 33 48 65 49 45 50 64 51 46 52 49 53 63 54 82 55 47 56 48 57
REMARK SMILES IDX 62 59 83 60 50 61 34 62 35 63 43 64 36 65 37 66 41 67 44 68
REMARK SMILES IDX 38 69 39 70 42 71 40 72 66 73 67 74 75 75 68 76 69 77 73 78
REMARK SMILES IDX 76 79 70 80 71 81 74 82 72 83 51 84 52 85 60 86 53 87 54 88
REMARK SMILES IDX 58 89 61 90 55 91 56 92 59 93 57 94
REMARK H PARENT 17 5 6 15 9 17 22 28 81 47 49 58
REMARK Flexibility Score: inf
ROOT
ATOM      1  C   UNL A   1      35.757  21.179  25.064  1.00  0.00     0.116 C 
ENDROOT
BRANCH   1   2
ATOM      2  N   UNL A   1      35.425  21.519  26.428  1.00  0.00    -0.354 N 
ATOM      3  C   UNL A   1      34.569  22.472  26.901  1.00  0.00     0.249 C 
ATOM      4  O   UNL A   1      34.473  22.586  28.127  1.00  0.00    -0.272 OA
ATOM      5  H   UNL A   1      35.883  20.986  27.118  1.00  0.00     0.163 HD
BRANCH   3   6
ATOM      6  C   UNL A   1      33.810  23.431  25.954  1.00  0.00     0.207 C 
ATOM      7  C   UNL A   1      33.368  23.432  23.644  1.00  0.00     0.138 C 
ATOM      8  C   UNL A   1      34.566  24.344  23.850  1.00  0.00     0.037 C 
ATOM      9  O   UNL A   1      33.054  22.832  24.907  1.00  0.00    -0.363 OA
ATOM     10  C   UNL A   1      34.719  24.485  25.346  1.00  0.00     0.045 C 
BRANCH   7  11
ATOM     11  C   UNL A   1      32.158  24.113  22.964  1.00  0.00     0.149 C 
BRANCH  11  12
ATOM     12  N   UNL A   1      32.364  24.485  21.579  1.00  0.00    -0.336 N 
ATOM     13  N   UNL A   1      32.782  26.810  21.568  1.00  0.00    -0.335 N 
ATOM     14  C   UNL A   1      32.719  25.618  20.963  1.00  0.00     0.315 C 
ATOM     15  H   UNL A   1      33.199  27.507  21.010  1.00  0.00     0.165 HD
ATOM     16  O   UNL A   1      33.016  25.560  19.768  1.00  0.00    -0.249 OA
ATOM     17  H   UNL A   1      32.209  23.740  20.955  1.00  0.00     0.165 HD
BRANCH  13  18
ATOM     18  C   UNL A   1      32.364  27.297  22.875  1.00  0.00     0.083 C 
BRANCH  18  19
ATOM     19  C   UNL A   1      33.349  28.360  23.381  1.00  0.00     0.021 C 
ATOM     20  C   UNL A   1      33.778  28.137  24.825  1.00  0.00     0.006 C 
ENDBRANCH  18  19
BRANCH  18  21
ATOM     21  C   UNL A   1      30.887  27.731  22.850  1.00  0.00     0.021 C 
ATOM     22  C   UNL A   1      30.611  29.098  22.246  1.00  0.00     0.006 C 
ENDBRANCH  18  21
ENDBRANCH  13  18
ENDBRANCH  11  12
ENDBRANCH   7  11
ENDBRANCH   3   6
ENDBRANCH   1   2
BRANCH   1  23
ATOM     23  C   UNL A   1      37.243  21.379  24.774  1.00  0.00     0.023 C 
BRANCH  23  24
ATOM     24  C   UNL A   1      38.106  20.137  24.986  1.00  0.00     0.023 C 
BRANCH  24  25
ATOM     25  C   UNL A   1      39.280  20.333  25.936  1.00  0.00     0.116 C 
BRANCH  25  26
ATOM     26  N   UNL A   1      40.243  19.242  25.918  1.00  0.00    -0.352 N 
ATOM     27  C   UNL A   1      41.604  19.315  26.105  1.00  0.00     0.251 C 
ATOM     28  H   UNL A   1      39.876  18.344  25.754  1.00  0.00     0.163 HD
ATOM     29  O   UNL A   1      42.310  18.324  25.987  1.00  0.00    -0.269 OA
BRANCH  27  30
ATOM     30  C   UNL A   1      42.202  20.633  26.394  1.00  0.00     0.039 A 
ATOM     31  C   UNL A   1      42.605  21.437  25.327  1.00  0.00     0.014 A 
ATOM     32  C   UNL A   1      42.282  21.097  27.709  1.00  0.00     0.014 A 
ATOM     33  C   UNL A   1      43.016  22.745  25.574  1.00  0.00     0.010 A 
ATOM     34  C   UNL A   1      42.623  22.422  27.947  1.00  0.00     0.010 A 
ATOM     35  C   UNL A   1      42.987  23.259  26.881  1.00  0.00    -0.014 A 
BRANCH  35  36
ATOM     36  C   UNL A   1      43.330  24.672  27.159  1.00  0.00     0.031 A 
ATOM     37  C   UNL A   1      44.729  25.162  26.930  1.00  0.00     0.074 A 
ATOM     38  C   UNL A   1      42.404  25.487  27.701  1.00  0.00     0.049 A 
ATOM     39  N   UNL A   1      45.251  26.333  27.195  1.00  0.00    -0.248 NA
ATOM     40  C   UNL A   1      45.679  24.194  26.360  1.00  0.00     0.031 C 
ATOM     41  C   UNL A   1      41.031  25.104  28.034  1.00  0.00     0.029 A 
ATOM     42  N   UNL A   1      42.486  26.801  28.086  1.00  0.00    -0.354 N 
ATOM     43  C   UNL A   1      46.589  26.234  26.841  1.00  0.00     0.074 A 
ATOM     44  C   UNL A   1      46.812  24.877  26.395  1.00  0.00     0.031 C 
ATOM     45  C   UNL A   1      40.396  26.161  28.562  1.00  0.00     0.029 A 
ATOM     46  C   UNL A   1      41.324  27.288  28.629  1.00  0.00     0.049 A 
ATOM     47  H   UNL A   1      43.301  27.342  27.982  1.00  0.00     0.167 HD
ATOM     48  C   UNL A   1      47.540  27.198  26.863  1.00  0.00     0.037 A 
ATOM     49  C   UNL A   1      41.040  28.505  29.127  1.00  0.00     0.037 A 
ATOM     50  C   UNL A   1      47.306  28.554  27.281  1.00  0.00     0.049 A 
ATOM     51  C   UNL A   1      42.100  29.571  29.106  1.00  0.00     0.074 A 
ATOM     52  C   UNL A   1      48.184  29.623  27.281  1.00  0.00     0.029 A 
ATOM     53  N   UNL A   1      46.098  29.027  27.774  1.00  0.00    -0.354 N 
ATOM     54  N   UNL A   1      43.345  29.488  28.703  1.00  0.00    -0.248 NA
ATOM     55  C   UNL A   1      41.713  30.901  29.598  1.00  0.00     0.031 C 
ATOM     56  C   UNL A   1      47.516  30.738  27.801  1.00  0.00     0.029 A 
ATOM     57  C   UNL A   1      46.210  30.371  28.092  1.00  0.00     0.049 A 
ATOM     58  H   UNL A   1      45.282  28.488  27.882  1.00  0.00     0.167 HD
ATOM     59  C   UNL A   1      43.886  30.754  28.874  1.00  0.00     0.074 A 
ATOM     60  C   UNL A   1      42.828  31.592  29.404  1.00  0.00     0.031 C 
ATOM     61  C   UNL A   1      45.145  31.185  28.617  1.00  0.00     0.037 A 
BRANCH  48  62
ATOM     62  C   UNL A   1      48.916  26.810  26.411  1.00  0.00     0.064 A 
ATOM     63  C   UNL A   1      49.862  26.291  27.309  1.00  0.00     0.173 A 
ATOM     64  C   UNL A   1      49.295  26.957  25.069  1.00  0.00     0.173 A 
ATOM     65  F   UNL A   1      49.553  26.148  28.606  1.00  0.00    -0.203 F 
ATOM     66  C   UNL A   1      51.149  25.970  26.887  1.00  0.00     0.198 A 
ATOM     67  C   UNL A   1      50.575  26.607  24.645  1.00  0.00     0.198 A 
ATOM     68  F   UNL A   1      48.428  27.445  24.170  1.00  0.00    -0.203 F 
ATOM     69  F   UNL A   1      52.053  25.534  27.776  1.00  0.00    -0.200 F 
ATOM     70  C   UNL A   1      51.504  26.123  25.555  1.00  0.00     0.200 A 
ATOM     71  F   UNL A   1      50.914  26.747  23.356  1.00  0.00    -0.200 F 
ATOM     72  F   UNL A   1      52.744  25.817  25.152  1.00  0.00    -0.200 F 
ENDBRANCH  48  62
BRANCH  49  73
ATOM     73  C   UNL A   1      39.681  28.783  29.656  1.00  0.00     0.064 A 
ATOM     74  C   UNL A   1      38.688  29.329  28.831  1.00  0.00     0.173 A 
ATOM     75  C   UNL A   1      39.341  28.487  30.983  1.00  0.00     0.173 A 
ATOM     76  F   UNL A   1      38.975  29.645  27.559  1.00  0.00    -0.203 F 
ATOM     77  C   UNL A   1      37.407  29.578  29.316  1.00  0.00     0.198 A 
ATOM     78  C   UNL A   1      38.053  28.717  31.461  1.00  0.00     0.198 A 
ATOM     79  F   UNL A   1      40.254  27.955  31.808  1.00  0.00    -0.203 F 
ATOM     80  F   UNL A   1      36.484  30.128  28.516  1.00  0.00    -0.200 F 
ATOM     81  C   UNL A   1      37.088  29.266  30.630  1.00  0.00     0.200 A 
ATOM     82  F   UNL A   1      37.744  28.401  32.727  1.00  0.00    -0.200 F 
ATOM     83  F   UNL A   1      35.852  29.497  31.094  1.00  0.00    -0.200 F 
ENDBRANCH  49  73
BRANCH  61  84
ATOM     84  C   UNL A   1      45.443  32.629  28.889  1.00  0.00     0.064 A 
ATOM     85  C   UNL A   1      45.966  33.048  30.121  1.00  0.00     0.173 A 
ATOM     86  C   UNL A   1      45.244  33.595  27.892  1.00  0.00     0.173 A 
ATOM     87  F   UNL A   1      46.158  32.162  31.109  1.00  0.00    -0.203 F 
ATOM     88  C   UNL A   1      46.263  34.388  30.351  1.00  0.00     0.198 A 
ATOM     89  C   UNL A   1      45.565  34.930  28.117  1.00  0.00     0.198 A 
ATOM     90  F   UNL A   1      44.750  33.242  26.697  1.00  0.00    -0.203 F 
ATOM     91  F   UNL A   1      46.728  34.774  31.547  1.00  0.00    -0.200 F 
ATOM     92  C   UNL A   1      46.070  35.327  29.347  1.00  0.00     0.200 A 
ATOM     93  F   UNL A   1      45.385  35.835  27.144  1.00  0.00    -0.200 F 
ATOM     94  F   UNL A   1      46.363  36.615  29.568  1.00  0.00    -0.200 F 
ENDBRANCH  61  84
ENDBRANCH  35  36
ENDBRANCH  27  30
ENDBRANCH  25  26
ENDBRANCH  24  25
ENDBRANCH  23  24
ENDBRANCH   1  23
TORSDOF 16
ENDMDL
