MODEL 1
REMARK VINA RESULT:     -11.9      0.000      0.000
REMARK SMILES C[C@@H](C(=O)NCc1ccco1)[N@H+]1CCCC[C@@H]1C(=O)NCCCCNC(=O)c1ccc(-c2c3nc(c(-c4c(F)c(F)c(F)c(F)c4F)c4ccc([nH]4)c(-c4c(F)c(F)c(F)c(F)c4F)c4nc(c(-c5c(F)c(F)c(F)c(F)c5F)c5ccc2[nH]5)C=C4)C=C3)cc1
REMARK SMILES IDX 21 1 20 2 18 3 19 4 17 6 12 7 13 8 14 10 16 11 15 12 2 13
REMARK SMILES IDX 1 14 3 15 4 16 5 17 6 19 7 20 8 21 11 22 9 23 10 24 22 25
REMARK SMILES IDX 23 26 24 27 25 28 26 29 27 31 28 32 29 33 90 34 30 35 89 36
REMARK SMILES IDX 31 37 32 38 33 39 83 40 34 41 88 42 82 43 84 44 35 45 87 46
REMARK SMILES IDX 81 47 80 48 36 50 68 51 48 52 67 53 49 54 52 55 66 56 85 57
REMARK SMILES IDX 50 58 51 59 65 61 86 62 53 63 37 64 38 65 46 66 39 67 40 68
REMARK SMILES IDX 44 69 47 70 41 71 42 72 45 73 43 74 69 75 70 76 78 77 71 78
REMARK SMILES IDX 72 79 76 80 79 81 73 82 74 83 77 84 75 85 54 86 55 87 63 88
REMARK SMILES IDX 56 89 57 90 61 91 64 92 58 93 59 94 62 95 60 96
REMARK H PARENT 20 5 12 9 5 18 25 30 84 49 52 60
REMARK Flexibility Score: inf
ROOT
ATOM      1  C   UNL A   1      32.273  29.529  26.803  1.00  0.00     0.116 C 
ENDROOT
BRANCH   1   2
ATOM      2  N   UNL A   1      31.415  28.370  26.939  1.00  0.00    -0.351 N 
ATOM      3  C   UNL A   1      31.569  27.109  26.441  1.00  0.00     0.278 C 
ATOM      4  O   UNL A   1      30.679  26.293  26.695  1.00  0.00    -0.268 OA
ATOM      5  H   UNL A   1      30.599  28.512  27.472  1.00  0.00     0.163 HD
BRANCH   3   6
ATOM      6  C   UNL A   1      32.805  26.720  25.607  1.00  0.00     0.274 C 
ATOM      7  N   UNL A   1      32.511  26.701  24.137  1.00  0.00    -0.315 N 
ATOM      8  C   UNL A   1      33.674  26.225  23.373  1.00  0.00     0.263 C 
ATOM      9  H   UNL A   1      31.733  26.044  24.062  1.00  0.00     0.349 HD
ATOM     10  C   UNL A   1      34.128  24.843  23.840  1.00  0.00     0.062 C 
ATOM     11  C   UNL A   1      33.400  25.403  26.156  1.00  0.00     0.076 C 
ATOM     12  C   UNL A   1      34.543  24.877  25.301  1.00  0.00     0.012 C 
BRANCH   7  13
ATOM     13  C   UNL A   1      31.975  27.980  23.533  1.00  0.00     0.271 C 
ATOM     14  C   UNL A   1      33.153  28.888  23.158  1.00  0.00     0.086 C 
BRANCH  13  15
ATOM     15  C   UNL A   1      30.920  27.792  22.401  1.00  0.00     0.278 C 
ATOM     16  O   UNL A   1      31.003  26.921  21.531  1.00  0.00    -0.268 OA
ATOM     17  N   UNL A   1      29.776  28.530  22.372  1.00  0.00    -0.344 N 
ATOM     18  H   UNL A   1      29.321  28.545  21.499  1.00  0.00     0.164 HD
BRANCH  17  19
ATOM     19  C   UNL A   1      29.116  29.295  23.404  1.00  0.00     0.191 C 
BRANCH  19  20
ATOM     20  C   UNL A   1      28.900  30.710  23.001  1.00  0.00     0.122 A 
ATOM     21  C   UNL A   1      29.037  31.899  23.690  1.00  0.00     0.047 A 
ATOM     22  O   UNL A   1      28.458  30.965  21.733  1.00  0.00    -0.467 OA
ATOM     23  C   UNL A   1      28.656  32.932  22.797  1.00  0.00     0.042 A 
ATOM     24  C   UNL A   1      28.314  32.311  21.620  1.00  0.00     0.195 A 
ENDBRANCH  19  20
ENDBRANCH  17  19
ENDBRANCH  13  15
ENDBRANCH   7  13
ENDBRANCH   3   6
ENDBRANCH   1   2
BRANCH   1  25
ATOM     25  C   UNL A   1      31.543  30.649  26.066  1.00  0.00     0.023 C 
BRANCH  25  26
ATOM     26  C   UNL A   1      31.431  31.945  26.871  1.00  0.00     0.023 C 
BRANCH  26  27
ATOM     27  C   UNL A   1      32.697  32.796  26.889  1.00  0.00     0.116 C 
BRANCH  27  28
ATOM     28  N   UNL A   1      32.518  34.045  27.611  1.00  0.00    -0.352 N 
ATOM     29  C   UNL A   1      33.182  34.513  28.713  1.00  0.00     0.251 C 
ATOM     30  H   UNL A   1      31.819  34.641  27.256  1.00  0.00     0.163 HD
ATOM     31  O   UNL A   1      32.778  35.517  29.296  1.00  0.00    -0.269 OA
BRANCH  29  32
ATOM     32  C   UNL A   1      34.369  33.797  29.221  1.00  0.00     0.039 A 
ATOM     33  C   UNL A   1      35.633  34.317  28.938  1.00  0.00     0.014 A 
ATOM     34  C   UNL A   1      34.243  32.623  29.971  1.00  0.00     0.014 A 
ATOM     35  C   UNL A   1      36.767  33.686  29.450  1.00  0.00     0.010 A 
ATOM     36  C   UNL A   1      35.369  32.044  30.550  1.00  0.00     0.010 A 
ATOM     37  C   UNL A   1      36.643  32.566  30.290  1.00  0.00    -0.014 A 
BRANCH  37  38
ATOM     38  C   UNL A   1      37.850  31.963  30.910  1.00  0.00     0.031 A 
ATOM     39  C   UNL A   1      38.287  32.358  32.292  1.00  0.00     0.074 A 
ATOM     40  C   UNL A   1      38.564  31.063  30.208  1.00  0.00     0.049 A 
ATOM     41  N   UNL A   1      39.273  31.886  33.012  1.00  0.00    -0.248 NA
ATOM     42  C   UNL A   1      37.539  33.444  32.942  1.00  0.00     0.031 C 
ATOM     43  C   UNL A   1      38.286  30.657  28.829  1.00  0.00     0.029 A 
ATOM     44  N   UNL A   1      39.664  30.321  30.556  1.00  0.00    -0.354 N 
ATOM     45  C   UNL A   1      39.263  32.615  34.193  1.00  0.00     0.074 A 
ATOM     46  C   UNL A   1      38.216  33.605  34.070  1.00  0.00     0.031 C 
ATOM     47  C   UNL A   1      39.161  29.708  28.465  1.00  0.00     0.029 A 
ATOM     48  C   UNL A   1      40.081  29.461  29.570  1.00  0.00     0.049 A 
ATOM     49  H   UNL A   1      40.112  30.399  31.429  1.00  0.00     0.167 HD
ATOM     50  C   UNL A   1      40.041  32.455  35.293  1.00  0.00     0.037 A 
ATOM     51  C   UNL A   1      41.086  28.566  29.562  1.00  0.00     0.037 A 
ATOM     52  C   UNL A   1      41.076  31.461  35.413  1.00  0.00     0.049 A 
ATOM     53  C   UNL A   1      41.917  28.391  30.802  1.00  0.00     0.074 A 
ATOM     54  C   UNL A   1      41.878  31.175  36.504  1.00  0.00     0.029 A 
ATOM     55  N   UNL A   1      41.462  30.595  34.398  1.00  0.00    -0.354 N 
ATOM     56  N   UNL A   1      41.836  29.019  31.951  1.00  0.00    -0.248 NA
ATOM     57  C   UNL A   1      42.969  27.366  30.751  1.00  0.00     0.031 C 
ATOM     58  C   UNL A   1      42.787  30.178  36.132  1.00  0.00     0.029 A 
ATOM     59  C   UNL A   1      42.508  29.793  34.831  1.00  0.00     0.049 A 
ATOM     60  H   UNL A   1      41.054  30.555  33.503  1.00  0.00     0.167 HD
ATOM     61  C   UNL A   1      42.805  28.451  32.766  1.00  0.00     0.074 A 
ATOM     62  C   UNL A   1      43.443  27.408  31.987  1.00  0.00     0.031 C 
ATOM     63  C   UNL A   1      43.139  28.763  34.043  1.00  0.00     0.037 A 
BRANCH  50  64
ATOM     64  C   UNL A   1      39.802  33.381  36.453  1.00  0.00     0.064 A 
ATOM     65  C   UNL A   1      40.487  34.599  36.581  1.00  0.00     0.173 A 
ATOM     66  C   UNL A   1      38.850  33.062  37.434  1.00  0.00     0.173 A 
ATOM     67  F   UNL A   1      41.415  34.950  35.678  1.00  0.00    -0.203 F 
ATOM     68  C   UNL A   1      40.253  35.446  37.662  1.00  0.00     0.198 A 
ATOM     69  C   UNL A   1      38.594  33.927  38.495  1.00  0.00     0.198 A 
ATOM     70  F   UNL A   1      38.161  31.913  37.361  1.00  0.00    -0.203 F 
ATOM     71  F   UNL A   1      40.961  36.577  37.790  1.00  0.00    -0.200 F 
ATOM     72  C   UNL A   1      39.302  35.113  38.613  1.00  0.00     0.200 A 
ATOM     73  F   UNL A   1      37.663  33.611  39.406  1.00  0.00    -0.200 F 
ATOM     74  F   UNL A   1      39.072  35.933  39.648  1.00  0.00    -0.200 F 
ENDBRANCH  50  64
BRANCH  51  75
ATOM     75  C   UNL A   1      41.330  27.739  28.351  1.00  0.00     0.064 A 
ATOM     76  C   UNL A   1      40.657  26.525  28.154  1.00  0.00     0.173 A 
ATOM     77  C   UNL A   1      42.239  28.147  27.363  1.00  0.00     0.173 A 
ATOM     78  F   UNL A   1      39.792  26.082  29.078  1.00  0.00    -0.203 F 
ATOM     79  C   UNL A   1      40.901  25.740  27.028  1.00  0.00     0.198 A 
ATOM     80  C   UNL A   1      42.457  27.379  26.222  1.00  0.00     0.198 A 
ATOM     81  F   UNL A   1      42.901  29.306  27.499  1.00  0.00    -0.203 F 
ATOM     82  F   UNL A   1      40.281  24.561  26.890  1.00  0.00    -0.200 F 
ATOM     83  C   UNL A   1      41.796  26.171  26.060  1.00  0.00     0.200 A 
ATOM     84  F   UNL A   1      43.308  27.808  25.281  1.00  0.00    -0.200 F 
ATOM     85  F   UNL A   1      42.025  25.420  24.975  1.00  0.00    -0.200 F 
ENDBRANCH  51  75
BRANCH  63  86
ATOM     86  C   UNL A   1      44.223  27.942  34.685  1.00  0.00     0.064 A 
ATOM     87  C   UNL A   1      43.944  26.742  35.357  1.00  0.00     0.173 A 
ATOM     88  C   UNL A   1      45.559  28.367  34.631  1.00  0.00     0.173 A 
ATOM     89  F   UNL A   1      42.681  26.297  35.449  1.00  0.00    -0.203 F 
ATOM     90  C   UNL A   1      44.955  26.025  35.993  1.00  0.00     0.198 A 
ATOM     91  C   UNL A   1      46.573  27.626  35.234  1.00  0.00     0.198 A 
ATOM     92  F   UNL A   1      45.886  29.500  33.993  1.00  0.00    -0.203 F 
ATOM     93  F   UNL A   1      44.653  24.923  36.693  1.00  0.00    -0.200 F 
ATOM     94  C   UNL A   1      46.268  26.465  35.927  1.00  0.00     0.200 A 
ATOM     95  F   UNL A   1      47.843  28.044  35.154  1.00  0.00    -0.200 F 
ATOM     96  F   UNL A   1      47.238  25.776  36.543  1.00  0.00    -0.200 F 
ENDBRANCH  63  86
ENDBRANCH  37  38
ENDBRANCH  29  32
ENDBRANCH  27  28
ENDBRANCH  26  27
ENDBRANCH  25  26
ENDBRANCH   1  25
TORSDOF 15
ENDMDL
MODEL 2
REMARK VINA RESULT:     -11.6      5.600     11.230
REMARK SMILES C[C@@H](C(=O)NCc1ccco1)[N@H+]1CCCC[C@@H]1C(=O)NCCCCNC(=O)c1ccc(-c2c3nc(c(-c4c(F)c(F)c(F)c(F)c4F)c4ccc([nH]4)c(-c4c(F)c(F)c(F)c(F)c4F)c4nc(c(-c5c(F)c(F)c(F)c(F)c5F)c5ccc2[nH]5)C=C4)C=C3)cc1
REMARK SMILES IDX 21 1 20 2 18 3 19 4 17 6 12 7 13 8 14 10 16 11 15 12 2 13
REMARK SMILES IDX 1 14 3 15 4 16 5 17 6 19 7 20 8 21 11 22 9 23 10 24 22 25
REMARK SMILES IDX 23 26 24 27 25 28 26 29 27 31 28 32 29 33 90 34 30 35 89 36
REMARK SMILES IDX 31 37 32 38 33 39 83 40 34 41 88 42 82 43 84 44 35 45 87 46
REMARK SMILES IDX 81 47 80 48 36 50 68 51 48 52 67 53 49 54 52 55 66 56 85 57
REMARK SMILES IDX 50 58 51 59 65 61 86 62 53 63 37 64 38 65 46 66 39 67 40 68
REMARK SMILES IDX 44 69 47 70 41 71 42 72 45 73 43 74 69 75 70 76 78 77 71 78
REMARK SMILES IDX 72 79 76 80 79 81 73 82 74 83 77 84 75 85 54 86 55 87 63 88
REMARK SMILES IDX 56 89 57 90 61 91 64 92 58 93 59 94 62 95 60 96
REMARK H PARENT 20 5 12 9 5 18 25 30 84 49 52 60
REMARK Flexibility Score: inf
ROOT
ATOM      1  C   UNL A   1      36.637  22.352  24.783  1.00  0.00     0.116 C 
ENDROOT
BRANCH   1   2
ATOM      2  N   UNL A   1      35.874  22.751  23.619  1.00  0.00    -0.351 N 
ATOM      3  C   UNL A   1      34.847  23.644  23.515  1.00  0.00     0.278 C 
ATOM      4  O   UNL A   1      34.352  23.801  22.396  1.00  0.00    -0.268 OA
ATOM      5  H   UNL A   1      36.135  22.314  22.776  1.00  0.00     0.163 HD
BRANCH   3   6
ATOM      6  C   UNL A   1      34.337  24.427  24.740  1.00  0.00     0.274 C 
ATOM      7  N   UNL A   1      33.031  23.894  25.247  1.00  0.00    -0.315 N 
ATOM      8  C   UNL A   1      32.515  24.723  26.347  1.00  0.00     0.263 C 
ATOM      9  H   UNL A   1      32.421  23.952  24.432  1.00  0.00     0.349 HD
ATOM     10  C   UNL A   1      32.362  26.185  25.928  1.00  0.00     0.062 C 
ATOM     11  C   UNL A   1      34.325  25.938  24.413  1.00  0.00     0.076 C 
ATOM     12  C   UNL A   1      33.704  26.772  25.523  1.00  0.00     0.012 C 
BRANCH   7  13
ATOM     13  C   UNL A   1      32.996  22.432  25.633  1.00  0.00     0.271 C 
ATOM     14  C   UNL A   1      32.527  22.310  27.088  1.00  0.00     0.086 C 
BRANCH  13  15
ATOM     15  C   UNL A   1      32.250  21.496  24.635  1.00  0.00     0.278 C 
ATOM     16  O   UNL A   1      31.769  21.885  23.567  1.00  0.00    -0.268 OA
ATOM     17  N   UNL A   1      32.179  20.153  24.845  1.00  0.00    -0.344 N 
ATOM     18  H   UNL A   1      31.473  19.696  24.333  1.00  0.00     0.164 HD
BRANCH  17  19
ATOM     19  C   UNL A   1      32.962  19.284  25.691  1.00  0.00     0.191 C 
BRANCH  19  20
ATOM     20  C   UNL A   1      33.331  18.017  25.004  1.00  0.00     0.122 A 
ATOM     21  C   UNL A   1      34.058  17.765  23.856  1.00  0.00     0.047 A 
ATOM     22  O   UNL A   1      32.886  16.837  25.530  1.00  0.00    -0.467 OA
ATOM     23  C   UNL A   1      34.051  16.360  23.672  1.00  0.00     0.042 A 
ATOM     24  C   UNL A   1      33.326  15.842  24.717  1.00  0.00     0.195 A 
ENDBRANCH  19  20
ENDBRANCH  17  19
ENDBRANCH  13  15
ENDBRANCH   7  13
ENDBRANCH   3   6
ENDBRANCH   1   2
BRANCH   1  25
ATOM     25  C   UNL A   1      36.354  20.893  25.132  1.00  0.00     0.023 C 
BRANCH  25  26
ATOM     26  C   UNL A   1      37.563  19.971  24.956  1.00  0.00     0.023 C 
BRANCH  26  27
ATOM     27  C   UNL A   1      38.846  20.474  25.609  1.00  0.00     0.116 C 
BRANCH  27  28
ATOM     28  N   UNL A   1      39.837  19.422  25.773  1.00  0.00    -0.352 N 
ATOM     29  C   UNL A   1      41.170  19.523  26.067  1.00  0.00     0.251 C 
ATOM     30  H   UNL A   1      39.500  18.504  25.656  1.00  0.00     0.163 HD
ATOM     31  O   UNL A   1      41.894  18.531  25.995  1.00  0.00    -0.269 OA
BRANCH  29  32
ATOM     32  C   UNL A   1      41.748  20.828  26.446  1.00  0.00     0.039 A 
ATOM     33  C   UNL A   1      41.969  21.774  25.445  1.00  0.00     0.014 A 
ATOM     34  C   UNL A   1      42.070  21.121  27.775  1.00  0.00     0.014 A 
ATOM     35  C   UNL A   1      42.466  23.033  25.784  1.00  0.00     0.010 A 
ATOM     36  C   UNL A   1      42.485  22.404  28.122  1.00  0.00     0.010 A 
ATOM     37  C   UNL A   1      42.694  23.371  27.129  1.00  0.00    -0.014 A 
BRANCH  37  38
ATOM     38  C   UNL A   1      43.126  24.744  27.489  1.00  0.00     0.031 A 
ATOM     39  C   UNL A   1      44.536  25.201  27.243  1.00  0.00     0.074 A 
ATOM     40  C   UNL A   1      42.237  25.579  28.062  1.00  0.00     0.049 A 
ATOM     41  N   UNL A   1      45.066  26.382  27.432  1.00  0.00    -0.248 NA
ATOM     42  C   UNL A   1      45.484  24.193  26.743  1.00  0.00     0.031 C 
ATOM     43  C   UNL A   1      40.863  25.227  28.423  1.00  0.00     0.029 A 
ATOM     44  N   UNL A   1      42.351  26.895  28.432  1.00  0.00    -0.354 N 
ATOM     45  C   UNL A   1      46.403  26.260  27.078  1.00  0.00     0.074 A 
ATOM     46  C   UNL A   1      46.621  24.874  26.724  1.00  0.00     0.031 C 
ATOM     47  C   UNL A   1      40.248  26.312  28.920  1.00  0.00     0.029 A 
ATOM     48  C   UNL A   1      41.192  27.424  28.942  1.00  0.00     0.049 A 
ATOM     49  H   UNL A   1      43.185  27.411  28.341  1.00  0.00     0.167 HD
ATOM     50  C   UNL A   1      47.357  27.222  27.028  1.00  0.00     0.037 A 
ATOM     51  C   UNL A   1      40.916  28.670  29.370  1.00  0.00     0.037 A 
ATOM     52  C   UNL A   1      47.132  28.602  27.374  1.00  0.00     0.049 A 
ATOM     53  C   UNL A   1      41.984  29.725  29.280  1.00  0.00     0.074 A 
ATOM     54  C   UNL A   1      48.011  29.667  27.299  1.00  0.00     0.029 A 
ATOM     55  N   UNL A   1      45.938  29.107  27.874  1.00  0.00    -0.354 N 
ATOM     56  N   UNL A   1      43.219  29.621  28.851  1.00  0.00    -0.248 NA
ATOM     57  C   UNL A   1      41.612  31.077  29.717  1.00  0.00     0.031 C 
ATOM     58  C   UNL A   1      47.372  30.803  27.807  1.00  0.00     0.029 A 
ATOM     59  C   UNL A   1      46.069  30.463  28.135  1.00  0.00     0.049 A 
ATOM     60  H   UNL A   1      45.119  28.581  28.021  1.00  0.00     0.167 HD
ATOM     61  C   UNL A   1      43.763  30.895  28.941  1.00  0.00     0.074 A 
ATOM     62  C   UNL A   1      42.713  31.760  29.441  1.00  0.00     0.031 C 
ATOM     63  C   UNL A   1      45.018  31.312  28.640  1.00  0.00     0.037 A 
BRANCH  50  64
ATOM     64  C   UNL A   1      48.735  26.813  26.586  1.00  0.00     0.064 A 
ATOM     65  C   UNL A   1      49.657  26.240  27.475  1.00  0.00     0.173 A 
ATOM     66  C   UNL A   1      49.127  26.965  25.247  1.00  0.00     0.173 A 
ATOM     67  F   UNL A   1      49.340  26.081  28.768  1.00  0.00    -0.203 F 
ATOM     68  C   UNL A   1      50.930  25.866  27.049  1.00  0.00     0.198 A 
ATOM     69  C   UNL A   1      50.387  26.557  24.817  1.00  0.00     0.198 A 
ATOM     70  F   UNL A   1      48.284  27.503  24.351  1.00  0.00    -0.203 F 
ATOM     71  F   UNL A   1      51.811  25.372  27.929  1.00  0.00    -0.200 F 
ATOM     72  C   UNL A   1      51.290  26.017  25.719  1.00  0.00     0.200 A 
ATOM     73  F   UNL A   1      50.729  26.691  23.528  1.00  0.00    -0.200 F 
ATOM     74  F   UNL A   1      52.511  25.649  25.309  1.00  0.00    -0.200 F 
ENDBRANCH  50  64
BRANCH  51  75
ATOM     75  C   UNL A   1      39.558  28.994  29.880  1.00  0.00     0.064 A 
ATOM     76  C   UNL A   1      38.570  29.515  29.034  1.00  0.00     0.173 A 
ATOM     77  C   UNL A   1      39.219  28.785  31.225  1.00  0.00     0.173 A 
ATOM     78  F   UNL A   1      38.850  29.750  27.743  1.00  0.00    -0.203 F 
ATOM     79  C   UNL A   1      37.303  29.837  29.516  1.00  0.00     0.198 A 
ATOM     80  C   UNL A   1      37.942  29.075  31.700  1.00  0.00     0.198 A 
ATOM     81  F   UNL A   1      40.125  28.278  32.076  1.00  0.00    -0.203 F 
ATOM     82  F   UNL A   1      36.394  30.380  28.696  1.00  0.00    -0.200 F 
ATOM     83  C   UNL A   1      36.988  29.611  30.848  1.00  0.00     0.200 A 
ATOM     84  F   UNL A   1      37.636  28.838  32.983  1.00  0.00    -0.200 F 
ATOM     85  F   UNL A   1      35.768  29.914  31.311  1.00  0.00    -0.200 F 
ENDBRANCH  51  75
BRANCH  63  86
ATOM     86  C   UNL A   1      45.310  32.777  28.813  1.00  0.00     0.064 A 
ATOM     87  C   UNL A   1      45.057  33.708  27.794  1.00  0.00     0.173 A 
ATOM     88  C   UNL A   1      45.855  33.253  30.015  1.00  0.00     0.173 A 
ATOM     89  F   UNL A   1      44.549  33.303  26.619  1.00  0.00    -0.203 F 
ATOM     90  C   UNL A   1      45.387  35.052  27.953  1.00  0.00     0.198 A 
ATOM     91  C   UNL A   1      46.146  34.605  30.185  1.00  0.00     0.198 A 
ATOM     92  F   UNL A   1      46.106  32.410  31.027  1.00  0.00    -0.203 F 
ATOM     93  F   UNL A   1      45.207  35.909  26.938  1.00  0.00    -0.200 F 
ATOM     94  C   UNL A   1      45.926  35.500  29.150  1.00  0.00     0.200 A 
ATOM     95  F   UNL A   1      46.650  35.037  31.348  1.00  0.00    -0.200 F 
ATOM     96  F   UNL A   1      46.246  36.792  29.299  1.00  0.00    -0.200 F 
ENDBRANCH  63  86
ENDBRANCH  37  38
ENDBRANCH  29  32
ENDBRANCH  27  28
ENDBRANCH  26  27
ENDBRANCH  25  26
ENDBRANCH   1  25
TORSDOF 15
ENDMDL
MODEL 3
REMARK VINA RESULT:     -11.5      5.728      9.743
REMARK SMILES C[C@@H](C(=O)NCc1ccco1)[N@H+]1CCCC[C@@H]1C(=O)NCCCCNC(=O)c1ccc(-c2c3nc(c(-c4c(F)c(F)c(F)c(F)c4F)c4ccc([nH]4)c(-c4c(F)c(F)c(F)c(F)c4F)c4nc(c(-c5c(F)c(F)c(F)c(F)c5F)c5ccc2[nH]5)C=C4)C=C3)cc1
REMARK SMILES IDX 21 1 20 2 18 3 19 4 17 6 12 7 13 8 14 10 16 11 15 12 2 13
REMARK SMILES IDX 1 14 3 15 4 16 5 17 6 19 7 20 8 21 11 22 9 23 10 24 22 25
REMARK SMILES IDX 23 26 24 27 25 28 26 29 27 31 28 32 29 33 90 34 30 35 89 36
REMARK SMILES IDX 31 37 32 38 33 39 83 40 34 41 88 42 82 43 84 44 35 45 87 46
REMARK SMILES IDX 81 47 80 48 36 50 68 51 48 52 67 53 49 54 52 55 66 56 85 57
REMARK SMILES IDX 50 58 51 59 65 61 86 62 53 63 37 64 38 65 46 66 39 67 40 68
REMARK SMILES IDX 44 69 47 70 41 71 42 72 45 73 43 74 69 75 70 76 78 77 71 78
REMARK SMILES IDX 72 79 76 80 79 81 73 82 74 83 77 84 75 85 54 86 55 87 63 88
REMARK SMILES IDX 56 89 57 90 61 91 64 92 58 93 59 94 62 95 60 96
REMARK H PARENT 20 5 12 9 5 18 25 30 84 49 52 60
REMARK Flexibility Score: inf
ROOT
ATOM      1  C   UNL A   1      37.617  21.744  25.380  1.00  0.00     0.116 C 
ENDROOT
BRANCH   1   2
ATOM      2  N   UNL A   1      36.637  22.097  26.386  1.00  0.00    -0.351 N 
ATOM      3  C   UNL A   1      35.274  22.079  26.318  1.00  0.00     0.278 C 
ATOM      4  O   UNL A   1      34.658  22.440  27.325  1.00  0.00    -0.268 OA
ATOM      5  H   UNL A   1      37.009  22.392  27.249  1.00  0.00     0.163 HD
BRANCH   3   6
ATOM      6  C   UNL A   1      34.539  21.617  25.045  1.00  0.00     0.274 C 
ATOM      7  N   UNL A   1      33.938  22.767  24.294  1.00  0.00    -0.315 N 
ATOM      8  C   UNL A   1      33.154  22.292  23.143  1.00  0.00     0.263 C 
ATOM      9  H   UNL A   1      33.334  23.211  24.986  1.00  0.00     0.349 HD
ATOM     10  C   UNL A   1      32.063  21.311  23.571  1.00  0.00     0.062 C 
ATOM     11  C   UNL A   1      33.536  20.499  25.409  1.00  0.00     0.076 C 
ATOM     12  C   UNL A   1      32.670  20.084  24.229  1.00  0.00     0.012 C 
BRANCH   7  13
ATOM     13  C   UNL A   1      34.882  23.869  23.865  1.00  0.00     0.271 C 
ATOM     14  C   UNL A   1      35.907  23.294  22.880  1.00  0.00     0.086 C 
BRANCH  13  15
ATOM     15  C   UNL A   1      34.197  25.185  23.387  1.00  0.00     0.278 C 
ATOM     16  O   UNL A   1      33.945  25.431  22.205  1.00  0.00    -0.268 OA
ATOM     17  N   UNL A   1      33.739  26.106  24.279  1.00  0.00    -0.344 N 
ATOM     18  H   UNL A   1      33.584  27.001  23.899  1.00  0.00     0.164 HD
BRANCH  17  19
ATOM     19  C   UNL A   1      33.441  25.994  25.687  1.00  0.00     0.191 C 
BRANCH  19  20
ATOM     20  C   UNL A   1      32.096  25.406  25.930  1.00  0.00     0.122 A 
ATOM     21  C   UNL A   1      30.837  25.971  25.988  1.00  0.00     0.047 A 
ATOM     22  O   UNL A   1      32.007  24.065  26.176  1.00  0.00    -0.467 OA
ATOM     23  C   UNL A   1      29.934  24.920  26.288  1.00  0.00     0.042 A 
ATOM     24  C   UNL A   1      30.697  23.782  26.391  1.00  0.00     0.195 A 
ENDBRANCH  19  20
ENDBRANCH  17  19
ENDBRANCH  13  15
ENDBRANCH   7  13
ENDBRANCH   3   6
ENDBRANCH   1   2
BRANCH   1  25
ATOM     25  C   UNL A   1      37.327  20.355  24.817  1.00  0.00     0.023 C 
BRANCH  25  26
ATOM     26  C   UNL A   1      38.337  19.290  25.255  1.00  0.00     0.023 C 
BRANCH  26  27
ATOM     27  C   UNL A   1      39.586  19.840  25.937  1.00  0.00     0.116 C 
BRANCH  27  28
ATOM     28  N   UNL A   1      40.674  18.876  25.966  1.00  0.00    -0.352 N 
ATOM     29  C   UNL A   1      42.023  19.092  26.060  1.00  0.00     0.251 C 
ATOM     30  H   UNL A   1      40.402  17.932  25.913  1.00  0.00     0.163 HD
ATOM     31  O   UNL A   1      42.808  18.161  25.895  1.00  0.00    -0.269 OA
BRANCH  29  32
ATOM     32  C   UNL A   1      42.538  20.449  26.331  1.00  0.00     0.039 A 
ATOM     33  C   UNL A   1      43.020  21.205  25.262  1.00  0.00     0.014 A 
ATOM     34  C   UNL A   1      42.548  20.976  27.627  1.00  0.00     0.014 A 
ATOM     35  C   UNL A   1      43.465  22.508  25.486  1.00  0.00     0.010 A 
ATOM     36  C   UNL A   1      42.912  22.303  27.834  1.00  0.00     0.010 A 
ATOM     37  C   UNL A   1      43.381  23.081  26.767  1.00  0.00    -0.014 A 
BRANCH  37  38
ATOM     38  C   UNL A   1      43.762  24.501  26.975  1.00  0.00     0.031 A 
ATOM     39  C   UNL A   1      42.753  25.512  27.437  1.00  0.00     0.074 A 
ATOM     40  C   UNL A   1      45.030  24.879  26.724  1.00  0.00     0.049 A 
ATOM     41  N   UNL A   1      42.926  26.775  27.734  1.00  0.00    -0.248 NA
ATOM     42  C   UNL A   1      41.360  25.056  27.557  1.00  0.00     0.031 C 
ATOM     43  C   UNL A   1      46.081  24.007  26.196  1.00  0.00     0.029 A 
ATOM     44  N   UNL A   1      45.655  26.090  26.886  1.00  0.00    -0.354 N 
ATOM     45  C   UNL A   1      41.670  27.261  28.072  1.00  0.00     0.074 A 
ATOM     46  C   UNL A   1      40.733  26.176  27.883  1.00  0.00     0.031 C 
ATOM     47  C   UNL A   1      47.229  24.697  26.122  1.00  0.00     0.029 A 
ATOM     48  C   UNL A   1      46.989  26.066  26.565  1.00  0.00     0.049 A 
ATOM     49  H   UNL A   1      45.190  26.898  27.202  1.00  0.00     0.167 HD
ATOM     50  C   UNL A   1      41.334  28.494  28.525  1.00  0.00     0.037 A 
ATOM     51  C   UNL A   1      47.919  27.038  26.631  1.00  0.00     0.037 A 
ATOM     52  C   UNL A   1      42.275  29.568  28.719  1.00  0.00     0.049 A 
ATOM     53  C   UNL A   1      47.525  28.389  27.160  1.00  0.00     0.074 A 
ATOM     54  C   UNL A   1      42.049  30.833  29.232  1.00  0.00     0.029 A 
ATOM     55  N   UNL A   1      43.624  29.505  28.397  1.00  0.00    -0.354 N 
ATOM     56  N   UNL A   1      46.353  28.810  27.571  1.00  0.00    -0.248 NA
ATOM     57  C   UNL A   1      48.592  29.395  27.253  1.00  0.00     0.031 C 
ATOM     58  C   UNL A   1      43.246  31.555  29.166  1.00  0.00     0.029 A 
ATOM     59  C   UNL A   1      44.236  30.718  28.677  1.00  0.00     0.049 A 
ATOM     60  H   UNL A   1      44.080  28.715  28.026  1.00  0.00     0.167 HD
ATOM     61  C   UNL A   1      46.545  30.118  27.995  1.00  0.00     0.074 A 
ATOM     62  C   UNL A   1      47.953  30.410  27.816  1.00  0.00     0.031 C 
ATOM     63  C   UNL A   1      45.638  30.999  28.486  1.00  0.00     0.037 A 
BRANCH  50  64
ATOM     64  C   UNL A   1      39.886  28.749  28.838  1.00  0.00     0.064 A 
ATOM     65  C   UNL A   1      39.361  28.551  30.125  1.00  0.00     0.173 A 
ATOM     66  C   UNL A   1      39.018  29.232  27.847  1.00  0.00     0.173 A 
ATOM     67  F   UNL A   1      40.143  28.080  31.108  1.00  0.00    -0.203 F 
ATOM     68  C   UNL A   1      38.017  28.793  30.398  1.00  0.00     0.198 A 
ATOM     69  C   UNL A   1      37.683  29.507  28.133  1.00  0.00     0.198 A 
ATOM     70  F   UNL A   1      39.465  29.446  26.600  1.00  0.00    -0.203 F 
ATOM     71  F   UNL A   1      37.528  28.542  31.621  1.00  0.00    -0.200 F 
ATOM     72  C   UNL A   1      37.182  29.278  29.405  1.00  0.00     0.200 A 
ATOM     73  F   UNL A   1      36.880  29.990  27.175  1.00  0.00    -0.200 F 
ATOM     74  F   UNL A   1      35.891  29.519  29.672  1.00  0.00    -0.200 F 
ENDBRANCH  50  64
BRANCH  51  75
ATOM     75  C   UNL A   1      49.319  26.751  26.222  1.00  0.00     0.064 A 
ATOM     76  C   UNL A   1      50.258  26.267  27.144  1.00  0.00     0.173 A 
ATOM     77  C   UNL A   1      49.746  26.950  24.901  1.00  0.00     0.173 A 
ATOM     78  F   UNL A   1      49.904  26.076  28.423  1.00  0.00    -0.203 F 
ATOM     79  C   UNL A   1      51.576  26.016  26.766  1.00  0.00     0.198 A 
ATOM     80  C   UNL A   1      51.054  26.668  24.516  1.00  0.00     0.198 A 
ATOM     81  F   UNL A   1      48.884  27.402  23.978  1.00  0.00    -0.203 F 
ATOM     82  F   UNL A   1      52.465  25.602  27.678  1.00  0.00    -0.200 F 
ATOM     83  C   UNL A   1      51.972  26.211  25.451  1.00  0.00     0.200 A 
ATOM     84  F   UNL A   1      51.427  26.840  23.241  1.00  0.00    -0.200 F 
ATOM     85  F   UNL A   1      53.237  25.964  25.086  1.00  0.00    -0.200 F 
ENDBRANCH  51  75
BRANCH  63  86
ATOM     86  C   UNL A   1      46.153  32.351  28.895  1.00  0.00     0.064 A 
ATOM     87  C   UNL A   1      46.621  32.604  30.194  1.00  0.00     0.173 A 
ATOM     88  C   UNL A   1      46.173  33.410  27.974  1.00  0.00     0.173 A 
ATOM     89  F   UNL A   1      46.612  31.630  31.117  1.00  0.00    -0.203 F 
ATOM     90  C   UNL A   1      47.042  33.878  30.568  1.00  0.00     0.198 A 
ATOM     91  C   UNL A   1      46.632  34.672  28.342  1.00  0.00     0.198 A 
ATOM     92  F   UNL A   1      45.748  33.222  26.716  1.00  0.00    -0.203 F 
ATOM     93  F   UNL A   1      47.412  34.113  31.835  1.00  0.00    -0.200 F 
ATOM     94  C   UNL A   1      47.051  34.909  29.642  1.00  0.00     0.200 A 
ATOM     95  F   UNL A   1      46.657  35.662  27.439  1.00  0.00    -0.200 F 
ATOM     96  F   UNL A   1      47.452  36.134  30.005  1.00  0.00    -0.200 F 
ENDBRANCH  63  86
ENDBRANCH  37  38
ENDBRANCH  29  32
ENDBRANCH  27  28
ENDBRANCH  26  27
ENDBRANCH  25  26
ENDBRANCH   1  25
TORSDOF 15
ENDMDL
