MODEL 1
REMARK VINA RESULT:     -12.1      0.000      0.000
REMARK SMILES O=C(NCCCCNC(=O)c1cc(S[C@H]2CCOC2=O)cs1)c1ccc(-c2c3nc(c(-c4c(F)c(F)c(F)c(F)c4F)c4ccc([nH]4)c(-c4c(F)c(F)c(F)c(F)c4F)c4nc(c(-c5c(F)c(F)c(F)c(F)c5F)c5ccc2[nH]5)C=C4)C=C3)cc1
REMARK SMILES IDX 5 1 4 2 3 3 1 4 2 5 23 7 24 8 85 9 25 10 84 11 26 12 27 13
REMARK SMILES IDX 28 14 78 15 29 16 83 17 77 18 79 19 30 20 82 21 76 22 75 23
REMARK SMILES IDX 31 25 63 26 43 27 62 28 44 29 47 30 61 31 80 32 45 33 46 34
REMARK SMILES IDX 60 36 81 37 48 38 32 39 33 40 41 41 34 42 35 43 39 44 42 45
REMARK SMILES IDX 36 46 37 47 40 48 38 49 64 50 65 51 73 52 66 53 67 54 71 55
REMARK SMILES IDX 74 56 68 57 69 58 72 59 70 60 49 61 50 62 58 63 51 64 52 65
REMARK SMILES IDX 56 66 59 67 53 68 54 69 57 70 55 71 6 72 7 73 8 74 9 75
REMARK SMILES IDX 10 77 11 78 12 79 22 80 13 81 21 82 14 83 15 84 16 85 19 86
REMARK SMILES IDX 17 87 18 88 20 89
REMARK H PARENT 3 6 79 24 47 35 8 76
REMARK Flexibility Score: inf
ROOT
ATOM      1  C   UNL A   1      31.341  32.254  26.915  1.00  0.00     0.023 C 
ENDROOT
BRANCH   1   2
ATOM      2  C   UNL A   1      32.622  33.007  27.244  1.00  0.00     0.116 C 
BRANCH   2   3
ATOM      3  N   UNL A   1      32.386  34.374  27.688  1.00  0.00    -0.352 N 
ATOM      4  O   UNL A   1      32.583  36.185  29.021  1.00  0.00    -0.269 OA
ATOM      5  C   UNL A   1      32.999  35.077  28.699  1.00  0.00     0.251 C 
ATOM      6  H   UNL A   1      31.688  34.864  27.195  1.00  0.00     0.163 HD
BRANCH   5   7
ATOM      7  C   UNL A   1      34.142  34.474  29.416  1.00  0.00     0.039 A 
ATOM      8  C   UNL A   1      35.434  34.585  28.903  1.00  0.00     0.014 A 
ATOM      9  C   UNL A   1      33.913  33.765  30.598  1.00  0.00     0.014 A 
ATOM     10  C   UNL A   1      36.465  33.847  29.470  1.00  0.00     0.010 A 
ATOM     11  C   UNL A   1      34.974  33.110  31.229  1.00  0.00     0.010 A 
ATOM     12  C   UNL A   1      36.252  33.115  30.650  1.00  0.00    -0.014 A 
BRANCH  12  13
ATOM     13  C   UNL A   1      37.401  32.424  31.288  1.00  0.00     0.031 A 
ATOM     14  C   UNL A   1      38.152  31.332  30.582  1.00  0.00     0.074 A 
ATOM     15  C   UNL A   1      37.779  32.816  32.520  1.00  0.00     0.049 A 
ATOM     16  N   UNL A   1      39.185  30.639  30.996  1.00  0.00    -0.248 NA
ATOM     17  C   UNL A   1      37.680  30.958  29.240  1.00  0.00     0.031 C 
ATOM     18  C   UNL A   1      37.121  33.862  33.307  1.00  0.00     0.029 A 
ATOM     19  N   UNL A   1      38.811  32.401  33.320  1.00  0.00    -0.354 N 
ATOM     20  C   UNL A   1      39.476  29.741  29.978  1.00  0.00     0.074 A 
ATOM     21  C   UNL A   1      38.489  29.951  28.939  1.00  0.00     0.031 C 
ATOM     22  C   UNL A   1      37.794  34.042  34.451  1.00  0.00     0.029 A 
ATOM     23  C   UNL A   1      38.882  33.074  34.514  1.00  0.00     0.049 A 
ATOM     24  H   UNL A   1      39.441  31.689  33.063  1.00  0.00     0.167 HD
ATOM     25  C   UNL A   1      40.478  28.829  29.917  1.00  0.00     0.037 A 
ATOM     26  C   UNL A   1      39.717  32.919  35.557  1.00  0.00     0.037 A 
ATOM     27  C   UNL A   1      41.457  28.630  30.958  1.00  0.00     0.049 A 
ATOM     28  C   UNL A   1      40.786  31.869  35.481  1.00  0.00     0.074 A 
ATOM     29  C   UNL A   1      42.534  27.760  30.975  1.00  0.00     0.029 A 
ATOM     30  N   UNL A   1      41.470  29.301  32.172  1.00  0.00    -0.354 N 
ATOM     31  N   UNL A   1      41.077  31.053  34.498  1.00  0.00    -0.248 NA
ATOM     32  C   UNL A   1      41.643  31.717  36.665  1.00  0.00     0.031 C 
ATOM     33  C   UNL A   1      43.157  27.857  32.225  1.00  0.00     0.029 A 
ATOM     34  C   UNL A   1      42.514  28.839  32.961  1.00  0.00     0.049 A 
ATOM     35  H   UNL A   1      40.831  30.002  32.437  1.00  0.00     0.167 HD
ATOM     36  C   UNL A   1      42.163  30.307  34.932  1.00  0.00     0.074 A 
ATOM     37  C   UNL A   1      42.491  30.782  36.261  1.00  0.00     0.031 C 
ATOM     38  C   UNL A   1      42.828  29.318  34.285  1.00  0.00     0.037 A 
BRANCH  25  39
ATOM     39  C   UNL A   1      40.551  27.954  28.695  1.00  0.00     0.064 A 
ATOM     40  C   UNL A   1      39.873  26.728  28.616  1.00  0.00     0.173 A 
ATOM     41  C   UNL A   1      41.290  28.363  27.572  1.00  0.00     0.173 A 
ATOM     42  F   UNL A   1      39.158  26.283  29.660  1.00  0.00    -0.203 F 
ATOM     43  C   UNL A   1      39.964  25.928  27.478  1.00  0.00     0.198 A 
ATOM     44  C   UNL A   1      41.350  27.577  26.424  1.00  0.00     0.198 A 
ATOM     45  F   UNL A   1      41.950  29.531  27.586  1.00  0.00    -0.203 F 
ATOM     46  F   UNL A   1      39.356  24.733  27.452  1.00  0.00    -0.200 F 
ATOM     47  C   UNL A   1      40.696  26.356  26.382  1.00  0.00     0.200 A 
ATOM     48  F   UNL A   1      42.045  28.001  25.359  1.00  0.00    -0.200 F 
ATOM     49  F   UNL A   1      40.782  25.586  25.288  1.00  0.00    -0.200 F 
ENDBRANCH  25  39
BRANCH  26  50
ATOM     50  C   UNL A   1      39.561  33.783  36.755  1.00  0.00     0.064 A 
ATOM     51  C   UNL A   1      40.165  35.046  36.815  1.00  0.00     0.173 A 
ATOM     52  C   UNL A   1      38.785  33.377  37.851  1.00  0.00     0.173 A 
ATOM     53  F   UNL A   1      40.929  35.472  35.799  1.00  0.00    -0.203 F 
ATOM     54  C   UNL A   1      40.007  35.864  37.931  1.00  0.00     0.198 A 
ATOM     55  C   UNL A   1      38.601  34.209  38.951  1.00  0.00     0.198 A 
ATOM     56  F   UNL A   1      38.179  32.180  37.838  1.00  0.00    -0.203 F 
ATOM     57  F   UNL A   1      40.626  37.052  37.980  1.00  0.00    -0.200 F 
ATOM     58  C   UNL A   1      39.219  35.449  38.994  1.00  0.00     0.200 A 
ATOM     59  F   UNL A   1      37.820  33.813  39.965  1.00  0.00    -0.200 F 
ATOM     60  F   UNL A   1      39.056  36.243  40.061  1.00  0.00    -0.200 F 
ENDBRANCH  26  50
BRANCH  38  61
ATOM     61  C   UNL A   1      44.002  28.706  34.995  1.00  0.00     0.064 A 
ATOM     62  C   UNL A   1      43.867  27.569  35.806  1.00  0.00     0.173 A 
ATOM     63  C   UNL A   1      45.286  29.253  34.842  1.00  0.00     0.173 A 
ATOM     64  F   UNL A   1      42.660  27.018  36.001  1.00  0.00    -0.203 F 
ATOM     65  C   UNL A   1      44.968  27.022  36.461  1.00  0.00     0.198 A 
ATOM     66  C   UNL A   1      46.389  28.682  35.469  1.00  0.00     0.198 A 
ATOM     67  F   UNL A   1      45.473  30.338  34.074  1.00  0.00    -0.203 F 
ATOM     68  F   UNL A   1      44.806  25.971  37.276  1.00  0.00    -0.200 F 
ATOM     69  C   UNL A   1      46.228  27.573  36.285  1.00  0.00     0.200 A 
ATOM     70  F   UNL A   1      47.609  29.208  35.286  1.00  0.00    -0.200 F 
ATOM     71  F   UNL A   1      47.288  27.041  36.911  1.00  0.00    -0.200 F 
ENDBRANCH  38  61
ENDBRANCH  12  13
ENDBRANCH   5   7
ENDBRANCH   2   3
ENDBRANCH   1   2
BRANCH   1  72
ATOM     72  C   UNL A   1      31.498  31.137  25.892  1.00  0.00     0.023 C 
BRANCH  72  73
ATOM     73  C   UNL A   1      32.345  29.957  26.355  1.00  0.00     0.116 C 
BRANCH  73  74
ATOM     74  N   UNL A   1      33.365  29.579  25.392  1.00  0.00    -0.351 N 
ATOM     75  C   UNL A   1      33.228  28.795  24.264  1.00  0.00     0.261 C 
ATOM     76  H   UNL A   1      34.270  29.927  25.566  1.00  0.00     0.163 HD
ATOM     77  O   UNL A   1      34.249  28.451  23.670  1.00  0.00    -0.268 OA
BRANCH  75  78
ATOM     78  C   UNL A   1      31.886  28.435  23.864  1.00  0.00     0.093 A 
ATOM     79  C   UNL A   1      31.009  29.153  23.071  1.00  0.00     0.040 A 
ATOM     80  S   UNL A   1      31.192  26.975  24.406  1.00  0.00    -0.137 S 
ATOM     81  C   UNL A   1      29.693  28.619  23.098  1.00  0.00     0.020 A 
ATOM     82  C   UNL A   1      29.666  27.405  23.754  1.00  0.00     0.080 A 
BRANCH  81  83
ATOM     83  S   UNL A   1      28.238  29.331  22.413  1.00  0.00    -0.110 SA
BRANCH  83  84
ATOM     84  C   UNL A   1      28.690  30.916  21.664  1.00  0.00     0.165 C 
ATOM     85  C   UNL A   1      27.885  31.331  20.451  1.00  0.00     0.068 C 
ATOM     86  C   UNL A   1      28.563  32.086  22.603  1.00  0.00     0.319 C 
ATOM     87  C   UNL A   1      27.863  32.838  20.556  1.00  0.00     0.234 C 
ATOM     88  O   UNL A   1      28.020  33.152  21.938  1.00  0.00    -0.465 OA
ATOM     89  O   UNL A   1      28.897  32.130  23.773  1.00  0.00    -0.251 OA
ENDBRANCH  83  84
ENDBRANCH  81  83
ENDBRANCH  75  78
ENDBRANCH  73  74
ENDBRANCH  72  73
ENDBRANCH   1  72
TORSDOF 13
ENDMDL
MODEL 2
REMARK VINA RESULT:     -12.0      0.708      7.624
REMARK SMILES O=C(NCCCCNC(=O)c1cc(S[C@H]2CCOC2=O)cs1)c1ccc(-c2c3nc(c(-c4c(F)c(F)c(F)c(F)c4F)c4ccc([nH]4)c(-c4c(F)c(F)c(F)c(F)c4F)c4nc(c(-c5c(F)c(F)c(F)c(F)c5F)c5ccc2[nH]5)C=C4)C=C3)cc1
REMARK SMILES IDX 5 1 4 2 3 3 1 4 2 5 23 7 24 8 85 9 25 10 84 11 26 12 27 13
REMARK SMILES IDX 28 14 78 15 29 16 83 17 77 18 79 19 30 20 82 21 76 22 75 23
REMARK SMILES IDX 31 25 63 26 43 27 62 28 44 29 47 30 61 31 80 32 45 33 46 34
REMARK SMILES IDX 60 36 81 37 48 38 32 39 33 40 41 41 34 42 35 43 39 44 42 45
REMARK SMILES IDX 36 46 37 47 40 48 38 49 64 50 65 51 73 52 66 53 67 54 71 55
REMARK SMILES IDX 74 56 68 57 69 58 72 59 70 60 49 61 50 62 58 63 51 64 52 65
REMARK SMILES IDX 56 66 59 67 53 68 54 69 57 70 55 71 6 72 7 73 8 74 9 75
REMARK SMILES IDX 10 77 11 78 12 79 22 80 13 81 21 82 14 83 15 84 16 85 19 86
REMARK SMILES IDX 17 87 18 88 20 89
REMARK H PARENT 3 6 79 24 47 35 8 76
REMARK Flexibility Score: inf
ROOT
ATOM      1  C   UNL A   1      31.352  31.902  26.849  1.00  0.00     0.023 C 
ENDROOT
BRANCH   1   2
ATOM      2  C   UNL A   1      32.657  32.627  27.145  1.00  0.00     0.116 C 
BRANCH   2   3
ATOM      3  N   UNL A   1      32.464  34.018  27.533  1.00  0.00    -0.352 N 
ATOM      4  O   UNL A   1      32.739  35.882  28.776  1.00  0.00    -0.269 OA
ATOM      5  C   UNL A   1      33.121  34.751  28.494  1.00  0.00     0.251 C 
ATOM      6  H   UNL A   1      31.765  34.502  27.036  1.00  0.00     0.163 HD
BRANCH   5   7
ATOM      7  C   UNL A   1      34.269  34.154  29.207  1.00  0.00     0.039 A 
ATOM      8  C   UNL A   1      35.572  34.541  28.895  1.00  0.00     0.014 A 
ATOM      9  C   UNL A   1      34.039  33.175  30.178  1.00  0.00     0.014 A 
ATOM     10  C   UNL A   1      36.645  33.832  29.420  1.00  0.00     0.010 A 
ATOM     11  C   UNL A   1      35.123  32.537  30.786  1.00  0.00     0.010 A 
ATOM     12  C   UNL A   1      36.435  32.833  30.386  1.00  0.00    -0.014 A 
BRANCH  12  13
ATOM     13  C   UNL A   1      37.609  32.169  31.006  1.00  0.00     0.031 A 
ATOM     14  C   UNL A   1      38.061  32.511  32.397  1.00  0.00     0.074 A 
ATOM     15  C   UNL A   1      38.257  31.224  30.298  1.00  0.00     0.049 A 
ATOM     16  N   UNL A   1      39.058  32.013  33.087  1.00  0.00    -0.248 NA
ATOM     17  C   UNL A   1      37.305  33.554  33.106  1.00  0.00     0.031 C 
ATOM     18  C   UNL A   1      37.912  30.812  28.935  1.00  0.00     0.029 A 
ATOM     19  N   UNL A   1      39.322  30.426  30.626  1.00  0.00    -0.354 N 
ATOM     20  C   UNL A   1      39.060  32.690  34.300  1.00  0.00     0.074 A 
ATOM     21  C   UNL A   1      37.986  33.659  34.239  1.00  0.00     0.031 C 
ATOM     22  C   UNL A   1      38.715  29.807  28.563  1.00  0.00     0.029 A 
ATOM     23  C   UNL A   1      39.678  29.554  29.628  1.00  0.00     0.049 A 
ATOM     24  H   UNL A   1      39.787  30.474  31.493  1.00  0.00     0.167 HD
ATOM     25  C   UNL A   1      39.880  32.512  35.364  1.00  0.00     0.037 A 
ATOM     26  C   UNL A   1      40.683  28.662  29.563  1.00  0.00     0.037 A 
ATOM     27  C   UNL A   1      40.946  31.541  35.413  1.00  0.00     0.049 A 
ATOM     28  C   UNL A   1      41.605  28.521  30.738  1.00  0.00     0.074 A 
ATOM     29  C   UNL A   1      41.808  31.257  36.459  1.00  0.00     0.029 A 
ATOM     30  N   UNL A   1      41.306  30.705  34.365  1.00  0.00    -0.354 N 
ATOM     31  N   UNL A   1      41.573  29.137  31.895  1.00  0.00    -0.248 NA
ATOM     32  C   UNL A   1      42.707  27.561  30.597  1.00  0.00     0.031 C 
ATOM     33  C   UNL A   1      42.729  30.297  36.021  1.00  0.00     0.029 A 
ATOM     34  C   UNL A   1      42.398  29.931  34.726  1.00  0.00     0.049 A 
ATOM     35  H   UNL A   1      40.852  30.668  33.492  1.00  0.00     0.167 HD
ATOM     36  C   UNL A   1      42.633  28.625  32.629  1.00  0.00     0.074 A 
ATOM     37  C   UNL A   1      43.277  27.632  31.792  1.00  0.00     0.031 C 
ATOM     38  C   UNL A   1      43.034  28.948  33.883  1.00  0.00     0.037 A 
BRANCH  25  39
ATOM     39  C   UNL A   1      39.678  33.407  36.557  1.00  0.00     0.064 A 
ATOM     40  C   UNL A   1      40.341  34.637  36.685  1.00  0.00     0.173 A 
ATOM     41  C   UNL A   1      38.784  33.039  37.577  1.00  0.00     0.173 A 
ATOM     42  F   UNL A   1      41.212  35.037  35.746  1.00  0.00    -0.203 F 
ATOM     43  C   UNL A   1      40.147  35.445  37.804  1.00  0.00     0.198 A 
ATOM     44  C   UNL A   1      38.567  33.865  38.676  1.00  0.00     0.198 A 
ATOM     45  F   UNL A   1      38.114  31.879  37.503  1.00  0.00    -0.203 F 
ATOM     46  F   UNL A   1      40.838  36.587  37.931  1.00  0.00    -0.200 F 
ATOM     47  C   UNL A   1      39.257  35.062  38.795  1.00  0.00     0.200 A 
ATOM     48  F   UNL A   1      37.693  33.501  39.625  1.00  0.00    -0.200 F 
ATOM     49  F   UNL A   1      39.071  35.840  39.870  1.00  0.00    -0.200 F 
ENDBRANCH  25  39
BRANCH  26  50
ATOM     50  C   UNL A   1      40.858  27.842  28.337  1.00  0.00     0.064 A 
ATOM     51  C   UNL A   1      41.620  28.312  27.260  1.00  0.00     0.173 A 
ATOM     52  C   UNL A   1      40.291  26.563  28.229  1.00  0.00     0.173 A 
ATOM     53  F   UNL A   1      42.168  29.535  27.310  1.00  0.00    -0.203 F 
ATOM     54  C   UNL A   1      41.798  27.539  26.115  1.00  0.00     0.198 A 
ATOM     55  C   UNL A   1      40.498  25.778  27.098  1.00  0.00     0.198 A 
ATOM     56  F   UNL A   1      39.560  26.065  29.236  1.00  0.00    -0.203 F 
ATOM     57  F   UNL A   1      42.499  28.026  25.083  1.00  0.00    -0.200 F 
ATOM     58  C   UNL A   1      41.244  26.269  26.039  1.00  0.00     0.200 A 
ATOM     59  F   UNL A   1      39.980  24.544  27.038  1.00  0.00    -0.200 F 
ATOM     60  F   UNL A   1      41.428  25.521  24.943  1.00  0.00    -0.200 F 
ENDBRANCH  26  50
BRANCH  38  61
ATOM     61  C   UNL A   1      44.207  28.194  34.441  1.00  0.00     0.064 A 
ATOM     62  C   UNL A   1      45.520  28.675  34.325  1.00  0.00     0.173 A 
ATOM     63  C   UNL A   1      44.012  26.982  35.122  1.00  0.00     0.173 A 
ATOM     64  F   UNL A   1      45.765  29.818  33.667  1.00  0.00    -0.203 F 
ATOM     65  C   UNL A   1      46.595  27.956  34.844  1.00  0.00     0.198 A 
ATOM     66  C   UNL A   1      45.084  26.285  35.670  1.00  0.00     0.198 A 
ATOM     67  F   UNL A   1      42.776  26.478  35.266  1.00  0.00    -0.203 F 
ATOM     68  F   UNL A   1      47.845  28.406  34.670  1.00  0.00    -0.200 F 
ATOM     69  C   UNL A   1      46.375  26.767  35.522  1.00  0.00     0.200 A 
ATOM     70  F   UNL A   1      44.868  25.143  36.339  1.00  0.00    -0.200 F 
ATOM     71  F   UNL A   1      47.410  26.080  36.027  1.00  0.00    -0.200 F 
ENDBRANCH  38  61
ENDBRANCH  12  13
ENDBRANCH   5   7
ENDBRANCH   2   3
ENDBRANCH   1   2
BRANCH   1  72
ATOM     72  C   UNL A   1      31.426  30.888  25.714  1.00  0.00     0.023 C 
BRANCH  72  73
ATOM     73  C   UNL A   1      32.543  29.859  25.843  1.00  0.00     0.116 C 
BRANCH  73  74
ATOM     74  N   UNL A   1      33.324  29.716  24.627  1.00  0.00    -0.351 N 
ATOM     75  C   UNL A   1      33.002  29.018  23.480  1.00  0.00     0.261 C 
ATOM     76  H   UNL A   1      34.196  30.174  24.619  1.00  0.00     0.163 HD
ATOM     77  O   UNL A   1      33.873  28.876  22.624  1.00  0.00    -0.268 OA
BRANCH  75  78
ATOM     78  C   UNL A   1      31.654  28.502  23.373  1.00  0.00     0.093 A 
ATOM     79  C   UNL A   1      30.572  29.070  22.727  1.00  0.00     0.040 A 
ATOM     80  S   UNL A   1      31.237  27.032  24.126  1.00  0.00    -0.137 S 
ATOM     81  C   UNL A   1      29.350  28.419  23.042  1.00  0.00     0.020 A 
ATOM     82  C   UNL A   1      29.578  27.263  23.761  1.00  0.00     0.080 A 
BRANCH  81  83
ATOM     83  S   UNL A   1      27.723  28.934  22.615  1.00  0.00    -0.110 SA
BRANCH  83  84
ATOM     84  C   UNL A   1      27.654  30.738  22.754  1.00  0.00     0.165 C 
ATOM     85  C   UNL A   1      28.560  31.360  23.796  1.00  0.00     0.068 C 
ATOM     86  C   UNL A   1      28.016  31.457  21.481  1.00  0.00     0.319 C 
ATOM     87  C   UNL A   1      28.914  32.696  23.186  1.00  0.00     0.234 C 
ATOM     88  O   UNL A   1      28.799  32.541  21.773  1.00  0.00    -0.465 OA
ATOM     89  O   UNL A   1      27.674  31.167  20.349  1.00  0.00    -0.251 OA
ENDBRANCH  83  84
ENDBRANCH  81  83
ENDBRANCH  75  78
ENDBRANCH  73  74
ENDBRANCH  72  73
ENDBRANCH   1  72
TORSDOF 13
ENDMDL
MODEL 3
REMARK VINA RESULT:     -11.9      4.134      9.375
REMARK SMILES O=C(NCCCCNC(=O)c1cc(S[C@H]2CCOC2=O)cs1)c1ccc(-c2c3nc(c(-c4c(F)c(F)c(F)c(F)c4F)c4ccc([nH]4)c(-c4c(F)c(F)c(F)c(F)c4F)c4nc(c(-c5c(F)c(F)c(F)c(F)c5F)c5ccc2[nH]5)C=C4)C=C3)cc1
REMARK SMILES IDX 5 1 4 2 3 3 1 4 2 5 23 7 24 8 85 9 25 10 84 11 26 12 27 13
REMARK SMILES IDX 28 14 78 15 29 16 83 17 77 18 79 19 30 20 82 21 76 22 75 23
REMARK SMILES IDX 31 25 63 26 43 27 62 28 44 29 47 30 61 31 80 32 45 33 46 34
REMARK SMILES IDX 60 36 81 37 48 38 32 39 33 40 41 41 34 42 35 43 39 44 42 45
REMARK SMILES IDX 36 46 37 47 40 48 38 49 64 50 65 51 73 52 66 53 67 54 71 55
REMARK SMILES IDX 74 56 68 57 69 58 72 59 70 60 49 61 50 62 58 63 51 64 52 65
REMARK SMILES IDX 56 66 59 67 53 68 54 69 57 70 55 71 6 72 7 73 8 74 9 75
REMARK SMILES IDX 10 77 11 78 12 79 22 80 13 81 21 82 14 83 15 84 16 85 19 86
REMARK SMILES IDX 17 87 18 88 20 89
REMARK H PARENT 3 6 79 24 47 35 8 76
REMARK Flexibility Score: inf
ROOT
ATOM      1  C   UNL A   1      32.426  27.929  25.156  1.00  0.00     0.023 C 
ENDROOT
BRANCH   1   2
ATOM      2  C   UNL A   1      33.497  28.987  25.380  1.00  0.00     0.116 C 
BRANCH   2   3
ATOM      3  N   UNL A   1      32.962  30.248  25.876  1.00  0.00    -0.352 N 
ATOM      4  O   UNL A   1      32.762  32.009  27.274  1.00  0.00    -0.269 OA
ATOM      5  C   UNL A   1      33.414  31.037  26.908  1.00  0.00     0.251 C 
ATOM      6  H   UNL A   1      32.164  30.582  25.406  1.00  0.00     0.163 HD
BRANCH   5   7
ATOM      7  C   UNL A   1      34.675  30.687  27.594  1.00  0.00     0.039 A 
ATOM      8  C   UNL A   1      34.814  29.452  28.228  1.00  0.00     0.014 A 
ATOM      9  C   UNL A   1      35.719  31.616  27.628  1.00  0.00     0.014 A 
ATOM     10  C   UNL A   1      35.917  29.215  29.039  1.00  0.00     0.010 A 
ATOM     11  C   UNL A   1      36.876  31.330  28.356  1.00  0.00     0.010 A 
ATOM     12  C   UNL A   1      36.970  30.143  29.099  1.00  0.00    -0.014 A 
BRANCH  12  13
ATOM     13  C   UNL A   1      38.181  29.810  29.890  1.00  0.00     0.031 A 
ATOM     14  C   UNL A   1      38.384  30.344  31.279  1.00  0.00     0.074 A 
ATOM     15  C   UNL A   1      39.098  28.989  29.342  1.00  0.00     0.049 A 
ATOM     16  N   UNL A   1      39.379  30.138  32.106  1.00  0.00    -0.248 NA
ATOM     17  C   UNL A   1      37.341  31.236  31.808  1.00  0.00     0.031 C 
ATOM     18  C   UNL A   1      39.012  28.412  27.998  1.00  0.00     0.029 A 
ATOM     19  N   UNL A   1      40.266  28.481  29.846  1.00  0.00    -0.354 N 
ATOM     20  C   UNL A   1      39.092  30.882  33.243  1.00  0.00     0.074 A 
ATOM     21  C   UNL A   1      37.846  31.574  32.987  1.00  0.00     0.031 C 
ATOM     22  C   UNL A   1      40.052  27.593  27.803  1.00  0.00     0.029 A 
ATOM     23  C   UNL A   1      40.918  27.644  28.975  1.00  0.00     0.049 A 
ATOM     24  H   UNL A   1      40.606  28.695  30.745  1.00  0.00     0.167 HD
ATOM     25  C   UNL A   1      39.803  30.972  34.394  1.00  0.00     0.037 A 
ATOM     26  C   UNL A   1      42.094  27.002  29.093  1.00  0.00     0.037 A 
ATOM     27  C   UNL A   1      41.043  30.276  34.638  1.00  0.00     0.049 A 
ATOM     28  C   UNL A   1      42.883  27.159  30.360  1.00  0.00     0.074 A 
ATOM     29  C   UNL A   1      41.819  30.272  35.785  1.00  0.00     0.029 A 
ATOM     30  N   UNL A   1      41.695  29.472  33.715  1.00  0.00    -0.354 N 
ATOM     31  N   UNL A   1      42.583  27.833  31.444  1.00  0.00    -0.248 NA
ATOM     32  C   UNL A   1      44.177  26.468  30.419  1.00  0.00     0.031 C 
ATOM     33  C   UNL A   1      42.972  29.519  35.532  1.00  0.00     0.029 A 
ATOM     34  C   UNL A   1      42.881  28.994  34.253  1.00  0.00     0.049 A 
ATOM     35  H   UNL A   1      41.365  29.269  32.810  1.00  0.00     0.167 HD
ATOM     36  C   UNL A   1      43.637  27.629  32.322  1.00  0.00     0.074 A 
ATOM     37  C   UNL A   1      44.575  26.753  31.650  1.00  0.00     0.031 C 
ATOM     38  C   UNL A   1      43.810  28.124  33.573  1.00  0.00     0.037 A 
BRANCH  25  39
ATOM     39  C   UNL A   1      39.273  31.881  35.471  1.00  0.00     0.064 A 
ATOM     40  C   UNL A   1      39.580  33.250  35.507  1.00  0.00     0.173 A 
ATOM     41  C   UNL A   1      38.422  31.378  36.468  1.00  0.00     0.173 A 
ATOM     42  F   UNL A   1      40.394  33.785  34.584  1.00  0.00    -0.203 F 
ATOM     43  C   UNL A   1      39.087  34.071  36.520  1.00  0.00     0.198 A 
ATOM     44  C   UNL A   1      37.903  32.208  37.459  1.00  0.00     0.198 A 
ATOM     45  F   UNL A   1      38.085  30.079  36.478  1.00  0.00    -0.203 F 
ATOM     46  F   UNL A   1      39.444  35.362  36.566  1.00  0.00    -0.200 F 
ATOM     47  C   UNL A   1      38.246  33.551  37.491  1.00  0.00     0.200 A 
ATOM     48  F   UNL A   1      37.076  31.707  38.387  1.00  0.00    -0.200 F 
ATOM     49  F   UNL A   1      37.772  34.341  38.463  1.00  0.00    -0.200 F 
ENDBRANCH  25  39
BRANCH  26  50
ATOM     50  C   UNL A   1      42.584  26.158  27.974  1.00  0.00     0.064 A 
ATOM     51  C   UNL A   1      42.163  24.829  27.835  1.00  0.00     0.173 A 
ATOM     52  C   UNL A   1      43.461  26.670  27.005  1.00  0.00     0.173 A 
ATOM     53  F   UNL A   1      41.339  24.290  28.745  1.00  0.00    -0.203 F 
ATOM     54  C   UNL A   1      42.610  24.041  26.778  1.00  0.00     0.198 A 
ATOM     55  C   UNL A   1      43.880  25.892  25.930  1.00  0.00     0.198 A 
ATOM     56  F   UNL A   1      43.886  27.939  27.088  1.00  0.00    -0.203 F 
ATOM     57  F   UNL A   1      42.223  22.761  26.689  1.00  0.00    -0.200 F 
ATOM     58  C   UNL A   1      43.461  24.575  25.821  1.00  0.00     0.200 A 
ATOM     59  F   UNL A   1      44.684  26.419  24.997  1.00  0.00    -0.200 F 
ATOM     60  F   UNL A   1      43.879  23.820  24.796  1.00  0.00    -0.200 F 
ENDBRANCH  26  50
BRANCH  38  61
ATOM     61  C   UNL A   1      45.048  27.700  34.311  1.00  0.00     0.064 A 
ATOM     62  C   UNL A   1      45.080  26.537  35.095  1.00  0.00     0.173 A 
ATOM     63  C   UNL A   1      46.226  28.456  34.212  1.00  0.00     0.173 A 
ATOM     64  F   UNL A   1      43.977  25.788  35.239  1.00  0.00    -0.203 F 
ATOM     65  C   UNL A   1      46.237  26.165  35.777  1.00  0.00     0.198 A 
ATOM     66  C   UNL A   1      47.389  28.062  34.866  1.00  0.00     0.198 A 
ATOM     67  F   UNL A   1      46.252  29.575  33.471  1.00  0.00    -0.203 F 
ATOM     68  F   UNL A   1      46.227  25.083  36.567  1.00  0.00    -0.200 F 
ATOM     69  C   UNL A   1      47.391  26.923  35.655  1.00  0.00     0.200 A 
ATOM     70  F   UNL A   1      48.509  28.788  34.734  1.00  0.00    -0.200 F 
ATOM     71  F   UNL A   1      48.505  26.560  36.307  1.00  0.00    -0.200 F 
ENDBRANCH  38  61
ENDBRANCH  12  13
ENDBRANCH   5   7
ENDBRANCH   2   3
ENDBRANCH   1   2
BRANCH   1  72
ATOM     72  C   UNL A   1      32.279  26.917  26.286  1.00  0.00     0.023 C 
BRANCH  72  73
ATOM     73  C   UNL A   1      31.965  25.495  25.836  1.00  0.00     0.116 C 
BRANCH  73  74
ATOM     74  N   UNL A   1      31.036  24.813  26.721  1.00  0.00    -0.351 N 
ATOM     75  C   UNL A   1      30.839  23.455  26.872  1.00  0.00     0.261 C 
ATOM     76  H   UNL A   1      30.475  25.394  27.285  1.00  0.00     0.163 HD
ATOM     77  O   UNL A   1      29.884  23.081  27.550  1.00  0.00    -0.268 OA
BRANCH  75  78
ATOM     78  C   UNL A   1      31.777  22.571  26.216  1.00  0.00     0.093 A 
ATOM     79  C   UNL A   1      31.567  21.778  25.103  1.00  0.00     0.040 A 
ATOM     80  S   UNL A   1      33.356  22.387  26.830  1.00  0.00    -0.137 S 
ATOM     81  C   UNL A   1      32.622  20.852  24.891  1.00  0.00     0.020 A 
ATOM     82  C   UNL A   1      33.681  21.107  25.737  1.00  0.00     0.080 A 
BRANCH  81  83
ATOM     83  S   UNL A   1      32.665  19.530  23.731  1.00  0.00    -0.110 SA
BRANCH  83  84
ATOM     84  C   UNL A   1      33.421  18.099  24.542  1.00  0.00     0.165 C 
ATOM     85  C   UNL A   1      32.659  17.521  25.716  1.00  0.00     0.068 C 
ATOM     86  C   UNL A   1      33.624  16.921  23.625  1.00  0.00     0.319 C 
ATOM     87  C   UNL A   1      32.990  16.049  25.647  1.00  0.00     0.234 C 
ATOM     88  O   UNL A   1      33.299  15.766  24.284  1.00  0.00    -0.465 OA
ATOM     89  O   UNL A   1      34.030  16.943  22.478  1.00  0.00    -0.251 OA
ENDBRANCH  83  84
ENDBRANCH  81  83
ENDBRANCH  75  78
ENDBRANCH  73  74
ENDBRANCH  72  73
ENDBRANCH   1  72
TORSDOF 13
ENDMDL
