MODEL 1
REMARK VINA RESULT:     -11.8      0.000      0.000
REMARK SMILES C=CCc1cccc(-c2ccc([C@@H](C)C(=O)NCCCCNC(=O)c3ccc(-c4c5nc(c(-c6c(F)c(F)c(F)c(F)c6F)c6ccc([nH]6)c(-c6c(F)c(F)c(F)c(F)c6F)c6nc(c(-c7c(F)c(F)c(F)c(F)c7F)c7ccc4[nH]7)C=C6)C=C5)cc3)cc2)c1
REMARK SMILES IDX 18 1 17 2 15 3 16 4 13 6 14 7 12 8 9 9 10 10 89 11 11 12
REMARK SMILES IDX 88 13 8 14 4 15 5 16 90 17 6 18 7 19 3 20 2 21 1 22 19 23
REMARK SMILES IDX 20 24 21 25 22 26 23 27 24 29 25 30 26 31 87 32 27 33 86 34
REMARK SMILES IDX 28 35 29 36 30 37 80 38 31 39 85 40 79 41 81 42 32 43 84 44
REMARK SMILES IDX 78 45 77 46 33 48 65 49 45 50 64 51 46 52 49 53 63 54 82 55
REMARK SMILES IDX 47 56 48 57 62 59 83 60 50 61 34 62 35 63 43 64 36 65 37 66
REMARK SMILES IDX 41 67 44 68 38 69 39 70 42 71 40 72 66 73 67 74 75 75 68 76
REMARK SMILES IDX 69 77 73 78 76 79 70 80 71 81 74 82 72 83 51 84 52 85 60 86
REMARK SMILES IDX 53 87 54 88 58 89 61 90 55 91 56 92 59 93 57 94
REMARK H PARENT 17 5 22 28 81 47 49 58
REMARK Flexibility Score: inf
ROOT
ATOM      1  C   UNL A   1      35.233  20.397  24.815  1.00  0.00     0.116 C 
ENDROOT
BRANCH   1   2
ATOM      2  N   UNL A   1      34.271  19.515  25.439  1.00  0.00    -0.356 N 
ATOM      3  C   UNL A   1      32.965  19.262  25.144  1.00  0.00     0.227 C 
ATOM      4  O   UNL A   1      32.368  18.494  25.909  1.00  0.00    -0.274 OA
ATOM      5  H   UNL A   1      34.619  19.011  26.208  1.00  0.00     0.163 HD
BRANCH   3   6
ATOM      6  C   UNL A   1      32.232  19.860  23.931  1.00  0.00     0.105 C 
ATOM      7  C   UNL A   1      32.497  19.111  22.625  1.00  0.00     0.023 C 
BRANCH   6   8
ATOM      8  C   UNL A   1      32.314  21.376  23.871  1.00  0.00    -0.036 A 
ATOM      9  C   UNL A   1      32.677  24.216  23.957  1.00  0.00    -0.018 A 
ATOM     10  C   UNL A   1      32.984  23.465  22.812  1.00  0.00     0.009 A 
ATOM     11  C   UNL A   1      32.118  23.510  25.036  1.00  0.00     0.009 A 
ATOM     12  C   UNL A   1      32.772  22.079  22.756  1.00  0.00     0.005 A 
ATOM     13  C   UNL A   1      31.963  22.119  25.006  1.00  0.00     0.005 A 
BRANCH   9  14
ATOM     14  C   UNL A   1      32.946  25.677  24.032  1.00  0.00    -0.018 A 
ATOM     15  C   UNL A   1      33.678  27.654  25.315  1.00  0.00    -0.044 A 
ATOM     16  C   UNL A   1      33.459  28.465  24.200  1.00  0.00     0.004 A 
ATOM     17  C   UNL A   1      33.441  26.271  25.210  1.00  0.00     0.012 A 
ATOM     18  C   UNL A   1      32.992  27.905  23.015  1.00  0.00     0.001 A 
ATOM     19  C   UNL A   1      32.727  26.533  22.938  1.00  0.00     0.009 A 
BRANCH  15  20
ATOM     20  C   UNL A   1      34.115  28.244  26.635  1.00  0.00     0.062 C 
BRANCH  20  21
ATOM     21  C   UNL A   1      32.970  28.908  27.350  1.00  0.00    -0.030 C 
ATOM     22  C   UNL A   1      31.729  28.408  27.428  1.00  0.00     0.004 C 
ENDBRANCH  20  21
ENDBRANCH  15  20
ENDBRANCH   9  14
ENDBRANCH   6   8
ENDBRANCH   3   6
ENDBRANCH   1   2
BRANCH   1  23
ATOM     23  C   UNL A   1      35.568  21.604  25.693  1.00  0.00     0.023 C 
BRANCH  23  24
ATOM     24  C   UNL A   1      35.914  22.882  24.933  1.00  0.00     0.023 C 
BRANCH  24  25
ATOM     25  C   UNL A   1      37.162  23.610  25.419  1.00  0.00     0.116 C 
BRANCH  25  26
ATOM     26  N   UNL A   1      38.311  22.746  25.641  1.00  0.00    -0.352 N 
ATOM     27  C   UNL A   1      39.481  23.039  26.307  1.00  0.00     0.251 C 
ATOM     28  H   UNL A   1      38.246  21.838  25.267  1.00  0.00     0.163 HD
ATOM     29  O   UNL A   1      40.396  22.229  26.357  1.00  0.00    -0.269 OA
BRANCH  27  30
ATOM     30  C   UNL A   1      39.637  24.376  26.918  1.00  0.00     0.039 A 
ATOM     31  C   UNL A   1      39.164  24.583  28.216  1.00  0.00     0.014 A 
ATOM     32  C   UNL A   1      40.310  25.393  26.238  1.00  0.00     0.014 A 
ATOM     33  C   UNL A   1      39.443  25.786  28.866  1.00  0.00     0.010 A 
ATOM     34  C   UNL A   1      40.654  26.558  26.914  1.00  0.00     0.010 A 
ATOM     35  C   UNL A   1      40.230  26.763  28.236  1.00  0.00    -0.014 A 
BRANCH  35  36
ATOM     36  C   UNL A   1      40.632  28.006  28.939  1.00  0.00     0.031 A 
ATOM     37  C   UNL A   1      42.011  28.125  29.522  1.00  0.00     0.074 A 
ATOM     38  C   UNL A   1      39.726  28.981  29.140  1.00  0.00     0.049 A 
ATOM     39  N   UNL A   1      42.519  29.079  30.259  1.00  0.00    -0.248 NA
ATOM     40  C   UNL A   1      42.928  27.002  29.275  1.00  0.00     0.031 C 
ATOM     41  C   UNL A   1      38.334  28.950  28.686  1.00  0.00     0.029 A 
ATOM     42  N   UNL A   1      39.834  30.181  29.797  1.00  0.00    -0.354 N 
ATOM     43  C   UNL A   1      43.803  28.660  30.583  1.00  0.00     0.074 A 
ATOM     44  C   UNL A   1      43.977  27.344  30.008  1.00  0.00     0.031 C 
ATOM     45  C   UNL A   1      37.721  30.082  29.069  1.00  0.00     0.029 A 
ATOM     46  C   UNL A   1      38.666  30.904  29.819  1.00  0.00     0.049 A 
ATOM     47  H   UNL A   1      40.669  30.494  30.214  1.00  0.00     0.167 HD
ATOM     48  C   UNL A   1      44.758  29.324  31.277  1.00  0.00     0.037 A 
ATOM     49  C   UNL A   1      38.388  32.092  30.387  1.00  0.00     0.037 A 
ATOM     50  C   UNL A   1      44.592  30.649  31.813  1.00  0.00     0.049 A 
ATOM     51  C   UNL A   1      39.476  32.829  31.118  1.00  0.00     0.074 A 
ATOM     52  C   UNL A   1      45.526  31.443  32.457  1.00  0.00     0.029 A 
ATOM     53  N   UNL A   1      43.411  31.374  31.767  1.00  0.00    -0.354 N 
ATOM     54  N   UNL A   1      40.714  32.462  31.346  1.00  0.00    -0.248 NA
ATOM     55  C   UNL A   1      39.134  34.152  31.661  1.00  0.00     0.031 C 
ATOM     56  C   UNL A   1      44.898  32.636  32.832  1.00  0.00     0.029 A 
ATOM     57  C   UNL A   1      43.586  32.601  32.387  1.00  0.00     0.049 A 
ATOM     58  H   UNL A   1      42.573  31.065  31.354  1.00  0.00     0.167 HD
ATOM     59  C   UNL A   1      41.303  33.509  32.040  1.00  0.00     0.074 A 
ATOM     60  C   UNL A   1      40.291  34.537  32.182  1.00  0.00     0.031 C 
ATOM     61  C   UNL A   1      42.567  33.612  32.516  1.00  0.00     0.037 A 
BRANCH  48  62
ATOM     62  C   UNL A   1      46.068  28.622  31.488  1.00  0.00     0.064 A 
ATOM     63  C   UNL A   1      47.118  28.732  30.563  1.00  0.00     0.173 A 
ATOM     64  C   UNL A   1      46.280  27.840  32.632  1.00  0.00     0.173 A 
ATOM     65  F   UNL A   1      46.960  29.458  29.446  1.00  0.00    -0.203 F 
ATOM     66  C   UNL A   1      48.317  28.052  30.756  1.00  0.00     0.198 A 
ATOM     67  C   UNL A   1      47.493  27.186  32.837  1.00  0.00     0.198 A 
ATOM     68  F   UNL A   1      45.311  27.705  33.550  1.00  0.00    -0.203 F 
ATOM     69  F   UNL A   1      49.283  28.124  29.830  1.00  0.00    -0.200 F 
ATOM     70  C   UNL A   1      48.506  27.284  31.895  1.00  0.00     0.200 A 
ATOM     71  F   UNL A   1      47.677  26.452  33.943  1.00  0.00    -0.200 F 
ATOM     72  F   UNL A   1      49.660  26.630  32.080  1.00  0.00    -0.200 F 
ENDBRANCH  48  62
BRANCH  49  73
ATOM     73  C   UNL A   1      37.025  32.668  30.260  1.00  0.00     0.064 A 
ATOM     74  C   UNL A   1      36.068  32.481  31.267  1.00  0.00     0.173 A 
ATOM     75  C   UNL A   1      36.657  33.429  29.142  1.00  0.00     0.173 A 
ATOM     76  F   UNL A   1      36.370  31.745  32.347  1.00  0.00    -0.203 F 
ATOM     77  C   UNL A   1      34.790  33.023  31.155  1.00  0.00     0.198 A 
ATOM     78  C   UNL A   1      35.386  33.990  29.041  1.00  0.00     0.198 A 
ATOM     79  F   UNL A   1      37.538  33.641  28.154  1.00  0.00    -0.203 F 
ATOM     80  F   UNL A   1      33.883  32.801  32.115  1.00  0.00    -0.200 F 
ATOM     81  C   UNL A   1      34.452  33.782  30.045  1.00  0.00     0.200 A 
ATOM     82  F   UNL A   1      35.067  34.735  27.974  1.00  0.00    -0.200 F 
ATOM     83  F   UNL A   1      33.224  34.311  29.940  1.00  0.00    -0.200 F 
ENDBRANCH  49  73
BRANCH  61  84
ATOM     84  C   UNL A   1      42.936  34.885  33.217  1.00  0.00     0.064 A 
ATOM     85  C   UNL A   1      42.866  35.001  34.613  1.00  0.00     0.173 A 
ATOM     86  C   UNL A   1      43.408  35.986  32.487  1.00  0.00     0.173 A 
ATOM     87  F   UNL A   1      42.406  33.980  35.352  1.00  0.00    -0.203 F 
ATOM     88  C   UNL A   1      43.239  36.181  35.251  1.00  0.00     0.198 A 
ATOM     89  C   UNL A   1      43.805  37.155  33.131  1.00  0.00     0.198 A 
ATOM     90  F   UNL A   1      43.497  35.923  31.150  1.00  0.00    -0.203 F 
ATOM     91  F   UNL A   1      43.128  36.284  36.583  1.00  0.00    -0.200 F 
ATOM     92  C   UNL A   1      43.714  37.253  34.511  1.00  0.00     0.200 A 
ATOM     93  F   UNL A   1      44.275  38.187  32.416  1.00  0.00    -0.200 F 
ATOM     94  F   UNL A   1      44.081  38.385  35.128  1.00  0.00    -0.200 F 
ENDBRANCH  61  84
ENDBRANCH  35  36
ENDBRANCH  27  30
ENDBRANCH  25  26
ENDBRANCH  24  25
ENDBRANCH  23  24
ENDBRANCH   1  23
TORSDOF 15
ENDMDL
MODEL 2
REMARK VINA RESULT:     -11.6      3.772      8.885
REMARK SMILES C=CCc1cccc(-c2ccc([C@@H](C)C(=O)NCCCCNC(=O)c3ccc(-c4c5nc(c(-c6c(F)c(F)c(F)c(F)c6F)c6ccc([nH]6)c(-c6c(F)c(F)c(F)c(F)c6F)c6nc(c(-c7c(F)c(F)c(F)c(F)c7F)c7ccc4[nH]7)C=C6)C=C5)cc3)cc2)c1
REMARK SMILES IDX 18 1 17 2 15 3 16 4 13 6 14 7 12 8 9 9 10 10 89 11 11 12
REMARK SMILES IDX 88 13 8 14 4 15 5 16 90 17 6 18 7 19 3 20 2 21 1 22 19 23
REMARK SMILES IDX 20 24 21 25 22 26 23 27 24 29 25 30 26 31 87 32 27 33 86 34
REMARK SMILES IDX 28 35 29 36 30 37 80 38 31 39 85 40 79 41 81 42 32 43 84 44
REMARK SMILES IDX 78 45 77 46 33 48 65 49 45 50 64 51 46 52 49 53 63 54 82 55
REMARK SMILES IDX 47 56 48 57 62 59 83 60 50 61 34 62 35 63 43 64 36 65 37 66
REMARK SMILES IDX 41 67 44 68 38 69 39 70 42 71 40 72 66 73 67 74 75 75 68 76
REMARK SMILES IDX 69 77 73 78 76 79 70 80 71 81 74 82 72 83 51 84 52 85 60 86
REMARK SMILES IDX 53 87 54 88 58 89 61 90 55 91 56 92 59 93 57 94
REMARK H PARENT 17 5 22 28 81 47 49 58
REMARK Flexibility Score: inf
ROOT
ATOM      1  C   UNL A   1      36.042  21.737  25.270  1.00  0.00     0.116 C 
ENDROOT
BRANCH   1   2
ATOM      2  N   UNL A   1      35.040  22.128  24.301  1.00  0.00    -0.356 N 
ATOM      3  C   UNL A   1      33.836  22.745  24.457  1.00  0.00     0.227 C 
ATOM      4  O   UNL A   1      33.157  22.892  23.432  1.00  0.00    -0.274 OA
ATOM      5  H   UNL A   1      35.268  21.910  23.369  1.00  0.00     0.163 HD
BRANCH   3   6
ATOM      6  C   UNL A   1      33.311  23.263  25.806  1.00  0.00     0.105 C 
ATOM      7  C   UNL A   1      32.171  22.424  26.383  1.00  0.00     0.023 C 
BRANCH   6   8
ATOM      8  C   UNL A   1      33.124  24.771  25.837  1.00  0.00    -0.036 A 
ATOM      9  C   UNL A   1      32.781  27.594  26.183  1.00  0.00    -0.018 A 
ATOM     10  C   UNL A   1      33.932  27.055  25.586  1.00  0.00     0.009 A 
ATOM     11  C   UNL A   1      31.776  26.679  26.539  1.00  0.00     0.009 A 
ATOM     12  C   UNL A   1      34.085  25.676  25.383  1.00  0.00     0.005 A 
ATOM     13  C   UNL A   1      31.950  25.297  26.394  1.00  0.00     0.005 A 
BRANCH   9  14
ATOM     14  C   UNL A   1      32.640  29.051  26.440  1.00  0.00    -0.018 A 
ATOM     15  C   UNL A   1      33.465  31.127  27.490  1.00  0.00    -0.044 A 
ATOM     16  C   UNL A   1      32.387  31.833  26.952  1.00  0.00     0.004 A 
ATOM     17  C   UNL A   1      33.589  29.754  27.209  1.00  0.00     0.012 A 
ATOM     18  C   UNL A   1      31.446  31.173  26.169  1.00  0.00     0.001 A 
ATOM     19  C   UNL A   1      31.565  29.800  25.929  1.00  0.00     0.009 A 
BRANCH  15  20
ATOM     20  C   UNL A   1      34.462  31.802  28.402  1.00  0.00     0.062 C 
BRANCH  20  21
ATOM     21  C   UNL A   1      34.262  33.293  28.435  1.00  0.00    -0.030 C 
ATOM     22  C   UNL A   1      35.231  34.185  28.680  1.00  0.00     0.004 C 
ENDBRANCH  20  21
ENDBRANCH  15  20
ENDBRANCH   9  14
ENDBRANCH   6   8
ENDBRANCH   3   6
ENDBRANCH   1   2
BRANCH   1  23
ATOM     23  C   UNL A   1      37.417  21.538  24.633  1.00  0.00     0.023 C 
BRANCH  23  24
ATOM     24  C   UNL A   1      38.120  20.233  25.003  1.00  0.00     0.023 C 
BRANCH  24  25
ATOM     25  C   UNL A   1      39.361  20.387  25.875  1.00  0.00     0.116 C 
BRANCH  25  26
ATOM     26  N   UNL A   1      40.242  19.229  25.872  1.00  0.00    -0.352 N 
ATOM     27  C   UNL A   1      41.600  19.192  26.099  1.00  0.00     0.251 C 
ATOM     28  H   UNL A   1      39.814  18.362  25.682  1.00  0.00     0.163 HD
ATOM     29  O   UNL A   1      42.226  18.146  25.997  1.00  0.00    -0.269 OA
BRANCH  27  30
ATOM     30  C   UNL A   1      42.303  20.453  26.418  1.00  0.00     0.039 A 
ATOM     31  C   UNL A   1      42.885  21.181  25.377  1.00  0.00     0.014 A 
ATOM     32  C   UNL A   1      42.322  20.944  27.725  1.00  0.00     0.014 A 
ATOM     33  C   UNL A   1      43.412  22.448  25.635  1.00  0.00     0.010 A 
ATOM     34  C   UNL A   1      42.776  22.236  27.965  1.00  0.00     0.010 A 
ATOM     35  C   UNL A   1      43.318  23.002  26.922  1.00  0.00    -0.014 A 
BRANCH  35  36
ATOM     36  C   UNL A   1      43.773  24.386  27.204  1.00  0.00     0.031 A 
ATOM     37  C   UNL A   1      42.792  25.415  27.688  1.00  0.00     0.074 A 
ATOM     38  C   UNL A   1      45.043  24.740  26.928  1.00  0.00     0.049 A 
ATOM     39  N   UNL A   1      42.966  26.695  27.890  1.00  0.00    -0.248 NA
ATOM     40  C   UNL A   1      41.421  24.946  27.940  1.00  0.00     0.031 C 
ATOM     41  C   UNL A   1      46.071  23.849  26.385  1.00  0.00     0.029 A 
ATOM     42  N   UNL A   1      45.680  25.949  27.046  1.00  0.00    -0.354 N 
ATOM     43  C   UNL A   1      41.724  27.188  28.269  1.00  0.00     0.074 A 
ATOM     44  C   UNL A   1      40.795  26.081  28.216  1.00  0.00     0.031 C 
ATOM     45  C   UNL A   1      47.212  24.539  26.227  1.00  0.00     0.029 A 
ATOM     46  C   UNL A   1      46.989  25.925  26.629  1.00  0.00     0.049 A 
ATOM     47  H   UNL A   1      45.242  26.757  27.396  1.00  0.00     0.167 HD
ATOM     48  C   UNL A   1      41.394  28.445  28.648  1.00  0.00     0.037 A 
ATOM     49  C   UNL A   1      47.903  26.911  26.570  1.00  0.00     0.037 A 
ATOM     50  C   UNL A   1      42.331  29.534  28.736  1.00  0.00     0.049 A 
ATOM     51  C   UNL A   1      47.525  28.291  27.035  1.00  0.00     0.074 A 
ATOM     52  C   UNL A   1      42.117  30.823  29.191  1.00  0.00     0.029 A 
ATOM     53  N   UNL A   1      43.664  29.458  28.358  1.00  0.00    -0.354 N 
ATOM     54  N   UNL A   1      46.369  28.727  27.472  1.00  0.00    -0.248 NA
ATOM     55  C   UNL A   1      48.581  29.313  27.011  1.00  0.00     0.031 C 
ATOM     56  C   UNL A   1      43.312  31.538  29.055  1.00  0.00     0.029 A 
ATOM     57  C   UNL A   1      44.280  30.683  28.553  1.00  0.00     0.049 A 
ATOM     58  H   UNL A   1      44.106  28.653  28.005  1.00  0.00     0.167 HD
ATOM     59  C   UNL A   1      46.560  30.064  27.792  1.00  0.00     0.074 A 
ATOM     60  C   UNL A   1      47.950  30.365  27.514  1.00  0.00     0.031 C 
ATOM     61  C   UNL A   1      45.666  30.962  28.273  1.00  0.00     0.037 A 
BRANCH  48  62
ATOM     62  C   UNL A   1      39.959  28.703  29.001  1.00  0.00     0.064 A 
ATOM     63  C   UNL A   1      39.472  28.493  30.301  1.00  0.00     0.173 A 
ATOM     64  C   UNL A   1      39.061  29.176  28.033  1.00  0.00     0.173 A 
ATOM     65  F   UNL A   1      40.288  28.029  31.260  1.00  0.00    -0.203 F 
ATOM     66  C   UNL A   1      38.132  28.708  30.608  1.00  0.00     0.198 A 
ATOM     67  C   UNL A   1      37.727  29.419  28.352  1.00  0.00     0.198 A 
ATOM     68  F   UNL A   1      39.475  29.398  26.776  1.00  0.00    -0.203 F 
ATOM     69  F   UNL A   1      37.677  28.443  31.841  1.00  0.00    -0.200 F 
ATOM     70  C   UNL A   1      37.262  29.176  29.635  1.00  0.00     0.200 A 
ATOM     71  F   UNL A   1      36.890  29.881  27.413  1.00  0.00    -0.200 F 
ATOM     72  F   UNL A   1      35.971  29.382  29.931  1.00  0.00    -0.200 F 
ENDBRANCH  48  62
BRANCH  49  73
ATOM     73  C   UNL A   1      49.272  26.618  26.076  1.00  0.00     0.064 A 
ATOM     74  C   UNL A   1      49.642  26.925  24.758  1.00  0.00     0.173 A 
ATOM     75  C   UNL A   1      50.241  26.045  26.910  1.00  0.00     0.173 A 
ATOM     76  F   UNL A   1      48.742  27.457  23.918  1.00  0.00    -0.203 F 
ATOM     77  C   UNL A   1      50.927  26.656  24.291  1.00  0.00     0.198 A 
ATOM     78  C   UNL A   1      51.533  25.799  26.449  1.00  0.00     0.198 A 
ATOM     79  F   UNL A   1      49.938  25.740  28.180  1.00  0.00    -0.203 F 
ATOM     80  F   UNL A   1      51.244  26.926  23.018  1.00  0.00    -0.200 F 
ATOM     81  C   UNL A   1      51.872  26.098  25.138  1.00  0.00     0.200 A 
ATOM     82  F   UNL A   1      52.448  25.273  27.274  1.00  0.00    -0.200 F 
ATOM     83  F   UNL A   1      53.111  25.848  24.690  1.00  0.00    -0.200 F 
ENDBRANCH  49  73
BRANCH  61  84
ATOM     84  C   UNL A   1      46.166  32.348  28.549  1.00  0.00     0.064 A 
ATOM     85  C   UNL A   1      46.723  32.694  29.789  1.00  0.00     0.173 A 
ATOM     86  C   UNL A   1      46.129  33.329  27.546  1.00  0.00     0.173 A 
ATOM     87  F   UNL A   1      46.765  31.795  30.783  1.00  0.00    -0.203 F 
ATOM     88  C   UNL A   1      47.208  33.979  30.020  1.00  0.00     0.198 A 
ATOM     89  C   UNL A   1      46.639  34.604  27.773  1.00  0.00     0.198 A 
ATOM     90  F   UNL A   1      45.610  33.045  26.342  1.00  0.00    -0.203 F 
ATOM     91  F   UNL A   1      47.701  34.300  31.225  1.00  0.00    -0.200 F 
ATOM     92  C   UNL A   1      47.172  34.929  29.011  1.00  0.00     0.200 A 
ATOM     93  F   UNL A   1      46.615  35.519  26.793  1.00  0.00    -0.200 F 
ATOM     94  F   UNL A   1      47.648  36.162  29.233  1.00  0.00    -0.200 F 
ENDBRANCH  61  84
ENDBRANCH  35  36
ENDBRANCH  27  30
ENDBRANCH  25  26
ENDBRANCH  24  25
ENDBRANCH  23  24
ENDBRANCH   1  23
TORSDOF 15
ENDMDL
MODEL 3
REMARK VINA RESULT:     -11.5      3.093      4.527
REMARK SMILES C=CCc1cccc(-c2ccc([C@@H](C)C(=O)NCCCCNC(=O)c3ccc(-c4c5nc(c(-c6c(F)c(F)c(F)c(F)c6F)c6ccc([nH]6)c(-c6c(F)c(F)c(F)c(F)c6F)c6nc(c(-c7c(F)c(F)c(F)c(F)c7F)c7ccc4[nH]7)C=C6)C=C5)cc3)cc2)c1
REMARK SMILES IDX 18 1 17 2 15 3 16 4 13 6 14 7 12 8 9 9 10 10 89 11 11 12
REMARK SMILES IDX 88 13 8 14 4 15 5 16 90 17 6 18 7 19 3 20 2 21 1 22 19 23
REMARK SMILES IDX 20 24 21 25 22 26 23 27 24 29 25 30 26 31 87 32 27 33 86 34
REMARK SMILES IDX 28 35 29 36 30 37 80 38 31 39 85 40 79 41 81 42 32 43 84 44
REMARK SMILES IDX 78 45 77 46 33 48 65 49 45 50 64 51 46 52 49 53 63 54 82 55
REMARK SMILES IDX 47 56 48 57 62 59 83 60 50 61 34 62 35 63 43 64 36 65 37 66
REMARK SMILES IDX 41 67 44 68 38 69 39 70 42 71 40 72 66 73 67 74 75 75 68 76
REMARK SMILES IDX 69 77 73 78 76 79 70 80 71 81 74 82 72 83 51 84 52 85 60 86
REMARK SMILES IDX 53 87 54 88 58 89 61 90 55 91 56 92 59 93 57 94
REMARK H PARENT 17 5 22 28 81 47 49 58
REMARK Flexibility Score: inf
ROOT
ATOM      1  C   UNL A   1      33.019  22.166  24.782  1.00  0.00     0.116 C 
ENDROOT
BRANCH   1   2
ATOM      2  N   UNL A   1      32.318  22.342  26.036  1.00  0.00    -0.356 N 
ATOM      3  C   UNL A   1      31.467  23.319  26.458  1.00  0.00     0.227 C 
ATOM      4  O   UNL A   1      31.069  23.234  27.626  1.00  0.00    -0.274 OA
ATOM      5  H   UNL A   1      32.485  21.635  26.699  1.00  0.00     0.163 HD
BRANCH   3   6
ATOM      6  C   UNL A   1      30.986  24.475  25.564  1.00  0.00     0.105 C 
ATOM      7  C   UNL A   1      30.805  24.083  24.098  1.00  0.00     0.023 C 
BRANCH   6   8
ATOM      8  C   UNL A   1      31.717  25.781  25.831  1.00  0.00    -0.036 A 
ATOM      9  C   UNL A   1      33.080  28.175  26.615  1.00  0.00    -0.018 A 
ATOM     10  C   UNL A   1      33.718  27.170  25.870  1.00  0.00     0.009 A 
ATOM     11  C   UNL A   1      31.719  27.975  26.896  1.00  0.00     0.009 A 
ATOM     12  C   UNL A   1      33.040  26.014  25.454  1.00  0.00     0.005 A 
ATOM     13  C   UNL A   1      31.056  26.795  26.536  1.00  0.00     0.005 A 
BRANCH   9  14
ATOM     14  C   UNL A   1      33.811  29.377  27.095  1.00  0.00    -0.018 A 
ATOM     15  C   UNL A   1      33.849  31.787  27.627  1.00  0.00    -0.044 A 
ATOM     16  C   UNL A   1      35.190  31.689  28.002  1.00  0.00     0.004 A 
ATOM     17  C   UNL A   1      33.173  30.629  27.201  1.00  0.00     0.012 A 
ATOM     18  C   UNL A   1      35.843  30.462  27.930  1.00  0.00     0.001 A 
ATOM     19  C   UNL A   1      35.166  29.328  27.470  1.00  0.00     0.009 A 
BRANCH  15  20
ATOM     20  C   UNL A   1      33.135  33.118  27.626  1.00  0.00     0.062 C 
BRANCH  20  21
ATOM     21  C   UNL A   1      33.704  34.053  28.659  1.00  0.00    -0.030 C 
ATOM     22  C   UNL A   1      34.243  35.249  28.387  1.00  0.00     0.004 C 
ENDBRANCH  20  21
ENDBRANCH  15  20
ENDBRANCH   9  14
ENDBRANCH   6   8
ENDBRANCH   3   6
ENDBRANCH   1   2
BRANCH   1  23
ATOM     23  C   UNL A   1      34.455  22.687  24.843  1.00  0.00     0.023 C 
BRANCH  23  24
ATOM     24  C   UNL A   1      35.428  21.814  25.633  1.00  0.00     0.023 C 
BRANCH  24  25
ATOM     25  C   UNL A   1      36.845  22.364  25.752  1.00  0.00     0.116 C 
BRANCH  25  26
ATOM     26  N   UNL A   1      37.881  21.343  25.798  1.00  0.00    -0.352 N 
ATOM     27  C   UNL A   1      39.190  21.477  26.205  1.00  0.00     0.251 C 
ATOM     28  H   UNL A   1      37.614  20.444  25.500  1.00  0.00     0.163 HD
ATOM     29  O   UNL A   1      39.972  20.540  26.125  1.00  0.00    -0.269 OA
BRANCH  27  30
ATOM     30  C   UNL A   1      39.654  22.794  26.693  1.00  0.00     0.039 A 
ATOM     31  C   UNL A   1      40.673  22.838  27.647  1.00  0.00     0.014 A 
ATOM     32  C   UNL A   1      39.133  23.973  26.155  1.00  0.00     0.014 A 
ATOM     33  C   UNL A   1      41.231  24.068  28.000  1.00  0.00     0.010 A 
ATOM     34  C   UNL A   1      39.742  25.187  26.449  1.00  0.00     0.010 A 
ATOM     35  C   UNL A   1      40.801  25.246  27.368  1.00  0.00    -0.014 A 
BRANCH  35  36
ATOM     36  C   UNL A   1      41.447  26.553  27.644  1.00  0.00     0.031 A 
ATOM     37  C   UNL A   1      42.854  26.806  27.185  1.00  0.00     0.074 A 
ATOM     38  C   UNL A   1      40.804  27.469  28.393  1.00  0.00     0.049 A 
ATOM     39  N   UNL A   1      43.628  27.835  27.415  1.00  0.00    -0.248 NA
ATOM     40  C   UNL A   1      43.488  25.741  26.393  1.00  0.00     0.031 C 
ATOM     41  C   UNL A   1      39.462  27.310  28.959  1.00  0.00     0.029 A 
ATOM     42  N   UNL A   1      41.202  28.709  28.825  1.00  0.00    -0.354 N 
ATOM     43  C   UNL A   1      44.845  27.531  26.820  1.00  0.00     0.074 A 
ATOM     44  C   UNL A   1      44.724  26.200  26.265  1.00  0.00     0.031 C 
ATOM     45  C   UNL A   1      39.145  28.414  29.654  1.00  0.00     0.029 A 
ATOM     46  C   UNL A   1      40.269  29.345  29.609  1.00  0.00     0.049 A 
ATOM     47  H   UNL A   1      42.073  29.106  28.597  1.00  0.00     0.167 HD
ATOM     48  C   UNL A   1      45.954  28.301  26.724  1.00  0.00     0.037 A 
ATOM     49  C   UNL A   1      40.319  30.540  30.226  1.00  0.00     0.037 A 
ATOM     50  C   UNL A   1      46.056  29.639  27.245  1.00  0.00     0.049 A 
ATOM     51  C   UNL A   1      41.546  31.395  30.072  1.00  0.00     0.074 A 
ATOM     52  C   UNL A   1      47.104  30.534  27.126  1.00  0.00     0.029 A 
ATOM     53  N   UNL A   1      45.068  30.272  27.985  1.00  0.00    -0.354 N 
ATOM     54  N   UNL A   1      42.661  31.133  29.434  1.00  0.00    -0.248 NA
ATOM     55  C   UNL A   1      41.519  32.717  30.713  1.00  0.00     0.031 C 
ATOM     56  C   UNL A   1      46.765  31.698  27.826  1.00  0.00     0.029 A 
ATOM     57  C   UNL A   1      45.490  31.542  28.346  1.00  0.00     0.049 A 
ATOM     58  H   UNL A   1      44.197  29.879  28.219  1.00  0.00     0.167 HD
ATOM     59  C   UNL A   1      43.459  32.258  29.580  1.00  0.00     0.074 A 
ATOM     60  C   UNL A   1      42.694  33.216  30.353  1.00  0.00     0.031 C 
ATOM     61  C   UNL A   1      44.712  32.481  29.114  1.00  0.00     0.037 A 
BRANCH  48  62
ATOM     62  C   UNL A   1      47.144  27.711  26.025  1.00  0.00     0.064 A 
ATOM     63  C   UNL A   1      47.313  27.827  24.637  1.00  0.00     0.173 A 
ATOM     64  C   UNL A   1      48.131  27.030  26.751  1.00  0.00     0.173 A 
ATOM     65  F   UNL A   1      46.389  28.459  23.895  1.00  0.00    -0.203 F 
ATOM     66  C   UNL A   1      48.405  27.250  23.996  1.00  0.00     0.198 A 
ATOM     67  C   UNL A   1      49.239  26.480  26.111  1.00  0.00     0.198 A 
ATOM     68  F   UNL A   1      48.021  26.893  28.081  1.00  0.00    -0.203 F 
ATOM     69  F   UNL A   1      48.514  27.323  22.662  1.00  0.00    -0.200 F 
ATOM     70  C   UNL A   1      49.370  26.581  24.734  1.00  0.00     0.200 A 
ATOM     71  F   UNL A   1      50.176  25.842  26.826  1.00  0.00    -0.200 F 
ATOM     72  F   UNL A   1      50.421  26.025  24.117  1.00  0.00    -0.200 F 
ENDBRANCH  48  62
BRANCH  49  73
ATOM     73  C   UNL A   1      39.156  31.006  31.023  1.00  0.00     0.064 A 
ATOM     74  C   UNL A   1      39.004  30.626  32.364  1.00  0.00     0.173 A 
ATOM     75  C   UNL A   1      38.184  31.851  30.469  1.00  0.00     0.173 A 
ATOM     76  F   UNL A   1      39.899  29.804  32.931  1.00  0.00    -0.203 F 
ATOM     77  C   UNL A   1      37.917  31.065  33.117  1.00  0.00     0.198 A 
ATOM     78  C   UNL A   1      37.110  32.308  31.230  1.00  0.00     0.198 A 
ATOM     79  F   UNL A   1      38.288  32.246  29.192  1.00  0.00    -0.203 F 
ATOM     80  F   UNL A   1      37.778  30.659  34.386  1.00  0.00    -0.200 F 
ATOM     81  C   UNL A   1      36.975  31.909  32.551  1.00  0.00     0.200 A 
ATOM     82  F   UNL A   1      36.209  33.135  30.684  1.00  0.00    -0.200 F 
ATOM     83  F   UNL A   1      35.933  32.338  33.279  1.00  0.00    -0.200 F 
ENDBRANCH  49  73
BRANCH  61  84
ATOM     84  C   UNL A   1      45.328  33.815  29.410  1.00  0.00     0.064 A 
ATOM     85  C   UNL A   1      46.123  34.021  30.548  1.00  0.00     0.173 A 
ATOM     86  C   UNL A   1      45.160  34.887  28.521  1.00  0.00     0.173 A 
ATOM     87  F   UNL A   1      46.299  33.030  31.435  1.00  0.00    -0.203 F 
ATOM     88  C   UNL A   1      46.711  35.259  30.795  1.00  0.00     0.198 A 
ATOM     89  C   UNL A   1      45.771  36.116  28.758  1.00  0.00     0.198 A 
ATOM     90  F   UNL A   1      44.413  34.739  27.417  1.00  0.00    -0.203 F 
ATOM     91  F   UNL A   1      47.434  35.445  31.907  1.00  0.00    -0.200 F 
ATOM     92  C   UNL A   1      46.541  36.302  29.896  1.00  0.00     0.200 A 
ATOM     93  F   UNL A   1      45.616  37.120  27.883  1.00  0.00    -0.200 F 
ATOM     94  F   UNL A   1      47.115  37.489  30.130  1.00  0.00    -0.200 F 
ENDBRANCH  61  84
ENDBRANCH  35  36
ENDBRANCH  27  30
ENDBRANCH  25  26
ENDBRANCH  24  25
ENDBRANCH  23  24
ENDBRANCH   1  23
TORSDOF 15
ENDMDL
