MODEL 1
REMARK VINA RESULT:     -10.7      0.000      0.000
REMARK SMILES CCC([NH3+])(CC)C(=O)N(CCC(=O)NCCCCNC(=O)c1ccc(-c2c3nc(c(-c4c(F)c(F)c(F)c(F)c4F)c4ccc([nH]4)c(-c4c(F)c(F)c(F)c(F)c4F)c4nc(c(-c5c(F)c(F)c(F)c(F)c5F)c5ccc2[nH]5)C=C4)C=C3)cc1)C(C)C
REMARK SMILES IDX 15 1 14 2 12 3 13 4 11 6 10 7 9 8 7 9 8 10 3 11 2 12 1 13
REMARK SMILES IDX 4 14 5 18 6 19 85 20 86 21 87 22 16 23 17 24 18 25 19 26
REMARK SMILES IDX 20 27 21 29 22 30 23 31 84 32 24 33 83 34 25 35 26 36 27 37
REMARK SMILES IDX 77 38 28 39 82 40 76 41 78 42 29 43 81 44 75 45 74 46 30 48
REMARK SMILES IDX 62 49 42 50 61 51 43 52 46 53 60 54 79 55 44 56 45 57 59 59
REMARK SMILES IDX 80 60 47 61 31 62 32 63 40 64 33 65 34 66 38 67 41 68 35 69
REMARK SMILES IDX 36 70 39 71 37 72 63 73 64 74 72 75 65 76 66 77 70 78 73 79
REMARK SMILES IDX 67 80 68 81 71 82 69 83 48 84 49 85 57 86 50 87 51 88 55 89
REMARK SMILES IDX 58 90 52 91 53 92 56 93 54 94
REMARK H PARENT 14 5 4 15 4 16 4 17 19 28 78 47 46 58
REMARK Flexibility Score: inf
ROOT
ATOM      1  C   UNL A   1      34.590  22.649  23.937  1.00  0.00     0.116 C 
ENDROOT
BRANCH   1   2
ATOM      2  N   UNL A   1      34.040  23.244  22.722  1.00  0.00    -0.356 N 
ATOM      3  C   UNL A   1      33.706  24.515  22.366  1.00  0.00     0.221 C 
ATOM      4  O   UNL A   1      33.204  24.678  21.251  1.00  0.00    -0.275 OA
ATOM      5  H   UNL A   1      33.876  22.586  22.008  1.00  0.00     0.163 HD
BRANCH   3   6
ATOM      6  C   UNL A   1      33.927  25.708  23.277  1.00  0.00     0.121 C 
BRANCH   6   7
ATOM      7  C   UNL A   1      32.746  25.884  24.262  1.00  0.00     0.130 C 
BRANCH   7   8
ATOM      8  N   UNL A   1      31.489  26.309  23.606  1.00  0.00    -0.334 N 
BRANCH   8   9
ATOM      9  C   UNL A   1      31.258  27.336  22.691  1.00  0.00     0.284 C 
ATOM     10  O   UNL A   1      31.034  27.039  21.509  1.00  0.00    -0.268 OA
BRANCH   9  11
ATOM     11  C   UNL A   1      31.235  28.846  23.084  1.00  0.00     0.173 C 
BRANCH  11  12
ATOM     12  C   UNL A   1      29.824  29.200  23.674  1.00  0.00     0.075 C 
ATOM     13  C   UNL A   1      29.172  30.503  23.195  1.00  0.00     0.011 C 
ENDBRANCH  11  12
BRANCH  11  14
ATOM     14  N   UNL A   1      31.437  29.696  21.886  1.00  0.00    -0.345 N 
ATOM     15  H   UNL A   1      32.389  30.063  21.885  1.00  0.00     0.345 HD
ATOM     16  H   UNL A   1      30.775  30.471  21.903  1.00  0.00     0.345 HD
ATOM     17  H   UNL A   1      31.286  29.139  21.045  1.00  0.00     0.345 HD
ENDBRANCH  11  14
BRANCH  11  18
ATOM     18  C   UNL A   1      32.301  29.184  24.159  1.00  0.00     0.075 C 
ATOM     19  C   UNL A   1      31.766  29.275  25.587  1.00  0.00     0.011 C 
ENDBRANCH  11  18
ENDBRANCH   9  11
ENDBRANCH   8   9
BRANCH   8  20
ATOM     20  C   UNL A   1      30.298  25.594  24.062  1.00  0.00     0.079 C 
ATOM     21  C   UNL A   1      30.313  24.144  23.573  1.00  0.00     0.031 C 
ATOM     22  C   UNL A   1      30.000  25.747  25.554  1.00  0.00     0.031 C 
ENDBRANCH   8  20
ENDBRANCH   7   8
ENDBRANCH   6   7
ENDBRANCH   3   6
ENDBRANCH   1   2
BRANCH   1  23
ATOM     23  C   UNL A   1      36.125  22.576  23.865  1.00  0.00     0.023 C 
BRANCH  23  24
ATOM     24  C   UNL A   1      36.778  21.294  24.385  1.00  0.00     0.023 C 
BRANCH  24  25
ATOM     25  C   UNL A   1      37.556  21.377  25.693  1.00  0.00     0.116 C 
BRANCH  25  26
ATOM     26  N   UNL A   1      38.919  20.864  25.649  1.00  0.00    -0.352 N 
ATOM     27  C   UNL A   1      40.078  21.205  26.331  1.00  0.00     0.251 C 
ATOM     28  H   UNL A   1      39.043  20.129  25.005  1.00  0.00     0.163 HD
ATOM     29  O   UNL A   1      41.063  20.507  26.240  1.00  0.00    -0.269 OA
BRANCH  27  30
ATOM     30  C   UNL A   1      40.154  22.505  27.030  1.00  0.00     0.039 A 
ATOM     31  C   UNL A   1      41.180  22.662  27.965  1.00  0.00     0.014 A 
ATOM     32  C   UNL A   1      39.370  23.585  26.657  1.00  0.00     0.014 A 
ATOM     33  C   UNL A   1      41.539  23.943  28.377  1.00  0.00     0.010 A 
ATOM     34  C   UNL A   1      39.823  24.864  26.942  1.00  0.00     0.010 A 
ATOM     35  C   UNL A   1      40.935  25.058  27.778  1.00  0.00    -0.014 A 
BRANCH  35  36
ATOM     36  C   UNL A   1      41.476  26.429  27.965  1.00  0.00     0.031 A 
ATOM     37  C   UNL A   1      42.833  26.778  27.425  1.00  0.00     0.074 A 
ATOM     38  C   UNL A   1      40.802  27.314  28.730  1.00  0.00     0.049 A 
ATOM     39  N   UNL A   1      43.557  27.847  27.633  1.00  0.00    -0.248 NA
ATOM     40  C   UNL A   1      43.491  25.760  26.592  1.00  0.00     0.031 C 
ATOM     41  C   UNL A   1      39.518  27.069  29.393  1.00  0.00     0.029 A 
ATOM     42  N   UNL A   1      41.110  28.604  29.086  1.00  0.00    -0.354 N 
ATOM     43  C   UNL A   1      44.773  27.600  27.011  1.00  0.00     0.074 A 
ATOM     44  C   UNL A   1      44.710  26.262  26.468  1.00  0.00     0.031 C 
ATOM     45  C   UNL A   1      39.126  28.184  30.028  1.00  0.00     0.029 A 
ATOM     46  C   UNL A   1      40.147  29.209  29.859  1.00  0.00     0.049 A 
ATOM     47  H   UNL A   1      41.942  29.053  28.813  1.00  0.00     0.167 HD
ATOM     48  C   UNL A   1      45.835  28.427  26.877  1.00  0.00     0.037 A 
ATOM     49  C   UNL A   1      40.098  30.453  30.369  1.00  0.00     0.037 A 
ATOM     50  C   UNL A   1      45.853  29.790  27.335  1.00  0.00     0.049 A 
ATOM     51  C   UNL A   1      41.243  31.392  30.111  1.00  0.00     0.074 A 
ATOM     52  C   UNL A   1      46.835  30.747  27.161  1.00  0.00     0.029 A 
ATOM     53  N   UNL A   1      44.820  30.394  28.037  1.00  0.00    -0.354 N 
ATOM     54  N   UNL A   1      42.365  31.167  29.472  1.00  0.00    -0.248 NA
ATOM     55  C   UNL A   1      41.115  32.756  30.641  1.00  0.00     0.031 C 
ATOM     56  C   UNL A   1      46.403  31.930  27.771  1.00  0.00     0.029 A 
ATOM     57  C   UNL A   1      45.140  31.715  28.300  1.00  0.00     0.049 A 
ATOM     58  H   UNL A   1      43.985  29.950  28.308  1.00  0.00     0.167 HD
ATOM     59  C   UNL A   1      43.065  32.364  29.501  1.00  0.00     0.074 A 
ATOM     60  C   UNL A   1      42.236  33.316  30.210  1.00  0.00     0.031 C 
ATOM     61  C   UNL A   1      44.288  32.648  28.992  1.00  0.00     0.037 A 
BRANCH  48  62
ATOM     62  C   UNL A   1      47.049  27.881  26.185  1.00  0.00     0.064 A 
ATOM     63  C   UNL A   1      47.136  27.829  24.786  1.00  0.00     0.173 A 
ATOM     64  C   UNL A   1      48.135  27.399  26.929  1.00  0.00     0.173 A 
ATOM     65  F   UNL A   1      46.116  28.262  24.029  1.00  0.00    -0.203 F 
ATOM     66  C   UNL A   1      48.246  27.272  24.157  1.00  0.00     0.198 A 
ATOM     67  C   UNL A   1      49.258  26.872  26.296  1.00  0.00     0.198 A 
ATOM     68  F   UNL A   1      48.104  27.428  28.270  1.00  0.00    -0.203 F 
ATOM     69  F   UNL A   1      48.276  27.170  22.821  1.00  0.00    -0.200 F 
ATOM     70  C   UNL A   1      49.308  26.800  24.913  1.00  0.00     0.200 A 
ATOM     71  F   UNL A   1      50.288  26.423  27.027  1.00  0.00    -0.200 F 
ATOM     72  F   UNL A   1      50.375  26.260  24.306  1.00  0.00    -0.200 F 
ENDBRANCH  48  62
BRANCH  49  73
ATOM     73  C   UNL A   1      38.899  30.901  31.125  1.00  0.00     0.064 A 
ATOM     74  C   UNL A   1      38.835  30.740  32.516  1.00  0.00     0.173 A 
ATOM     75  C   UNL A   1      37.805  31.500  30.486  1.00  0.00     0.173 A 
ATOM     76  F   UNL A   1      39.851  30.156  33.168  1.00  0.00    -0.203 F 
ATOM     77  C   UNL A   1      37.713  31.140  33.237  1.00  0.00     0.198 A 
ATOM     78  C   UNL A   1      36.692  31.922  31.210  1.00  0.00     0.198 A 
ATOM     79  F   UNL A   1      37.823  31.686  29.157  1.00  0.00    -0.203 F 
ATOM     80  F   UNL A   1      37.661  30.937  34.560  1.00  0.00    -0.200 F 
ATOM     81  C   UNL A   1      36.643  31.735  32.584  1.00  0.00     0.200 A 
ATOM     82  F   UNL A   1      35.665  32.506  30.579  1.00  0.00    -0.200 F 
ATOM     83  F   UNL A   1      35.564  32.123  33.278  1.00  0.00    -0.200 F 
ENDBRANCH  49  73
BRANCH  61  84
ATOM     84  C   UNL A   1      44.785  34.051  29.150  1.00  0.00     0.064 A 
ATOM     85  C   UNL A   1      45.573  34.427  30.246  1.00  0.00     0.173 A 
ATOM     86  C   UNL A   1      44.512  35.014  28.169  1.00  0.00     0.173 A 
ATOM     87  F   UNL A   1      45.846  33.541  31.217  1.00  0.00    -0.203 F 
ATOM     88  C   UNL A   1      46.059  35.725  30.361  1.00  0.00     0.198 A 
ATOM     89  C   UNL A   1      45.018  36.305  28.275  1.00  0.00     0.198 A 
ATOM     90  F   UNL A   1      43.765  34.698  27.100  1.00  0.00    -0.203 F 
ATOM     91  F   UNL A   1      46.783  36.075  31.434  1.00  0.00    -0.200 F 
ATOM     92  C   UNL A   1      45.789  36.660  29.373  1.00  0.00     0.200 A 
ATOM     93  F   UNL A   1      44.764  37.205  27.316  1.00  0.00    -0.200 F 
ATOM     94  F   UNL A   1      46.265  37.908  29.481  1.00  0.00    -0.200 F 
ENDBRANCH  61  84
ENDBRANCH  35  36
ENDBRANCH  27  30
ENDBRANCH  25  26
ENDBRANCH  24  25
ENDBRANCH  23  24
ENDBRANCH   1  23
TORSDOF 19
ENDMDL
MODEL 2
REMARK VINA RESULT:     -10.6      4.239      9.799
REMARK SMILES CCC([NH3+])(CC)C(=O)N(CCC(=O)NCCCCNC(=O)c1ccc(-c2c3nc(c(-c4c(F)c(F)c(F)c(F)c4F)c4ccc([nH]4)c(-c4c(F)c(F)c(F)c(F)c4F)c4nc(c(-c5c(F)c(F)c(F)c(F)c5F)c5ccc2[nH]5)C=C4)C=C3)cc1)C(C)C
REMARK SMILES IDX 15 1 14 2 12 3 13 4 11 6 10 7 9 8 7 9 8 10 3 11 2 12 1 13
REMARK SMILES IDX 4 14 5 18 6 19 85 20 86 21 87 22 16 23 17 24 18 25 19 26
REMARK SMILES IDX 20 27 21 29 22 30 23 31 84 32 24 33 83 34 25 35 26 36 27 37
REMARK SMILES IDX 77 38 28 39 82 40 76 41 78 42 29 43 81 44 75 45 74 46 30 48
REMARK SMILES IDX 62 49 42 50 61 51 43 52 46 53 60 54 79 55 44 56 45 57 59 59
REMARK SMILES IDX 80 60 47 61 31 62 32 63 40 64 33 65 34 66 38 67 41 68 35 69
REMARK SMILES IDX 36 70 39 71 37 72 63 73 64 74 72 75 65 76 66 77 70 78 73 79
REMARK SMILES IDX 67 80 68 81 71 82 69 83 48 84 49 85 57 86 50 87 51 88 55 89
REMARK SMILES IDX 58 90 52 91 53 92 56 93 54 94
REMARK H PARENT 14 5 4 15 4 16 4 17 19 28 78 47 46 58
REMARK Flexibility Score: inf
ROOT
ATOM      1  C   UNL A   1      33.165  28.898  23.769  1.00  0.00     0.116 C 
ENDROOT
BRANCH   1   2
ATOM      2  N   UNL A   1      33.225  28.034  22.593  1.00  0.00    -0.356 N 
ATOM      3  C   UNL A   1      33.549  26.724  22.405  1.00  0.00     0.221 C 
ATOM      4  O   UNL A   1      33.549  26.301  21.246  1.00  0.00    -0.275 OA
ATOM      5  H   UNL A   1      32.980  28.495  21.759  1.00  0.00     0.163 HD
BRANCH   3   6
ATOM      6  C   UNL A   1      33.901  25.793  23.550  1.00  0.00     0.121 C 
BRANCH   6   7
ATOM      7  C   UNL A   1      33.876  24.314  23.094  1.00  0.00     0.130 C 
BRANCH   7   8
ATOM      8  N   UNL A   1      33.281  23.399  24.095  1.00  0.00    -0.334 N 
BRANCH   8   9
ATOM      9  C   UNL A   1      32.830  23.656  25.390  1.00  0.00     0.284 C 
ATOM     10  O   UNL A   1      33.638  23.576  26.326  1.00  0.00    -0.268 OA
BRANCH   9  11
ATOM     11  C   UNL A   1      31.364  24.074  25.721  1.00  0.00     0.173 C 
BRANCH  11  12
ATOM     12  C   UNL A   1      30.761  24.844  24.492  1.00  0.00     0.075 C 
ATOM     13  C   UNL A   1      29.710  25.920  24.788  1.00  0.00     0.011 C 
ENDBRANCH  11  12
BRANCH  11  14
ATOM     14  N   UNL A   1      31.338  25.001  26.876  1.00  0.00    -0.345 N 
ATOM     15  H   UNL A   1      32.264  25.411  27.005  1.00  0.00     0.345 HD
ATOM     16  H   UNL A   1      31.073  24.490  27.718  1.00  0.00     0.345 HD
ATOM     17  H   UNL A   1      30.660  25.743  26.702  1.00  0.00     0.345 HD
ENDBRANCH  11  14
BRANCH  11  18
ATOM     18  C   UNL A   1      30.459  22.845  26.005  1.00  0.00     0.075 C 
ATOM     19  C   UNL A   1      29.576  22.973  27.245  1.00  0.00     0.011 C 
ENDBRANCH  11  18
ENDBRANCH   9  11
ENDBRANCH   8   9
BRANCH   8  20
ATOM     20  C   UNL A   1      33.249  21.995  23.685  1.00  0.00     0.079 C 
ATOM     21  C   UNL A   1      33.248  21.072  24.906  1.00  0.00     0.031 C 
ATOM     22  C   UNL A   1      32.175  21.662  22.648  1.00  0.00     0.031 C 
ENDBRANCH   8  20
ENDBRANCH   7   8
ENDBRANCH   6   7
ENDBRANCH   3   6
ENDBRANCH   1   2
BRANCH   1  23
ATOM     23  C   UNL A   1      31.717  29.050  24.263  1.00  0.00     0.023 C 
BRANCH  23  24
ATOM     24  C   UNL A   1      31.472  30.077  25.370  1.00  0.00     0.023 C 
BRANCH  24  25
ATOM     25  C   UNL A   1      32.524  30.198  26.467  1.00  0.00     0.116 C 
BRANCH  25  26
ATOM     26  N   UNL A   1      32.562  31.476  27.164  1.00  0.00    -0.352 N 
ATOM     27  C   UNL A   1      33.604  32.267  27.627  1.00  0.00     0.251 C 
ATOM     28  H   UNL A   1      31.671  31.855  27.343  1.00  0.00     0.163 HD
ATOM     29  O   UNL A   1      33.382  33.387  28.031  1.00  0.00    -0.269 OA
BRANCH  27  30
ATOM     30  C   UNL A   1      34.950  31.679  27.781  1.00  0.00     0.039 A 
ATOM     31  C   UNL A   1      35.977  32.540  28.176  1.00  0.00     0.014 A 
ATOM     32  C   UNL A   1      35.164  30.311  27.718  1.00  0.00     0.014 A 
ATOM     33  C   UNL A   1      37.156  32.006  28.692  1.00  0.00     0.010 A 
ATOM     34  C   UNL A   1      36.266  29.780  28.372  1.00  0.00     0.010 A 
ATOM     35  C   UNL A   1      37.258  30.623  28.899  1.00  0.00    -0.014 A 
BRANCH  35  36
ATOM     36  C   UNL A   1      38.361  30.037  29.702  1.00  0.00     0.031 A 
ATOM     37  C   UNL A   1      38.534  30.439  31.139  1.00  0.00     0.074 A 
ATOM     38  C   UNL A   1      39.277  29.247  29.104  1.00  0.00     0.049 A 
ATOM     39  N   UNL A   1      39.525  30.188  31.955  1.00  0.00    -0.248 NA
ATOM     40  C   UNL A   1      37.483  31.292  31.715  1.00  0.00     0.031 C 
ATOM     41  C   UNL A   1      39.278  28.857  27.691  1.00  0.00     0.029 A 
ATOM     42  N   UNL A   1      40.396  28.632  29.611  1.00  0.00    -0.354 N 
ATOM     43  C   UNL A   1      39.245  30.902  33.112  1.00  0.00     0.074 A 
ATOM     44  C   UNL A   1      38.024  31.639  32.873  1.00  0.00     0.031 C 
ATOM     45  C   UNL A   1      40.311  28.031  27.459  1.00  0.00     0.029 A 
ATOM     46  C   UNL A   1      41.073  27.868  28.691  1.00  0.00     0.049 A 
ATOM     47  H   UNL A   1      40.685  28.729  30.547  1.00  0.00     0.167 HD
ATOM     48  C   UNL A   1      39.927  30.917  34.280  1.00  0.00     0.037 A 
ATOM     49  C   UNL A   1      42.181  27.118  28.830  1.00  0.00     0.037 A 
ATOM     50  C   UNL A   1      41.085  30.107  34.543  1.00  0.00     0.049 A 
ATOM     51  C   UNL A   1      42.859  27.063  30.170  1.00  0.00     0.074 A 
ATOM     52  C   UNL A   1      41.792  29.966  35.723  1.00  0.00     0.029 A 
ATOM     53  N   UNL A   1      41.688  29.276  33.610  1.00  0.00    -0.354 N 
ATOM     54  N   UNL A   1      42.552  27.698  31.276  1.00  0.00    -0.248 NA
ATOM     55  C   UNL A   1      44.032  26.187  30.285  1.00  0.00     0.031 C 
ATOM     56  C   UNL A   1      42.834  29.059  35.501  1.00  0.00     0.029 A 
ATOM     57  C   UNL A   1      42.758  28.616  34.189  1.00  0.00     0.049 A 
ATOM     58  H   UNL A   1      41.399  29.172  32.675  1.00  0.00     0.167 HD
ATOM     59  C   UNL A   1      43.476  27.281  32.222  1.00  0.00     0.074 A 
ATOM     60  C   UNL A   1      44.347  26.329  31.565  1.00  0.00     0.031 C 
ATOM     61  C   UNL A   1      43.598  27.658  33.518  1.00  0.00     0.037 A 
BRANCH  48  62
ATOM     62  C   UNL A   1      39.416  31.820  35.364  1.00  0.00     0.064 A 
ATOM     63  C   UNL A   1      39.835  33.155  35.468  1.00  0.00     0.173 A 
ATOM     64  C   UNL A   1      38.500  31.343  36.312  1.00  0.00     0.173 A 
ATOM     65  F   UNL A   1      40.724  33.653  34.595  1.00  0.00    -0.203 F 
ATOM     66  C   UNL A   1      39.392  33.966  36.508  1.00  0.00     0.198 A 
ATOM     67  C   UNL A   1      38.033  32.168  37.333  1.00  0.00     0.198 A 
ATOM     68  F   UNL A   1      38.064  30.076  36.257  1.00  0.00    -0.203 F 
ATOM     69  F   UNL A   1      39.860  35.216  36.627  1.00  0.00    -0.200 F 
ATOM     70  C   UNL A   1      38.487  33.473  37.437  1.00  0.00     0.200 A 
ATOM     71  F   UNL A   1      37.152  31.693  38.226  1.00  0.00    -0.200 F 
ATOM     72  F   UNL A   1      38.064  34.254  38.441  1.00  0.00    -0.200 F 
ENDBRANCH  48  62
BRANCH  49  73
ATOM     73  C   UNL A   1      42.687  26.316  27.686  1.00  0.00     0.064 A 
ATOM     74  C   UNL A   1      43.698  26.820  26.856  1.00  0.00     0.173 A 
ATOM     75  C   UNL A   1      42.184  25.039  27.401  1.00  0.00     0.173 A 
ATOM     76  F   UNL A   1      44.197  28.045  27.080  1.00  0.00    -0.203 F 
ATOM     77  C   UNL A   1      44.171  26.088  25.770  1.00  0.00     0.198 A 
ATOM     78  C   UNL A   1      42.675  24.296  26.328  1.00  0.00     0.198 A 
ATOM     79  F   UNL A   1      41.223  24.508  28.172  1.00  0.00    -0.203 F 
ATOM     80  F   UNL A   1      45.110  26.610  24.970  1.00  0.00    -0.200 F 
ATOM     81  C   UNL A   1      43.663  24.824  25.510  1.00  0.00     0.200 A 
ATOM     82  F   UNL A   1      42.190  23.071  26.086  1.00  0.00    -0.200 F 
ATOM     83  F   UNL A   1      44.120  24.118  24.467  1.00  0.00    -0.200 F 
ENDBRANCH  49  73
BRANCH  61  84
ATOM     84  C   UNL A   1      44.686  27.012  34.318  1.00  0.00     0.064 A 
ATOM     85  C   UNL A   1      45.964  27.580  34.405  1.00  0.00     0.173 A 
ATOM     86  C   UNL A   1      44.430  25.841  35.045  1.00  0.00     0.173 A 
ATOM     87  F   UNL A   1      46.256  28.693  33.713  1.00  0.00    -0.203 F 
ATOM     88  C   UNL A   1      46.954  26.989  35.182  1.00  0.00     0.198 A 
ATOM     89  C   UNL A   1      45.416  25.264  35.839  1.00  0.00     0.198 A 
ATOM     90  F   UNL A   1      43.220  25.263  34.994  1.00  0.00    -0.203 F 
ATOM     91  F   UNL A   1      48.180  27.530  35.226  1.00  0.00    -0.200 F 
ATOM     92  C   UNL A   1      46.678  25.838  35.904  1.00  0.00     0.200 A 
ATOM     93  F   UNL A   1      45.146  24.157  36.543  1.00  0.00    -0.200 F 
ATOM     94  F   UNL A   1      47.631  25.274  36.660  1.00  0.00    -0.200 F 
ENDBRANCH  61  84
ENDBRANCH  35  36
ENDBRANCH  27  30
ENDBRANCH  25  26
ENDBRANCH  24  25
ENDBRANCH  23  24
ENDBRANCH   1  23
TORSDOF 19
ENDMDL
MODEL 3
REMARK VINA RESULT:     -10.6      1.157      2.722
REMARK SMILES CCC([NH3+])(CC)C(=O)N(CCC(=O)NCCCCNC(=O)c1ccc(-c2c3nc(c(-c4c(F)c(F)c(F)c(F)c4F)c4ccc([nH]4)c(-c4c(F)c(F)c(F)c(F)c4F)c4nc(c(-c5c(F)c(F)c(F)c(F)c5F)c5ccc2[nH]5)C=C4)C=C3)cc1)C(C)C
REMARK SMILES IDX 15 1 14 2 12 3 13 4 11 6 10 7 9 8 7 9 8 10 3 11 2 12 1 13
REMARK SMILES IDX 4 14 5 18 6 19 85 20 86 21 87 22 16 23 17 24 18 25 19 26
REMARK SMILES IDX 20 27 21 29 22 30 23 31 84 32 24 33 83 34 25 35 26 36 27 37
REMARK SMILES IDX 77 38 28 39 82 40 76 41 78 42 29 43 81 44 75 45 74 46 30 48
REMARK SMILES IDX 62 49 42 50 61 51 43 52 46 53 60 54 79 55 44 56 45 57 59 59
REMARK SMILES IDX 80 60 47 61 31 62 32 63 40 64 33 65 34 66 38 67 41 68 35 69
REMARK SMILES IDX 36 70 39 71 37 72 63 73 64 74 72 75 65 76 66 77 70 78 73 79
REMARK SMILES IDX 67 80 68 81 71 82 69 83 48 84 49 85 57 86 50 87 51 88 55 89
REMARK SMILES IDX 58 90 52 91 53 92 56 93 54 94
REMARK H PARENT 14 5 4 15 4 16 4 17 19 28 78 47 46 58
REMARK Flexibility Score: inf
ROOT
ATOM      1  C   UNL A   1      36.574  23.731  25.158  1.00  0.00     0.116 C 
ENDROOT
BRANCH   1   2
ATOM      2  N   UNL A   1      35.307  23.559  25.864  1.00  0.00    -0.356 N 
ATOM      3  C   UNL A   1      34.142  24.265  25.890  1.00  0.00     0.221 C 
ATOM      4  O   UNL A   1      33.257  23.870  26.653  1.00  0.00    -0.275 OA
ATOM      5  H   UNL A   1      35.291  22.765  26.445  1.00  0.00     0.163 HD
BRANCH   3   6
ATOM      6  C   UNL A   1      33.907  25.492  25.030  1.00  0.00     0.121 C 
BRANCH   6   7
ATOM      7  C   UNL A   1      33.490  26.707  25.894  1.00  0.00     0.130 C 
BRANCH   7   8
ATOM      8  N   UNL A   1      32.078  27.109  25.703  1.00  0.00    -0.334 N 
BRANCH   8   9
ATOM      9  C   UNL A   1      30.962  26.337  25.380  1.00  0.00     0.284 C 
ATOM     10  O   UNL A   1      30.328  25.796  26.297  1.00  0.00    -0.268 OA
BRANCH   9  11
ATOM     11  C   UNL A   1      30.446  26.144  23.920  1.00  0.00     0.173 C 
BRANCH  11  12
ATOM     12  C   UNL A   1      30.194  24.616  23.664  1.00  0.00     0.075 C 
ATOM     13  C   UNL A   1      31.401  23.766  23.249  1.00  0.00     0.011 C 
ENDBRANCH  11  12
BRANCH  11  14
ATOM     14  N   UNL A   1      31.472  26.589  22.946  1.00  0.00    -0.345 N 
ATOM     15  H   UNL A   1      31.157  26.375  21.999  1.00  0.00     0.345 HD
ATOM     16  H   UNL A   1      32.349  26.103  23.129  1.00  0.00     0.345 HD
ATOM     17  H   UNL A   1      31.614  27.595  23.037  1.00  0.00     0.345 HD
ENDBRANCH  11  14
BRANCH  11  18
ATOM     18  C   UNL A   1      29.114  26.897  23.668  1.00  0.00     0.075 C 
ATOM     19  C   UNL A   1      29.272  28.336  23.181  1.00  0.00     0.011 C 
ENDBRANCH  11  18
ENDBRANCH   9  11
ENDBRANCH   8   9
BRANCH   8  20
ATOM     20  C   UNL A   1      31.845  28.551  25.781  1.00  0.00     0.079 C 
ATOM     21  C   UNL A   1      31.748  29.008  27.238  1.00  0.00     0.031 C 
ATOM     22  C   UNL A   1      32.790  29.392  24.923  1.00  0.00     0.031 C 
ENDBRANCH   8  20
ENDBRANCH   7   8
ENDBRANCH   6   7
ENDBRANCH   3   6
ENDBRANCH   1   2
BRANCH   1  23
ATOM     23  C   UNL A   1      36.679  22.751  23.976  1.00  0.00     0.023 C 
BRANCH  23  24
ATOM     24  C   UNL A   1      37.313  21.390  24.267  1.00  0.00     0.023 C 
BRANCH  24  25
ATOM     25  C   UNL A   1      37.838  21.140  25.676  1.00  0.00     0.116 C 
BRANCH  25  26
ATOM     26  N   UNL A   1      39.181  20.581  25.758  1.00  0.00    -0.352 N 
ATOM     27  C   UNL A   1      40.293  20.904  26.522  1.00  0.00     0.251 C 
ATOM     28  H   UNL A   1      39.330  19.821  25.149  1.00  0.00     0.163 HD
ATOM     29  O   UNL A   1      41.256  20.171  26.532  1.00  0.00    -0.269 OA
BRANCH  27  30
ATOM     30  C   UNL A   1      40.359  22.223  27.186  1.00  0.00     0.039 A 
ATOM     31  C   UNL A   1      41.403  22.424  28.093  1.00  0.00     0.014 A 
ATOM     32  C   UNL A   1      39.545  23.278  26.805  1.00  0.00     0.014 A 
ATOM     33  C   UNL A   1      41.745  23.722  28.464  1.00  0.00     0.010 A 
ATOM     34  C   UNL A   1      39.979  24.572  27.047  1.00  0.00     0.010 A 
ATOM     35  C   UNL A   1      41.106  24.809  27.851  1.00  0.00    -0.014 A 
BRANCH  35  36
ATOM     36  C   UNL A   1      41.623  26.194  27.991  1.00  0.00     0.031 A 
ATOM     37  C   UNL A   1      42.965  26.553  27.420  1.00  0.00     0.074 A 
ATOM     38  C   UNL A   1      40.945  27.088  28.741  1.00  0.00     0.049 A 
ATOM     39  N   UNL A   1      43.672  27.641  27.586  1.00  0.00    -0.248 NA
ATOM     40  C   UNL A   1      43.630  25.524  26.605  1.00  0.00     0.031 C 
ATOM     41  C   UNL A   1      39.675  26.838  29.431  1.00  0.00     0.029 A 
ATOM     42  N   UNL A   1      41.233  28.393  29.055  1.00  0.00    -0.354 N 
ATOM     43  C   UNL A   1      44.883  27.399  26.952  1.00  0.00     0.074 A 
ATOM     44  C   UNL A   1      44.837  26.045  26.449  1.00  0.00     0.031 C 
ATOM     45  C   UNL A   1      39.272  27.964  30.041  1.00  0.00     0.029 A 
ATOM     46  C   UNL A   1      40.271  29.002  29.826  1.00  0.00     0.049 A 
ATOM     47  H   UNL A   1      42.052  28.850  28.757  1.00  0.00     0.167 HD
ATOM     48  C   UNL A   1      45.926  28.242  26.779  1.00  0.00     0.037 A 
ATOM     49  C   UNL A   1      40.205  30.260  30.302  1.00  0.00     0.037 A 
ATOM     50  C   UNL A   1      45.926  29.617  27.197  1.00  0.00     0.049 A 
ATOM     51  C   UNL A   1      41.328  31.212  29.999  1.00  0.00     0.074 A 
ATOM     52  C   UNL A   1      46.887  30.587  26.982  1.00  0.00     0.029 A 
ATOM     53  N   UNL A   1      44.892  30.222  27.898  1.00  0.00    -0.354 N 
ATOM     54  N   UNL A   1      42.445  30.989  29.349  1.00  0.00    -0.248 NA
ATOM     55  C   UNL A   1      41.183  32.587  30.493  1.00  0.00     0.031 C 
ATOM     56  C   UNL A   1      46.441  31.779  27.564  1.00  0.00     0.029 A 
ATOM     57  C   UNL A   1      45.191  31.555  28.119  1.00  0.00     0.049 A 
ATOM     58  H   UNL A   1      44.070  29.770  28.194  1.00  0.00     0.167 HD
ATOM     59  C   UNL A   1      43.123  32.199  29.333  1.00  0.00     0.074 A 
ATOM     60  C   UNL A   1      42.286  33.156  30.028  1.00  0.00     0.031 C 
ATOM     61  C   UNL A   1      44.332  32.491  28.797  1.00  0.00     0.037 A 
BRANCH  48  62
ATOM     62  C   UNL A   1      47.140  27.699  26.083  1.00  0.00     0.064 A 
ATOM     63  C   UNL A   1      48.222  27.167  26.799  1.00  0.00     0.173 A 
ATOM     64  C   UNL A   1      47.223  27.716  24.683  1.00  0.00     0.173 A 
ATOM     65  F   UNL A   1      48.199  27.145  28.140  1.00  0.00    -0.203 F 
ATOM     66  C   UNL A   1      49.363  26.714  26.143  1.00  0.00     0.198 A 
ATOM     67  C   UNL A   1      48.353  27.231  24.028  1.00  0.00     0.198 A 
ATOM     68  F   UNL A   1      46.214  28.210  23.950  1.00  0.00    -0.203 F 
ATOM     69  F   UNL A   1      50.412  26.275  26.852  1.00  0.00    -0.200 F 
ATOM     70  C   UNL A   1      49.425  26.742  24.758  1.00  0.00     0.200 A 
ATOM     71  F   UNL A   1      48.408  27.250  22.688  1.00  0.00    -0.200 F 
ATOM     72  F   UNL A   1      50.526  26.309  24.126  1.00  0.00    -0.200 F 
ENDBRANCH  48  62
BRANCH  49  73
ATOM     73  C   UNL A   1      39.010  30.707  31.063  1.00  0.00     0.064 A 
ATOM     74  C   UNL A   1      37.907  31.257  30.395  1.00  0.00     0.173 A 
ATOM     75  C   UNL A   1      38.938  30.591  32.458  1.00  0.00     0.173 A 
ATOM     76  F   UNL A   1      37.938  31.404  29.062  1.00  0.00    -0.203 F 
ATOM     77  C   UNL A   1      36.786  31.696  31.095  1.00  0.00     0.198 A 
ATOM     78  C   UNL A   1      37.806  31.008  33.156  1.00  0.00     0.198 A 
ATOM     79  F   UNL A   1      39.963  30.061  33.141  1.00  0.00    -0.203 F 
ATOM     80  F   UNL A   1      35.763  32.255  30.435  1.00  0.00    -0.200 F 
ATOM     81  C   UNL A   1      36.734  31.566  32.475  1.00  0.00     0.200 A 
ATOM     82  F   UNL A   1      37.754  30.872  34.487  1.00  0.00    -0.200 F 
ATOM     83  F   UNL A   1      35.654  31.986  33.148  1.00  0.00    -0.200 F 
ENDBRANCH  49  73
BRANCH  61  84
ATOM     84  C   UNL A   1      44.805  33.907  28.908  1.00  0.00     0.064 A 
ATOM     85  C   UNL A   1      44.483  34.864  27.936  1.00  0.00     0.173 A 
ATOM     86  C   UNL A   1      45.542  34.322  30.026  1.00  0.00     0.173 A 
ATOM     87  F   UNL A   1      43.791  34.507  26.842  1.00  0.00    -0.203 F 
ATOM     88  C   UNL A   1      44.898  36.184  28.071  1.00  0.00     0.198 A 
ATOM     89  C   UNL A   1      45.936  35.648  30.170  1.00  0.00     0.198 A 
ATOM     90  F   UNL A   1      45.870  33.441  30.985  1.00  0.00    -0.203 F 
ATOM     91  F   UNL A   1      44.608  37.077  27.113  1.00  0.00    -0.200 F 
ATOM     92  C   UNL A   1      45.616  36.577  29.190  1.00  0.00     0.200 A 
ATOM     93  F   UNL A   1      46.623  36.029  31.255  1.00  0.00    -0.200 F 
ATOM     94  F   UNL A   1      46.007  37.852  29.324  1.00  0.00    -0.200 F 
ENDBRANCH  61  84
ENDBRANCH  35  36
ENDBRANCH  27  30
ENDBRANCH  25  26
ENDBRANCH  24  25
ENDBRANCH  23  24
ENDBRANCH   1  23
TORSDOF 19
ENDMDL
