MODEL 1
REMARK VINA RESULT:     -12.6      0.000      0.000
REMARK SMILES CC(C)[C@@H](ON1C(=O)c2ccccc2C1=O)C(=O)NCCCCNC(=O)c1ccc(-c2c3nc(c(-c4c(F)c(F)c(F)c(F)c4F)c4ccc([nH]4)c(-c4c(F)c(F)c(F)c(F)c4F)c4nc(c(-c5c(F)c(F)c(F)c(F)c5F)c5ccc2[nH]5)C=C4)C=C3)cc1
REMARK SMILES IDX 21 1 20 2 19 3 17 4 18 5 4 7 2 8 1 9 3 10 5 11 6 12 7 13
REMARK SMILES IDX 15 14 8 15 9 16 14 17 16 18 10 19 13 20 11 21 12 22 22 23
REMARK SMILES IDX 23 24 24 25 25 26 26 28 27 29 28 30 89 31 29 32 88 33 30 34
REMARK SMILES IDX 31 35 32 36 82 37 33 38 87 39 81 40 83 41 34 42 86 43 80 44
REMARK SMILES IDX 79 45 35 47 67 48 47 49 66 50 48 51 51 52 65 53 84 54 49 55
REMARK SMILES IDX 50 56 64 58 85 59 52 60 36 61 37 62 45 63 38 64 39 65 43 66
REMARK SMILES IDX 46 67 40 68 41 69 44 70 42 71 68 72 69 73 77 74 70 75 71 76
REMARK SMILES IDX 75 77 78 78 72 79 73 80 76 81 74 82 53 83 54 84 62 85 55 86
REMARK SMILES IDX 56 87 60 88 63 89 57 90 58 91 61 92 59 93
REMARK H PARENT 19 6 24 27 83 46 51 57
REMARK Flexibility Score: inf
ROOT
ATOM      1  C   UNL A   1      31.793  30.470  26.826  1.00  0.00     0.023 C 
ENDROOT
BRANCH   1   2
ATOM      2  C   UNL A   1      32.394  29.945  25.526  1.00  0.00     0.116 C 
BRANCH   2   3
ATOM      3  N   UNL A   1      31.396  29.789  24.480  1.00  0.00    -0.354 N 
ATOM      4  C   UNL A   1      30.880  28.642  23.935  1.00  0.00     0.252 C 
ATOM      5  O   UNL A   1      30.023  28.757  23.055  1.00  0.00    -0.272 OA
ATOM      6  H   UNL A   1      31.038  30.628  24.111  1.00  0.00     0.163 HD
BRANCH   4   7
ATOM      7  C   UNL A   1      31.410  27.261  24.357  1.00  0.00     0.241 C 
BRANCH   7   8
ATOM      8  C   UNL A   1      30.244  26.258  24.621  1.00  0.00     0.024 C 
ATOM      9  C   UNL A   1      30.082  25.204  23.513  1.00  0.00     0.011 C 
ATOM     10  C   UNL A   1      30.418  25.460  25.926  1.00  0.00     0.011 C 
ENDBRANCH   7   8
BRANCH   7  11
ATOM     11  O   UNL A   1      32.307  26.926  23.273  1.00  0.00    -0.249 OA
BRANCH  11  12
ATOM     12  N   UNL A   1      33.227  25.958  23.639  1.00  0.00    -0.144 N 
ATOM     13  C   UNL A   1      33.931  25.998  24.799  1.00  0.00     0.285 C 
ATOM     14  C   UNL A   1      33.647  25.005  22.767  1.00  0.00     0.285 C 
ATOM     15  O   UNL A   1      33.917  26.798  25.713  1.00  0.00    -0.266 OA
ATOM     16  C   UNL A   1      34.760  24.790  24.770  1.00  0.00     0.055 A 
ATOM     17  C   UNL A   1      34.563  24.171  23.542  1.00  0.00     0.055 A 
ATOM     18  O   UNL A   1      33.338  24.800  21.607  1.00  0.00    -0.266 OA
ATOM     19  C   UNL A   1      35.520  24.211  25.763  1.00  0.00     0.015 A 
ATOM     20  C   UNL A   1      35.071  22.921  23.258  1.00  0.00     0.015 A 
ATOM     21  C   UNL A   1      36.048  22.944  25.499  1.00  0.00     0.001 A 
ATOM     22  C   UNL A   1      35.815  22.300  24.264  1.00  0.00     0.001 A 
ENDBRANCH  11  12
ENDBRANCH   7  11
ENDBRANCH   4   7
ENDBRANCH   2   3
ENDBRANCH   1   2
BRANCH   1  23
ATOM     23  C   UNL A   1      31.575  31.980  26.863  1.00  0.00     0.023 C 
BRANCH  23  24
ATOM     24  C   UNL A   1      32.780  32.793  27.322  1.00  0.00     0.116 C 
BRANCH  24  25
ATOM     25  N   UNL A   1      32.448  34.171  27.653  1.00  0.00    -0.352 N 
ATOM     26  C   UNL A   1      33.005  34.992  28.604  1.00  0.00     0.251 C 
ATOM     27  H   UNL A   1      31.723  34.571  27.121  1.00  0.00     0.163 HD
ATOM     28  O   UNL A   1      32.515  36.091  28.840  1.00  0.00    -0.269 OA
BRANCH  26  29
ATOM     29  C   UNL A   1      34.179  34.527  29.372  1.00  0.00     0.039 A 
ATOM     30  C   UNL A   1      33.977  33.963  30.635  1.00  0.00     0.014 A 
ATOM     31  C   UNL A   1      35.467  34.619  28.840  1.00  0.00     0.014 A 
ATOM     32  C   UNL A   1      35.060  33.423  31.330  1.00  0.00     0.010 A 
ATOM     33  C   UNL A   1      36.531  34.007  29.497  1.00  0.00     0.010 A 
ATOM     34  C   UNL A   1      36.338  33.400  30.747  1.00  0.00    -0.014 A 
BRANCH  34  35
ATOM     35  C   UNL A   1      37.479  32.730  31.422  1.00  0.00     0.031 A 
ATOM     36  C   UNL A   1      38.166  31.563  30.772  1.00  0.00     0.074 A 
ATOM     37  C   UNL A   1      37.853  33.134  32.652  1.00  0.00     0.049 A 
ATOM     38  N   UNL A   1      39.136  30.812  31.232  1.00  0.00    -0.248 NA
ATOM     39  C   UNL A   1      37.681  31.167  29.441  1.00  0.00     0.031 C 
ATOM     40  C   UNL A   1      37.233  34.223  33.410  1.00  0.00     0.029 A 
ATOM     41  N   UNL A   1      38.838  32.670  33.488  1.00  0.00    -0.354 N 
ATOM     42  C   UNL A   1      39.368  29.855  30.254  1.00  0.00     0.074 A 
ATOM     43  C   UNL A   1      38.400  30.081  29.202  1.00  0.00     0.031 C 
ATOM     44  C   UNL A   1      37.867  34.358  34.585  1.00  0.00     0.029 A 
ATOM     45  C   UNL A   1      38.908  33.340  34.685  1.00  0.00     0.049 A 
ATOM     46  H   UNL A   1      39.439  31.926  33.252  1.00  0.00     0.167 HD
ATOM     47  C   UNL A   1      40.318  28.890  30.223  1.00  0.00     0.037 A 
ATOM     48  C   UNL A   1      39.713  33.149  35.747  1.00  0.00     0.037 A 
ATOM     49  C   UNL A   1      41.289  28.678  31.266  1.00  0.00     0.049 A 
ATOM     50  C   UNL A   1      40.746  32.056  35.697  1.00  0.00     0.074 A 
ATOM     51  C   UNL A   1      42.329  27.765  31.303  1.00  0.00     0.029 A 
ATOM     52  N   UNL A   1      41.334  29.383  32.459  1.00  0.00    -0.354 N 
ATOM     53  N   UNL A   1      41.007  31.206  34.734  1.00  0.00    -0.248 NA
ATOM     54  C   UNL A   1      41.603  31.901  36.881  1.00  0.00     0.031 C 
ATOM     55  C   UNL A   1      42.965  27.877  32.543  1.00  0.00     0.029 A 
ATOM     56  C   UNL A   1      42.366  28.906  33.253  1.00  0.00     0.049 A 
ATOM     57  H   UNL A   1      40.723  30.115  32.707  1.00  0.00     0.167 HD
ATOM     58  C   UNL A   1      42.074  30.438  35.181  1.00  0.00     0.074 A 
ATOM     59  C   UNL A   1      42.423  30.935  36.495  1.00  0.00     0.031 C 
ATOM     60  C   UNL A   1      42.707  29.413  34.559  1.00  0.00     0.037 A 
BRANCH  47  61
ATOM     61  C   UNL A   1      40.353  27.985  29.024  1.00  0.00     0.064 A 
ATOM     62  C   UNL A   1      39.625  26.785  28.983  1.00  0.00     0.173 A 
ATOM     63  C   UNL A   1      41.092  28.340  27.885  1.00  0.00     0.173 A 
ATOM     64  F   UNL A   1      38.909  26.393  30.047  1.00  0.00    -0.203 F 
ATOM     65  C   UNL A   1      39.665  25.959  27.862  1.00  0.00     0.198 A 
ATOM     66  C   UNL A   1      41.101  27.529  26.754  1.00  0.00     0.198 A 
ATOM     67  F   UNL A   1      41.801  29.480  27.866  1.00  0.00    -0.203 F 
ATOM     68  F   UNL A   1      39.007  24.793  27.869  1.00  0.00    -0.200 F 
ATOM     69  C   UNL A   1      40.396  26.336  26.746  1.00  0.00     0.200 A 
ATOM     70  F   UNL A   1      41.795  27.902  25.669  1.00  0.00    -0.200 F 
ATOM     71  F   UNL A   1      40.425  25.545  25.664  1.00  0.00    -0.200 F 
ENDBRANCH  47  61
BRANCH  48  72
ATOM     72  C   UNL A   1      39.587  34.024  36.943  1.00  0.00     0.064 A 
ATOM     73  C   UNL A   1      40.245  35.261  37.004  1.00  0.00     0.173 A 
ATOM     74  C   UNL A   1      38.813  33.644  38.049  1.00  0.00     0.173 A 
ATOM     75  F   UNL A   1      41.014  35.661  35.980  1.00  0.00    -0.203 F 
ATOM     76  C   UNL A   1      40.155  36.070  38.135  1.00  0.00     0.198 A 
ATOM     77  C   UNL A   1      38.697  34.469  39.166  1.00  0.00     0.198 A 
ATOM     78  F   UNL A   1      38.157  32.473  38.041  1.00  0.00    -0.203 F 
ATOM     79  F   UNL A   1      40.838  37.223  38.186  1.00  0.00    -0.200 F 
ATOM     80  C   UNL A   1      39.376  35.677  39.212  1.00  0.00     0.200 A 
ATOM     81  F   UNL A   1      37.930  34.092  40.198  1.00  0.00    -0.200 F 
ATOM     82  F   UNL A   1      39.287  36.457  40.297  1.00  0.00    -0.200 F 
ENDBRANCH  48  72
BRANCH  60  83
ATOM     83  C   UNL A   1      43.871  28.784  35.271  1.00  0.00     0.064 A 
ATOM     84  C   UNL A   1      43.702  27.714  36.163  1.00  0.00     0.173 A 
ATOM     85  C   UNL A   1      45.178  29.236  35.029  1.00  0.00     0.173 A 
ATOM     86  F   UNL A   1      42.472  27.254  36.442  1.00  0.00    -0.203 F 
ATOM     87  C   UNL A   1      44.795  27.139  36.807  1.00  0.00     0.198 A 
ATOM     88  C   UNL A   1      46.271  28.635  35.648  1.00  0.00     0.198 A 
ATOM     89  F   UNL A   1      45.397  30.251  34.180  1.00  0.00    -0.203 F 
ATOM     90  F   UNL A   1      44.605  26.155  37.695  1.00  0.00    -0.200 F 
ATOM     91  C   UNL A   1      46.078  27.594  36.542  1.00  0.00     0.200 A 
ATOM     92  F   UNL A   1      47.511  29.064  35.377  1.00  0.00    -0.200 F 
ATOM     93  F   UNL A   1      47.130  27.034  37.156  1.00  0.00    -0.200 F 
ENDBRANCH  60  83
ENDBRANCH  34  35
ENDBRANCH  26  29
ENDBRANCH  24  25
ENDBRANCH  23  24
ENDBRANCH   1  23
TORSDOF 14
ENDMDL
MODEL 2
REMARK VINA RESULT:     -12.6      0.174      1.602
REMARK SMILES CC(C)[C@@H](ON1C(=O)c2ccccc2C1=O)C(=O)NCCCCNC(=O)c1ccc(-c2c3nc(c(-c4c(F)c(F)c(F)c(F)c4F)c4ccc([nH]4)c(-c4c(F)c(F)c(F)c(F)c4F)c4nc(c(-c5c(F)c(F)c(F)c(F)c5F)c5ccc2[nH]5)C=C4)C=C3)cc1
REMARK SMILES IDX 21 1 20 2 19 3 17 4 18 5 4 7 2 8 1 9 3 10 5 11 6 12 7 13
REMARK SMILES IDX 15 14 8 15 9 16 14 17 16 18 10 19 13 20 11 21 12 22 22 23
REMARK SMILES IDX 23 24 24 25 25 26 26 28 27 29 28 30 89 31 29 32 88 33 30 34
REMARK SMILES IDX 31 35 32 36 82 37 33 38 87 39 81 40 83 41 34 42 86 43 80 44
REMARK SMILES IDX 79 45 35 47 67 48 47 49 66 50 48 51 51 52 65 53 84 54 49 55
REMARK SMILES IDX 50 56 64 58 85 59 52 60 36 61 37 62 45 63 38 64 39 65 43 66
REMARK SMILES IDX 46 67 40 68 41 69 44 70 42 71 68 72 69 73 77 74 70 75 71 76
REMARK SMILES IDX 75 77 78 78 72 79 73 80 76 81 74 82 53 83 54 84 62 85 55 86
REMARK SMILES IDX 56 87 60 88 63 89 57 90 58 91 61 92 59 93
REMARK H PARENT 19 6 24 27 83 46 51 57
REMARK Flexibility Score: inf
ROOT
ATOM      1  C   UNL A   1      31.965  30.408  26.785  1.00  0.00     0.023 C 
ENDROOT
BRANCH   1   2
ATOM      2  C   UNL A   1      32.398  29.935  25.401  1.00  0.00     0.116 C 
BRANCH   2   3
ATOM      3  N   UNL A   1      31.265  29.696  24.521  1.00  0.00    -0.354 N 
ATOM      4  C   UNL A   1      30.723  28.508  24.104  1.00  0.00     0.252 C 
ATOM      5  O   UNL A   1      29.744  28.552  23.356  1.00  0.00    -0.272 OA
ATOM      6  H   UNL A   1      30.823  30.504  24.174  1.00  0.00     0.163 HD
BRANCH   4   7
ATOM      7  C   UNL A   1      31.366  27.167  24.499  1.00  0.00     0.241 C 
BRANCH   7   8
ATOM      8  C   UNL A   1      30.289  26.059  24.715  1.00  0.00     0.024 C 
ATOM      9  C   UNL A   1      30.116  25.129  23.503  1.00  0.00     0.011 C 
ATOM     10  C   UNL A   1      30.606  25.133  25.903  1.00  0.00     0.011 C 
ENDBRANCH   7   8
BRANCH   7  11
ATOM     11  O   UNL A   1      32.306  26.942  23.423  1.00  0.00    -0.249 OA
BRANCH  11  12
ATOM     12  N   UNL A   1      33.233  25.964  23.738  1.00  0.00    -0.144 N 
ATOM     13  C   UNL A   1      33.946  25.955  24.893  1.00  0.00     0.285 C 
ATOM     14  C   UNL A   1      33.653  25.054  22.820  1.00  0.00     0.285 C 
ATOM     15  O   UNL A   1      33.934  26.713  25.842  1.00  0.00    -0.266 OA
ATOM     16  C   UNL A   1      34.781  24.755  24.803  1.00  0.00     0.055 A 
ATOM     17  C   UNL A   1      34.578  24.191  23.550  1.00  0.00     0.055 A 
ATOM     18  O   UNL A   1      33.336  24.900  21.655  1.00  0.00    -0.266 OA
ATOM     19  C   UNL A   1      35.552  24.136  25.764  1.00  0.00     0.015 A 
ATOM     20  C   UNL A   1      35.091  22.958  23.206  1.00  0.00     0.015 A 
ATOM     21  C   UNL A   1      36.084  22.885  25.439  1.00  0.00     0.001 A 
ATOM     22  C   UNL A   1      35.846  22.296  24.178  1.00  0.00     0.001 A 
ENDBRANCH  11  12
ENDBRANCH   7  11
ENDBRANCH   4   7
ENDBRANCH   2   3
ENDBRANCH   1   2
BRANCH   1  23
ATOM     23  C   UNL A   1      31.683  31.905  26.886  1.00  0.00     0.023 C 
BRANCH  23  24
ATOM     24  C   UNL A   1      32.885  32.763  27.262  1.00  0.00     0.116 C 
BRANCH  24  25
ATOM     25  N   UNL A   1      32.525  34.127  27.623  1.00  0.00    -0.352 N 
ATOM     26  C   UNL A   1      33.043  34.926  28.613  1.00  0.00     0.251 C 
ATOM     27  H   UNL A   1      31.809  34.532  27.082  1.00  0.00     0.163 HD
ATOM     28  O   UNL A   1      32.531  36.012  28.866  1.00  0.00    -0.269 OA
BRANCH  26  29
ATOM     29  C   UNL A   1      34.201  34.455  29.401  1.00  0.00     0.039 A 
ATOM     30  C   UNL A   1      33.971  33.845  30.636  1.00  0.00     0.014 A 
ATOM     31  C   UNL A   1      35.503  34.587  28.912  1.00  0.00     0.014 A 
ATOM     32  C   UNL A   1      35.042  33.299  31.346  1.00  0.00     0.010 A 
ATOM     33  C   UNL A   1      36.557  33.970  29.580  1.00  0.00     0.010 A 
ATOM     34  C   UNL A   1      36.337  33.317  30.802  1.00  0.00    -0.014 A 
BRANCH  34  35
ATOM     35  C   UNL A   1      37.469  32.644  31.489  1.00  0.00     0.031 A 
ATOM     36  C   UNL A   1      38.161  31.476  30.844  1.00  0.00     0.074 A 
ATOM     37  C   UNL A   1      37.830  33.044  32.724  1.00  0.00     0.049 A 
ATOM     38  N   UNL A   1      39.124  30.722  31.313  1.00  0.00    -0.248 NA
ATOM     39  C   UNL A   1      37.690  31.084  29.507  1.00  0.00     0.031 C 
ATOM     40  C   UNL A   1      37.204  34.133  33.477  1.00  0.00     0.029 A 
ATOM     41  N   UNL A   1      38.804  32.576  33.569  1.00  0.00    -0.354 N 
ATOM     42  C   UNL A   1      39.365  29.767  30.336  1.00  0.00     0.074 A 
ATOM     43  C   UNL A   1      38.409  29.997  29.274  1.00  0.00     0.031 C 
ATOM     44  C   UNL A   1      37.824  34.264  34.659  1.00  0.00     0.029 A 
ATOM     45  C   UNL A   1      38.862  33.244  34.769  1.00  0.00     0.049 A 
ATOM     46  H   UNL A   1      39.406  31.831  33.339  1.00  0.00     0.167 HD
ATOM     47  C   UNL A   1      40.314  28.799  30.314  1.00  0.00     0.037 A 
ATOM     48  C   UNL A   1      39.655  33.049  35.840  1.00  0.00     0.037 A 
ATOM     49  C   UNL A   1      41.272  28.584  31.368  1.00  0.00     0.049 A 
ATOM     50  C   UNL A   1      40.686  31.954  35.799  1.00  0.00     0.074 A 
ATOM     51  C   UNL A   1      42.309  27.668  31.415  1.00  0.00     0.029 A 
ATOM     52  N   UNL A   1      41.305  29.286  32.563  1.00  0.00    -0.354 N 
ATOM     53  N   UNL A   1      40.956  31.105  34.838  1.00  0.00    -0.248 NA
ATOM     54  C   UNL A   1      41.529  31.795  36.993  1.00  0.00     0.031 C 
ATOM     55  C   UNL A   1      42.932  27.777  32.662  1.00  0.00     0.029 A 
ATOM     56  C   UNL A   1      42.326  28.805  33.367  1.00  0.00     0.049 A 
ATOM     57  H   UNL A   1      40.693  30.019  32.805  1.00  0.00     0.167 HD
ATOM     58  C   UNL A   1      42.015  30.334  35.295  1.00  0.00     0.074 A 
ATOM     59  C   UNL A   1      42.351  30.827  36.614  1.00  0.00     0.031 C 
ATOM     60  C   UNL A   1      42.654  29.309  34.678  1.00  0.00     0.037 A 
BRANCH  47  61
ATOM     61  C   UNL A   1      40.360  27.897  29.114  1.00  0.00     0.064 A 
ATOM     62  C   UNL A   1      39.631  26.699  29.062  1.00  0.00     0.173 A 
ATOM     63  C   UNL A   1      41.113  28.253  27.984  1.00  0.00     0.173 A 
ATOM     64  F   UNL A   1      38.901  26.306  30.117  1.00  0.00    -0.203 F 
ATOM     65  C   UNL A   1      39.681  25.875  27.940  1.00  0.00     0.198 A 
ATOM     66  C   UNL A   1      41.133  27.445  26.851  1.00  0.00     0.198 A 
ATOM     67  F   UNL A   1      41.824  29.391  27.975  1.00  0.00    -0.203 F 
ATOM     68  F   UNL A   1      39.020  24.710  27.937  1.00  0.00    -0.200 F 
ATOM     69  C   UNL A   1      40.426  26.253  26.833  1.00  0.00     0.200 A 
ATOM     70  F   UNL A   1      41.840  27.818  25.775  1.00  0.00    -0.200 F 
ATOM     71  F   UNL A   1      40.466  25.463  25.750  1.00  0.00    -0.200 F 
ENDBRANCH  47  61
BRANCH  48  72
ATOM     72  C   UNL A   1      39.516  33.922  37.035  1.00  0.00     0.064 A 
ATOM     73  C   UNL A   1      38.746  33.521  38.137  1.00  0.00     0.173 A 
ATOM     74  C   UNL A   1      40.143  35.175  37.102  1.00  0.00     0.173 A 
ATOM     75  F   UNL A   1      38.111  32.339  38.113  1.00  0.00    -0.203 F 
ATOM     76  C   UNL A   1      38.588  34.349  39.246  1.00  0.00     0.198 A 
ATOM     77  C   UNL A   1      40.010  35.989  38.226  1.00  0.00     0.198 A 
ATOM     78  F   UNL A   1      40.895  35.607  36.079  1.00  0.00    -0.203 F 
ATOM     79  F   UNL A   1      37.804  33.960  40.262  1.00  0.00    -0.200 F 
ATOM     80  C   UNL A   1      39.225  35.578  39.293  1.00  0.00     0.200 A 
ATOM     81  F   UNL A   1      40.641  37.170  38.274  1.00  0.00    -0.200 F 
ATOM     82  F   UNL A   1      39.076  36.373  40.362  1.00  0.00    -0.200 F 
ENDBRANCH  48  72
BRANCH  60  83
ATOM     83  C   UNL A   1      43.808  28.676  35.403  1.00  0.00     0.064 A 
ATOM     84  C   UNL A   1      45.127  29.118  35.221  1.00  0.00     0.173 A 
ATOM     85  C   UNL A   1      43.585  27.637  36.320  1.00  0.00     0.173 A 
ATOM     86  F   UNL A   1      45.397  30.098  34.344  1.00  0.00    -0.203 F 
ATOM     87  C   UNL A   1      46.182  28.525  35.910  1.00  0.00     0.198 A 
ATOM     88  C   UNL A   1      44.638  27.071  37.032  1.00  0.00     0.198 A 
ATOM     89  F   UNL A   1      42.343  27.182  36.538  1.00  0.00    -0.203 F 
ATOM     90  F   UNL A   1      47.440  28.926  35.679  1.00  0.00    -0.200 F 
ATOM     91  C   UNL A   1      45.936  27.508  36.820  1.00  0.00     0.200 A 
ATOM     92  F   UNL A   1      44.396  26.101  37.925  1.00  0.00    -0.200 F 
ATOM     93  F   UNL A   1      46.952  26.944  37.488  1.00  0.00    -0.200 F 
ENDBRANCH  60  83
ENDBRANCH  34  35
ENDBRANCH  26  29
ENDBRANCH  24  25
ENDBRANCH  23  24
ENDBRANCH   1  23
TORSDOF 14
ENDMDL
MODEL 3
REMARK VINA RESULT:     -12.5      4.127     10.513
REMARK SMILES CC(C)[C@@H](ON1C(=O)c2ccccc2C1=O)C(=O)NCCCCNC(=O)c1ccc(-c2c3nc(c(-c4c(F)c(F)c(F)c(F)c4F)c4ccc([nH]4)c(-c4c(F)c(F)c(F)c(F)c4F)c4nc(c(-c5c(F)c(F)c(F)c(F)c5F)c5ccc2[nH]5)C=C4)C=C3)cc1
REMARK SMILES IDX 21 1 20 2 19 3 17 4 18 5 4 7 2 8 1 9 3 10 5 11 6 12 7 13
REMARK SMILES IDX 15 14 8 15 9 16 14 17 16 18 10 19 13 20 11 21 12 22 22 23
REMARK SMILES IDX 23 24 24 25 25 26 26 28 27 29 28 30 89 31 29 32 88 33 30 34
REMARK SMILES IDX 31 35 32 36 82 37 33 38 87 39 81 40 83 41 34 42 86 43 80 44
REMARK SMILES IDX 79 45 35 47 67 48 47 49 66 50 48 51 51 52 65 53 84 54 49 55
REMARK SMILES IDX 50 56 64 58 85 59 52 60 36 61 37 62 45 63 38 64 39 65 43 66
REMARK SMILES IDX 46 67 40 68 41 69 44 70 42 71 68 72 69 73 77 74 70 75 71 76
REMARK SMILES IDX 75 77 78 78 72 79 73 80 76 81 74 82 53 83 54 84 62 85 55 86
REMARK SMILES IDX 56 87 60 88 63 89 57 90 58 91 61 92 59 93
REMARK H PARENT 19 6 24 27 83 46 51 57
REMARK Flexibility Score: inf
ROOT
ATOM      1  C   UNL A   1      35.361  33.759  30.389  1.00  0.00     0.023 C 
ENDROOT
BRANCH   1   2
ATOM      2  C   UNL A   1      35.105  32.563  31.301  1.00  0.00     0.116 C 
BRANCH   2   3
ATOM      3  N   UNL A   1      34.787  32.964  32.662  1.00  0.00    -0.354 N 
ATOM      4  C   UNL A   1      35.629  33.204  33.717  1.00  0.00     0.252 C 
ATOM      5  O   UNL A   1      35.126  33.549  34.789  1.00  0.00    -0.272 OA
ATOM      6  H   UNL A   1      33.828  33.081  32.854  1.00  0.00     0.163 HD
BRANCH   4   7
ATOM      7  C   UNL A   1      37.144  32.976  33.582  1.00  0.00     0.241 C 
BRANCH   7   8
ATOM      8  C   UNL A   1      37.936  34.316  33.701  1.00  0.00     0.024 C 
ATOM      9  C   UNL A   1      38.483  34.579  35.114  1.00  0.00     0.011 C 
ATOM     10  C   UNL A   1      39.158  34.379  32.768  1.00  0.00     0.011 C 
ENDBRANCH   7   8
BRANCH   7  11
ATOM     11  O   UNL A   1      37.403  31.989  34.607  1.00  0.00    -0.249 OA
BRANCH  11  12
ATOM     12  N   UNL A   1      38.308  31.029  34.187  1.00  0.00    -0.144 N 
ATOM     13  C   UNL A   1      37.970  29.976  33.401  1.00  0.00     0.285 C 
ATOM     14  C   UNL A   1      39.563  30.953  34.706  1.00  0.00     0.285 C 
ATOM     15  O   UNL A   1      36.905  29.659  32.908  1.00  0.00    -0.266 OA
ATOM     16  C   UNL A   1      39.222  29.241  33.206  1.00  0.00     0.055 A 
ATOM     17  C   UNL A   1      40.198  29.857  33.979  1.00  0.00     0.055 A 
ATOM     18  O   UNL A   1      40.115  31.639  35.546  1.00  0.00    -0.266 OA
ATOM     19  C   UNL A   1      39.521  28.210  32.342  1.00  0.00     0.015 A 
ATOM     20  C   UNL A   1      41.530  29.510  33.895  1.00  0.00     0.015 A 
ATOM     21  C   UNL A   1      40.865  27.839  32.239  1.00  0.00     0.001 A 
ATOM     22  C   UNL A   1      41.861  28.491  32.998  1.00  0.00     0.001 A 
ENDBRANCH  11  12
ENDBRANCH   7  11
ENDBRANCH   4   7
ENDBRANCH   2   3
ENDBRANCH   1   2
BRANCH   1  23
ATOM     23  C   UNL A   1      34.433  33.848  29.181  1.00  0.00     0.023 C 
BRANCH  23  24
ATOM     24  C   UNL A   1      34.822  32.962  28.004  1.00  0.00     0.116 C 
BRANCH  24  25
ATOM     25  N   UNL A   1      33.924  31.831  27.817  1.00  0.00    -0.352 N 
ATOM     26  C   UNL A   1      34.217  30.489  27.772  1.00  0.00     0.251 C 
ATOM     27  H   UNL A   1      32.973  32.060  27.707  1.00  0.00     0.163 HD
ATOM     28  O   UNL A   1      33.351  29.673  27.476  1.00  0.00    -0.269 OA
BRANCH  26  29
ATOM     29  C   UNL A   1      35.596  30.034  28.046  1.00  0.00     0.039 A 
ATOM     30  C   UNL A   1      36.539  30.084  27.016  1.00  0.00     0.014 A 
ATOM     31  C   UNL A   1      35.966  29.589  29.318  1.00  0.00     0.014 A 
ATOM     32  C   UNL A   1      37.869  29.759  27.283  1.00  0.00     0.010 A 
ATOM     33  C   UNL A   1      37.307  29.346  29.601  1.00  0.00     0.010 A 
ATOM     34  C   UNL A   1      38.273  29.431  28.588  1.00  0.00    -0.014 A 
BRANCH  34  35
ATOM     35  C   UNL A   1      39.702  29.192  28.914  1.00  0.00     0.031 A 
ATOM     36  C   UNL A   1      40.503  30.242  29.632  1.00  0.00     0.074 A 
ATOM     37  C   UNL A   1      40.296  28.054  28.504  1.00  0.00     0.049 A 
ATOM     38  N   UNL A   1      41.774  30.242  29.948  1.00  0.00    -0.248 NA
ATOM     39  C   UNL A   1      39.788  31.466  30.021  1.00  0.00     0.031 C 
ATOM     40  C   UNL A   1      39.640  26.980  27.756  1.00  0.00     0.029 A 
ATOM     41  N   UNL A   1      41.588  27.614  28.648  1.00  0.00    -0.354 N 
ATOM     42  C   UNL A   1      42.010  31.464  30.561  1.00  0.00     0.074 A 
ATOM     43  C   UNL A   1      40.768  32.205  30.521  1.00  0.00     0.031 C 
ATOM     44  C   UNL A   1      40.524  25.997  27.530  1.00  0.00     0.029 A 
ATOM     45  C   UNL A   1      41.820  26.387  28.075  1.00  0.00     0.049 A 
ATOM     46  H   UNL A   1      42.283  28.129  29.118  1.00  0.00     0.167 HD
ATOM     47  C   UNL A   1      43.153  31.918  31.129  1.00  0.00     0.037 A 
ATOM     48  C   UNL A   1      42.952  25.663  27.990  1.00  0.00     0.037 A 
ATOM     49  C   UNL A   1      44.383  31.171  31.179  1.00  0.00     0.049 A 
ATOM     50  C   UNL A   1      44.214  26.200  28.611  1.00  0.00     0.074 A 
ATOM     51  C   UNL A   1      45.580  31.519  31.782  1.00  0.00     0.029 A 
ATOM     52  N   UNL A   1      44.578  29.928  30.596  1.00  0.00    -0.354 N 
ATOM     53  N   UNL A   1      44.407  27.324  29.256  1.00  0.00    -0.248 NA
ATOM     54  C   UNL A   1      45.416  25.362  28.496  1.00  0.00     0.031 C 
ATOM     55  C   UNL A   1      46.514  30.515  31.513  1.00  0.00     0.029 A 
ATOM     56  C   UNL A   1      45.883  29.508  30.799  1.00  0.00     0.049 A 
ATOM     57  H   UNL A   1      43.890  29.418  30.109  1.00  0.00     0.167 HD
ATOM     58  C   UNL A   1      45.738  27.315  29.650  1.00  0.00     0.074 A 
ATOM     59  C   UNL A   1      46.302  26.065  29.186  1.00  0.00     0.031 C 
ATOM     60  C   UNL A   1      46.431  28.258  30.335  1.00  0.00     0.037 A 
BRANCH  47  61
ATOM     61  C   UNL A   1      43.128  33.290  31.741  1.00  0.00     0.064 A 
ATOM     62  C   UNL A   1      43.402  34.441  30.984  1.00  0.00     0.173 A 
ATOM     63  C   UNL A   1      42.789  33.463  33.091  1.00  0.00     0.173 A 
ATOM     64  F   UNL A   1      43.741  34.334  29.691  1.00  0.00    -0.203 F 
ATOM     65  C   UNL A   1      43.371  35.707  31.566  1.00  0.00     0.198 A 
ATOM     66  C   UNL A   1      42.725  34.731  33.660  1.00  0.00     0.198 A 
ATOM     67  F   UNL A   1      42.510  32.398  33.860  1.00  0.00    -0.203 F 
ATOM     68  F   UNL A   1      43.691  36.784  30.836  1.00  0.00    -0.200 F 
ATOM     69  C   UNL A   1      43.025  35.851  32.900  1.00  0.00     0.200 A 
ATOM     70  F   UNL A   1      42.374  34.872  34.946  1.00  0.00    -0.200 F 
ATOM     71  F   UNL A   1      42.986  37.071  33.455  1.00  0.00    -0.200 F 
ENDBRANCH  47  61
BRANCH  48  72
ATOM     72  C   UNL A   1      42.941  24.343  27.306  1.00  0.00     0.064 A 
ATOM     73  C   UNL A   1      42.601  23.173  28.001  1.00  0.00     0.173 A 
ATOM     74  C   UNL A   1      43.274  24.219  25.949  1.00  0.00     0.173 A 
ATOM     75  F   UNL A   1      42.294  23.235  29.306  1.00  0.00    -0.203 F 
ATOM     76  C   UNL A   1      42.620  21.930  27.372  1.00  0.00     0.198 A 
ATOM     77  C   UNL A   1      43.261  22.980  25.313  1.00  0.00     0.198 A 
ATOM     78  F   UNL A   1      43.603  25.307  25.236  1.00  0.00    -0.203 F 
ATOM     79  F   UNL A   1      42.341  20.822  28.075  1.00  0.00    -0.200 F 
ATOM     80  C   UNL A   1      42.943  21.835  26.028  1.00  0.00     0.200 A 
ATOM     81  F   UNL A   1      43.559  22.895  24.009  1.00  0.00    -0.200 F 
ATOM     82  F   UNL A   1      42.957  20.639  25.422  1.00  0.00    -0.200 F 
ENDBRANCH  48  72
BRANCH  60  83
ATOM     83  C   UNL A   1      47.867  27.959  30.663  1.00  0.00     0.064 A 
ATOM     84  C   UNL A   1      48.916  28.347  29.815  1.00  0.00     0.173 A 
ATOM     85  C   UNL A   1      48.200  27.307  31.861  1.00  0.00     0.173 A 
ATOM     86  F   UNL A   1      48.651  28.960  28.650  1.00  0.00    -0.203 F 
ATOM     87  C   UNL A   1      50.240  28.069  30.141  1.00  0.00     0.198 A 
ATOM     88  C   UNL A   1      49.527  27.062  32.200  1.00  0.00     0.198 A 
ATOM     89  F   UNL A   1      47.237  26.921  32.711  1.00  0.00    -0.203 F 
ATOM     90  F   UNL A   1      51.221  28.400  29.291  1.00  0.00    -0.200 F 
ATOM     91  C   UNL A   1      50.545  27.435  31.337  1.00  0.00     0.200 A 
ATOM     92  F   UNL A   1      49.821  26.466  33.363  1.00  0.00    -0.200 F 
ATOM     93  F   UNL A   1      51.822  27.176  31.653  1.00  0.00    -0.200 F 
ENDBRANCH  60  83
ENDBRANCH  34  35
ENDBRANCH  26  29
ENDBRANCH  24  25
ENDBRANCH  23  24
ENDBRANCH   1  23
TORSDOF 14
ENDMDL
