MODEL 1
REMARK VINA RESULT:     -12.9      0.000      0.000
REMARK SMILES Cc1cc(Br)c(C)c([C@@H]2[NH2+][C@H](C(=O)NCCCCNC(=O)c3ccc(-c4c5nc(c(-c6c(F)c(F)c(F)c(F)c6F)c6ccc([nH]6)c(-c6c(F)c(F)c(F)c(F)c6F)c6nc(c(-c7c(F)c(F)c(F)c(F)c7F)c7ccc4[nH]7)C=C6)C=C5)cc3)CS2)c1O
REMARK SMILES IDX 16 1 15 2 14 3 12 4 13 5 11 7 9 8 10 9 86 10 85 13 8 14 1 15
REMARK SMILES IDX 2 16 3 17 87 18 4 19 5 20 6 21 7 22 88 23 17 25 18 26 19 27
REMARK SMILES IDX 20 28 21 30 22 31 23 32 84 33 24 34 83 35 25 36 26 37 27 38
REMARK SMILES IDX 77 39 28 40 82 41 76 42 78 43 29 44 81 45 75 46 74 47 30 49
REMARK SMILES IDX 62 50 42 51 61 52 43 53 46 54 60 55 79 56 44 57 45 58 59 60
REMARK SMILES IDX 80 61 47 62 31 63 32 64 40 65 33 66 34 67 38 68 41 69 35 70
REMARK SMILES IDX 36 71 39 72 37 73 63 74 64 75 72 76 65 77 66 78 70 79 73 80
REMARK SMILES IDX 67 81 68 82 71 83 69 84 48 85 49 86 57 87 50 88 51 89 55 90
REMARK SMILES IDX 58 91 52 92 53 93 56 94 54 95
REMARK H PARENT 14 6 10 11 10 12 88 24 19 29 78 48 46 59
REMARK Flexibility Score: inf
ROOT
ATOM      1  C   UNL A   1      32.254  28.006  27.166  1.00  0.00     0.023 C 
ENDROOT
BRANCH   1   2
ATOM      2  C   UNL A   1      31.266  26.908  26.799  1.00  0.00     0.116 C 
BRANCH   2   3
ATOM      3  N   UNL A   1      31.797  25.564  26.718  1.00  0.00    -0.351 N 
ATOM      4  C   UNL A   1      32.811  25.094  25.922  1.00  0.00     0.279 C 
ATOM      5  O   UNL A   1      33.384  24.078  26.347  1.00  0.00    -0.268 OA
ATOM      6  H   UNL A   1      31.376  24.901  27.312  1.00  0.00     0.163 HD
BRANCH   4   7
ATOM      7  C   UNL A   1      33.117  25.600  24.486  1.00  0.00     0.283 C 
ATOM      8  C   UNL A   1      34.291  24.077  23.054  1.00  0.00     0.278 C 
ATOM      9  N   UNL A   1      34.440  25.269  23.897  1.00  0.00    -0.320 N 
ATOM     10  S   UNL A   1      32.719  24.218  22.200  1.00  0.00    -0.087 SA
ATOM     11  H   UNL A   1      34.771  26.051  23.332  1.00  0.00     0.348 HD
ATOM     12  H   UNL A   1      35.117  25.089  24.640  1.00  0.00     0.348 HD
ATOM     13  C   UNL A   1      31.995  25.276  23.484  1.00  0.00     0.151 C 
BRANCH   8  14
ATOM     14  C   UNL A   1      34.652  22.790  23.794  1.00  0.00     0.066 A 
ATOM     15  C   UNL A   1      37.764  20.873  25.001  1.00  0.00     0.048 C 
ATOM     16  C   UNL A   1      36.329  21.260  24.774  1.00  0.00    -0.008 A 
ATOM     17  C   UNL A   1      35.321  20.329  25.027  1.00  0.00     0.023 A 
ATOM     18  C   UNL A   1      35.973  22.501  24.219  1.00  0.00     0.128 A 
ATOM     19  C   UNL A   1      34.006  20.578  24.626  1.00  0.00     0.021 A 
ATOM     20  Br  UNL A   1      32.735  19.203  24.976  1.00  0.00    -0.051 Br
ATOM     21  C   UNL A   1      33.660  21.767  23.950  1.00  0.00    -0.023 A 
ATOM     22  C   UNL A   1      32.321  21.836  23.241  1.00  0.00     0.046 C 
BRANCH  18  23
ATOM     23  O   UNL A   1      36.958  23.415  23.969  1.00  0.00    -0.507 OA
ATOM     24  H   UNL A   1      37.556  23.656  24.649  1.00  0.00     0.293 HD
ENDBRANCH  18  23
ENDBRANCH   8  14
ENDBRANCH   4   7
ENDBRANCH   2   3
ENDBRANCH   1   2
BRANCH   1  25
ATOM     25  C   UNL A   1      31.711  29.431  27.251  1.00  0.00     0.023 C 
BRANCH  25  26
ATOM     26  C   UNL A   1      32.488  30.549  26.556  1.00  0.00     0.116 C 
BRANCH  26  27
ATOM     27  N   UNL A   1      32.515  31.841  27.233  1.00  0.00    -0.352 N 
ATOM     28  C   UNL A   1      33.579  32.528  27.784  1.00  0.00     0.251 C 
ATOM     29  H   UNL A   1      31.643  32.290  27.310  1.00  0.00     0.163 HD
ATOM     30  O   UNL A   1      33.429  33.643  28.263  1.00  0.00    -0.269 OA
BRANCH  28  31
ATOM     31  C   UNL A   1      34.905  31.886  27.900  1.00  0.00     0.039 A 
ATOM     32  C   UNL A   1      35.043  30.504  28.006  1.00  0.00     0.014 A 
ATOM     33  C   UNL A   1      36.022  32.722  28.023  1.00  0.00     0.014 A 
ATOM     34  C   UNL A   1      36.227  29.984  28.515  1.00  0.00     0.010 A 
ATOM     35  C   UNL A   1      37.235  32.188  28.450  1.00  0.00     0.010 A 
ATOM     36  C   UNL A   1      37.307  30.835  28.804  1.00  0.00    -0.014 A 
BRANCH  36  37
ATOM     37  C   UNL A   1      38.442  30.327  29.611  1.00  0.00     0.031 A 
ATOM     38  C   UNL A   1      38.567  30.734  31.058  1.00  0.00     0.074 A 
ATOM     39  C   UNL A   1      39.300  29.445  29.073  1.00  0.00     0.049 A 
ATOM     40  N   UNL A   1      39.477  30.400  31.937  1.00  0.00    -0.248 NA
ATOM     41  C   UNL A   1      37.532  31.638  31.591  1.00  0.00     0.031 C 
ATOM     42  C   UNL A   1      39.245  28.957  27.696  1.00  0.00     0.029 A 
ATOM     43  N   UNL A   1      40.364  28.781  29.625  1.00  0.00    -0.354 N 
ATOM     44  C   UNL A   1      39.140  31.068  33.109  1.00  0.00     0.074 A 
ATOM     45  C   UNL A   1      37.956  31.848  32.828  1.00  0.00     0.031 C 
ATOM     46  C   UNL A   1      40.204  28.035  27.522  1.00  0.00     0.029 A 
ATOM     47  C   UNL A   1      40.972  27.910  28.757  1.00  0.00     0.049 A 
ATOM     48  H   UNL A   1      40.663  28.917  30.553  1.00  0.00     0.167 HD
ATOM     49  C   UNL A   1      39.758  31.024  34.313  1.00  0.00     0.037 A 
ATOM     50  C   UNL A   1      42.037  27.107  28.939  1.00  0.00     0.037 A 
ATOM     51  C   UNL A   1      40.916  30.217  34.592  1.00  0.00     0.049 A 
ATOM     52  C   UNL A   1      42.723  27.098  30.275  1.00  0.00     0.074 A 
ATOM     53  C   UNL A   1      41.616  30.092  35.779  1.00  0.00     0.029 A 
ATOM     54  N   UNL A   1      41.537  29.388  33.668  1.00  0.00    -0.354 N 
ATOM     55  N   UNL A   1      42.409  27.754  31.367  1.00  0.00    -0.248 NA
ATOM     56  C   UNL A   1      43.913  26.248  30.404  1.00  0.00     0.031 C 
ATOM     57  C   UNL A   1      42.681  29.212  35.564  1.00  0.00     0.029 A 
ATOM     58  C   UNL A   1      42.620  28.758  34.255  1.00  0.00     0.049 A 
ATOM     59  H   UNL A   1      41.249  29.266  32.735  1.00  0.00     0.167 HD
ATOM     60  C   UNL A   1      43.359  27.395  32.312  1.00  0.00     0.074 A 
ATOM     61  C   UNL A   1      44.247  26.445  31.672  1.00  0.00     0.031 C 
ATOM     62  C   UNL A   1      43.489  27.820  33.593  1.00  0.00     0.037 A 
BRANCH  49  63
ATOM     63  C   UNL A   1      39.207  31.874  35.420  1.00  0.00     0.064 A 
ATOM     64  C   UNL A   1      38.339  31.350  36.390  1.00  0.00     0.173 A 
ATOM     65  C   UNL A   1      39.601  33.215  35.551  1.00  0.00     0.173 A 
ATOM     66  F   UNL A   1      37.919  30.078  36.303  1.00  0.00    -0.203 F 
ATOM     67  C   UNL A   1      37.880  32.137  37.443  1.00  0.00     0.198 A 
ATOM     68  C   UNL A   1      39.160  33.992  36.618  1.00  0.00     0.198 A 
ATOM     69  F   UNL A   1      40.432  33.765  34.653  1.00  0.00    -0.203 F 
ATOM     70  F   UNL A   1      37.028  31.624  38.341  1.00  0.00    -0.200 F 
ATOM     71  C   UNL A   1      38.297  33.455  37.562  1.00  0.00     0.200 A 
ATOM     72  F   UNL A   1      39.573  35.262  36.737  1.00  0.00    -0.200 F 
ATOM     73  F   UNL A   1      37.866  34.208  38.584  1.00  0.00    -0.200 F 
ENDBRANCH  49  63
BRANCH  50  74
ATOM     74  C   UNL A   1      42.496  26.246  27.821  1.00  0.00     0.064 A 
ATOM     75  C   UNL A   1      41.886  25.010  27.569  1.00  0.00     0.173 A 
ATOM     76  C   UNL A   1      43.506  26.669  26.945  1.00  0.00     0.173 A 
ATOM     77  F   UNL A   1      40.926  24.558  28.389  1.00  0.00    -0.203 F 
ATOM     78  C   UNL A   1      42.267  24.232  26.477  1.00  0.00     0.198 A 
ATOM     79  C   UNL A   1      43.869  25.902  25.840  1.00  0.00     0.198 A 
ATOM     80  F   UNL A   1      44.116  27.847  27.142  1.00  0.00    -0.203 F 
ATOM     81  F   UNL A   1      41.680  23.046  26.266  1.00  0.00    -0.200 F 
ATOM     82  C   UNL A   1      43.250  24.683  25.609  1.00  0.00     0.200 A 
ATOM     83  F   UNL A   1      44.804  26.350  24.994  1.00  0.00    -0.200 F 
ATOM     84  F   UNL A   1      43.598  23.945  24.546  1.00  0.00    -0.200 F 
ENDBRANCH  50  74
BRANCH  62  85
ATOM     85  C   UNL A   1      44.630  27.261  34.388  1.00  0.00     0.064 A 
ATOM     86  C   UNL A   1      45.856  27.934  34.469  1.00  0.00     0.173 A 
ATOM     87  C   UNL A   1      44.470  26.081  35.128  1.00  0.00     0.173 A 
ATOM     88  F   UNL A   1      46.055  29.061  33.769  1.00  0.00    -0.203 F 
ATOM     89  C   UNL A   1      46.891  27.437  35.255  1.00  0.00     0.198 A 
ATOM     90  C   UNL A   1      45.499  25.599  35.932  1.00  0.00     0.198 A 
ATOM     91  F   UNL A   1      43.310  25.409  35.087  1.00  0.00    -0.203 F 
ATOM     92  F   UNL A   1      48.066  28.079  35.298  1.00  0.00    -0.200 F 
ATOM     93  C   UNL A   1      46.709  26.275  35.992  1.00  0.00     0.200 A 
ATOM     94  F   UNL A   1      45.318  24.483  36.652  1.00  0.00    -0.200 F 
ATOM     95  F   UNL A   1      47.702  25.804  36.759  1.00  0.00    -0.200 F 
ENDBRANCH  62  85
ENDBRANCH  36  37
ENDBRANCH  28  31
ENDBRANCH  26  27
ENDBRANCH  25  26
ENDBRANCH   1  25
TORSDOF 13
ENDMDL
MODEL 2
REMARK VINA RESULT:     -12.9      0.276      7.457
REMARK SMILES Cc1cc(Br)c(C)c([C@@H]2[NH2+][C@H](C(=O)NCCCCNC(=O)c3ccc(-c4c5nc(c(-c6c(F)c(F)c(F)c(F)c6F)c6ccc([nH]6)c(-c6c(F)c(F)c(F)c(F)c6F)c6nc(c(-c7c(F)c(F)c(F)c(F)c7F)c7ccc4[nH]7)C=C6)C=C5)cc3)CS2)c1O
REMARK SMILES IDX 16 1 15 2 14 3 12 4 13 5 11 7 9 8 10 9 86 10 85 13 8 14 1 15
REMARK SMILES IDX 2 16 3 17 87 18 4 19 5 20 6 21 7 22 88 23 17 25 18 26 19 27
REMARK SMILES IDX 20 28 21 30 22 31 23 32 84 33 24 34 83 35 25 36 26 37 27 38
REMARK SMILES IDX 77 39 28 40 82 41 76 42 78 43 29 44 81 45 75 46 74 47 30 49
REMARK SMILES IDX 62 50 42 51 61 52 43 53 46 54 60 55 79 56 44 57 45 58 59 60
REMARK SMILES IDX 80 61 47 62 31 63 32 64 40 65 33 66 34 67 38 68 41 69 35 70
REMARK SMILES IDX 36 71 39 72 37 73 63 74 64 75 72 76 65 77 66 78 70 79 73 80
REMARK SMILES IDX 67 81 68 82 71 83 69 84 48 85 49 86 57 87 50 88 51 89 55 90
REMARK SMILES IDX 58 91 52 92 53 93 56 94 54 95
REMARK H PARENT 14 6 10 11 10 12 88 24 19 29 78 48 46 59
REMARK Flexibility Score: inf
ROOT
ATOM      1  C   UNL A   1      32.167  27.962  27.091  1.00  0.00     0.023 C 
ENDROOT
BRANCH   1   2
ATOM      2  C   UNL A   1      31.209  26.823  26.774  1.00  0.00     0.116 C 
BRANCH   2   3
ATOM      3  N   UNL A   1      31.784  25.498  26.704  1.00  0.00    -0.351 N 
ATOM      4  C   UNL A   1      32.836  25.064  25.938  1.00  0.00     0.279 C 
ATOM      5  O   UNL A   1      33.426  24.064  26.375  1.00  0.00    -0.268 OA
ATOM      6  H   UNL A   1      31.364  24.818  27.281  1.00  0.00     0.163 HD
BRANCH   4   7
ATOM      7  C   UNL A   1      33.171  25.588  24.514  1.00  0.00     0.283 C 
ATOM      8  C   UNL A   1      34.345  24.071  23.077  1.00  0.00     0.278 C 
ATOM      9  N   UNL A   1      34.498  25.247  23.941  1.00  0.00    -0.320 N 
ATOM     10  S   UNL A   1      32.789  24.247  22.202  1.00  0.00    -0.087 SA
ATOM     11  H   UNL A   1      34.848  26.033  23.393  1.00  0.00     0.348 HD
ATOM     12  H   UNL A   1      35.161  25.046  24.691  1.00  0.00     0.348 HD
ATOM     13  C   UNL A   1      32.060  25.295  23.490  1.00  0.00     0.151 C 
BRANCH   8  14
ATOM     14  C   UNL A   1      34.677  22.768  23.802  1.00  0.00     0.066 A 
ATOM     15  C   UNL A   1      37.745  20.776  25.002  1.00  0.00     0.048 C 
ATOM     16  C   UNL A   1      36.319  21.193  24.772  1.00  0.00    -0.008 A 
ATOM     17  C   UNL A   1      35.292  20.278  25.006  1.00  0.00     0.023 A 
ATOM     18  C   UNL A   1      35.990  22.448  24.231  1.00  0.00     0.128 A 
ATOM     19  C   UNL A   1      33.985  20.557  24.601  1.00  0.00     0.021 A 
ATOM     20  Br  UNL A   1      32.686  19.203  24.925  1.00  0.00    -0.051 Br
ATOM     21  C   UNL A   1      33.666  21.761  23.938  1.00  0.00    -0.023 A 
ATOM     22  C   UNL A   1      32.333  21.866  23.222  1.00  0.00     0.046 C 
BRANCH  18  23
ATOM     23  O   UNL A   1      36.994  23.346  23.999  1.00  0.00    -0.507 OA
ATOM     24  H   UNL A   1      37.174  23.633  23.126  1.00  0.00     0.293 HD
ENDBRANCH  18  23
ENDBRANCH   8  14
ENDBRANCH   4   7
ENDBRANCH   2   3
ENDBRANCH   1   2
BRANCH   1  25
ATOM     25  C   UNL A   1      31.586  29.374  27.122  1.00  0.00     0.023 C 
BRANCH  25  26
ATOM     26  C   UNL A   1      32.335  30.485  26.386  1.00  0.00     0.116 C 
BRANCH  26  27
ATOM     27  N   UNL A   1      32.351  31.795  27.029  1.00  0.00    -0.352 N 
ATOM     28  C   UNL A   1      33.396  32.474  27.626  1.00  0.00     0.251 C 
ATOM     29  H   UNL A   1      31.486  32.265  27.040  1.00  0.00     0.163 HD
ATOM     30  O   UNL A   1      33.243  33.605  28.065  1.00  0.00    -0.269 OA
BRANCH  28  31
ATOM     31  C   UNL A   1      34.696  31.806  27.841  1.00  0.00     0.039 A 
ATOM     32  C   UNL A   1      34.794  30.425  28.000  1.00  0.00     0.014 A 
ATOM     33  C   UNL A   1      35.824  32.620  28.001  1.00  0.00     0.014 A 
ATOM     34  C   UNL A   1      35.933  29.897  28.594  1.00  0.00     0.010 A 
ATOM     35  C   UNL A   1      36.998  32.074  28.516  1.00  0.00     0.010 A 
ATOM     36  C   UNL A   1      37.015  30.732  28.918  1.00  0.00    -0.014 A 
BRANCH  36  37
ATOM     37  C   UNL A   1      38.089  30.227  29.806  1.00  0.00     0.031 A 
ATOM     38  C   UNL A   1      39.148  29.311  29.246  1.00  0.00     0.074 A 
ATOM     39  C   UNL A   1      38.159  30.655  31.077  1.00  0.00     0.049 A 
ATOM     40  N   UNL A   1      40.173  28.763  29.848  1.00  0.00    -0.248 NA
ATOM     41  C   UNL A   1      39.042  28.961  27.818  1.00  0.00     0.031 C 
ATOM     42  C   UNL A   1      37.209  31.571  31.706  1.00  0.00     0.029 A 
ATOM     43  N   UNL A   1      39.083  30.401  32.057  1.00  0.00    -0.354 N 
ATOM     44  C   UNL A   1      40.813  27.991  28.885  1.00  0.00     0.074 A 
ATOM     45  C   UNL A   1      40.052  28.117  27.663  1.00  0.00     0.031 C 
ATOM     46  C   UNL A   1      37.623  31.840  32.953  1.00  0.00     0.029 A 
ATOM     47  C   UNL A   1      38.835  31.074  33.226  1.00  0.00     0.049 A 
ATOM     48  H   UNL A   1      39.848  29.795  31.934  1.00  0.00     0.167 HD
ATOM     49  C   UNL A   1      41.942  27.253  29.010  1.00  0.00     0.037 A 
ATOM     50  C   UNL A   1      39.509  31.065  34.391  1.00  0.00     0.037 A 
ATOM     51  C   UNL A   1      42.712  27.161  30.221  1.00  0.00     0.049 A 
ATOM     52  C   UNL A   1      40.742  30.215  34.513  1.00  0.00     0.074 A 
ATOM     53  C   UNL A   1      43.875  26.449  30.454  1.00  0.00     0.029 A 
ATOM     54  N   UNL A   1      42.397  27.816  31.403  1.00  0.00    -0.354 N 
ATOM     55  N   UNL A   1      41.322  29.470  33.603  1.00  0.00    -0.248 NA
ATOM     56  C   UNL A   1      41.407  30.196  35.821  1.00  0.00     0.031 C 
ATOM     57  C   UNL A   1      44.245  26.646  31.788  1.00  0.00     0.029 A 
ATOM     58  C   UNL A   1      43.336  27.513  32.373  1.00  0.00     0.049 A 
ATOM     59  H   UNL A   1      41.621  28.408  31.532  1.00  0.00     0.167 HD
ATOM     60  C   UNL A   1      42.420  28.895  34.226  1.00  0.00     0.074 A 
ATOM     61  C   UNL A   1      42.439  29.398  35.585  1.00  0.00     0.031 C 
ATOM     62  C   UNL A   1      43.328  28.025  33.720  1.00  0.00     0.037 A 
BRANCH  49  63
ATOM     63  C   UNL A   1      42.412  26.477  27.814  1.00  0.00     0.064 A 
ATOM     64  C   UNL A   1      43.366  26.997  26.926  1.00  0.00     0.173 A 
ATOM     65  C   UNL A   1      41.952  25.170  27.588  1.00  0.00     0.173 A 
ATOM     66  F   UNL A   1      43.826  28.247  27.088  1.00  0.00    -0.203 F 
ATOM     67  C   UNL A   1      43.833  26.244  25.852  1.00  0.00     0.198 A 
ATOM     68  C   UNL A   1      42.440  24.410  26.528  1.00  0.00     0.198 A 
ATOM     69  F   UNL A   1      41.043  24.623  28.409  1.00  0.00    -0.203 F 
ATOM     70  F   UNL A   1      44.721  26.772  25.000  1.00  0.00    -0.200 F 
ATOM     71  C   UNL A   1      43.377  24.948  25.659  1.00  0.00     0.200 A 
ATOM     72  F   UNL A   1      42.006  23.154  26.350  1.00  0.00    -0.200 F 
ATOM     73  F   UNL A   1      43.839  24.218  24.634  1.00  0.00    -0.200 F 
ENDBRANCH  49  63
BRANCH  50  74
ATOM     74  C   UNL A   1      39.024  31.902  35.517  1.00  0.00     0.064 A 
ATOM     75  C   UNL A   1      38.224  31.353  36.527  1.00  0.00     0.173 A 
ATOM     76  C   UNL A   1      39.404  33.247  35.639  1.00  0.00     0.173 A 
ATOM     77  F   UNL A   1      37.823  30.077  36.444  1.00  0.00    -0.203 F 
ATOM     78  C   UNL A   1      37.826  32.119  37.621  1.00  0.00     0.198 A 
ATOM     79  C   UNL A   1      39.027  34.003  36.746  1.00  0.00     0.198 A 
ATOM     80  F   UNL A   1      40.175  33.815  34.699  1.00  0.00    -0.203 F 
ATOM     81  F   UNL A   1      37.047  31.576  38.568  1.00  0.00    -0.200 F 
ATOM     82  C   UNL A   1      38.236  33.439  37.735  1.00  0.00     0.200 A 
ATOM     83  F   UNL A   1      39.441  35.271  36.861  1.00  0.00    -0.200 F 
ATOM     84  F   UNL A   1      37.873  34.166  38.800  1.00  0.00    -0.200 F 
ENDBRANCH  50  74
BRANCH  62  85
ATOM     85  C   UNL A   1      44.417  27.560  34.637  1.00  0.00     0.064 A 
ATOM     86  C   UNL A   1      44.287  26.380  35.381  1.00  0.00     0.173 A 
ATOM     87  C   UNL A   1      45.627  28.265  34.719  1.00  0.00     0.173 A 
ATOM     88  F   UNL A   1      43.143  25.680  35.340  1.00  0.00    -0.203 F 
ATOM     89  C   UNL A   1      45.326  25.926  36.186  1.00  0.00     0.198 A 
ATOM     90  C   UNL A   1      46.674  27.796  35.508  1.00  0.00     0.198 A 
ATOM     91  F   UNL A   1      45.800  29.396  34.018  1.00  0.00    -0.203 F 
ATOM     92  F   UNL A   1      45.171  24.810  36.911  1.00  0.00    -0.200 F 
ATOM     93  C   UNL A   1      46.521  26.630  36.243  1.00  0.00     0.200 A 
ATOM     94  F   UNL A   1      47.831  28.471  35.553  1.00  0.00    -0.200 F 
ATOM     95  F   UNL A   1      47.526  26.184  37.010  1.00  0.00    -0.200 F 
ENDBRANCH  62  85
ENDBRANCH  36  37
ENDBRANCH  28  31
ENDBRANCH  26  27
ENDBRANCH  25  26
ENDBRANCH   1  25
TORSDOF 13
ENDMDL
MODEL 3
REMARK VINA RESULT:     -12.9      1.784      2.972
REMARK SMILES Cc1cc(Br)c(C)c([C@@H]2[NH2+][C@H](C(=O)NCCCCNC(=O)c3ccc(-c4c5nc(c(-c6c(F)c(F)c(F)c(F)c6F)c6ccc([nH]6)c(-c6c(F)c(F)c(F)c(F)c6F)c6nc(c(-c7c(F)c(F)c(F)c(F)c7F)c7ccc4[nH]7)C=C6)C=C5)cc3)CS2)c1O
REMARK SMILES IDX 16 1 15 2 14 3 12 4 13 5 11 7 9 8 10 9 86 10 85 13 8 14 1 15
REMARK SMILES IDX 2 16 3 17 87 18 4 19 5 20 6 21 7 22 88 23 17 25 18 26 19 27
REMARK SMILES IDX 20 28 21 30 22 31 23 32 84 33 24 34 83 35 25 36 26 37 27 38
REMARK SMILES IDX 77 39 28 40 82 41 76 42 78 43 29 44 81 45 75 46 74 47 30 49
REMARK SMILES IDX 62 50 42 51 61 52 43 53 46 54 60 55 79 56 44 57 45 58 59 60
REMARK SMILES IDX 80 61 47 62 31 63 32 64 40 65 33 66 34 67 38 68 41 69 35 70
REMARK SMILES IDX 36 71 39 72 37 73 63 74 64 75 72 76 65 77 66 78 70 79 73 80
REMARK SMILES IDX 67 81 68 82 71 83 69 84 48 85 49 86 57 87 50 88 51 89 55 90
REMARK SMILES IDX 58 91 52 92 53 93 56 94 54 95
REMARK H PARENT 14 6 10 11 10 12 88 24 19 29 78 48 46 59
REMARK Flexibility Score: inf
ROOT
ATOM      1  C   UNL A   1      31.547  28.560  26.065  1.00  0.00     0.023 C 
ENDROOT
BRANCH   1   2
ATOM      2  C   UNL A   1      31.484  27.193  26.728  1.00  0.00     0.116 C 
BRANCH   2   3
ATOM      3  N   UNL A   1      32.714  26.432  26.754  1.00  0.00    -0.351 N 
ATOM      4  C   UNL A   1      33.032  25.300  26.048  1.00  0.00     0.279 C 
ATOM      5  O   UNL A   1      34.247  25.110  25.879  1.00  0.00    -0.268 OA
ATOM      6  H   UNL A   1      33.415  26.771  27.358  1.00  0.00     0.163 HD
BRANCH   4   7
ATOM      7  C   UNL A   1      32.023  24.183  25.663  1.00  0.00     0.283 C 
ATOM      8  C   UNL A   1      30.597  24.643  23.792  1.00  0.00     0.278 C 
ATOM      9  N   UNL A   1      30.654  24.591  25.258  1.00  0.00    -0.320 N 
ATOM     10  S   UNL A   1      31.556  23.260  23.169  1.00  0.00    -0.087 SA
ATOM     11  H   UNL A   1      29.976  23.912  25.604  1.00  0.00     0.348 HD
ATOM     12  H   UNL A   1      30.433  25.507  25.649  1.00  0.00     0.348 HD
ATOM     13  C   UNL A   1      32.599  23.177  24.651  1.00  0.00     0.151 C 
BRANCH   8  14
ATOM     14  C   UNL A   1      30.835  26.051  23.249  1.00  0.00     0.066 A 
ATOM     15  C   UNL A   1      33.752  28.394  22.344  1.00  0.00     0.048 C 
ATOM     16  C   UNL A   1      32.359  27.851  22.507  1.00  0.00    -0.008 A 
ATOM     17  C   UNL A   1      31.270  28.715  22.389  1.00  0.00     0.023 A 
ATOM     18  C   UNL A   1      32.121  26.516  22.875  1.00  0.00     0.128 A 
ATOM     19  C   UNL A   1      29.987  28.294  22.745  1.00  0.00     0.021 A 
ATOM     20  Br  UNL A   1      28.595  29.585  22.594  1.00  0.00    -0.051 Br
ATOM     21  C   UNL A   1      29.755  26.993  23.240  1.00  0.00    -0.023 A 
ATOM     22  C   UNL A   1      28.434  26.701  23.927  1.00  0.00     0.046 C 
BRANCH  18  23
ATOM     23  O   UNL A   1      33.186  25.667  22.993  1.00  0.00    -0.507 OA
ATOM     24  H   UNL A   1      33.297  25.159  23.772  1.00  0.00     0.293 HD
ENDBRANCH  18  23
ENDBRANCH   8  14
ENDBRANCH   4   7
ENDBRANCH   2   3
ENDBRANCH   1   2
BRANCH   1  25
ATOM     25  C   UNL A   1      31.784  29.765  26.973  1.00  0.00     0.023 C 
BRANCH  25  26
ATOM     26  C   UNL A   1      32.440  31.010  26.376  1.00  0.00     0.116 C 
BRANCH  26  27
ATOM     27  N   UNL A   1      32.445  32.207  27.210  1.00  0.00    -0.352 N 
ATOM     28  C   UNL A   1      33.491  32.819  27.873  1.00  0.00     0.251 C 
ATOM     29  H   UNL A   1      31.569  32.644  27.317  1.00  0.00     0.163 HD
ATOM     30  O   UNL A   1      33.324  33.866  28.483  1.00  0.00    -0.269 OA
BRANCH  28  31
ATOM     31  C   UNL A   1      34.814  32.166  27.946  1.00  0.00     0.039 A 
ATOM     32  C   UNL A   1      34.945  30.781  28.025  1.00  0.00     0.014 A 
ATOM     33  C   UNL A   1      35.940  32.992  28.054  1.00  0.00     0.014 A 
ATOM     34  C   UNL A   1      36.137  30.246  28.496  1.00  0.00     0.010 A 
ATOM     35  C   UNL A   1      37.160  32.444  28.443  1.00  0.00     0.010 A 
ATOM     36  C   UNL A   1      37.230  31.084  28.773  1.00  0.00    -0.014 A 
BRANCH  36  37
ATOM     37  C   UNL A   1      38.381  30.555  29.543  1.00  0.00     0.031 A 
ATOM     38  C   UNL A   1      38.545  30.938  30.992  1.00  0.00     0.074 A 
ATOM     39  C   UNL A   1      39.218  29.675  28.970  1.00  0.00     0.049 A 
ATOM     40  N   UNL A   1      39.475  30.584  31.843  1.00  0.00    -0.248 NA
ATOM     41  C   UNL A   1      37.530  31.841  31.565  1.00  0.00     0.031 C 
ATOM     42  C   UNL A   1      39.126  29.209  27.587  1.00  0.00     0.029 A 
ATOM     43  N   UNL A   1      40.291  28.996  29.485  1.00  0.00    -0.354 N 
ATOM     44  C   UNL A   1      39.172  31.236  33.033  1.00  0.00     0.074 A 
ATOM     45  C   UNL A   1      37.987  32.028  32.794  1.00  0.00     0.031 C 
ATOM     46  C   UNL A   1      40.073  28.284  27.374  1.00  0.00     0.029 A 
ATOM     47  C   UNL A   1      40.870  28.134  28.588  1.00  0.00     0.049 A 
ATOM     48  H   UNL A   1      40.614  29.114  30.406  1.00  0.00     0.167 HD
ATOM     49  C   UNL A   1      39.819  31.168  34.220  1.00  0.00     0.037 A 
ATOM     50  C   UNL A   1      41.933  27.320  28.731  1.00  0.00     0.037 A 
ATOM     51  C   UNL A   1      40.977  30.349  34.458  1.00  0.00     0.049 A 
ATOM     52  C   UNL A   1      42.652  27.285  30.049  1.00  0.00     0.074 A 
ATOM     53  C   UNL A   1      41.706  30.200  35.625  1.00  0.00     0.029 A 
ATOM     54  N   UNL A   1      41.568  29.530  33.506  1.00  0.00    -0.354 N 
ATOM     55  N   UNL A   1      42.371  27.926  31.159  1.00  0.00    -0.248 NA
ATOM     56  C   UNL A   1      43.838  26.425  30.135  1.00  0.00     0.031 C 
ATOM     57  C   UNL A   1      42.758  29.315  35.369  1.00  0.00     0.029 A 
ATOM     58  C   UNL A   1      42.661  28.883  34.056  1.00  0.00     0.049 A 
ATOM     59  H   UNL A   1      41.257  29.425  32.578  1.00  0.00     0.167 HD
ATOM     60  C   UNL A   1      43.341  27.546  32.074  1.00  0.00     0.074 A 
ATOM     61  C   UNL A   1      44.205  26.599  31.397  1.00  0.00     0.031 C 
ATOM     62  C   UNL A   1      43.506  27.949  33.357  1.00  0.00     0.037 A 
BRANCH  49  63
ATOM     63  C   UNL A   1      39.302  32.004  35.354  1.00  0.00     0.064 A 
ATOM     64  C   UNL A   1      38.458  31.470  36.340  1.00  0.00     0.173 A 
ATOM     65  C   UNL A   1      39.707  33.341  35.494  1.00  0.00     0.173 A 
ATOM     66  F   UNL A   1      38.029  30.202  36.245  1.00  0.00    -0.203 F 
ATOM     67  C   UNL A   1      38.031  32.245  37.416  1.00  0.00     0.198 A 
ATOM     68  C   UNL A   1      39.298  34.105  36.584  1.00  0.00     0.198 A 
ATOM     69  F   UNL A   1      40.516  33.900  34.582  1.00  0.00    -0.203 F 
ATOM     70  F   UNL A   1      37.201  31.722  38.329  1.00  0.00    -0.200 F 
ATOM     71  C   UNL A   1      38.458  33.559  37.542  1.00  0.00     0.200 A 
ATOM     72  F   UNL A   1      39.721  35.371  36.710  1.00  0.00    -0.200 F 
ATOM     73  F   UNL A   1      38.059  34.298  38.586  1.00  0.00    -0.200 F 
ENDBRANCH  49  63
BRANCH  50  74
ATOM     74  C   UNL A   1      42.357  26.474  27.588  1.00  0.00     0.064 A 
ATOM     75  C   UNL A   1      43.371  26.896  26.718  1.00  0.00     0.173 A 
ATOM     76  C   UNL A   1      41.805  25.201  27.382  1.00  0.00     0.173 A 
ATOM     77  F   UNL A   1      43.917  28.111  26.867  1.00  0.00    -0.203 F 
ATOM     78  C   UNL A   1      43.819  26.073  25.687  1.00  0.00     0.198 A 
ATOM     79  C   UNL A   1      42.272  24.369  26.367  1.00  0.00     0.198 A 
ATOM     80  F   UNL A   1      40.836  24.750  28.193  1.00  0.00    -0.203 F 
ATOM     81  F   UNL A   1      44.779  26.505  24.858  1.00  0.00    -0.200 F 
ATOM     82  C   UNL A   1      43.278  24.807  25.520  1.00  0.00     0.200 A 
ATOM     83  F   UNL A   1      41.759  23.141  26.221  1.00  0.00    -0.200 F 
ATOM     84  F   UNL A   1      43.727  24.007  24.543  1.00  0.00    -0.200 F 
ENDBRANCH  50  74
BRANCH  62  85
ATOM     85  C   UNL A   1      44.662  27.369  34.115  1.00  0.00     0.064 A 
ATOM     86  C   UNL A   1      45.898  28.027  34.168  1.00  0.00     0.173 A 
ATOM     87  C   UNL A   1      44.509  26.184  34.848  1.00  0.00     0.173 A 
ATOM     88  F   UNL A   1      46.091  29.159  33.474  1.00  0.00    -0.203 F 
ATOM     89  C   UNL A   1      46.948  27.511  34.921  1.00  0.00     0.198 A 
ATOM     90  C   UNL A   1      45.554  25.682  35.618  1.00  0.00     0.198 A 
ATOM     91  F   UNL A   1      43.341  25.525  34.833  1.00  0.00    -0.203 F 
ATOM     92  F   UNL A   1      48.131  28.139  34.936  1.00  0.00    -0.200 F 
ATOM     93  C   UNL A   1      46.773  26.343  35.651  1.00  0.00     0.200 A 
ATOM     94  F   UNL A   1      45.381  24.561  36.332  1.00  0.00    -0.200 F 
ATOM     95  F   UNL A   1      47.782  25.854  36.385  1.00  0.00    -0.200 F 
ENDBRANCH  62  85
ENDBRANCH  36  37
ENDBRANCH  28  31
ENDBRANCH  26  27
ENDBRANCH  25  26
ENDBRANCH   1  25
TORSDOF 13
ENDMDL
