MODEL 1
REMARK VINA RESULT:     -12.5      0.000      0.000
REMARK SMILES CSc1nc2ccccc2c(=O)n1CC(=O)NCCCCNC(=O)c1ccc(-c2c3nc(c(-c4c(F)c(F)c(F)c(F)c4F)c4ccc([nH]4)c(-c4c(F)c(F)c(F)c(F)c4F)c4nc(c(-c5c(F)c(F)c(F)c(F)c5F)c5ccc2[nH]5)C=C4)C=C3)cc1
REMARK SMILES IDX 19 1 18 2 17 3 15 4 16 5 14 7 13 8 3 9 4 10 5 11 11 12 6 13
REMARK SMILES IDX 10 14 12 15 7 16 9 17 8 18 2 19 1 20 20 21 21 22 22 23 23 24
REMARK SMILES IDX 24 26 25 27 26 28 87 29 27 30 86 31 28 32 29 33 30 34 80 35
REMARK SMILES IDX 31 36 85 37 79 38 81 39 32 40 84 41 78 42 77 43 33 45 65 46
REMARK SMILES IDX 45 47 64 48 46 49 49 50 63 51 82 52 47 53 48 54 62 56 83 57
REMARK SMILES IDX 50 58 34 59 35 60 43 61 36 62 37 63 41 64 44 65 38 66 39 67
REMARK SMILES IDX 42 68 40 69 66 70 67 71 75 72 68 73 69 74 73 75 76 76 70 77
REMARK SMILES IDX 71 78 74 79 72 80 51 81 52 82 60 83 53 84 54 85 58 86 61 87
REMARK SMILES IDX 55 88 56 89 59 90 57 91
REMARK H PARENT 17 6 22 25 81 44 49 55
REMARK Flexibility Score: inf
ROOT
ATOM      1  C   UNL A   1      32.192  30.366  26.629  1.00  0.00     0.023 C 
ENDROOT
BRANCH   1   2
ATOM      2  C   UNL A   1      31.891  29.802  25.247  1.00  0.00     0.116 C 
BRANCH   2   3
ATOM      3  N   UNL A   1      33.062  29.542  24.434  1.00  0.00    -0.355 N 
ATOM      4  C   UNL A   1      33.380  28.520  23.586  1.00  0.00     0.240 C 
ATOM      5  O   UNL A   1      34.275  28.761  22.767  1.00  0.00    -0.273 OA
ATOM      6  H   UNL A   1      33.759  30.233  24.505  1.00  0.00     0.163 HD
BRANCH   4   7
ATOM      7  C   UNL A   1      32.584  27.204  23.478  1.00  0.00     0.228 C 
BRANCH   7   8
ATOM      8  N   UNL A   1      33.176  26.077  24.186  1.00  0.00    -0.278 N 
ATOM      9  C   UNL A   1      32.975  25.755  25.517  1.00  0.00     0.171 A 
ATOM     10  N   UNL A   1      33.666  24.856  26.143  1.00  0.00    -0.224 NA
ATOM     11  C   UNL A   1      34.594  24.091  25.422  1.00  0.00     0.079 A 
ATOM     12  C   UNL A   1      33.938  25.240  23.372  1.00  0.00     0.262 A 
ATOM     13  C   UNL A   1      35.374  23.140  26.084  1.00  0.00     0.029 A 
ATOM     14  C   UNL A   1      34.703  24.180  24.039  1.00  0.00     0.066 A 
ATOM     15  O   UNL A   1      34.021  25.358  22.152  1.00  0.00    -0.269 OA
ATOM     16  C   UNL A   1      36.220  22.283  25.368  1.00  0.00     0.002 A 
ATOM     17  C   UNL A   1      35.536  23.324  23.307  1.00  0.00     0.016 A 
ATOM     18  C   UNL A   1      36.291  22.367  23.977  1.00  0.00     0.001 A 
BRANCH   9  19
ATOM     19  S   UNL A   1      31.612  26.413  26.404  1.00  0.00    -0.091 SA
ATOM     20  C   UNL A   1      30.139  25.595  25.785  1.00  0.00     0.094 C 
ENDBRANCH   9  19
ENDBRANCH   7   8
ENDBRANCH   4   7
ENDBRANCH   2   3
ENDBRANCH   1   2
BRANCH   1  21
ATOM     21  C   UNL A   1      31.762  31.810  26.863  1.00  0.00     0.023 C 
BRANCH  21  22
ATOM     22  C   UNL A   1      32.861  32.772  27.298  1.00  0.00     0.116 C 
BRANCH  22  23
ATOM     23  N   UNL A   1      32.392  34.114  27.612  1.00  0.00    -0.352 N 
ATOM     24  C   UNL A   1      32.909  35.015  28.519  1.00  0.00     0.251 C 
ATOM     25  H   UNL A   1      31.600  34.418  27.113  1.00  0.00     0.163 HD
ATOM     26  O   UNL A   1      32.357  36.092  28.715  1.00  0.00    -0.269 OA
BRANCH  24  27
ATOM     27  C   UNL A   1      34.110  34.646  29.301  1.00  0.00     0.039 A 
ATOM     28  C   UNL A   1      35.384  34.750  28.738  1.00  0.00     0.014 A 
ATOM     29  C   UNL A   1      33.949  34.113  30.583  1.00  0.00     0.014 A 
ATOM     30  C   UNL A   1      36.463  34.144  29.372  1.00  0.00     0.010 A 
ATOM     31  C   UNL A   1      35.052  33.578  31.255  1.00  0.00     0.010 A 
ATOM     32  C   UNL A   1      36.305  33.530  30.625  1.00  0.00    -0.014 A 
BRANCH  32  33
ATOM     33  C   UNL A   1      37.455  32.811  31.234  1.00  0.00     0.031 A 
ATOM     34  C   UNL A   1      37.908  33.135  32.635  1.00  0.00     0.074 A 
ATOM     35  C   UNL A   1      38.043  31.807  30.556  1.00  0.00     0.049 A 
ATOM     36  N   UNL A   1      38.870  32.590  33.339  1.00  0.00    -0.248 NA
ATOM     37  C   UNL A   1      37.189  34.208  33.342  1.00  0.00     0.031 C 
ATOM     38  C   UNL A   1      37.682  31.386  29.201  1.00  0.00     0.029 A 
ATOM     39  N   UNL A   1      39.042  30.941  30.920  1.00  0.00    -0.354 N 
ATOM     40  C   UNL A   1      38.884  33.264  34.553  1.00  0.00     0.074 A 
ATOM     41  C   UNL A   1      37.851  34.273  34.489  1.00  0.00     0.031 C 
ATOM     42  C   UNL A   1      38.409  30.308  28.870  1.00  0.00     0.029 A 
ATOM     43  C   UNL A   1      39.324  29.997  29.963  1.00  0.00     0.049 A 
ATOM     44  H   UNL A   1      39.512  30.991  31.784  1.00  0.00     0.167 HD
ATOM     45  C   UNL A   1      39.678  33.048  35.630  1.00  0.00     0.037 A 
ATOM     46  C   UNL A   1      40.225  28.997  29.962  1.00  0.00     0.037 A 
ATOM     47  C   UNL A   1      40.682  32.020  35.710  1.00  0.00     0.049 A 
ATOM     48  C   UNL A   1      41.113  28.803  31.159  1.00  0.00     0.074 A 
ATOM     49  C   UNL A   1      41.523  31.718  36.768  1.00  0.00     0.029 A 
ATOM     50  N   UNL A   1      40.976  31.122  34.696  1.00  0.00    -0.354 N 
ATOM     51  N   UNL A   1      41.119  29.454  32.295  1.00  0.00    -0.248 NA
ATOM     52  C   UNL A   1      42.127  27.743  31.066  1.00  0.00     0.031 C 
ATOM     53  C   UNL A   1      42.347  30.656  36.384  1.00  0.00     0.029 A 
ATOM     54  C   UNL A   1      41.994  30.274  35.100  1.00  0.00     0.049 A 
ATOM     55  H   UNL A   1      40.528  31.091  33.821  1.00  0.00     0.167 HD
ATOM     56  C   UNL A   1      42.129  28.881  33.055  1.00  0.00     0.074 A 
ATOM     57  C   UNL A   1      42.700  27.814  32.260  1.00  0.00     0.031 C 
ATOM     58  C   UNL A   1      42.551  29.217  34.297  1.00  0.00     0.037 A 
BRANCH  45  59
ATOM     59  C   UNL A   1      39.500  33.937  36.825  1.00  0.00     0.064 A 
ATOM     60  C   UNL A   1      38.724  33.541  37.923  1.00  0.00     0.173 A 
ATOM     61  C   UNL A   1      40.189  35.157  36.910  1.00  0.00     0.173 A 
ATOM     62  F   UNL A   1      38.039  32.388  37.883  1.00  0.00    -0.203 F 
ATOM     63  C   UNL A   1      38.640  34.337  39.063  1.00  0.00     0.198 A 
ATOM     64  C   UNL A   1      40.119  35.940  38.060  1.00  0.00     0.198 A 
ATOM     65  F   UNL A   1      40.950  35.576  35.889  1.00  0.00    -0.203 F 
ATOM     66  F   UNL A   1      37.877  33.948  40.094  1.00  0.00    -0.200 F 
ATOM     67  C   UNL A   1      39.345  35.530  39.134  1.00  0.00     0.200 A 
ATOM     68  F   UNL A   1      40.810  37.086  38.133  1.00  0.00    -0.200 F 
ATOM     69  F   UNL A   1      39.277  36.284  40.240  1.00  0.00    -0.200 F 
ENDBRANCH  45  59
BRANCH  46  70
ATOM     70  C   UNL A   1      40.327  28.102  28.783  1.00  0.00     0.064 A 
ATOM     71  C   UNL A   1      39.646  26.878  28.748  1.00  0.00     0.173 A 
ATOM     72  C   UNL A   1      41.088  28.460  27.660  1.00  0.00     0.173 A 
ATOM     73  F   UNL A   1      38.922  26.484  29.807  1.00  0.00    -0.203 F 
ATOM     74  C   UNL A   1      39.729  26.042  27.637  1.00  0.00     0.198 A 
ATOM     75  C   UNL A   1      41.149  27.635  26.540  1.00  0.00     0.198 A 
ATOM     76  F   UNL A   1      41.757  29.623  27.646  1.00  0.00    -0.203 F 
ATOM     77  F   UNL A   1      39.093  24.862  27.641  1.00  0.00    -0.200 F 
ATOM     78  C   UNL A   1      40.473  26.425  26.532  1.00  0.00     0.200 A 
ATOM     79  F   UNL A   1      41.858  28.015  25.468  1.00  0.00    -0.200 F 
ATOM     80  F   UNL A   1      40.542  25.625  25.458  1.00  0.00    -0.200 F 
ENDBRANCH  46  70
BRANCH  58  81
ATOM     81  C   UNL A   1      43.679  28.423  34.881  1.00  0.00     0.064 A 
ATOM     82  C   UNL A   1      43.442  27.238  35.592  1.00  0.00     0.173 A 
ATOM     83  C   UNL A   1      45.010  28.813  34.672  1.00  0.00     0.173 A 
ATOM     84  F   UNL A   1      42.185  26.833  35.827  1.00  0.00    -0.203 F 
ATOM     85  C   UNL A   1      44.499  26.478  36.085  1.00  0.00     0.198 A 
ATOM     86  C   UNL A   1      46.065  28.039  35.147  1.00  0.00     0.198 A 
ATOM     87  F   UNL A   1      45.286  29.935  33.991  1.00  0.00    -0.203 F 
ATOM     88  F   UNL A   1      44.250  25.364  36.788  1.00  0.00    -0.200 F 
ATOM     89  C   UNL A   1      45.808  26.874  35.856  1.00  0.00     0.200 A 
ATOM     90  F   UNL A   1      47.330  28.417  34.916  1.00  0.00    -0.200 F 
ATOM     91  F   UNL A   1      46.825  26.135  36.322  1.00  0.00    -0.200 F 
ENDBRANCH  58  81
ENDBRANCH  32  33
ENDBRANCH  24  27
ENDBRANCH  22  23
ENDBRANCH  21  22
ENDBRANCH   1  21
TORSDOF 13
ENDMDL
MODEL 2
REMARK VINA RESULT:     -12.4      2.257      3.244
REMARK SMILES CSc1nc2ccccc2c(=O)n1CC(=O)NCCCCNC(=O)c1ccc(-c2c3nc(c(-c4c(F)c(F)c(F)c(F)c4F)c4ccc([nH]4)c(-c4c(F)c(F)c(F)c(F)c4F)c4nc(c(-c5c(F)c(F)c(F)c(F)c5F)c5ccc2[nH]5)C=C4)C=C3)cc1
REMARK SMILES IDX 19 1 18 2 17 3 15 4 16 5 14 7 13 8 3 9 4 10 5 11 11 12 6 13
REMARK SMILES IDX 10 14 12 15 7 16 9 17 8 18 2 19 1 20 20 21 21 22 22 23 23 24
REMARK SMILES IDX 24 26 25 27 26 28 87 29 27 30 86 31 28 32 29 33 30 34 80 35
REMARK SMILES IDX 31 36 85 37 79 38 81 39 32 40 84 41 78 42 77 43 33 45 65 46
REMARK SMILES IDX 45 47 64 48 46 49 49 50 63 51 82 52 47 53 48 54 62 56 83 57
REMARK SMILES IDX 50 58 34 59 35 60 43 61 36 62 37 63 41 64 44 65 38 66 39 67
REMARK SMILES IDX 42 68 40 69 66 70 67 71 75 72 68 73 69 74 73 75 76 76 70 77
REMARK SMILES IDX 71 78 74 79 72 80 51 81 52 82 60 83 53 84 54 85 58 86 61 87
REMARK SMILES IDX 55 88 56 89 59 90 57 91
REMARK H PARENT 17 6 22 25 81 44 49 55
REMARK Flexibility Score: inf
ROOT
ATOM      1  C   UNL A   1      31.983  27.344  26.488  1.00  0.00     0.023 C 
ENDROOT
BRANCH   1   2
ATOM      2  C   UNL A   1      31.077  26.200  26.052  1.00  0.00     0.116 C 
BRANCH   2   3
ATOM      3  N   UNL A   1      31.166  25.011  26.876  1.00  0.00    -0.355 N 
ATOM      4  C   UNL A   1      31.660  23.762  26.632  1.00  0.00     0.240 C 
ATOM      5  O   UNL A   1      31.929  23.086  27.632  1.00  0.00    -0.273 OA
ATOM      6  H   UNL A   1      30.802  25.126  27.784  1.00  0.00     0.163 HD
BRANCH   4   7
ATOM      7  C   UNL A   1      32.059  23.246  25.235  1.00  0.00     0.228 C 
BRANCH   7   8
ATOM      8  N   UNL A   1      33.396  22.673  25.159  1.00  0.00    -0.278 N 
ATOM      9  C   UNL A   1      33.703  21.360  24.848  1.00  0.00     0.171 A 
ATOM     10  N   UNL A   1      34.890  20.857  24.974  1.00  0.00    -0.224 NA
ATOM     11  C   UNL A   1      35.947  21.701  25.344  1.00  0.00     0.079 A 
ATOM     12  C   UNL A   1      34.418  23.603  25.348  1.00  0.00     0.262 A 
ATOM     13  C   UNL A   1      37.228  21.174  25.519  1.00  0.00     0.029 A 
ATOM     14  C   UNL A   1      35.784  23.078  25.453  1.00  0.00     0.066 A 
ATOM     15  O   UNL A   1      34.234  24.813  25.454  1.00  0.00    -0.269 OA
ATOM     16  C   UNL A   1      38.321  22.014  25.771  1.00  0.00     0.002 A 
ATOM     17  C   UNL A   1      36.868  23.933  25.693  1.00  0.00     0.016 A 
ATOM     18  C   UNL A   1      38.142  23.396  25.845  1.00  0.00     0.001 A 
BRANCH   9  19
ATOM     19  S   UNL A   1      32.526  20.327  24.055  1.00  0.00    -0.091 SA
ATOM     20  C   UNL A   1      33.192  18.660  24.076  1.00  0.00     0.094 C 
ENDBRANCH   9  19
ENDBRANCH   7   8
ENDBRANCH   4   7
ENDBRANCH   2   3
ENDBRANCH   1   2
BRANCH   1  21
ATOM     21  C   UNL A   1      31.611  28.723  25.956  1.00  0.00     0.023 C 
BRANCH  21  22
ATOM     22  C   UNL A   1      32.748  29.733  25.866  1.00  0.00     0.116 C 
BRANCH  22  23
ATOM     23  N   UNL A   1      32.435  31.039  26.429  1.00  0.00    -0.352 N 
ATOM     24  C   UNL A   1      33.204  31.822  27.263  1.00  0.00     0.251 C 
ATOM     25  H   UNL A   1      31.558  31.412  26.183  1.00  0.00     0.163 HD
ATOM     26  O   UNL A   1      32.769  32.880  27.706  1.00  0.00    -0.269 OA
BRANCH  24  27
ATOM     27  C   UNL A   1      34.545  31.346  27.670  1.00  0.00     0.039 A 
ATOM     28  C   UNL A   1      34.756  30.003  27.989  1.00  0.00     0.014 A 
ATOM     29  C   UNL A   1      35.581  32.274  27.811  1.00  0.00     0.014 A 
ATOM     30  C   UNL A   1      35.932  29.629  28.630  1.00  0.00     0.010 A 
ATOM     31  C   UNL A   1      36.794  31.877  28.381  1.00  0.00     0.010 A 
ATOM     32  C   UNL A   1      36.954  30.566  28.855  1.00  0.00    -0.014 A 
BRANCH  32  33
ATOM     33  C   UNL A   1      38.159  30.158  29.625  1.00  0.00     0.031 A 
ATOM     34  C   UNL A   1      38.355  30.623  31.045  1.00  0.00     0.074 A 
ATOM     35  C   UNL A   1      39.040  29.303  29.072  1.00  0.00     0.049 A 
ATOM     36  N   UNL A   1      39.327  30.343  31.879  1.00  0.00    -0.248 NA
ATOM     37  C   UNL A   1      37.328  31.515  31.608  1.00  0.00     0.031 C 
ATOM     38  C   UNL A   1      38.951  28.767  27.713  1.00  0.00     0.029 A 
ATOM     39  N   UNL A   1      40.163  28.710  29.592  1.00  0.00    -0.354 N 
ATOM     40  C   UNL A   1      39.041  31.037  33.048  1.00  0.00     0.074 A 
ATOM     41  C   UNL A   1      37.816  31.771  32.815  1.00  0.00     0.031 C 
ATOM     42  C   UNL A   1      39.941  27.883  27.525  1.00  0.00     0.029 A 
ATOM     43  C   UNL A   1      40.768  27.832  28.726  1.00  0.00     0.049 A 
ATOM     44  H   UNL A   1      40.503  28.896  30.497  1.00  0.00     0.167 HD
ATOM     45  C   UNL A   1      39.729  31.049  34.214  1.00  0.00     0.037 A 
ATOM     46  C   UNL A   1      41.870  27.075  28.880  1.00  0.00     0.037 A 
ATOM     47  C   UNL A   1      40.928  30.292  34.461  1.00  0.00     0.049 A 
ATOM     48  C   UNL A   1      42.630  27.133  30.174  1.00  0.00     0.074 A 
ATOM     49  C   UNL A   1      41.685  30.230  35.619  1.00  0.00     0.029 A 
ATOM     50  N   UNL A   1      41.541  29.459  33.538  1.00  0.00    -0.354 N 
ATOM     51  N   UNL A   1      42.351  27.800  31.266  1.00  0.00    -0.248 NA
ATOM     52  C   UNL A   1      43.867  26.342  30.253  1.00  0.00     0.031 C 
ATOM     53  C   UNL A   1      42.772  29.382  35.388  1.00  0.00     0.029 A 
ATOM     54  C   UNL A   1      42.673  28.889  34.097  1.00  0.00     0.049 A 
ATOM     55  H   UNL A   1      41.219  29.296  32.623  1.00  0.00     0.167 HD
ATOM     56  C   UNL A   1      43.369  27.507  32.162  1.00  0.00     0.074 A 
ATOM     57  C   UNL A   1      44.262  26.582  31.495  1.00  0.00     0.031 C 
ATOM     58  C   UNL A   1      43.551  27.971  33.421  1.00  0.00     0.037 A 
BRANCH  45  59
ATOM     59  C   UNL A   1      39.210  31.906  35.330  1.00  0.00     0.064 A 
ATOM     60  C   UNL A   1      38.424  31.370  36.360  1.00  0.00     0.173 A 
ATOM     61  C   UNL A   1      39.580  33.258  35.418  1.00  0.00     0.173 A 
ATOM     62  F   UNL A   1      38.037  30.086  36.314  1.00  0.00    -0.203 F 
ATOM     63  C   UNL A   1      38.023  32.157  37.437  1.00  0.00     0.198 A 
ATOM     64  C   UNL A   1      39.194  34.036  36.506  1.00  0.00     0.198 A 
ATOM     65  F   UNL A   1      40.336  33.815  34.462  1.00  0.00    -0.203 F 
ATOM     66  F   UNL A   1      37.256  31.629  38.401  1.00  0.00    -0.200 F 
ATOM     67  C   UNL A   1      38.417  33.485  37.514  1.00  0.00     0.200 A 
ATOM     68  F   UNL A   1      39.585  35.315  36.586  1.00  0.00    -0.200 F 
ATOM     69  F   UNL A   1      38.045  34.235  38.561  1.00  0.00    -0.200 F 
ENDBRANCH  45  59
BRANCH  46  70
ATOM     70  C   UNL A   1      42.316  26.193  27.772  1.00  0.00     0.064 A 
ATOM     71  C   UNL A   1      41.709  24.950  27.552  1.00  0.00     0.173 A 
ATOM     72  C   UNL A   1      43.343  26.585  26.899  1.00  0.00     0.173 A 
ATOM     73  F   UNL A   1      40.737  24.525  28.373  1.00  0.00    -0.203 F 
ATOM     74  C   UNL A   1      42.116  24.128  26.504  1.00  0.00     0.198 A 
ATOM     75  C   UNL A   1      43.731  25.772  25.837  1.00  0.00     0.198 A 
ATOM     76  F   UNL A   1      43.954  27.767  27.068  1.00  0.00    -0.203 F 
ATOM     77  F   UNL A   1      41.540  22.930  26.334  1.00  0.00    -0.200 F 
ATOM     78  C   UNL A   1      43.120  24.543  25.643  1.00  0.00     0.200 A 
ATOM     79  F   UNL A   1      44.692  26.183  24.998  1.00  0.00    -0.200 F 
ATOM     80  F   UNL A   1      43.503  23.756  24.628  1.00  0.00    -0.200 F 
ENDBRANCH  46  70
BRANCH  58  81
ATOM     81  C   UNL A   1      44.756  27.485  34.168  1.00  0.00     0.064 A 
ATOM     82  C   UNL A   1      44.707  26.321  34.947  1.00  0.00     0.173 A 
ATOM     83  C   UNL A   1      45.985  28.151  34.051  1.00  0.00     0.173 A 
ATOM     84  F   UNL A   1      43.550  25.658  35.098  1.00  0.00    -0.203 F 
ATOM     85  C   UNL A   1      45.844  25.847  35.595  1.00  0.00     0.198 A 
ATOM     86  C   UNL A   1      47.125  27.662  34.682  1.00  0.00     0.198 A 
ATOM     87  F   UNL A   1      46.081  29.265  33.311  1.00  0.00    -0.203 F 
ATOM     88  F   UNL A   1      45.769  24.749  36.359  1.00  0.00    -0.200 F 
ATOM     89  C   UNL A   1      47.053  26.513  35.455  1.00  0.00     0.200 A 
ATOM     90  F   UNL A   1      48.295  28.300  34.538  1.00  0.00    -0.200 F 
ATOM     91  F   UNL A   1      48.150  26.049  36.070  1.00  0.00    -0.200 F 
ENDBRANCH  58  81
ENDBRANCH  32  33
ENDBRANCH  24  27
ENDBRANCH  22  23
ENDBRANCH  21  22
ENDBRANCH   1  21
TORSDOF 13
ENDMDL
MODEL 3
REMARK VINA RESULT:     -12.3      0.346      7.477
REMARK SMILES CSc1nc2ccccc2c(=O)n1CC(=O)NCCCCNC(=O)c1ccc(-c2c3nc(c(-c4c(F)c(F)c(F)c(F)c4F)c4ccc([nH]4)c(-c4c(F)c(F)c(F)c(F)c4F)c4nc(c(-c5c(F)c(F)c(F)c(F)c5F)c5ccc2[nH]5)C=C4)C=C3)cc1
REMARK SMILES IDX 19 1 18 2 17 3 15 4 16 5 14 7 13 8 3 9 4 10 5 11 11 12 6 13
REMARK SMILES IDX 10 14 12 15 7 16 9 17 8 18 2 19 1 20 20 21 21 22 22 23 23 24
REMARK SMILES IDX 24 26 25 27 26 28 87 29 27 30 86 31 28 32 29 33 30 34 80 35
REMARK SMILES IDX 31 36 85 37 79 38 81 39 32 40 84 41 78 42 77 43 33 45 65 46
REMARK SMILES IDX 45 47 64 48 46 49 49 50 63 51 82 52 47 53 48 54 62 56 83 57
REMARK SMILES IDX 50 58 34 59 35 60 43 61 36 62 37 63 41 64 44 65 38 66 39 67
REMARK SMILES IDX 42 68 40 69 66 70 67 71 75 72 68 73 69 74 73 75 76 76 70 77
REMARK SMILES IDX 71 78 74 79 72 80 51 81 52 82 60 83 53 84 54 85 58 86 61 87
REMARK SMILES IDX 55 88 56 89 59 90 57 91
REMARK H PARENT 17 6 22 25 81 44 49 55
REMARK Flexibility Score: inf
ROOT
ATOM      1  C   UNL A   1      32.159  30.393  26.629  1.00  0.00     0.023 C 
ENDROOT
BRANCH   1   2
ATOM      2  C   UNL A   1      31.842  29.837  25.247  1.00  0.00     0.116 C 
BRANCH   2   3
ATOM      3  N   UNL A   1      33.003  29.588  24.416  1.00  0.00    -0.355 N 
ATOM      4  C   UNL A   1      33.321  28.565  23.570  1.00  0.00     0.240 C 
ATOM      5  O   UNL A   1      34.200  28.812  22.735  1.00  0.00    -0.273 OA
ATOM      6  H   UNL A   1      33.691  30.290  24.471  1.00  0.00     0.163 HD
BRANCH   4   7
ATOM      7  C   UNL A   1      32.544  27.237  23.485  1.00  0.00     0.228 C 
BRANCH   7   8
ATOM      8  N   UNL A   1      33.165  26.123  24.190  1.00  0.00    -0.278 N 
ATOM      9  C   UNL A   1      33.019  25.826  25.534  1.00  0.00     0.171 A 
ATOM     10  N   UNL A   1      33.736  24.939  26.148  1.00  0.00    -0.224 NA
ATOM     11  C   UNL A   1      34.635  24.161  25.404  1.00  0.00     0.079 A 
ATOM     12  C   UNL A   1      33.895  25.271  23.361  1.00  0.00     0.262 A 
ATOM     13  C   UNL A   1      35.442  23.223  26.051  1.00  0.00     0.029 A 
ATOM     14  C   UNL A   1      34.687  24.224  24.016  1.00  0.00     0.066 A 
ATOM     15  O   UNL A   1      33.928  25.366  22.137  1.00  0.00    -0.269 OA
ATOM     16  C   UNL A   1      36.259  22.353  25.317  1.00  0.00     0.002 A 
ATOM     17  C   UNL A   1      35.490  23.354  23.267  1.00  0.00     0.016 A 
ATOM     18  C   UNL A   1      36.273  22.410  23.924  1.00  0.00     0.001 A 
BRANCH   9  19
ATOM     19  S   UNL A   1      31.692  26.500  26.463  1.00  0.00    -0.091 SA
ATOM     20  C   UNL A   1      30.173  25.877  25.737  1.00  0.00     0.094 C 
ENDBRANCH   9  19
ENDBRANCH   7   8
ENDBRANCH   4   7
ENDBRANCH   2   3
ENDBRANCH   1   2
BRANCH   1  21
ATOM     21  C   UNL A   1      31.785  31.854  26.857  1.00  0.00     0.023 C 
BRANCH  21  22
ATOM     22  C   UNL A   1      32.884  32.745  27.421  1.00  0.00     0.116 C 
BRANCH  22  23
ATOM     23  N   UNL A   1      32.465  34.113  27.692  1.00  0.00    -0.352 N 
ATOM     24  C   UNL A   1      32.987  35.007  28.603  1.00  0.00     0.251 C 
ATOM     25  H   UNL A   1      31.709  34.443  27.155  1.00  0.00     0.163 HD
ATOM     26  O   UNL A   1      32.477  36.113  28.756  1.00  0.00    -0.269 OA
BRANCH  24  27
ATOM     27  C   UNL A   1      34.137  34.600  29.440  1.00  0.00     0.039 A 
ATOM     28  C   UNL A   1      35.439  34.673  28.942  1.00  0.00     0.014 A 
ATOM     29  C   UNL A   1      33.897  34.062  30.708  1.00  0.00     0.014 A 
ATOM     30  C   UNL A   1      36.469  34.033  29.623  1.00  0.00     0.010 A 
ATOM     31  C   UNL A   1      34.951  33.492  31.429  1.00  0.00     0.010 A 
ATOM     32  C   UNL A   1      36.232  33.414  30.862  1.00  0.00    -0.014 A 
BRANCH  32  33
ATOM     33  C   UNL A   1      37.330  32.659  31.521  1.00  0.00     0.031 A 
ATOM     34  C   UNL A   1      38.017  31.525  30.806  1.00  0.00     0.074 A 
ATOM     35  C   UNL A   1      37.765  33.047  32.735  1.00  0.00     0.049 A 
ATOM     36  N   UNL A   1      39.013  30.775  31.212  1.00  0.00    -0.248 NA
ATOM     37  C   UNL A   1      37.528  31.184  29.460  1.00  0.00     0.031 C 
ATOM     38  C   UNL A   1      37.194  34.142  33.521  1.00  0.00     0.029 A 
ATOM     39  N   UNL A   1      38.802  32.587  33.508  1.00  0.00    -0.354 N 
ATOM     40  C   UNL A   1      39.253  29.869  30.187  1.00  0.00     0.074 A 
ATOM     41  C   UNL A   1      38.287  30.144  29.145  1.00  0.00     0.031 C 
ATOM     42  C   UNL A   1      37.922  34.307  34.636  1.00  0.00     0.029 A 
ATOM     43  C   UNL A   1      38.973  33.296  34.672  1.00  0.00     0.049 A 
ATOM     44  H   UNL A   1      39.368  31.824  33.252  1.00  0.00     0.167 HD
ATOM     45  C   UNL A   1      40.203  28.906  30.115  1.00  0.00     0.037 A 
ATOM     46  C   UNL A   1      39.871  33.143  35.662  1.00  0.00     0.037 A 
ATOM     47  C   UNL A   1      41.188  28.654  31.134  1.00  0.00     0.049 A 
ATOM     48  C   UNL A   1      40.893  32.045  35.568  1.00  0.00     0.074 A 
ATOM     49  C   UNL A   1      42.200  27.709  31.139  1.00  0.00     0.029 A 
ATOM     50  N   UNL A   1      41.290  29.356  32.324  1.00  0.00    -0.354 N 
ATOM     51  N   UNL A   1      41.100  31.192  34.597  1.00  0.00    -0.248 NA
ATOM     52  C   UNL A   1      41.797  31.882  36.716  1.00  0.00     0.031 C 
ATOM     53  C   UNL A   1      42.897  27.819  32.346  1.00  0.00     0.029 A 
ATOM     54  C   UNL A   1      42.341  28.856  33.077  1.00  0.00     0.049 A 
ATOM     55  H   UNL A   1      40.705  30.100  32.594  1.00  0.00     0.167 HD
ATOM     56  C   UNL A   1      42.159  30.396  35.010  1.00  0.00     0.074 A 
ATOM     57  C   UNL A   1      42.567  30.882  36.311  1.00  0.00     0.031 C 
ATOM     58  C   UNL A   1      42.734  29.350  34.369  1.00  0.00     0.037 A 
BRANCH  45  59
ATOM     59  C   UNL A   1      40.237  28.040  28.890  1.00  0.00     0.064 A 
ATOM     60  C   UNL A   1      40.990  28.396  27.763  1.00  0.00     0.173 A 
ATOM     61  C   UNL A   1      39.583  26.798  28.881  1.00  0.00     0.173 A 
ATOM     62  F   UNL A   1      41.624  29.579  27.722  1.00  0.00    -0.203 F 
ATOM     63  C   UNL A   1      41.085  27.542  26.667  1.00  0.00     0.198 A 
ATOM     64  C   UNL A   1      39.698  25.937  27.793  1.00  0.00     0.198 A 
ATOM     65  F   UNL A   1      38.856  26.409  29.938  1.00  0.00    -0.203 F 
ATOM     66  F   UNL A   1      41.796  27.910  25.592  1.00  0.00    -0.200 F 
ATOM     67  C   UNL A   1      40.448  26.309  26.688  1.00  0.00     0.200 A 
ATOM     68  F   UNL A   1      39.092  24.742  27.818  1.00  0.00    -0.200 F 
ATOM     69  F   UNL A   1      40.556  25.481  25.640  1.00  0.00    -0.200 F 
ENDBRANCH  45  59
BRANCH  46  70
ATOM     70  C   UNL A   1      39.841  34.060  36.829  1.00  0.00     0.064 A 
ATOM     71  C   UNL A   1      39.020  33.793  37.932  1.00  0.00     0.173 A 
ATOM     72  C   UNL A   1      40.646  35.208  36.874  1.00  0.00     0.173 A 
ATOM     73  F   UNL A   1      38.217  32.718  37.926  1.00  0.00    -0.203 F 
ATOM     74  C   UNL A   1      39.000  34.645  39.035  1.00  0.00     0.198 A 
ATOM     75  C   UNL A   1      40.644  36.044  37.987  1.00  0.00     0.198 A 
ATOM     76  F   UNL A   1      41.450  35.505  35.842  1.00  0.00    -0.203 F 
ATOM     77  F   UNL A   1      38.183  34.384  40.064  1.00  0.00    -0.200 F 
ATOM     78  C   UNL A   1      39.818  35.764  39.064  1.00  0.00     0.200 A 
ATOM     79  F   UNL A   1      41.446  37.117  38.018  1.00  0.00    -0.200 F 
ATOM     80  F   UNL A   1      39.807  36.576  40.131  1.00  0.00    -0.200 F 
ENDBRANCH  46  70
BRANCH  58  81
ATOM     81  C   UNL A   1      43.871  28.660  35.060  1.00  0.00     0.064 A 
ATOM     82  C   UNL A   1      45.190  29.110  34.913  1.00  0.00     0.173 A 
ATOM     83  C   UNL A   1      43.632  27.582  35.925  1.00  0.00     0.173 A 
ATOM     84  F   UNL A   1      45.468  30.129  34.086  1.00  0.00    -0.203 F 
ATOM     85  C   UNL A   1      46.234  28.496  35.600  1.00  0.00     0.198 A 
ATOM     86  C   UNL A   1      44.675  26.985  36.628  1.00  0.00     0.198 A 
ATOM     87  F   UNL A   1      42.385  27.122  36.103  1.00  0.00    -0.203 F 
ATOM     88  F   UNL A   1      47.492  28.922  35.423  1.00  0.00    -0.200 F 
ATOM     89  C   UNL A   1      45.975  27.440  36.462  1.00  0.00     0.200 A 
ATOM     90  F   UNL A   1      44.422  25.972  37.468  1.00  0.00    -0.200 F 
ATOM     91  F   UNL A   1      46.980  26.858  37.131  1.00  0.00    -0.200 F 
ENDBRANCH  58  81
ENDBRANCH  32  33
ENDBRANCH  24  27
ENDBRANCH  22  23
ENDBRANCH  21  22
ENDBRANCH   1  21
TORSDOF 13
ENDMDL
