MODEL 1
REMARK VINA RESULT:     -11.6      0.000      0.000
REMARK SMILES O=C(CC1(CSC[C@H]2C[C@H]3CC[C@@H]2C3)CC1)NCCCCNC(=O)c1ccc(-c2c3nc(c(-c4c(F)c(F)c(F)c(F)c4F)c4ccc([nH]4)c(-c4c(F)c(F)c(F)c(F)c4F)c4nc(c(-c5c(F)c(F)c(F)c(F)c5F)c5ccc2[nH]5)C=C4)C=C3)cc1
REMARK SMILES IDX 18 1 17 2 1 3 2 4 3 6 4 7 15 8 16 9 5 10 6 11 7 12 8 13 9 14
REMARK SMILES IDX 13 15 10 16 12 17 14 18 11 19 19 20 20 21 21 22 22 23 23 24
REMARK SMILES IDX 24 26 25 27 26 28 87 29 27 30 86 31 28 32 29 33 30 34 80 35
REMARK SMILES IDX 31 36 85 37 79 38 81 39 32 40 84 41 78 42 77 43 33 45 65 46
REMARK SMILES IDX 45 47 64 48 46 49 49 50 63 51 82 52 47 53 48 54 62 56 83 57
REMARK SMILES IDX 50 58 34 59 35 60 43 61 36 62 37 63 41 64 44 65 38 66 39 67
REMARK SMILES IDX 42 68 40 69 66 70 67 71 75 72 68 73 69 74 73 75 76 76 70 77
REMARK SMILES IDX 71 78 74 79 72 80 51 81 52 82 60 83 53 84 54 85 58 86 61 87
REMARK SMILES IDX 55 88 56 89 59 90 57 91
REMARK H PARENT 17 5 22 25 81 44 49 55
REMARK Flexibility Score: inf
ROOT
ATOM      1  C   UNL A   1      32.783  30.097  27.118  1.00  0.00     0.116 C 
ENDROOT
BRANCH   1   2
ATOM      2  N   UNL A   1      32.909  28.720  26.678  1.00  0.00    -0.356 N 
ATOM      3  O   UNL A   1      31.271  27.900  28.071  1.00  0.00    -0.275 OA
ATOM      4  C   UNL A   1      32.021  27.755  27.110  1.00  0.00     0.220 C 
ATOM      5  H   UNL A   1      33.637  28.471  26.064  1.00  0.00     0.163 HD
BRANCH   4   6
ATOM      6  C   UNL A   1      32.061  26.464  26.320  1.00  0.00     0.107 C 
BRANCH   6   7
ATOM      7  C   UNL A   1      30.900  26.117  25.373  1.00  0.00    -0.012 C 
ATOM      8  C   UNL A   1      30.906  24.655  24.927  1.00  0.00     0.009 C 
ATOM      9  C   UNL A   1      29.863  25.121  25.883  1.00  0.00     0.009 C 
BRANCH   7  10
ATOM     10  C   UNL A   1      30.443  27.098  24.309  1.00  0.00     0.077 C 
BRANCH  10  11
ATOM     11  S   UNL A   1      31.662  27.960  23.312  1.00  0.00    -0.161 SA
BRANCH  11  12
ATOM     12  C   UNL A   1      30.658  29.179  22.412  1.00  0.00     0.073 C 
BRANCH  12  13
ATOM     13  C   UNL A   1      29.427  29.562  23.233  1.00  0.00     0.002 C 
ATOM     14  C   UNL A   1      29.464  30.997  23.800  1.00  0.00     0.008 C 
ATOM     15  C   UNL A   1      28.094  29.558  22.442  1.00  0.00    -0.007 C 
ATOM     16  C   UNL A   1      28.111  31.584  23.359  1.00  0.00    -0.011 C 
ATOM     17  C   UNL A   1      28.154  30.489  21.220  1.00  0.00     0.004 C 
ATOM     18  C   UNL A   1      27.199  30.360  23.390  1.00  0.00     0.007 C 
ATOM     19  C   UNL A   1      28.189  31.886  21.852  1.00  0.00     0.004 C 
ENDBRANCH  12  13
ENDBRANCH  11  12
ENDBRANCH  10  11
ENDBRANCH   7  10
ENDBRANCH   6   7
ENDBRANCH   4   6
ENDBRANCH   1   2
BRANCH   1  20
ATOM     20  C   UNL A   1      31.684  30.866  26.395  1.00  0.00     0.023 C 
BRANCH  20  21
ATOM     21  C   UNL A   1      31.474  32.305  26.874  1.00  0.00     0.023 C 
BRANCH  21  22
ATOM     22  C   UNL A   1      32.744  33.068  27.246  1.00  0.00     0.116 C 
BRANCH  22  23
ATOM     23  N   UNL A   1      32.473  34.411  27.732  1.00  0.00    -0.352 N 
ATOM     24  C   UNL A   1      33.038  35.107  28.772  1.00  0.00     0.251 C 
ATOM     25  H   UNL A   1      31.774  34.899  27.238  1.00  0.00     0.163 HD
ATOM     26  O   UNL A   1      32.546  36.176  29.134  1.00  0.00    -0.269 OA
BRANCH  24  27
ATOM     27  C   UNL A   1      34.221  34.577  29.485  1.00  0.00     0.039 A 
ATOM     28  C   UNL A   1      34.033  33.897  30.692  1.00  0.00     0.014 A 
ATOM     29  C   UNL A   1      35.514  34.767  28.991  1.00  0.00     0.014 A 
ATOM     30  C   UNL A   1      35.128  33.343  31.360  1.00  0.00     0.010 A 
ATOM     31  C   UNL A   1      36.597  34.148  29.616  1.00  0.00     0.010 A 
ATOM     32  C   UNL A   1      36.417  33.426  30.806  1.00  0.00    -0.014 A 
BRANCH  32  33
ATOM     33  C   UNL A   1      37.578  32.754  31.450  1.00  0.00     0.031 A 
ATOM     34  C   UNL A   1      38.229  31.564  30.800  1.00  0.00     0.074 A 
ATOM     35  C   UNL A   1      38.008  33.177  32.655  1.00  0.00     0.049 A 
ATOM     36  N   UNL A   1      39.203  30.807  31.243  1.00  0.00    -0.248 NA
ATOM     37  C   UNL A   1      37.701  31.155  29.490  1.00  0.00     0.031 C 
ATOM     38  C   UNL A   1      37.437  34.291  33.412  1.00  0.00     0.029 A 
ATOM     39  N   UNL A   1      39.019  32.713  33.461  1.00  0.00    -0.354 N 
ATOM     40  C   UNL A   1      39.396  29.832  30.272  1.00  0.00     0.074 A 
ATOM     41  C   UNL A   1      38.401  30.057  29.245  1.00  0.00     0.031 C 
ATOM     42  C   UNL A   1      38.115  34.436  34.561  1.00  0.00     0.029 A 
ATOM     43  C   UNL A   1      39.141  33.401  34.644  1.00  0.00     0.049 A 
ATOM     44  H   UNL A   1      39.601  31.958  33.214  1.00  0.00     0.167 HD
ATOM     45  C   UNL A   1      40.334  28.855  30.228  1.00  0.00     0.037 A 
ATOM     46  C   UNL A   1      39.975  33.211  35.685  1.00  0.00     0.037 A 
ATOM     47  C   UNL A   1      41.331  28.639  31.245  1.00  0.00     0.049 A 
ATOM     48  C   UNL A   1      40.990  32.103  35.623  1.00  0.00     0.074 A 
ATOM     49  C   UNL A   1      42.352  27.705  31.268  1.00  0.00     0.029 A 
ATOM     50  N   UNL A   1      41.429  29.364  32.423  1.00  0.00    -0.354 N 
ATOM     51  N   UNL A   1      41.205  31.228  34.670  1.00  0.00    -0.248 NA
ATOM     52  C   UNL A   1      41.886  31.959  36.780  1.00  0.00     0.031 C 
ATOM     53  C   UNL A   1      43.031  27.827  32.484  1.00  0.00     0.029 A 
ATOM     54  C   UNL A   1      42.476  28.879  33.193  1.00  0.00     0.049 A 
ATOM     55  H   UNL A   1      40.841  30.112  32.677  1.00  0.00     0.167 HD
ATOM     56  C   UNL A   1      42.275  30.452  35.097  1.00  0.00     0.074 A 
ATOM     57  C   UNL A   1      42.677  30.970  36.388  1.00  0.00     0.031 C 
ATOM     58  C   UNL A   1      42.871  29.406  34.475  1.00  0.00     0.037 A 
BRANCH  45  59
ATOM     59  C   UNL A   1      40.325  27.937  29.037  1.00  0.00     0.064 A 
ATOM     60  C   UNL A   1      41.068  28.223  27.881  1.00  0.00     0.173 A 
ATOM     61  C   UNL A   1      39.595  26.739  29.063  1.00  0.00     0.173 A 
ATOM     62  F   UNL A   1      41.778  29.359  27.798  1.00  0.00    -0.203 F 
ATOM     63  C   UNL A   1      41.054  27.363  26.786  1.00  0.00     0.198 A 
ATOM     64  C   UNL A   1      39.610  25.864  27.980  1.00  0.00     0.198 A 
ATOM     65  F   UNL A   1      38.873  26.409  30.145  1.00  0.00    -0.203 F 
ATOM     66  F   UNL A   1      41.728  27.686  25.673  1.00  0.00    -0.200 F 
ATOM     67  C   UNL A   1      40.331  26.182  26.838  1.00  0.00     0.200 A 
ATOM     68  F   UNL A   1      38.924  24.715  28.040  1.00  0.00    -0.200 F 
ATOM     69  F   UNL A   1      40.324  25.351  25.787  1.00  0.00    -0.200 F 
ENDBRANCH  45  59
BRANCH  46  70
ATOM     70  C   UNL A   1      39.892  34.103  36.873  1.00  0.00     0.064 A 
ATOM     71  C   UNL A   1      40.654  35.278  36.949  1.00  0.00     0.173 A 
ATOM     72  C   UNL A   1      39.058  33.796  37.958  1.00  0.00     0.173 A 
ATOM     73  F   UNL A   1      41.484  35.604  35.948  1.00  0.00    -0.203 F 
ATOM     74  C   UNL A   1      40.602  36.098  38.075  1.00  0.00     0.198 A 
ATOM     75  C   UNL A   1      38.982  34.635  39.068  1.00  0.00     0.198 A 
ATOM     76  F   UNL A   1      38.305  32.687  37.934  1.00  0.00    -0.203 F 
ATOM     77  F   UNL A   1      41.380  37.188  38.142  1.00  0.00    -0.200 F 
ATOM     78  C   UNL A   1      39.761  35.780  39.130  1.00  0.00     0.200 A 
ATOM     79  F   UNL A   1      38.155  34.331  40.078  1.00  0.00    -0.200 F 
ATOM     80  F   UNL A   1      39.709  36.571  40.210  1.00  0.00    -0.200 F 
ENDBRANCH  46  70
BRANCH  58  81
ATOM     81  C   UNL A   1      44.048  28.771  35.162  1.00  0.00     0.064 A 
ATOM     82  C   UNL A   1      43.895  27.696  36.049  1.00  0.00     0.173 A 
ATOM     83  C   UNL A   1      45.350  29.224  34.897  1.00  0.00     0.173 A 
ATOM     84  F   UNL A   1      42.671  27.235  36.347  1.00  0.00    -0.203 F 
ATOM     85  C   UNL A   1      45.000  27.115  36.667  1.00  0.00     0.198 A 
ATOM     86  C   UNL A   1      46.455  28.618  35.491  1.00  0.00     0.198 A 
ATOM     87  F   UNL A   1      45.554  30.244  34.051  1.00  0.00    -0.203 F 
ATOM     88  F   UNL A   1      44.825  26.123  37.552  1.00  0.00    -0.200 F 
ATOM     89  C   UNL A   1      46.278  27.570  36.382  1.00  0.00     0.200 A 
ATOM     90  F   UNL A   1      47.690  29.049  35.201  1.00  0.00    -0.200 F 
ATOM     91  F   UNL A   1      47.340  27.005  36.972  1.00  0.00    -0.200 F 
ENDBRANCH  58  81
ENDBRANCH  32  33
ENDBRANCH  24  27
ENDBRANCH  22  23
ENDBRANCH  21  22
ENDBRANCH  20  21
ENDBRANCH   1  20
TORSDOF 16
ENDMDL
MODEL 2
REMARK VINA RESULT:     -11.5      6.475     11.888
REMARK SMILES O=C(CC1(CSC[C@H]2C[C@H]3CC[C@@H]2C3)CC1)NCCCCNC(=O)c1ccc(-c2c3nc(c(-c4c(F)c(F)c(F)c(F)c4F)c4ccc([nH]4)c(-c4c(F)c(F)c(F)c(F)c4F)c4nc(c(-c5c(F)c(F)c(F)c(F)c5F)c5ccc2[nH]5)C=C4)C=C3)cc1
REMARK SMILES IDX 18 1 17 2 1 3 2 4 3 6 4 7 15 8 16 9 5 10 6 11 7 12 8 13 9 14
REMARK SMILES IDX 13 15 10 16 12 17 14 18 11 19 19 20 20 21 21 22 22 23 23 24
REMARK SMILES IDX 24 26 25 27 26 28 87 29 27 30 86 31 28 32 29 33 30 34 80 35
REMARK SMILES IDX 31 36 85 37 79 38 81 39 32 40 84 41 78 42 77 43 33 45 65 46
REMARK SMILES IDX 45 47 64 48 46 49 49 50 63 51 82 52 47 53 48 54 62 56 83 57
REMARK SMILES IDX 50 58 34 59 35 60 43 61 36 62 37 63 41 64 44 65 38 66 39 67
REMARK SMILES IDX 42 68 40 69 66 70 67 71 75 72 68 73 69 74 73 75 76 76 70 77
REMARK SMILES IDX 71 78 74 79 72 80 51 81 52 82 60 83 53 84 54 85 58 86 61 87
REMARK SMILES IDX 55 88 56 89 59 90 57 91
REMARK H PARENT 17 5 22 25 81 44 49 55
REMARK Flexibility Score: inf
ROOT
ATOM      1  C   UNL A   1      37.485  22.202  25.530  1.00  0.00     0.116 C 
ENDROOT
BRANCH   1   2
ATOM      2  N   UNL A   1      36.348  22.495  26.381  1.00  0.00    -0.356 N 
ATOM      3  O   UNL A   1      35.508  24.171  25.045  1.00  0.00    -0.275 OA
ATOM      4  C   UNL A   1      35.369  23.380  25.974  1.00  0.00     0.220 C 
ATOM      5  H   UNL A   1      36.274  22.059  27.261  1.00  0.00     0.163 HD
BRANCH   4   6
ATOM      6  C   UNL A   1      34.096  23.330  26.792  1.00  0.00     0.107 C 
BRANCH   6   7
ATOM      7  C   UNL A   1      32.735  23.457  26.088  1.00  0.00    -0.012 C 
ATOM      8  C   UNL A   1      31.781  24.421  26.793  1.00  0.00     0.009 C 
ATOM      9  C   UNL A   1      32.387  24.818  25.491  1.00  0.00     0.009 C 
BRANCH   7  10
ATOM     10  C   UNL A   1      32.062  22.246  25.469  1.00  0.00     0.077 C 
BRANCH  10  11
ATOM     11  S   UNL A   1      32.916  21.308  24.198  1.00  0.00    -0.161 SA
BRANCH  11  12
ATOM     12  C   UNL A   1      33.518  19.853  25.108  1.00  0.00     0.073 C 
BRANCH  12  13
ATOM     13  C   UNL A   1      33.971  18.767  24.132  1.00  0.00     0.002 C 
ATOM     14  C   UNL A   1      35.161  17.922  24.632  1.00  0.00     0.008 C 
ATOM     15  C   UNL A   1      32.905  17.684  23.827  1.00  0.00    -0.007 C 
ATOM     16  C   UNL A   1      34.667  16.476  24.446  1.00  0.00    -0.011 C 
ATOM     17  C   UNL A   1      32.415  16.991  25.109  1.00  0.00     0.004 C 
ATOM     18  C   UNL A   1      33.780  16.592  23.208  1.00  0.00     0.007 C 
ATOM     19  C   UNL A   1      33.637  16.176  25.549  1.00  0.00     0.004 C 
ENDBRANCH  12  13
ENDBRANCH  11  12
ENDBRANCH  10  11
ENDBRANCH   7  10
ENDBRANCH   6   7
ENDBRANCH   4   6
ENDBRANCH   1   2
BRANCH   1  20
ATOM     20  C   UNL A   1      37.290  20.967  24.661  1.00  0.00     0.023 C 
BRANCH  20  21
ATOM     21  C   UNL A   1      38.203  19.784  24.993  1.00  0.00     0.023 C 
BRANCH  21  22
ATOM     22  C   UNL A   1      39.262  20.050  26.061  1.00  0.00     0.116 C 
BRANCH  22  23
ATOM     23  N   UNL A   1      40.336  19.069  26.048  1.00  0.00    -0.352 N 
ATOM     24  C   UNL A   1      41.695  19.243  26.120  1.00  0.00     0.251 C 
ATOM     25  H   UNL A   1      40.040  18.132  25.977  1.00  0.00     0.163 HD
ATOM     26  O   UNL A   1      42.447  18.290  25.917  1.00  0.00    -0.269 OA
BRANCH  24  27
ATOM     27  C   UNL A   1      42.276  20.573  26.413  1.00  0.00     0.039 A 
ATOM     28  C   UNL A   1      42.722  21.363  25.349  1.00  0.00     0.014 A 
ATOM     29  C   UNL A   1      42.408  21.037  27.724  1.00  0.00     0.014 A 
ATOM     30  C   UNL A   1      43.227  22.643  25.595  1.00  0.00     0.010 A 
ATOM     31  C   UNL A   1      42.839  22.341  27.961  1.00  0.00     0.010 A 
ATOM     32  C   UNL A   1      43.251  23.162  26.900  1.00  0.00    -0.014 A 
BRANCH  32  33
ATOM     33  C   UNL A   1      43.689  24.558  27.167  1.00  0.00     0.031 A 
ATOM     34  C   UNL A   1      42.706  25.588  27.655  1.00  0.00     0.074 A 
ATOM     35  C   UNL A   1      44.962  24.918  26.910  1.00  0.00     0.049 A 
ATOM     36  N   UNL A   1      42.885  26.867  27.875  1.00  0.00    -0.248 NA
ATOM     37  C   UNL A   1      41.333  25.123  27.906  1.00  0.00     0.031 C 
ATOM     38  C   UNL A   1      46.002  24.029  26.394  1.00  0.00     0.029 A 
ATOM     39  N   UNL A   1      45.594  26.131  27.036  1.00  0.00    -0.354 N 
ATOM     40  C   UNL A   1      41.651  27.358  28.281  1.00  0.00     0.074 A 
ATOM     41  C   UNL A   1      40.717  26.253  28.220  1.00  0.00     0.031 C 
ATOM     42  C   UNL A   1      47.147  24.719  26.265  1.00  0.00     0.029 A 
ATOM     43  C   UNL A   1      46.913  26.108  26.648  1.00  0.00     0.049 A 
ATOM     44  H   UNL A   1      45.147  26.940  27.374  1.00  0.00     0.167 HD
ATOM     45  C   UNL A   1      41.330  28.609  28.691  1.00  0.00     0.037 A 
ATOM     46  C   UNL A   1      47.826  27.097  26.592  1.00  0.00     0.037 A 
ATOM     47  C   UNL A   1      42.263  29.705  28.762  1.00  0.00     0.049 A 
ATOM     48  C   UNL A   1      47.438  28.484  27.028  1.00  0.00     0.074 A 
ATOM     49  C   UNL A   1      42.044  30.996  29.209  1.00  0.00     0.029 A 
ATOM     50  N   UNL A   1      43.592  29.639  28.370  1.00  0.00    -0.354 N 
ATOM     51  N   UNL A   1      46.285  28.920  27.472  1.00  0.00    -0.248 NA
ATOM     52  C   UNL A   1      48.483  29.515  26.964  1.00  0.00     0.031 C 
ATOM     53  C   UNL A   1      43.224  31.727  29.034  1.00  0.00     0.029 A 
ATOM     54  C   UNL A   1      44.197  30.876  28.539  1.00  0.00     0.049 A 
ATOM     55  H   UNL A   1      44.039  28.833  28.022  1.00  0.00     0.167 HD
ATOM     56  C   UNL A   1      46.472  30.265  27.766  1.00  0.00     0.074 A 
ATOM     57  C   UNL A   1      47.855  30.569  27.467  1.00  0.00     0.031 C 
ATOM     58  C   UNL A   1      45.578  31.166  28.243  1.00  0.00     0.037 A 
BRANCH  45  59
ATOM     59  C   UNL A   1      39.904  28.864  29.096  1.00  0.00     0.064 A 
ATOM     60  C   UNL A   1      38.940  29.288  28.168  1.00  0.00     0.173 A 
ATOM     61  C   UNL A   1      39.488  28.647  30.418  1.00  0.00     0.173 A 
ATOM     62  F   UNL A   1      39.285  29.519  26.892  1.00  0.00    -0.203 F 
ATOM     63  C   UNL A   1      37.622  29.517  28.556  1.00  0.00     0.198 A 
ATOM     64  C   UNL A   1      38.162  28.843  30.795  1.00  0.00     0.198 A 
ATOM     65  F   UNL A   1      40.365  28.233  31.345  1.00  0.00    -0.203 F 
ATOM     66  F   UNL A   1      36.733  29.974  27.664  1.00  0.00    -0.200 F 
ATOM     67  C   UNL A   1      37.233  29.288  29.867  1.00  0.00     0.200 A 
ATOM     68  F   UNL A   1      37.784  28.605  32.059  1.00  0.00    -0.200 F 
ATOM     69  F   UNL A   1      35.963  29.501  30.237  1.00  0.00    -0.200 F 
ENDBRANCH  45  59
BRANCH  46  70
ATOM     70  C   UNL A   1      49.204  26.806  26.113  1.00  0.00     0.064 A 
ATOM     71  C   UNL A   1      49.560  27.008  24.772  1.00  0.00     0.173 A 
ATOM     72  C   UNL A   1      50.190  26.316  26.982  1.00  0.00     0.173 A 
ATOM     73  F   UNL A   1      48.648  27.454  23.897  1.00  0.00    -0.203 F 
ATOM     74  C   UNL A   1      50.842  26.706  24.314  1.00  0.00     0.198 A 
ATOM     75  C   UNL A   1      51.480  26.047  26.530  1.00  0.00     0.198 A 
ATOM     76  F   UNL A   1      49.903  26.110  28.276  1.00  0.00    -0.203 F 
ATOM     77  F   UNL A   1      51.139  26.860  23.016  1.00  0.00    -0.200 F 
ATOM     78  C   UNL A   1      51.803  26.232  25.194  1.00  0.00     0.200 A 
ATOM     79  F   UNL A   1      52.410  25.605  27.388  1.00  0.00    -0.200 F 
ATOM     80  F   UNL A   1      53.035  25.947  24.754  1.00  0.00    -0.200 F 
ENDBRANCH  46  70
BRANCH  58  81
ATOM     81  C   UNL A   1      46.074  32.559  28.508  1.00  0.00     0.064 A 
ATOM     82  C   UNL A   1      46.004  33.568  27.535  1.00  0.00     0.173 A 
ATOM     83  C   UNL A   1      46.594  32.898  29.767  1.00  0.00     0.173 A 
ATOM     84  F   UNL A   1      45.530  33.293  26.311  1.00  0.00    -0.203 F 
ATOM     85  C   UNL A   1      46.461  34.855  27.805  1.00  0.00     0.198 A 
ATOM     86  C   UNL A   1      47.017  34.195  30.044  1.00  0.00     0.198 A 
ATOM     87  F   UNL A   1      46.677  31.974  30.736  1.00  0.00    -0.203 F 
ATOM     88  F   UNL A   1      46.432  35.788  26.843  1.00  0.00    -0.200 F 
ATOM     89  C   UNL A   1      46.958  35.170  29.060  1.00  0.00     0.200 A 
ATOM     90  F   UNL A   1      47.482  34.501  31.263  1.00  0.00    -0.200 F 
ATOM     91  F   UNL A   1      47.390  36.412  29.320  1.00  0.00    -0.200 F 
ENDBRANCH  58  81
ENDBRANCH  32  33
ENDBRANCH  24  27
ENDBRANCH  22  23
ENDBRANCH  21  22
ENDBRANCH  20  21
ENDBRANCH   1  20
TORSDOF 16
ENDMDL
MODEL 3
REMARK VINA RESULT:     -11.3      0.539      7.314
REMARK SMILES O=C(CC1(CSC[C@H]2C[C@H]3CC[C@@H]2C3)CC1)NCCCCNC(=O)c1ccc(-c2c3nc(c(-c4c(F)c(F)c(F)c(F)c4F)c4ccc([nH]4)c(-c4c(F)c(F)c(F)c(F)c4F)c4nc(c(-c5c(F)c(F)c(F)c(F)c5F)c5ccc2[nH]5)C=C4)C=C3)cc1
REMARK SMILES IDX 18 1 17 2 1 3 2 4 3 6 4 7 15 8 16 9 5 10 6 11 7 12 8 13 9 14
REMARK SMILES IDX 13 15 10 16 12 17 14 18 11 19 19 20 20 21 21 22 22 23 23 24
REMARK SMILES IDX 24 26 25 27 26 28 87 29 27 30 86 31 28 32 29 33 30 34 80 35
REMARK SMILES IDX 31 36 85 37 79 38 81 39 32 40 84 41 78 42 77 43 33 45 65 46
REMARK SMILES IDX 45 47 64 48 46 49 49 50 63 51 82 52 47 53 48 54 62 56 83 57
REMARK SMILES IDX 50 58 34 59 35 60 43 61 36 62 37 63 41 64 44 65 38 66 39 67
REMARK SMILES IDX 42 68 40 69 66 70 67 71 75 72 68 73 69 74 73 75 76 76 70 77
REMARK SMILES IDX 71 78 74 79 72 80 51 81 52 82 60 83 53 84 54 85 58 86 61 87
REMARK SMILES IDX 55 88 56 89 59 90 57 91
REMARK H PARENT 17 5 22 25 81 44 49 55
REMARK Flexibility Score: inf
ROOT
ATOM      1  C   UNL A   1      32.388  30.188  27.165  1.00  0.00     0.116 C 
ENDROOT
BRANCH   1   2
ATOM      2  N   UNL A   1      32.778  28.920  26.577  1.00  0.00    -0.356 N 
ATOM      3  O   UNL A   1      31.322  27.648  27.827  1.00  0.00    -0.275 OA
ATOM      4  C   UNL A   1      32.091  27.760  26.876  1.00  0.00     0.220 C 
ATOM      5  H   UNL A   1      33.544  28.886  25.960  1.00  0.00     0.163 HD
BRANCH   4   6
ATOM      6  C   UNL A   1      32.383  26.600  25.949  1.00  0.00     0.107 C 
BRANCH   6   7
ATOM      7  C   UNL A   1      31.257  26.027  25.071  1.00  0.00    -0.012 C 
ATOM      8  C   UNL A   1      30.988  24.545  25.332  1.00  0.00     0.009 C 
ATOM      9  C   UNL A   1      29.993  25.557  25.785  1.00  0.00     0.009 C 
BRANCH   7  10
ATOM     10  C   UNL A   1      31.107  26.449  23.621  1.00  0.00     0.077 C 
BRANCH  10  11
ATOM     11  S   UNL A   1      31.308  28.176  23.174  1.00  0.00    -0.161 SA
BRANCH  11  12
ATOM     12  C   UNL A   1      29.725  28.572  22.374  1.00  0.00     0.073 C 
BRANCH  12  13
ATOM     13  C   UNL A   1      28.888  29.481  23.274  1.00  0.00     0.002 C 
ATOM     14  C   UNL A   1      29.639  30.726  23.793  1.00  0.00     0.008 C 
ATOM     15  C   UNL A   1      27.649  30.110  22.587  1.00  0.00    -0.007 C 
ATOM     16  C   UNL A   1      28.688  31.882  23.438  1.00  0.00    -0.011 C 
ATOM     17  C   UNL A   1      28.039  30.914  21.336  1.00  0.00     0.004 C 
ATOM     18  C   UNL A   1      27.315  31.229  23.576  1.00  0.00     0.007 C 
ATOM     19  C   UNL A   1      28.776  32.126  21.921  1.00  0.00     0.004 C 
ENDBRANCH  12  13
ENDBRANCH  11  12
ENDBRANCH  10  11
ENDBRANCH   7  10
ENDBRANCH   6   7
ENDBRANCH   4   6
ENDBRANCH   1   2
BRANCH   1  20
ATOM     20  C   UNL A   1      31.437  30.994  26.289  1.00  0.00     0.023 C 
BRANCH  20  21
ATOM     21  C   UNL A   1      31.395  32.496  26.584  1.00  0.00     0.023 C 
BRANCH  21  22
ATOM     22  C   UNL A   1      32.651  33.075  27.232  1.00  0.00     0.116 C 
BRANCH  22  23
ATOM     23  N   UNL A   1      32.447  34.416  27.757  1.00  0.00    -0.352 N 
ATOM     24  C   UNL A   1      33.060  35.060  28.803  1.00  0.00     0.251 C 
ATOM     25  H   UNL A   1      31.761  34.946  27.289  1.00  0.00     0.163 HD
ATOM     26  O   UNL A   1      32.621  36.140  29.201  1.00  0.00    -0.269 OA
BRANCH  24  27
ATOM     27  C   UNL A   1      34.232  34.462  29.480  1.00  0.00     0.039 A 
ATOM     28  C   UNL A   1      34.038  33.769  30.679  1.00  0.00     0.014 A 
ATOM     29  C   UNL A   1      35.521  34.598  28.960  1.00  0.00     0.014 A 
ATOM     30  C   UNL A   1      35.120  33.152  31.312  1.00  0.00     0.010 A 
ATOM     31  C   UNL A   1      36.586  33.917  29.550  1.00  0.00     0.010 A 
ATOM     32  C   UNL A   1      36.398  33.183  30.731  1.00  0.00    -0.014 A 
BRANCH  32  33
ATOM     33  C   UNL A   1      37.540  32.445  31.337  1.00  0.00     0.031 A 
ATOM     34  C   UNL A   1      38.064  32.829  32.694  1.00  0.00     0.074 A 
ATOM     35  C   UNL A   1      38.147  31.467  30.637  1.00  0.00     0.049 A 
ATOM     36  N   UNL A   1      39.091  32.350  33.352  1.00  0.00    -0.248 NA
ATOM     37  C   UNL A   1      37.354  33.910  33.395  1.00  0.00     0.031 C 
ATOM     38  C   UNL A   1      37.766  31.028  29.295  1.00  0.00     0.029 A 
ATOM     39  N   UNL A   1      39.223  30.674  30.952  1.00  0.00    -0.354 N 
ATOM     40  C   UNL A   1      39.154  33.075  34.534  1.00  0.00     0.074 A 
ATOM     41  C   UNL A   1      38.099  34.065  34.479  1.00  0.00     0.031 C 
ATOM     42  C   UNL A   1      38.581  30.033  28.909  1.00  0.00     0.029 A 
ATOM     43  C   UNL A   1      39.569  29.792  29.956  1.00  0.00     0.049 A 
ATOM     44  H   UNL A   1      39.701  30.730  31.811  1.00  0.00     0.167 HD
ATOM     45  C   UNL A   1      39.998  32.914  35.583  1.00  0.00     0.037 A 
ATOM     46  C   UNL A   1      40.576  28.900  29.887  1.00  0.00     0.037 A 
ATOM     47  C   UNL A   1      41.039  31.921  35.642  1.00  0.00     0.049 A 
ATOM     48  C   UNL A   1      41.516  28.758  31.054  1.00  0.00     0.074 A 
ATOM     49  C   UNL A   1      41.915  31.649  36.679  1.00  0.00     0.029 A 
ATOM     50  N   UNL A   1      41.351  31.039  34.618  1.00  0.00    -0.354 N 
ATOM     51  N   UNL A   1      41.525  29.405  32.193  1.00  0.00    -0.248 NA
ATOM     52  C   UNL A   1      42.582  27.754  30.927  1.00  0.00     0.031 C 
ATOM     53  C   UNL A   1      42.791  30.643  36.262  1.00  0.00     0.029 A 
ATOM     54  C   UNL A   1      42.424  30.241  34.988  1.00  0.00     0.049 A 
ATOM     55  H   UNL A   1      40.881  30.988  33.754  1.00  0.00     0.167 HD
ATOM     56  C   UNL A   1      42.574  28.870  32.930  1.00  0.00     0.074 A 
ATOM     57  C   UNL A   1      43.168  27.831  32.114  1.00  0.00     0.031 C 
ATOM     58  C   UNL A   1      43.004  29.206  34.170  1.00  0.00     0.037 A 
BRANCH  45  59
ATOM     59  C   UNL A   1      39.831  33.838  36.758  1.00  0.00     0.064 A 
ATOM     60  C   UNL A   1      40.463  35.090  36.806  1.00  0.00     0.173 A 
ATOM     61  C   UNL A   1      39.001  33.484  37.832  1.00  0.00     0.173 A 
ATOM     62  F   UNL A   1      41.275  35.476  35.810  1.00  0.00    -0.203 F 
ATOM     63  C   UNL A   1      40.297  35.937  37.899  1.00  0.00     0.198 A 
ATOM     64  C   UNL A   1      38.808  34.348  38.908  1.00  0.00     0.198 A 
ATOM     65  F   UNL A   1      38.364  32.302  37.836  1.00  0.00    -0.203 F 
ATOM     66  F   UNL A   1      40.955  37.104  37.946  1.00  0.00    -0.200 F 
ATOM     67  C   UNL A   1      39.465  35.569  38.945  1.00  0.00     0.200 A 
ATOM     68  F   UNL A   1      37.991  33.996  39.909  1.00  0.00    -0.200 F 
ATOM     69  F   UNL A   1      39.300  36.387  39.992  1.00  0.00    -0.200 F 
ENDBRANCH  45  59
BRANCH  46  70
ATOM     70  C   UNL A   1      40.741  28.061  28.669  1.00  0.00     0.064 A 
ATOM     71  C   UNL A   1      41.549  28.485  27.605  1.00  0.00     0.173 A 
ATOM     72  C   UNL A   1      40.091  26.825  28.542  1.00  0.00     0.173 A 
ATOM     73  F   UNL A   1      42.175  29.669  27.669  1.00  0.00    -0.203 F 
ATOM     74  C   UNL A   1      41.681  27.716  26.450  1.00  0.00     0.198 A 
ATOM     75  C   UNL A   1      40.249  26.042  27.401  1.00  0.00     0.198 A 
ATOM     76  F   UNL A   1      39.310  26.371  29.533  1.00  0.00    -0.203 F 
ATOM     77  F   UNL A   1      42.418  28.169  25.427  1.00  0.00    -0.200 F 
ATOM     78  C   UNL A   1      41.036  26.492  26.351  1.00  0.00     0.200 A 
ATOM     79  F   UNL A   1      39.638  24.852  27.317  1.00  0.00    -0.200 F 
ATOM     80  F   UNL A   1      41.166  25.751  25.243  1.00  0.00    -0.200 F 
ENDBRANCH  46  70
BRANCH  58  81
ATOM     81  C   UNL A   1      44.152  28.422  34.741  1.00  0.00     0.064 A 
ATOM     82  C   UNL A   1      43.950  27.251  35.487  1.00  0.00     0.173 A 
ATOM     83  C   UNL A   1      45.474  28.829  34.505  1.00  0.00     0.173 A 
ATOM     84  F   UNL A   1      42.705  26.827  35.753  1.00  0.00    -0.203 F 
ATOM     85  C   UNL A   1      45.027  26.533  35.998  1.00  0.00     0.198 A 
ATOM     86  C   UNL A   1      46.550  28.090  34.989  1.00  0.00     0.198 A 
ATOM     87  F   UNL A   1      45.725  29.937  33.792  1.00  0.00    -0.203 F 
ATOM     88  F   UNL A   1      44.808  25.447  36.753  1.00  0.00    -0.200 F 
ATOM     89  C   UNL A   1      46.326  26.947  35.743  1.00  0.00     0.200 A 
ATOM     90  F   UNL A   1      47.805  28.483  34.727  1.00  0.00    -0.200 F 
ATOM     91  F   UNL A   1      47.362  26.250  36.230  1.00  0.00    -0.200 F 
ENDBRANCH  58  81
ENDBRANCH  32  33
ENDBRANCH  24  27
ENDBRANCH  22  23
ENDBRANCH  21  22
ENDBRANCH  20  21
ENDBRANCH   1  20
TORSDOF 16
ENDMDL
