MODEL 1
REMARK VINA RESULT:     -11.9      0.000      0.000
REMARK SMILES O=C(NCCCCNC(=O)c1cc(F)c(F)c(O)c1F)c1ccc(-c2c3nc(c(-c4c(F)c(F)c(F)c(F)c4F)c4ccc([nH]4)c(-c4c(F)c(F)c(F)c(F)c4F)c4nc(c(-c5c(F)c(F)c(F)c(F)c5F)c5ccc2[nH]5)C=C4)C=C3)cc1
REMARK SMILES IDX 5 1 4 2 3 3 1 4 2 5 21 7 22 8 83 9 23 10 82 11 24 12 25 13
REMARK SMILES IDX 26 14 76 15 27 16 81 17 75 18 77 19 28 20 80 21 74 22 73 23
REMARK SMILES IDX 29 25 61 26 41 27 60 28 42 29 45 30 59 31 78 32 43 33 44 34
REMARK SMILES IDX 58 36 79 37 46 38 30 39 31 40 39 41 32 42 33 43 37 44 40 45
REMARK SMILES IDX 34 46 35 47 38 48 36 49 62 50 63 51 71 52 64 53 65 54 69 55
REMARK SMILES IDX 72 56 66 57 67 58 70 59 68 60 47 61 48 62 56 63 49 64 50 65
REMARK SMILES IDX 54 66 57 67 51 68 52 69 55 70 53 71 6 72 7 73 8 74 9 75
REMARK SMILES IDX 10 77 11 78 12 79 19 80 13 81 17 82 20 83 14 84 15 85 16 86
REMARK SMILES IDX 18 87
REMARK H PARENT 3 6 77 24 45 35 8 76 18 88
REMARK Flexibility Score: inf
ROOT
ATOM      1  C   UNL A   1      31.396  32.088  26.501  1.00  0.00     0.023 C 
ENDROOT
BRANCH   1   2
ATOM      2  C   UNL A   1      32.623  32.672  27.194  1.00  0.00     0.116 C 
BRANCH   2   3
ATOM      3  N   UNL A   1      32.420  34.045  27.627  1.00  0.00    -0.352 N 
ATOM      4  O   UNL A   1      32.654  35.852  28.960  1.00  0.00    -0.269 OA
ATOM      5  C   UNL A   1      33.063  34.747  28.616  1.00  0.00     0.251 C 
ATOM      6  H   UNL A   1      31.722  34.542  27.141  1.00  0.00     0.163 HD
BRANCH   5   7
ATOM      7  C   UNL A   1      34.239  34.157  29.285  1.00  0.00     0.039 A 
ATOM      8  C   UNL A   1      35.530  34.419  28.814  1.00  0.00     0.014 A 
ATOM      9  C   UNL A   1      34.045  33.333  30.396  1.00  0.00     0.014 A 
ATOM     10  C   UNL A   1      36.617  33.758  29.379  1.00  0.00     0.010 A 
ATOM     11  C   UNL A   1      35.142  32.714  30.997  1.00  0.00     0.010 A 
ATOM     12  C   UNL A   1      36.431  32.896  30.471  1.00  0.00    -0.014 A 
BRANCH  12  13
ATOM     13  C   UNL A   1      37.599  32.199  31.064  1.00  0.00     0.031 A 
ATOM     14  C   UNL A   1      38.088  32.558  32.437  1.00  0.00     0.074 A 
ATOM     15  C   UNL A   1      38.201  31.220  30.364  1.00  0.00     0.049 A 
ATOM     16  N   UNL A   1      39.075  32.038  33.124  1.00  0.00    -0.248 NA
ATOM     17  C   UNL A   1      37.377  33.640  33.136  1.00  0.00     0.031 C 
ATOM     18  C   UNL A   1      37.807  30.782  29.024  1.00  0.00     0.029 A 
ATOM     19  N   UNL A   1      39.261  30.410  30.682  1.00  0.00    -0.354 N 
ATOM     20  C   UNL A   1      39.098  32.720  34.332  1.00  0.00     0.074 A 
ATOM     21  C   UNL A   1      38.055  33.722  34.273  1.00  0.00     0.031 C 
ATOM     22  C   UNL A   1      38.599  29.769  28.644  1.00  0.00     0.029 A 
ATOM     23  C   UNL A   1      39.582  29.513  29.693  1.00  0.00     0.049 A 
ATOM     24  H   UNL A   1      39.745  30.466  31.538  1.00  0.00     0.167 HD
ATOM     25  C   UNL A   1      39.906  32.513  35.399  1.00  0.00     0.037 A 
ATOM     26  C   UNL A   1      40.567  28.596  29.634  1.00  0.00     0.037 A 
ATOM     27  C   UNL A   1      40.944  31.516  35.451  1.00  0.00     0.049 A 
ATOM     28  C   UNL A   1      41.496  28.440  30.807  1.00  0.00     0.074 A 
ATOM     29  C   UNL A   1      41.800  31.217  36.498  1.00  0.00     0.029 A 
ATOM     30  N   UNL A   1      41.272  30.659  34.411  1.00  0.00    -0.354 N 
ATOM     31  N   UNL A   1      41.480  29.060  31.962  1.00  0.00    -0.248 NA
ATOM     32  C   UNL A   1      42.577  27.456  30.669  1.00  0.00     0.031 C 
ATOM     33  C   UNL A   1      42.682  30.221  36.072  1.00  0.00     0.029 A 
ATOM     34  C   UNL A   1      42.338  29.855  34.781  1.00  0.00     0.049 A 
ATOM     35  H   UNL A   1      40.817  30.628  33.539  1.00  0.00     0.167 HD
ATOM     36  C   UNL A   1      42.531  28.528  32.695  1.00  0.00     0.074 A 
ATOM     37  C   UNL A   1      43.153  27.519  31.863  1.00  0.00     0.031 C 
ATOM     38  C   UNL A   1      42.946  28.849  33.945  1.00  0.00     0.037 A 
BRANCH  25  39
ATOM     39  C   UNL A   1      39.708  33.374  36.613  1.00  0.00     0.064 A 
ATOM     40  C   UNL A   1      40.355  34.611  36.746  1.00  0.00     0.173 A 
ATOM     41  C   UNL A   1      38.789  33.004  37.608  1.00  0.00     0.173 A 
ATOM     42  F   UNL A   1      41.249  35.007  35.828  1.00  0.00    -0.203 F 
ATOM     43  C   UNL A   1      40.095  35.444  37.832  1.00  0.00     0.198 A 
ATOM     44  C   UNL A   1      38.511  33.851  38.678  1.00  0.00     0.198 A 
ATOM     45  F   UNL A   1      38.138  31.834  37.526  1.00  0.00    -0.203 F 
ATOM     46  F   UNL A   1      40.743  36.611  37.950  1.00  0.00    -0.200 F 
ATOM     47  C   UNL A   1      39.165  35.068  38.791  1.00  0.00     0.200 A 
ATOM     48  F   UNL A   1      37.600  33.494  39.594  1.00  0.00    -0.200 F 
ATOM     49  F   UNL A   1      38.898  35.881  39.822  1.00  0.00    -0.200 F 
ENDBRANCH  25  39
BRANCH  26  50
ATOM     50  C   UNL A   1      40.711  27.747  28.423  1.00  0.00     0.064 A 
ATOM     51  C   UNL A   1      40.069  26.505  28.333  1.00  0.00     0.173 A 
ATOM     52  C   UNL A   1      41.483  28.165  27.328  1.00  0.00     0.173 A 
ATOM     53  F   UNL A   1      39.337  26.055  29.363  1.00  0.00    -0.203 F 
ATOM     54  C   UNL A   1      40.204  25.706  27.200  1.00  0.00     0.198 A 
ATOM     55  C   UNL A   1      41.591  27.379  26.183  1.00  0.00     0.198 A 
ATOM     56  F   UNL A   1      42.116  29.346  27.363  1.00  0.00    -0.203 F 
ATOM     57  F   UNL A   1      39.613  24.505  27.157  1.00  0.00    -0.200 F 
ATOM     58  C   UNL A   1      40.958  26.147  26.123  1.00  0.00     0.200 A 
ATOM     59  F   UNL A   1      42.308  27.815  25.138  1.00  0.00    -0.200 F 
ATOM     60  F   UNL A   1      41.078  25.383  25.030  1.00  0.00    -0.200 F 
ENDBRANCH  26  50
BRANCH  38  61
ATOM     61  C   UNL A   1      44.117  28.096  34.507  1.00  0.00     0.064 A 
ATOM     62  C   UNL A   1      45.423  28.595  34.412  1.00  0.00     0.173 A 
ATOM     63  C   UNL A   1      43.921  26.899  35.214  1.00  0.00     0.173 A 
ATOM     64  F   UNL A   1      45.666  29.728  33.735  1.00  0.00    -0.203 F 
ATOM     65  C   UNL A   1      46.493  27.917  34.992  1.00  0.00     0.198 A 
ATOM     66  C   UNL A   1      44.987  26.241  35.821  1.00  0.00     0.198 A 
ATOM     67  F   UNL A   1      42.688  26.383  35.342  1.00  0.00    -0.203 F 
ATOM     68  F   UNL A   1      47.738  28.393  34.857  1.00  0.00    -0.200 F 
ATOM     69  C   UNL A   1      46.272  26.747  35.705  1.00  0.00     0.200 A 
ATOM     70  F   UNL A   1      44.769  25.122  36.523  1.00  0.00    -0.200 F 
ATOM     71  F   UNL A   1      47.300  26.108  36.278  1.00  0.00    -0.200 F 
ENDBRANCH  38  61
ENDBRANCH  12  13
ENDBRANCH   5   7
ENDBRANCH   2   3
ENDBRANCH   1   2
BRANCH   1  72
ATOM     72  C   UNL A   1      31.436  30.578  26.269  1.00  0.00     0.023 C 
BRANCH  72  73
ATOM     73  C   UNL A   1      32.824  29.995  26.025  1.00  0.00     0.116 C 
BRANCH  73  74
ATOM     74  N   UNL A   1      33.070  29.703  24.622  1.00  0.00    -0.352 N 
ATOM     75  C   UNL A   1      32.995  28.505  23.958  1.00  0.00     0.254 C 
ATOM     76  H   UNL A   1      33.327  30.476  24.069  1.00  0.00     0.163 HD
ATOM     77  O   UNL A   1      33.333  28.422  22.782  1.00  0.00    -0.269 OA
BRANCH  75  78
ATOM     78  C   UNL A   1      32.563  27.292  24.666  1.00  0.00     0.082 A 
ATOM     79  C   UNL A   1      33.541  26.455  25.214  1.00  0.00     0.059 A 
ATOM     80  C   UNL A   1      31.213  26.970  24.797  1.00  0.00     0.180 A 
ATOM     81  C   UNL A   1      33.143  25.339  25.944  1.00  0.00     0.163 A 
ATOM     82  C   UNL A   1      30.824  25.863  25.545  1.00  0.00     0.191 A 
ATOM     83  F   UNL A   1      30.260  27.737  24.246  1.00  0.00    -0.202 F 
ATOM     84  F   UNL A   1      34.077  24.553  26.495  1.00  0.00    -0.204 F 
ATOM     85  C   UNL A   1      31.792  25.049  26.124  1.00  0.00     0.203 A 
ATOM     86  F   UNL A   1      31.432  23.990  26.863  1.00  0.00    -0.200 F 
BRANCH  82  87
ATOM     87  O   UNL A   1      29.497  25.589  25.733  1.00  0.00    -0.503 OA
ATOM     88  H   UNL A   1      28.979  26.137  26.290  1.00  0.00     0.293 HD
ENDBRANCH  82  87
ENDBRANCH  75  78
ENDBRANCH  73  74
ENDBRANCH  72  73
ENDBRANCH   1  72
TORSDOF 12
ENDMDL
MODEL 2
REMARK VINA RESULT:     -11.9      1.417      7.938
REMARK SMILES O=C(NCCCCNC(=O)c1cc(F)c(F)c(O)c1F)c1ccc(-c2c3nc(c(-c4c(F)c(F)c(F)c(F)c4F)c4ccc([nH]4)c(-c4c(F)c(F)c(F)c(F)c4F)c4nc(c(-c5c(F)c(F)c(F)c(F)c5F)c5ccc2[nH]5)C=C4)C=C3)cc1
REMARK SMILES IDX 5 1 4 2 3 3 1 4 2 5 21 7 22 8 83 9 23 10 82 11 24 12 25 13
REMARK SMILES IDX 26 14 76 15 27 16 81 17 75 18 77 19 28 20 80 21 74 22 73 23
REMARK SMILES IDX 29 25 61 26 41 27 60 28 42 29 45 30 59 31 78 32 43 33 44 34
REMARK SMILES IDX 58 36 79 37 46 38 30 39 31 40 39 41 32 42 33 43 37 44 40 45
REMARK SMILES IDX 34 46 35 47 38 48 36 49 62 50 63 51 71 52 64 53 65 54 69 55
REMARK SMILES IDX 72 56 66 57 67 58 70 59 68 60 47 61 48 62 56 63 49 64 50 65
REMARK SMILES IDX 54 66 57 67 51 68 52 69 55 70 53 71 6 72 7 73 8 74 9 75
REMARK SMILES IDX 10 77 11 78 12 79 19 80 13 81 17 82 20 83 14 84 15 85 16 86
REMARK SMILES IDX 18 87
REMARK H PARENT 3 6 77 24 45 35 8 76 18 88
REMARK Flexibility Score: inf
ROOT
ATOM      1  C   UNL A   1      31.401  32.060  27.099  1.00  0.00     0.023 C 
ENDROOT
BRANCH   1   2
ATOM      2  C   UNL A   1      32.697  32.851  27.243  1.00  0.00     0.116 C 
BRANCH   2   3
ATOM      3  N   UNL A   1      32.468  34.235  27.627  1.00  0.00    -0.352 N 
ATOM      4  O   UNL A   1      32.622  36.076  28.924  1.00  0.00    -0.269 OA
ATOM      5  C   UNL A   1      33.051  34.964  28.634  1.00  0.00     0.251 C 
ATOM      6  H   UNL A   1      31.799  34.717  27.089  1.00  0.00     0.163 HD
BRANCH   5   7
ATOM      7  C   UNL A   1      34.187  34.395  29.385  1.00  0.00     0.039 A 
ATOM      8  C   UNL A   1      35.489  34.490  28.886  1.00  0.00     0.014 A 
ATOM      9  C   UNL A   1      33.942  33.758  30.605  1.00  0.00     0.014 A 
ATOM     10  C   UNL A   1      36.530  33.842  29.545  1.00  0.00     0.010 A 
ATOM     11  C   UNL A   1      34.996  33.156  31.294  1.00  0.00     0.010 A 
ATOM     12  C   UNL A   1      36.291  33.165  30.751  1.00  0.00    -0.014 A 
BRANCH  12  13
ATOM     13  C   UNL A   1      37.410  32.480  31.443  1.00  0.00     0.031 A 
ATOM     14  C   UNL A   1      38.157  31.365  30.770  1.00  0.00     0.074 A 
ATOM     15  C   UNL A   1      37.767  32.889  32.674  1.00  0.00     0.049 A 
ATOM     16  N   UNL A   1      39.177  30.672  31.211  1.00  0.00    -0.248 NA
ATOM     17  C   UNL A   1      37.705  30.976  29.425  1.00  0.00     0.031 C 
ATOM     18  C   UNL A   1      37.117  33.967  33.421  1.00  0.00     0.029 A 
ATOM     19  N   UNL A   1      38.765  32.458  33.510  1.00  0.00    -0.354 N 
ATOM     20  C   UNL A   1      39.493  29.774  30.200  1.00  0.00     0.074 A 
ATOM     21  C   UNL A   1      38.531  29.979  29.138  1.00  0.00     0.031 C 
ATOM     22  C   UNL A   1      37.747  34.129  34.594  1.00  0.00     0.029 A 
ATOM     23  C   UNL A   1      38.816  33.140  34.701  1.00  0.00     0.049 A 
ATOM     24  H   UNL A   1      39.386  31.730  33.277  1.00  0.00     0.167 HD
ATOM     25  C   UNL A   1      40.506  28.876  30.159  1.00  0.00     0.037 A 
ATOM     26  C   UNL A   1      39.626  32.978  35.764  1.00  0.00     0.037 A 
ATOM     27  C   UNL A   1      41.458  28.677  31.220  1.00  0.00     0.049 A 
ATOM     28  C   UNL A   1      40.696  31.921  35.717  1.00  0.00     0.074 A 
ATOM     29  C   UNL A   1      42.533  27.804  31.260  1.00  0.00     0.029 A 
ATOM     30  N   UNL A   1      41.447  29.351  32.432  1.00  0.00    -0.354 N 
ATOM     31  N   UNL A   1      41.013  31.109  34.738  1.00  0.00    -0.248 NA
ATOM     32  C   UNL A   1      41.521  31.759  36.922  1.00  0.00     0.031 C 
ATOM     33  C   UNL A   1      43.137  27.910  32.515  1.00  0.00     0.029 A 
ATOM     34  C   UNL A   1      42.478  28.892  33.237  1.00  0.00     0.049 A 
ATOM     35  H   UNL A   1      40.804  30.052  32.684  1.00  0.00     0.167 HD
ATOM     36  C   UNL A   1      42.086  30.358  35.198  1.00  0.00     0.074 A 
ATOM     37  C   UNL A   1      42.379  30.823  36.538  1.00  0.00     0.031 C 
ATOM     38  C   UNL A   1      42.763  29.367  34.568  1.00  0.00     0.037 A 
BRANCH  25  39
ATOM     39  C   UNL A   1      40.653  28.035  28.924  1.00  0.00     0.064 A 
ATOM     40  C   UNL A   1      39.961  26.824  28.777  1.00  0.00     0.173 A 
ATOM     41  C   UNL A   1      41.419  28.489  27.838  1.00  0.00     0.173 A 
ATOM     42  F   UNL A   1      39.223  26.341  29.788  1.00  0.00    -0.203 F 
ATOM     43  C   UNL A   1      40.033  26.096  27.592  1.00  0.00     0.198 A 
ATOM     44  C   UNL A   1      41.467  27.772  26.646  1.00  0.00     0.198 A 
ATOM     45  F   UNL A   1      42.096  29.643  27.924  1.00  0.00    -0.203 F 
ATOM     46  F   UNL A   1      39.381  24.930  27.483  1.00  0.00    -0.200 F 
ATOM     47  C   UNL A   1      40.776  26.576  26.523  1.00  0.00     0.200 A 
ATOM     48  F   UNL A   1      42.172  28.245  25.608  1.00  0.00    -0.200 F 
ATOM     49  F   UNL A   1      40.825  25.886  25.376  1.00  0.00    -0.200 F 
ENDBRANCH  25  39
BRANCH  26  50
ATOM     50  C   UNL A   1      39.462  33.850  36.955  1.00  0.00     0.064 A 
ATOM     51  C   UNL A   1      40.046  35.123  37.003  1.00  0.00     0.173 A 
ATOM     52  C   UNL A   1      38.708  33.435  38.065  1.00  0.00     0.173 A 
ATOM     53  F   UNL A   1      40.792  35.555  35.976  1.00  0.00    -0.203 F 
ATOM     54  C   UNL A   1      39.895  35.942  38.120  1.00  0.00     0.198 A 
ATOM     55  C   UNL A   1      38.532  34.268  39.167  1.00  0.00     0.198 A 
ATOM     56  F   UNL A   1      38.127  32.227  38.068  1.00  0.00    -0.203 F 
ATOM     57  F   UNL A   1      40.498  37.137  38.155  1.00  0.00    -0.200 F 
ATOM     58  C   UNL A   1      39.132  35.518  39.197  1.00  0.00     0.200 A 
ATOM     59  F   UNL A   1      37.781  33.860  40.199  1.00  0.00    -0.200 F 
ATOM     60  F   UNL A   1      38.978  36.311  40.265  1.00  0.00    -0.200 F 
ENDBRANCH  26  50
BRANCH  38  61
ATOM     61  C   UNL A   1      43.904  28.725  35.303  1.00  0.00     0.064 A 
ATOM     62  C   UNL A   1      45.214  29.213  35.193  1.00  0.00     0.173 A 
ATOM     63  C   UNL A   1      43.673  27.658  36.185  1.00  0.00     0.173 A 
ATOM     64  F   UNL A   1      45.491  30.223  34.354  1.00  0.00    -0.203 F 
ATOM     65  C   UNL A   1      46.253  28.648  35.928  1.00  0.00     0.198 A 
ATOM     66  C   UNL A   1      44.708  27.117  36.943  1.00  0.00     0.198 A 
ATOM     67  F   UNL A   1      42.436  27.159  36.333  1.00  0.00    -0.203 F 
ATOM     68  F   UNL A   1      47.503  29.107  35.780  1.00  0.00    -0.200 F 
ATOM     69  C   UNL A   1      45.997  27.608  36.811  1.00  0.00     0.200 A 
ATOM     70  F   UNL A   1      44.455  26.125  37.807  1.00  0.00    -0.200 F 
ATOM     71  F   UNL A   1      46.995  27.079  37.531  1.00  0.00    -0.200 F 
ENDBRANCH  38  61
ENDBRANCH  12  13
ENDBRANCH   5   7
ENDBRANCH   2   3
ENDBRANCH   1   2
BRANCH   1  72
ATOM     72  C   UNL A   1      31.236  31.317  25.774  1.00  0.00     0.023 C 
BRANCH  72  73
ATOM     73  C   UNL A   1      31.778  29.892  25.756  1.00  0.00     0.116 C 
BRANCH  73  74
ATOM     74  N   UNL A   1      32.332  29.520  24.464  1.00  0.00    -0.352 N 
ATOM     75  C   UNL A   1      31.696  29.016  23.358  1.00  0.00     0.254 C 
ATOM     76  H   UNL A   1      33.304  29.648  24.370  1.00  0.00     0.163 HD
ATOM     77  O   UNL A   1      32.339  28.663  22.376  1.00  0.00    -0.269 OA
BRANCH  75  78
ATOM     78  C   UNL A   1      30.238  28.838  23.361  1.00  0.00     0.082 A 
ATOM     79  C   UNL A   1      29.432  29.927  23.015  1.00  0.00     0.059 A 
ATOM     80  C   UNL A   1      29.656  27.617  23.700  1.00  0.00     0.180 A 
ATOM     81  C   UNL A   1      28.053  29.754  22.949  1.00  0.00     0.163 A 
ATOM     82  C   UNL A   1      28.278  27.447  23.612  1.00  0.00     0.191 A 
ATOM     83  F   UNL A   1      30.408  26.569  24.074  1.00  0.00    -0.202 F 
ATOM     84  F   UNL A   1      27.282  30.788  22.588  1.00  0.00    -0.204 F 
ATOM     85  C   UNL A   1      27.475  28.517  23.231  1.00  0.00     0.203 A 
ATOM     86  F   UNL A   1      26.147  28.363  23.124  1.00  0.00    -0.200 F 
BRANCH  82  87
ATOM     87  O   UNL A   1      27.715  26.228  23.875  1.00  0.00    -0.503 OA
ATOM     88  H   UNL A   1      27.455  26.010  24.750  1.00  0.00     0.293 HD
ENDBRANCH  82  87
ENDBRANCH  75  78
ENDBRANCH  73  74
ENDBRANCH  72  73
ENDBRANCH   1  72
TORSDOF 12
ENDMDL
MODEL 3
REMARK VINA RESULT:     -11.9      1.127      7.714
REMARK SMILES O=C(NCCCCNC(=O)c1cc(F)c(F)c(O)c1F)c1ccc(-c2c3nc(c(-c4c(F)c(F)c(F)c(F)c4F)c4ccc([nH]4)c(-c4c(F)c(F)c(F)c(F)c4F)c4nc(c(-c5c(F)c(F)c(F)c(F)c5F)c5ccc2[nH]5)C=C4)C=C3)cc1
REMARK SMILES IDX 5 1 4 2 3 3 1 4 2 5 21 7 22 8 83 9 23 10 82 11 24 12 25 13
REMARK SMILES IDX 26 14 76 15 27 16 81 17 75 18 77 19 28 20 80 21 74 22 73 23
REMARK SMILES IDX 29 25 61 26 41 27 60 28 42 29 45 30 59 31 78 32 43 33 44 34
REMARK SMILES IDX 58 36 79 37 46 38 30 39 31 40 39 41 32 42 33 43 37 44 40 45
REMARK SMILES IDX 34 46 35 47 38 48 36 49 62 50 63 51 71 52 64 53 65 54 69 55
REMARK SMILES IDX 72 56 66 57 67 58 70 59 68 60 47 61 48 62 56 63 49 64 50 65
REMARK SMILES IDX 54 66 57 67 51 68 52 69 55 70 53 71 6 72 7 73 8 74 9 75
REMARK SMILES IDX 10 77 11 78 12 79 19 80 13 81 17 82 20 83 14 84 15 85 16 86
REMARK SMILES IDX 18 87
REMARK H PARENT 3 6 77 24 45 35 8 76 18 88
REMARK Flexibility Score: inf
ROOT
ATOM      1  C   UNL A   1      31.394  32.116  26.823  1.00  0.00     0.023 C 
ENDROOT
BRANCH   1   2
ATOM      2  C   UNL A   1      32.676  32.839  27.223  1.00  0.00     0.116 C 
BRANCH   2   3
ATOM      3  N   UNL A   1      32.441  34.222  27.607  1.00  0.00    -0.352 N 
ATOM      4  O   UNL A   1      32.589  36.064  28.903  1.00  0.00    -0.269 OA
ATOM      5  C   UNL A   1      33.023  34.954  28.613  1.00  0.00     0.251 C 
ATOM      6  H   UNL A   1      31.770  34.702  27.070  1.00  0.00     0.163 HD
BRANCH   5   7
ATOM      7  C   UNL A   1      34.162  34.389  29.363  1.00  0.00     0.039 A 
ATOM      8  C   UNL A   1      35.468  34.536  28.888  1.00  0.00     0.014 A 
ATOM      9  C   UNL A   1      33.916  33.705  30.556  1.00  0.00     0.014 A 
ATOM     10  C   UNL A   1      36.516  33.894  29.542  1.00  0.00     0.010 A 
ATOM     11  C   UNL A   1      34.975  33.108  31.241  1.00  0.00     0.010 A 
ATOM     12  C   UNL A   1      36.277  33.170  30.720  1.00  0.00    -0.014 A 
BRANCH  12  13
ATOM     13  C   UNL A   1      37.404  32.491  31.406  1.00  0.00     0.031 A 
ATOM     14  C   UNL A   1      38.138  31.364  30.739  1.00  0.00     0.074 A 
ATOM     15  C   UNL A   1      37.779  32.918  32.626  1.00  0.00     0.049 A 
ATOM     16  N   UNL A   1      39.162  30.674  31.176  1.00  0.00    -0.248 NA
ATOM     17  C   UNL A   1      37.666  30.957  29.407  1.00  0.00     0.031 C 
ATOM     18  C   UNL A   1      37.143  34.009  33.366  1.00  0.00     0.029 A 
ATOM     19  N   UNL A   1      38.787  32.496  33.454  1.00  0.00    -0.354 N 
ATOM     20  C   UNL A   1      39.461  29.761  30.174  1.00  0.00     0.074 A 
ATOM     21  C   UNL A   1      38.485  29.953  29.123  1.00  0.00     0.031 C 
ATOM     22  C   UNL A   1      37.790  34.185  34.528  1.00  0.00     0.029 A 
ATOM     23  C   UNL A   1      38.857  33.195  34.634  1.00  0.00     0.049 A 
ATOM     24  H   UNL A   1      39.403  31.762  33.224  1.00  0.00     0.167 HD
ATOM     25  C   UNL A   1      40.470  28.859  30.132  1.00  0.00     0.037 A 
ATOM     26  C   UNL A   1      39.682  33.046  35.688  1.00  0.00     0.037 A 
ATOM     27  C   UNL A   1      41.437  28.672  31.183  1.00  0.00     0.049 A 
ATOM     28  C   UNL A   1      40.747  31.985  35.642  1.00  0.00     0.074 A 
ATOM     29  C   UNL A   1      42.509  27.796  31.221  1.00  0.00     0.029 A 
ATOM     30  N   UNL A   1      41.445  29.364  32.385  1.00  0.00    -0.354 N 
ATOM     31  N   UNL A   1      41.049  31.157  34.671  1.00  0.00    -0.248 NA
ATOM     32  C   UNL A   1      41.589  31.838  36.837  1.00  0.00     0.031 C 
ATOM     33  C   UNL A   1      43.131  27.919  32.466  1.00  0.00     0.029 A 
ATOM     34  C   UNL A   1      42.485  28.913  33.182  1.00  0.00     0.049 A 
ATOM     35  H   UNL A   1      40.807  30.071  32.635  1.00  0.00     0.167 HD
ATOM     36  C   UNL A   1      42.125  30.409  35.126  1.00  0.00     0.074 A 
ATOM     37  C   UNL A   1      42.438  30.894  36.455  1.00  0.00     0.031 C 
ATOM     38  C   UNL A   1      42.791  29.408  34.502  1.00  0.00     0.037 A 
BRANCH  25  39
ATOM     39  C   UNL A   1      40.598  27.999  28.908  1.00  0.00     0.064 A 
ATOM     40  C   UNL A   1      39.874  26.805  28.775  1.00  0.00     0.173 A 
ATOM     41  C   UNL A   1      41.377  28.420  27.818  1.00  0.00     0.173 A 
ATOM     42  F   UNL A   1      39.123  26.353  29.790  1.00  0.00    -0.203 F 
ATOM     43  C   UNL A   1      39.930  26.060  27.599  1.00  0.00     0.198 A 
ATOM     44  C   UNL A   1      41.408  27.687  26.635  1.00  0.00     0.198 A 
ATOM     45  F   UNL A   1      42.083  29.557  27.891  1.00  0.00    -0.203 F 
ATOM     46  F   UNL A   1      39.248  24.910  27.503  1.00  0.00    -0.200 F 
ATOM     47  C   UNL A   1      40.687  26.508  26.526  1.00  0.00     0.200 A 
ATOM     48  F   UNL A   1      42.126  28.129  25.593  1.00  0.00    -0.200 F 
ATOM     49  F   UNL A   1      40.720  25.803  25.387  1.00  0.00    -0.200 F 
ENDBRANCH  25  39
BRANCH  26  50
ATOM     50  C   UNL A   1      39.537  33.936  36.869  1.00  0.00     0.064 A 
ATOM     51  C   UNL A   1      38.771  33.546  37.975  1.00  0.00     0.173 A 
ATOM     52  C   UNL A   1      40.170  35.188  36.920  1.00  0.00     0.173 A 
ATOM     53  F   UNL A   1      38.131  32.368  37.964  1.00  0.00    -0.203 F 
ATOM     54  C   UNL A   1      38.633  34.380  39.083  1.00  0.00     0.198 A 
ATOM     55  C   UNL A   1      40.057  36.006  38.041  1.00  0.00     0.198 A 
ATOM     56  F   UNL A   1      40.916  35.607  35.888  1.00  0.00    -0.203 F 
ATOM     57  F   UNL A   1      37.862  34.000  40.110  1.00  0.00    -0.200 F 
ATOM     58  C   UNL A   1      39.282  35.604  39.119  1.00  0.00     0.200 A 
ATOM     59  F   UNL A   1      40.698  37.182  38.078  1.00  0.00    -0.200 F 
ATOM     60  F   UNL A   1      39.157  36.400  40.189  1.00  0.00    -0.200 F 
ENDBRANCH  26  50
BRANCH  38  61
ATOM     61  C   UNL A   1      43.940  28.773  35.230  1.00  0.00     0.064 A 
ATOM     62  C   UNL A   1      45.246  29.268  35.111  1.00  0.00     0.173 A 
ATOM     63  C   UNL A   1      43.720  27.705  36.114  1.00  0.00     0.173 A 
ATOM     64  F   UNL A   1      45.512  30.279  34.270  1.00  0.00    -0.203 F 
ATOM     65  C   UNL A   1      46.293  28.710  35.841  1.00  0.00     0.198 A 
ATOM     66  C   UNL A   1      44.763  27.170  36.867  1.00  0.00     0.198 A 
ATOM     67  F   UNL A   1      42.487  27.199  36.271  1.00  0.00    -0.203 F 
ATOM     68  F   UNL A   1      47.539  29.175  35.685  1.00  0.00    -0.200 F 
ATOM     69  C   UNL A   1      46.048  27.669  36.726  1.00  0.00     0.200 A 
ATOM     70  F   UNL A   1      44.521  26.177  37.733  1.00  0.00    -0.200 F 
ATOM     71  F   UNL A   1      47.053  27.146  37.441  1.00  0.00    -0.200 F 
ENDBRANCH  38  61
ENDBRANCH  12  13
ENDBRANCH   5   7
ENDBRANCH   2   3
ENDBRANCH   1   2
BRANCH   1  72
ATOM     72  C   UNL A   1      31.590  30.872  25.959  1.00  0.00     0.023 C 
BRANCH  72  73
ATOM     73  C   UNL A   1      32.493  29.799  26.559  1.00  0.00     0.116 C 
BRANCH  73  74
ATOM     74  N   UNL A   1      31.745  28.667  27.082  1.00  0.00    -0.352 N 
ATOM     75  C   UNL A   1      31.426  27.480  26.471  1.00  0.00     0.254 C 
ATOM     76  H   UNL A   1      31.421  28.766  28.006  1.00  0.00     0.163 HD
ATOM     77  O   UNL A   1      30.699  26.667  27.031  1.00  0.00    -0.269 OA
BRANCH  75  78
ATOM     78  C   UNL A   1      31.907  27.195  25.113  1.00  0.00     0.082 A 
ATOM     79  C   UNL A   1      33.064  26.424  24.962  1.00  0.00     0.059 A 
ATOM     80  C   UNL A   1      31.236  27.676  23.989  1.00  0.00     0.180 A 
ATOM     81  C   UNL A   1      33.492  26.091  23.681  1.00  0.00     0.163 A 
ATOM     82  C   UNL A   1      31.659  27.322  22.712  1.00  0.00     0.191 A 
ATOM     83  F   UNL A   1      30.146  28.451  24.111  1.00  0.00    -0.202 F 
ATOM     84  F   UNL A   1      34.583  25.327  23.535  1.00  0.00    -0.204 F 
ATOM     85  C   UNL A   1      32.788  26.523  22.558  1.00  0.00     0.203 A 
ATOM     86  F   UNL A   1      33.197  26.158  21.335  1.00  0.00    -0.200 F 
BRANCH  82  87
ATOM     87  O   UNL A   1      30.958  27.735  21.613  1.00  0.00    -0.503 OA
ATOM     88  H   UNL A   1      30.122  28.146  21.718  1.00  0.00     0.293 HD
ENDBRANCH  82  87
ENDBRANCH  75  78
ENDBRANCH  73  74
ENDBRANCH  72  73
ENDBRANCH   1  72
TORSDOF 12
ENDMDL
