MODEL 1
REMARK VINA RESULT:     -13.1      0.000      0.000
REMARK SMILES O=C(NCCCCNC(=O)[C@@H]1[C@@H](C(=O)NCc2ccccc2OCc2ccccc2)[C@@H]2C=C[C@H]1C2)c1ccc(-c2c3nc(c(-c4c(F)c(F)c(F)c(F)c4F)c4ccc([nH]4)c(-c4c(F)c(F)c(F)c(F)c4F)c4nc(c(-c5c(F)c(F)c(F)c(F)c5F)c5ccc2[nH]5)C=C4)C=C3)cc1
REMARK SMILES IDX 8 1 9 2 10 3 7 5 6 6 5 7 4 8 3 9 1 10 2 11 36 13 37 14 98 15
REMARK SMILES IDX 38 16 97 17 39 18 40 19 41 20 91 21 42 22 96 23 90 24 92 25
REMARK SMILES IDX 43 26 95 27 89 28 88 29 44 31 76 32 56 33 75 34 57 35 60 36
REMARK SMILES IDX 74 37 93 38 58 39 59 40 73 42 94 43 61 44 45 45 46 46 54 47
REMARK SMILES IDX 47 48 48 49 52 50 55 51 49 52 50 53 53 54 51 55 77 56 78 57
REMARK SMILES IDX 86 58 79 59 80 60 84 61 87 62 81 63 82 64 85 65 83 66 62 67
REMARK SMILES IDX 63 68 71 69 64 70 65 71 69 72 72 73 66 74 67 75 70 76 68 77
REMARK SMILES IDX 11 78 12 79 34 80 31 81 33 82 35 83 32 84 13 85 14 86 15 87
REMARK SMILES IDX 16 89 17 90 18 91 22 92 19 93 21 94 20 95 23 96 24 97 25 98
REMARK SMILES IDX 26 99 30 100 27 101 29 102 28 103
REMARK H PARENT 8 4 3 12 92 30 60 41 15 88
REMARK Flexibility Score: inf
ROOT
ATOM      1  N   UNL A   1      34.651  20.655  25.741  1.00  0.00    -0.356 N 
ATOM      2  C   UNL A   1      33.396  21.161  25.535  1.00  0.00     0.224 C 
ATOM      3  O   UNL A   1      32.455  20.373  25.477  1.00  0.00    -0.275 OA
ATOM      4  H   UNL A   1      34.708  19.682  25.877  1.00  0.00     0.163 HD
ENDROOT
BRANCH   1   5
ATOM      5  C   UNL A   1      35.905  21.380  25.786  1.00  0.00     0.116 C 
BRANCH   5   6
ATOM      6  C   UNL A   1      36.840  21.037  24.636  1.00  0.00     0.023 C 
BRANCH   6   7
ATOM      7  C   UNL A   1      37.855  19.941  24.945  1.00  0.00     0.023 C 
BRANCH   7   8
ATOM      8  C   UNL A   1      39.042  20.389  25.787  1.00  0.00     0.116 C 
BRANCH   8   9
ATOM      9  N   UNL A   1      40.076  19.369  25.884  1.00  0.00    -0.352 N 
ATOM     10  O   UNL A   1      42.187  18.570  25.994  1.00  0.00    -0.269 OA
ATOM     11  C   UNL A   1      41.425  19.514  26.122  1.00  0.00     0.251 C 
ATOM     12  H   UNL A   1      39.766  18.442  25.764  1.00  0.00     0.163 HD
BRANCH  11  13
ATOM     13  C   UNL A   1      41.944  20.844  26.509  1.00  0.00     0.039 A 
ATOM     14  C   UNL A   1      42.115  21.161  27.856  1.00  0.00     0.014 A 
ATOM     15  C   UNL A   1      42.236  21.783  25.518  1.00  0.00     0.014 A 
ATOM     16  C   UNL A   1      42.406  22.468  28.221  1.00  0.00     0.010 A 
ATOM     17  C   UNL A   1      42.636  23.071  25.885  1.00  0.00     0.010 A 
ATOM     18  C   UNL A   1      42.690  23.434  27.241  1.00  0.00    -0.014 A 
BRANCH  18  19
ATOM     19  C   UNL A   1      43.107  24.791  27.669  1.00  0.00     0.031 A 
ATOM     20  C   UNL A   1      44.555  25.190  27.709  1.00  0.00     0.074 A 
ATOM     21  C   UNL A   1      42.147  25.680  27.992  1.00  0.00     0.049 A 
ATOM     22  N   UNL A   1      45.083  26.338  28.055  1.00  0.00    -0.248 NA
ATOM     23  C   UNL A   1      45.541  24.172  27.321  1.00  0.00     0.031 C 
ATOM     24  C   UNL A   1      40.709  25.398  27.995  1.00  0.00     0.029 A 
ATOM     25  N   UNL A   1      42.227  26.997  28.359  1.00  0.00    -0.354 N 
ATOM     26  C   UNL A   1      46.458  26.176  27.945  1.00  0.00     0.074 A 
ATOM     27  C   UNL A   1      46.686  24.810  27.524  1.00  0.00     0.031 C 
ATOM     28  C   UNL A   1      40.041  26.519  28.295  1.00  0.00     0.029 A 
ATOM     29  C   UNL A   1      41.002  27.578  28.579  1.00  0.00     0.049 A 
ATOM     30  H   UNL A   1      43.079  27.481  28.456  1.00  0.00     0.167 HD
ATOM     31  C   UNL A   1      47.434  27.088  28.170  1.00  0.00     0.037 A 
ATOM     32  C   UNL A   1      40.684  28.819  28.987  1.00  0.00     0.037 A 
ATOM     33  C   UNL A   1      47.192  28.451  28.574  1.00  0.00     0.049 A 
ATOM     34  C   UNL A   1      41.790  29.798  29.253  1.00  0.00     0.074 A 
ATOM     35  C   UNL A   1      48.113  29.462  28.796  1.00  0.00     0.029 A 
ATOM     36  N   UNL A   1      45.939  28.994  28.818  1.00  0.00    -0.354 N 
ATOM     37  N   UNL A   1      43.083  29.639  29.123  1.00  0.00    -0.248 NA
ATOM     38  C   UNL A   1      41.390  31.128  29.731  1.00  0.00     0.031 C 
ATOM     39  C   UNL A   1      47.420  30.600  29.222  1.00  0.00     0.029 A 
ATOM     40  C   UNL A   1      46.063  30.318  29.213  1.00  0.00     0.049 A 
ATOM     41  H   UNL A   1      45.086  28.510  28.725  1.00  0.00     0.167 HD
ATOM     42  C   UNL A   1      43.654  30.849  29.487  1.00  0.00     0.074 A 
ATOM     43  C   UNL A   1      42.561  31.740  29.821  1.00  0.00     0.031 C 
ATOM     44  C   UNL A   1      44.965  31.189  29.544  1.00  0.00     0.037 A 
BRANCH  31  45
ATOM     45  C   UNL A   1      48.860  26.644  28.006  1.00  0.00     0.064 A 
ATOM     46  C   UNL A   1      49.492  26.638  26.754  1.00  0.00     0.173 A 
ATOM     47  C   UNL A   1      49.620  26.271  29.125  1.00  0.00     0.173 A 
ATOM     48  F   UNL A   1      48.808  26.976  25.650  1.00  0.00    -0.203 F 
ATOM     49  C   UNL A   1      50.826  26.255  26.625  1.00  0.00     0.198 A 
ATOM     50  C   UNL A   1      50.961  25.915  28.997  1.00  0.00     0.198 A 
ATOM     51  F   UNL A   1      49.068  26.266  30.347  1.00  0.00    -0.203 F 
ATOM     52  F   UNL A   1      51.398  26.219  25.413  1.00  0.00    -0.200 F 
ATOM     53  C   UNL A   1      51.561  25.901  27.748  1.00  0.00     0.200 A 
ATOM     54  F   UNL A   1      51.673  25.587  30.084  1.00  0.00    -0.200 F 
ATOM     55  F   UNL A   1      52.846  25.542  27.623  1.00  0.00    -0.200 F 
ENDBRANCH  31  45
BRANCH  32  56
ATOM     56  C   UNL A   1      39.259  29.189  29.173  1.00  0.00     0.064 A 
ATOM     57  C   UNL A   1      38.672  29.185  30.445  1.00  0.00     0.173 A 
ATOM     58  C   UNL A   1      38.460  29.573  28.085  1.00  0.00     0.173 A 
ATOM     59  F   UNL A   1      39.390  28.809  31.513  1.00  0.00    -0.203 F 
ATOM     60  C   UNL A   1      37.335  29.540  30.620  1.00  0.00     0.198 A 
ATOM     61  C   UNL A   1      37.135  29.958  28.266  1.00  0.00     0.198 A 
ATOM     62  F   UNL A   1      38.977  29.601  26.848  1.00  0.00    -0.203 F 
ATOM     63  F   UNL A   1      36.787  29.490  31.841  1.00  0.00    -0.200 F 
ATOM     64  C   UNL A   1      36.571  29.934  29.532  1.00  0.00     0.200 A 
ATOM     65  F   UNL A   1      36.406  30.358  27.215  1.00  0.00    -0.200 F 
ATOM     66  F   UNL A   1      35.289  30.285  29.703  1.00  0.00    -0.200 F 
ENDBRANCH  32  56
BRANCH  44  67
ATOM     67  C   UNL A   1      45.282  32.595  29.958  1.00  0.00     0.064 A 
ATOM     68  C   UNL A   1      45.480  32.938  31.304  1.00  0.00     0.173 A 
ATOM     69  C   UNL A   1      45.410  33.608  28.996  1.00  0.00     0.173 A 
ATOM     70  F   UNL A   1      45.350  32.008  32.263  1.00  0.00    -0.203 F 
ATOM     71  C   UNL A   1      45.766  34.249  31.674  1.00  0.00     0.198 A 
ATOM     72  C   UNL A   1      45.724  34.912  29.367  1.00  0.00     0.198 A 
ATOM     73  F   UNL A   1      45.234  33.331  27.695  1.00  0.00    -0.203 F 
ATOM     74  F   UNL A   1      45.897  34.564  32.969  1.00  0.00    -0.200 F 
ATOM     75  C   UNL A   1      45.894  35.233  30.704  1.00  0.00     0.200 A 
ATOM     76  F   UNL A   1      45.859  35.859  28.428  1.00  0.00    -0.200 F 
ATOM     77  F   UNL A   1      46.172  36.494  31.062  1.00  0.00    -0.200 F 
ENDBRANCH  44  67
ENDBRANCH  18  19
ENDBRANCH  11  13
ENDBRANCH   8   9
ENDBRANCH   7   8
ENDBRANCH   6   7
ENDBRANCH   5   6
ENDBRANCH   1   5
BRANCH   2  78
ATOM     78  C   UNL A   1      33.254  22.666  25.383  1.00  0.00     0.098 C 
ATOM     79  C   UNL A   1      31.769  23.169  25.304  1.00  0.00     0.098 C 
ATOM     80  C   UNL A   1      33.852  23.156  24.029  1.00  0.00     0.025 C 
ATOM     81  C   UNL A   1      31.757  23.901  23.961  1.00  0.00     0.025 C 
ATOM     82  C   UNL A   1      33.181  22.454  22.877  1.00  0.00    -0.027 C 
ATOM     83  C   UNL A   1      33.164  24.505  23.901  1.00  0.00     0.017 C 
ATOM     84  C   UNL A   1      31.914  22.890  22.843  1.00  0.00    -0.027 C 
BRANCH  79  85
ATOM     85  C   UNL A   1      31.367  23.915  26.580  1.00  0.00     0.224 C 
ATOM     86  O   UNL A   1      31.754  23.470  27.670  1.00  0.00    -0.275 OA
ATOM     87  N   UNL A   1      30.551  24.996  26.657  1.00  0.00    -0.352 N 
ATOM     88  H   UNL A   1      29.996  25.018  27.470  1.00  0.00     0.163 HD
BRANCH  87  89
ATOM     89  C   UNL A   1      30.339  26.128  25.774  1.00  0.00     0.155 C 
BRANCH  89  90
ATOM     90  C   UNL A   1      31.305  27.271  25.959  1.00  0.00     0.013 A 
ATOM     91  C   UNL A   1      31.744  27.620  27.246  1.00  0.00     0.009 A 
ATOM     92  C   UNL A   1      31.872  27.933  24.852  1.00  0.00     0.124 A 
ATOM     93  C   UNL A   1      32.700  28.622  27.421  1.00  0.00     0.001 A 
ATOM     94  C   UNL A   1      32.798  28.960  25.030  1.00  0.00     0.047 A 
ATOM     95  C   UNL A   1      33.217  29.297  26.316  1.00  0.00     0.004 A 
BRANCH  92  96
ATOM     96  O   UNL A   1      31.435  27.589  23.604  1.00  0.00    -0.489 OA
BRANCH  96  97
ATOM     97  C   UNL A   1      31.113  28.651  22.699  1.00  0.00     0.265 C 
BRANCH  97  98
ATOM     98  C   UNL A   1      29.771  29.299  22.981  1.00  0.00    -0.011 A 
ATOM     99  C   UNL A   1      28.574  28.592  22.808  1.00  0.00     0.007 A 
ATOM    100  C   UNL A   1      29.694  30.642  23.388  1.00  0.00     0.007 A 
ATOM    101  C   UNL A   1      27.340  29.186  23.077  1.00  0.00     0.000 A 
ATOM    102  C   UNL A   1      28.457  31.245  23.635  1.00  0.00     0.000 A 
ATOM    103  C   UNL A   1      27.281  30.514  23.487  1.00  0.00     0.000 A 
ENDBRANCH  97  98
ENDBRANCH  96  97
ENDBRANCH  92  96
ENDBRANCH  89  90
ENDBRANCH  87  89
ENDBRANCH  79  85
ENDBRANCH   2  78
TORSDOF 17
ENDMDL
MODEL 2
REMARK VINA RESULT:     -13.0      0.371      1.940
REMARK SMILES O=C(NCCCCNC(=O)[C@@H]1[C@@H](C(=O)NCc2ccccc2OCc2ccccc2)[C@@H]2C=C[C@H]1C2)c1ccc(-c2c3nc(c(-c4c(F)c(F)c(F)c(F)c4F)c4ccc([nH]4)c(-c4c(F)c(F)c(F)c(F)c4F)c4nc(c(-c5c(F)c(F)c(F)c(F)c5F)c5ccc2[nH]5)C=C4)C=C3)cc1
REMARK SMILES IDX 8 1 9 2 10 3 7 5 6 6 5 7 4 8 3 9 1 10 2 11 36 13 37 14 98 15
REMARK SMILES IDX 38 16 97 17 39 18 40 19 41 20 91 21 42 22 96 23 90 24 92 25
REMARK SMILES IDX 43 26 95 27 89 28 88 29 44 31 76 32 56 33 75 34 57 35 60 36
REMARK SMILES IDX 74 37 93 38 58 39 59 40 73 42 94 43 61 44 45 45 46 46 54 47
REMARK SMILES IDX 47 48 48 49 52 50 55 51 49 52 50 53 53 54 51 55 77 56 78 57
REMARK SMILES IDX 86 58 79 59 80 60 84 61 87 62 81 63 82 64 85 65 83 66 62 67
REMARK SMILES IDX 63 68 71 69 64 70 65 71 69 72 72 73 66 74 67 75 70 76 68 77
REMARK SMILES IDX 11 78 12 79 34 80 31 81 33 82 35 83 32 84 13 85 14 86 15 87
REMARK SMILES IDX 16 89 17 90 18 91 22 92 19 93 21 94 20 95 23 96 24 97 25 98
REMARK SMILES IDX 26 99 30 100 27 101 29 102 28 103
REMARK H PARENT 8 4 3 12 92 30 60 41 15 88
REMARK Flexibility Score: inf
ROOT
ATOM      1  N   UNL A   1      34.783  20.554  25.668  1.00  0.00    -0.356 N 
ATOM      2  C   UNL A   1      33.538  21.078  25.455  1.00  0.00     0.224 C 
ATOM      3  O   UNL A   1      32.588  20.302  25.371  1.00  0.00    -0.275 OA
ATOM      4  H   UNL A   1      34.828  19.577  25.787  1.00  0.00     0.163 HD
ENDROOT
BRANCH   1   5
ATOM      5  C   UNL A   1      36.046  21.262  25.741  1.00  0.00     0.116 C 
BRANCH   5   6
ATOM      6  C   UNL A   1      37.018  20.878  24.636  1.00  0.00     0.023 C 
BRANCH   6   7
ATOM      7  C   UNL A   1      37.999  19.769  25.008  1.00  0.00     0.023 C 
BRANCH   7   8
ATOM      8  C   UNL A   1      39.191  20.224  25.838  1.00  0.00     0.116 C 
BRANCH   8   9
ATOM      9  N   UNL A   1      40.247  19.222  25.895  1.00  0.00    -0.352 N 
ATOM     10  O   UNL A   1      42.375  18.463  25.927  1.00  0.00    -0.269 OA
ATOM     11  C   UNL A   1      41.600  19.393  26.083  1.00  0.00     0.251 C 
ATOM     12  H   UNL A   1      39.949  18.290  25.784  1.00  0.00     0.163 HD
BRANCH  11  13
ATOM     13  C   UNL A   1      42.109  20.731  26.454  1.00  0.00     0.039 A 
ATOM     14  C   UNL A   1      42.230  21.084  27.798  1.00  0.00     0.014 A 
ATOM     15  C   UNL A   1      42.440  21.643  25.450  1.00  0.00     0.014 A 
ATOM     16  C   UNL A   1      42.512  22.399  28.139  1.00  0.00     0.010 A 
ATOM     17  C   UNL A   1      42.829  22.940  25.797  1.00  0.00     0.010 A 
ATOM     18  C   UNL A   1      42.834  23.338  27.144  1.00  0.00    -0.014 A 
BRANCH  18  19
ATOM     19  C   UNL A   1      43.239  24.706  27.551  1.00  0.00     0.031 A 
ATOM     20  C   UNL A   1      44.682  25.125  27.565  1.00  0.00     0.074 A 
ATOM     21  C   UNL A   1      42.272  25.584  27.880  1.00  0.00     0.049 A 
ATOM     22  N   UNL A   1      45.199  26.284  27.891  1.00  0.00    -0.248 NA
ATOM     23  C   UNL A   1      45.676  24.116  27.172  1.00  0.00     0.031 C 
ATOM     24  C   UNL A   1      40.839  25.283  27.908  1.00  0.00     0.029 A 
ATOM     25  N   UNL A   1      42.340  26.907  28.232  1.00  0.00    -0.354 N 
ATOM     26  C   UNL A   1      46.574  26.138  27.761  1.00  0.00     0.074 A 
ATOM     27  C   UNL A   1      46.815  24.771  27.351  1.00  0.00     0.031 C 
ATOM     28  C   UNL A   1      40.159  26.398  28.207  1.00  0.00     0.029 A 
ATOM     29  C   UNL A   1      41.110  27.473  28.464  1.00  0.00     0.049 A 
ATOM     30  H   UNL A   1      43.186  27.403  28.310  1.00  0.00     0.167 HD
ATOM     31  C   UNL A   1      47.541  27.067  27.962  1.00  0.00     0.037 A 
ATOM     32  C   UNL A   1      40.782  28.715  28.864  1.00  0.00     0.037 A 
ATOM     33  C   UNL A   1      47.287  28.430  28.354  1.00  0.00     0.049 A 
ATOM     34  C   UNL A   1      41.878  29.711  29.103  1.00  0.00     0.074 A 
ATOM     35  C   UNL A   1      48.197  29.456  28.552  1.00  0.00     0.029 A 
ATOM     36  N   UNL A   1      46.030  28.959  28.612  1.00  0.00    -0.354 N 
ATOM     37  N   UNL A   1      43.171  29.568  28.954  1.00  0.00    -0.248 NA
ATOM     38  C   UNL A   1      41.467  31.041  29.572  1.00  0.00     0.031 C 
ATOM     39  C   UNL A   1      47.495  30.589  28.976  1.00  0.00     0.029 A 
ATOM     40  C   UNL A   1      46.142  30.288  28.991  1.00  0.00     0.049 A 
ATOM     41  H   UNL A   1      45.183  28.462  28.538  1.00  0.00     0.167 HD
ATOM     42  C   UNL A   1      43.731  30.789  29.296  1.00  0.00     0.074 A 
ATOM     43  C   UNL A   1      42.631  31.670  29.637  1.00  0.00     0.031 C 
ATOM     44  C   UNL A   1      45.037  31.148  29.329  1.00  0.00     0.037 A 
BRANCH  31  45
ATOM     45  C   UNL A   1      48.970  26.640  27.780  1.00  0.00     0.064 A 
ATOM     46  C   UNL A   1      49.783  26.294  28.869  1.00  0.00     0.173 A 
ATOM     47  C   UNL A   1      49.518  26.524  26.492  1.00  0.00     0.173 A 
ATOM     48  F   UNL A   1      49.313  26.396  30.122  1.00  0.00    -0.203 F 
ATOM     49  C   UNL A   1      51.096  25.869  28.679  1.00  0.00     0.198 A 
ATOM     50  C   UNL A   1      50.822  26.072  26.304  1.00  0.00     0.198 A 
ATOM     51  F   UNL A   1      48.783  26.835  25.415  1.00  0.00    -0.203 F 
ATOM     52  F   UNL A   1      51.866  25.581  29.738  1.00  0.00    -0.200 F 
ATOM     53  C   UNL A   1      51.611  25.751  27.396  1.00  0.00     0.200 A 
ATOM     54  F   UNL A   1      51.313  25.946  25.063  1.00  0.00    -0.200 F 
ATOM     55  F   UNL A   1      52.872  25.332  27.214  1.00  0.00    -0.200 F 
ENDBRANCH  31  45
BRANCH  32  56
ATOM     56  C   UNL A   1      39.354  29.067  29.068  1.00  0.00     0.064 A 
ATOM     57  C   UNL A   1      38.559  29.506  28.002  1.00  0.00     0.173 A 
ATOM     58  C   UNL A   1      38.752  28.952  30.330  1.00  0.00     0.173 A 
ATOM     59  F   UNL A   1      39.094  29.648  26.781  1.00  0.00    -0.203 F 
ATOM     60  C   UNL A   1      37.217  29.830  28.194  1.00  0.00     0.198 A 
ATOM     61  C   UNL A   1      37.404  29.244  30.513  1.00  0.00     0.198 A 
ATOM     62  F   UNL A   1      39.469  28.528  31.381  1.00  0.00    -0.203 F 
ATOM     63  F   UNL A   1      36.488  30.285  27.166  1.00  0.00    -0.200 F 
ATOM     64  C   UNL A   1      36.639  29.690  29.446  1.00  0.00     0.200 A 
ATOM     65  F   UNL A   1      36.844  29.089  31.721  1.00  0.00    -0.200 F 
ATOM     66  F   UNL A   1      35.345  29.991  29.627  1.00  0.00    -0.200 F 
ENDBRANCH  32  56
BRANCH  44  67
ATOM     67  C   UNL A   1      45.341  32.563  29.724  1.00  0.00     0.064 A 
ATOM     68  C   UNL A   1      45.370  33.600  28.779  1.00  0.00     0.173 A 
ATOM     69  C   UNL A   1      45.585  32.889  31.067  1.00  0.00     0.173 A 
ATOM     70  F   UNL A   1      45.161  33.334  27.480  1.00  0.00    -0.203 F 
ATOM     71  C   UNL A   1      45.662  34.906  29.160  1.00  0.00     0.198 A 
ATOM     72  C   UNL A   1      45.847  34.201  31.447  1.00  0.00     0.198 A 
ATOM     73  F   UNL A   1      45.565  31.935  32.009  1.00  0.00    -0.203 F 
ATOM     74  F   UNL A   1      45.737  35.871  28.233  1.00  0.00    -0.200 F 
ATOM     75  C   UNL A   1      45.893  35.207  30.494  1.00  0.00     0.200 A 
ATOM     76  F   UNL A   1      46.060  34.493  32.738  1.00  0.00    -0.200 F 
ATOM     77  F   UNL A   1      46.171  36.466  30.859  1.00  0.00    -0.200 F 
ENDBRANCH  44  67
ENDBRANCH  18  19
ENDBRANCH  11  13
ENDBRANCH   8   9
ENDBRANCH   7   8
ENDBRANCH   6   7
ENDBRANCH   5   6
ENDBRANCH   1   5
BRANCH   2  78
ATOM     78  C   UNL A   1      33.415  22.588  25.329  1.00  0.00     0.098 C 
ATOM     79  C   UNL A   1      31.937  23.112  25.275  1.00  0.00     0.098 C 
ATOM     80  C   UNL A   1      34.005  23.091  23.976  1.00  0.00     0.025 C 
ATOM     81  C   UNL A   1      31.920  23.866  23.945  1.00  0.00     0.025 C 
ATOM     82  C   UNL A   1      33.310  22.417  22.820  1.00  0.00    -0.027 C 
ATOM     83  C   UNL A   1      33.334  24.451  23.878  1.00  0.00     0.017 C 
ATOM     84  C   UNL A   1      32.050  22.871  22.809  1.00  0.00    -0.027 C 
BRANCH  79  85
ATOM     85  C   UNL A   1      31.561  23.843  26.568  1.00  0.00     0.224 C 
ATOM     86  O   UNL A   1      31.961  23.379  27.646  1.00  0.00    -0.275 OA
ATOM     87  N   UNL A   1      30.754  24.929  26.673  1.00  0.00    -0.352 N 
ATOM     88  H   UNL A   1      30.211  24.943  27.494  1.00  0.00     0.163 HD
BRANCH  87  89
ATOM     89  C   UNL A   1      30.536  26.075  25.809  1.00  0.00     0.155 C 
BRANCH  89  90
ATOM     90  C   UNL A   1      31.554  27.179  25.945  1.00  0.00     0.013 A 
ATOM     91  C   UNL A   1      32.006  27.566  27.216  1.00  0.00     0.009 A 
ATOM     92  C   UNL A   1      32.155  27.760  24.811  1.00  0.00     0.124 A 
ATOM     93  C   UNL A   1      33.007  28.529  27.349  1.00  0.00     0.001 A 
ATOM     94  C   UNL A   1      33.128  28.750  24.946  1.00  0.00     0.047 A 
ATOM     95  C   UNL A   1      33.559  29.127  26.217  1.00  0.00     0.004 A 
BRANCH  92  96
ATOM     96  O   UNL A   1      31.706  27.379  23.578  1.00  0.00    -0.489 OA
BRANCH  96  97
ATOM     97  C   UNL A   1      31.486  28.406  22.607  1.00  0.00     0.265 C 
BRANCH  97  98
ATOM     98  C   UNL A   1      30.058  28.920  22.582  1.00  0.00    -0.011 A 
ATOM     99  C   UNL A   1      29.753  30.187  22.068  1.00  0.00     0.007 A 
ATOM    100  C   UNL A   1      29.009  28.149  23.113  1.00  0.00     0.007 A 
ATOM    101  C   UNL A   1      28.438  30.654  22.037  1.00  0.00     0.000 A 
ATOM    102  C   UNL A   1      27.695  28.627  23.103  1.00  0.00     0.000 A 
ATOM    103  C   UNL A   1      27.409  29.876  22.558  1.00  0.00     0.000 A 
ENDBRANCH  97  98
ENDBRANCH  96  97
ENDBRANCH  92  96
ENDBRANCH  89  90
ENDBRANCH  87  89
ENDBRANCH  79  85
ENDBRANCH   2  78
TORSDOF 17
ENDMDL
MODEL 3
REMARK VINA RESULT:     -12.9      4.739     10.378
REMARK SMILES O=C(NCCCCNC(=O)[C@@H]1[C@@H](C(=O)NCc2ccccc2OCc2ccccc2)[C@@H]2C=C[C@H]1C2)c1ccc(-c2c3nc(c(-c4c(F)c(F)c(F)c(F)c4F)c4ccc([nH]4)c(-c4c(F)c(F)c(F)c(F)c4F)c4nc(c(-c5c(F)c(F)c(F)c(F)c5F)c5ccc2[nH]5)C=C4)C=C3)cc1
REMARK SMILES IDX 8 1 9 2 10 3 7 5 6 6 5 7 4 8 3 9 1 10 2 11 36 13 37 14 98 15
REMARK SMILES IDX 38 16 97 17 39 18 40 19 41 20 91 21 42 22 96 23 90 24 92 25
REMARK SMILES IDX 43 26 95 27 89 28 88 29 44 31 76 32 56 33 75 34 57 35 60 36
REMARK SMILES IDX 74 37 93 38 58 39 59 40 73 42 94 43 61 44 45 45 46 46 54 47
REMARK SMILES IDX 47 48 48 49 52 50 55 51 49 52 50 53 53 54 51 55 77 56 78 57
REMARK SMILES IDX 86 58 79 59 80 60 84 61 87 62 81 63 82 64 85 65 83 66 62 67
REMARK SMILES IDX 63 68 71 69 64 70 65 71 69 72 72 73 66 74 67 75 70 76 68 77
REMARK SMILES IDX 11 78 12 79 34 80 31 81 33 82 35 83 32 84 13 85 14 86 15 87
REMARK SMILES IDX 16 89 17 90 18 91 22 92 19 93 21 94 20 95 23 96 24 97 25 98
REMARK SMILES IDX 26 99 30 100 27 101 29 102 28 103
REMARK H PARENT 8 4 3 12 92 30 60 41 15 88
REMARK Flexibility Score: inf
ROOT
ATOM      1  N   UNL A   1      31.707  29.759  24.379  1.00  0.00    -0.356 N 
ATOM      2  C   UNL A   1      31.366  28.668  23.627  1.00  0.00     0.224 C 
ATOM      3  O   UNL A   1      30.635  28.839  22.654  1.00  0.00    -0.275 OA
ATOM      4  H   UNL A   1      31.373  30.628  24.058  1.00  0.00     0.163 HD
ENDROOT
BRANCH   1   5
ATOM      5  C   UNL A   1      32.500  29.791  25.592  1.00  0.00     0.116 C 
BRANCH   5   6
ATOM      6  C   UNL A   1      31.748  30.350  26.790  1.00  0.00     0.023 C 
BRANCH   6   7
ATOM      7  C   UNL A   1      31.552  31.863  26.768  1.00  0.00     0.023 C 
BRANCH   7   8
ATOM      8  C   UNL A   1      32.807  32.674  27.058  1.00  0.00     0.116 C 
BRANCH   8   9
ATOM      9  N   UNL A   1      32.508  34.020  27.526  1.00  0.00    -0.352 N 
ATOM     10  O   UNL A   1      32.561  35.772  28.953  1.00  0.00    -0.269 OA
ATOM     11  C   UNL A   1      33.050  34.716  28.584  1.00  0.00     0.251 C 
ATOM     12  H   UNL A   1      31.820  34.502  27.010  1.00  0.00     0.163 HD
BRANCH  11  13
ATOM     13  C   UNL A   1      34.221  34.152  29.287  1.00  0.00     0.039 A 
ATOM     14  C   UNL A   1      35.511  34.476  28.867  1.00  0.00     0.014 A 
ATOM     15  C   UNL A   1      34.024  33.274  30.355  1.00  0.00     0.014 A 
ATOM     16  C   UNL A   1      36.596  33.791  29.395  1.00  0.00     0.010 A 
ATOM     17  C   UNL A   1      35.128  32.664  30.960  1.00  0.00     0.010 A 
ATOM     18  C   UNL A   1      36.420  32.892  30.460  1.00  0.00    -0.014 A 
BRANCH  18  19
ATOM     19  C   UNL A   1      37.615  32.262  31.074  1.00  0.00     0.031 A 
ATOM     20  C   UNL A   1      38.083  32.644  32.449  1.00  0.00     0.074 A 
ATOM     21  C   UNL A   1      38.260  31.307  30.376  1.00  0.00     0.049 A 
ATOM     22  N   UNL A   1      39.105  32.184  33.128  1.00  0.00    -0.248 NA
ATOM     23  C   UNL A   1      37.314  33.679  33.156  1.00  0.00     0.031 C 
ATOM     24  C   UNL A   1      37.896  30.862  29.029  1.00  0.00     0.029 A 
ATOM     25  N   UNL A   1      39.335  30.524  30.705  1.00  0.00    -0.354 N 
ATOM     26  C   UNL A   1      39.114  32.883  34.328  1.00  0.00     0.074 A 
ATOM     27  C   UNL A   1      38.010  33.818  34.276  1.00  0.00     0.031 C 
ATOM     28  C   UNL A   1      38.699  29.853  28.666  1.00  0.00     0.029 A 
ATOM     29  C   UNL A   1      39.679  29.629  29.721  1.00  0.00     0.049 A 
ATOM     30  H   UNL A   1      39.814  30.595  31.562  1.00  0.00     0.167 HD
ATOM     31  C   UNL A   1      39.964  32.749  35.375  1.00  0.00     0.037 A 
ATOM     32  C   UNL A   1      40.688  28.741  29.662  1.00  0.00     0.037 A 
ATOM     33  C   UNL A   1      41.050  31.802  35.420  1.00  0.00     0.049 A 
ATOM     34  C   UNL A   1      41.628  28.636  30.827  1.00  0.00     0.074 A 
ATOM     35  C   UNL A   1      41.948  31.567  36.448  1.00  0.00     0.029 A 
ATOM     36  N   UNL A   1      41.389  30.935  34.391  1.00  0.00    -0.354 N 
ATOM     37  N   UNL A   1      41.611  29.286  31.963  1.00  0.00    -0.248 NA
ATOM     38  C   UNL A   1      42.732  27.676  30.696  1.00  0.00     0.031 C 
ATOM     39  C   UNL A   1      42.858  30.593  36.023  1.00  0.00     0.029 A 
ATOM     40  C   UNL A   1      42.497  30.181  34.750  1.00  0.00     0.049 A 
ATOM     41  H   UNL A   1      40.912  30.865  33.532  1.00  0.00     0.167 HD
ATOM     42  C   UNL A   1      42.689  28.808  32.691  1.00  0.00     0.074 A 
ATOM     43  C   UNL A   1      43.325  27.793  31.874  1.00  0.00     0.031 C 
ATOM     44  C   UNL A   1      43.117  29.178  33.923  1.00  0.00     0.037 A 
BRANCH  31  45
ATOM     45  C   UNL A   1      39.772  33.658  36.555  1.00  0.00     0.064 A 
ATOM     46  C   UNL A   1      40.349  34.936  36.606  1.00  0.00     0.173 A 
ATOM     47  C   UNL A   1      38.954  33.266  37.626  1.00  0.00     0.173 A 
ATOM     48  F   UNL A   1      41.148  35.356  35.613  1.00  0.00    -0.203 F 
ATOM     49  C   UNL A   1      40.132  35.778  37.694  1.00  0.00     0.198 A 
ATOM     50  C   UNL A   1      38.716  34.122  38.700  1.00  0.00     0.198 A 
ATOM     51  F   UNL A   1      38.371  32.059  37.626  1.00  0.00    -0.203 F 
ATOM     52  F   UNL A   1      40.725  36.980  37.739  1.00  0.00    -0.200 F 
ATOM     53  C   UNL A   1      39.310  35.374  38.736  1.00  0.00     0.200 A 
ATOM     54  F   UNL A   1      37.911  33.735  39.699  1.00  0.00    -0.200 F 
ATOM     55  F   UNL A   1      39.094  36.190  39.778  1.00  0.00    -0.200 F 
ENDBRANCH  31  45
BRANCH  32  56
ATOM     56  C   UNL A   1      40.854  27.898  28.451  1.00  0.00     0.064 A 
ATOM     57  C   UNL A   1      40.244  26.641  28.357  1.00  0.00     0.173 A 
ATOM     58  C   UNL A   1      41.611  28.342  27.356  1.00  0.00     0.173 A 
ATOM     59  F   UNL A   1      39.524  26.167  29.385  1.00  0.00    -0.203 F 
ATOM     60  C   UNL A   1      40.394  25.854  27.217  1.00  0.00     0.198 A 
ATOM     61  C   UNL A   1      41.733  27.569  26.206  1.00  0.00     0.198 A 
ATOM     62  F   UNL A   1      42.209  29.541  27.394  1.00  0.00    -0.203 F 
ATOM     63  F   UNL A   1      39.832  24.638  27.168  1.00  0.00    -0.200 F 
ATOM     64  C   UNL A   1      41.131  26.321  26.140  1.00  0.00     0.200 A 
ATOM     65  F   UNL A   1      42.430  28.033  25.160  1.00  0.00    -0.200 F 
ATOM     66  F   UNL A   1      41.267  25.568  25.040  1.00  0.00    -0.200 F 
ENDBRANCH  32  56
BRANCH  44  67
ATOM     67  C   UNL A   1      44.316  28.459  34.468  1.00  0.00     0.064 A 
ATOM     68  C   UNL A   1      45.616  28.947  34.274  1.00  0.00     0.173 A 
ATOM     69  C   UNL A   1      44.159  27.280  35.212  1.00  0.00     0.173 A 
ATOM     70  F   UNL A   1      45.818  30.062  33.554  1.00  0.00    -0.203 F 
ATOM     71  C   UNL A   1      46.719  28.264  34.779  1.00  0.00     0.198 A 
ATOM     72  C   UNL A   1      45.262  26.616  35.740  1.00  0.00     0.198 A 
ATOM     73  F   UNL A   1      42.935  26.774  35.429  1.00  0.00    -0.203 F 
ATOM     74  F   UNL A   1      47.955  28.719  34.535  1.00  0.00    -0.200 F 
ATOM     75  C   UNL A   1      46.540  27.104  35.517  1.00  0.00     0.200 A 
ATOM     76  F   UNL A   1      45.088  25.500  36.462  1.00  0.00    -0.200 F 
ATOM     77  F   UNL A   1      47.603  26.449  36.005  1.00  0.00    -0.200 F 
ENDBRANCH  44  67
ENDBRANCH  18  19
ENDBRANCH  11  13
ENDBRANCH   8   9
ENDBRANCH   7   8
ENDBRANCH   6   7
ENDBRANCH   5   6
ENDBRANCH   1   5
BRANCH   2  78
ATOM     78  C   UNL A   1      31.912  27.315  24.051  1.00  0.00     0.098 C 
ATOM     79  C   UNL A   1      31.859  26.218  22.930  1.00  0.00     0.098 C 
ATOM     80  C   UNL A   1      31.045  26.687  25.185  1.00  0.00     0.025 C 
ATOM     81  C   UNL A   1      31.024  25.125  23.601  1.00  0.00     0.025 C 
ATOM     82  C   UNL A   1      29.613  26.549  24.732  1.00  0.00    -0.027 C 
ATOM     83  C   UNL A   1      31.458  25.230  25.067  1.00  0.00     0.017 C 
ATOM     84  C   UNL A   1      29.601  25.619  23.767  1.00  0.00    -0.027 C 
BRANCH  79  85
ATOM     85  C   UNL A   1      33.261  25.890  22.408  1.00  0.00     0.224 C 
ATOM     86  O   UNL A   1      33.585  26.304  21.286  1.00  0.00    -0.275 OA
ATOM     87  N   UNL A   1      34.188  25.113  23.024  1.00  0.00    -0.352 N 
ATOM     88  H   UNL A   1      34.744  24.590  22.402  1.00  0.00     0.163 HD
BRANCH  87  89
ATOM     89  C   UNL A   1      34.519  24.903  24.421  1.00  0.00     0.155 C 
BRANCH  89  90
ATOM     90  C   UNL A   1      35.423  23.727  24.693  1.00  0.00     0.013 A 
ATOM     91  C   UNL A   1      36.642  23.917  25.361  1.00  0.00     0.009 A 
ATOM     92  C   UNL A   1      35.019  22.412  24.390  1.00  0.00     0.124 A 
ATOM     93  C   UNL A   1      37.448  22.826  25.690  1.00  0.00     0.001 A 
ATOM     94  C   UNL A   1      35.842  21.325  24.684  1.00  0.00     0.047 A 
ATOM     95  C   UNL A   1      37.054  21.534  25.342  1.00  0.00     0.004 A 
BRANCH  92  96
ATOM     96  O   UNL A   1      33.832  22.237  23.737  1.00  0.00    -0.489 OA
BRANCH  96  97
ATOM     97  C   UNL A   1      32.750  21.656  24.472  1.00  0.00     0.265 C 
BRANCH  97  98
ATOM     98  C   UNL A   1      32.696  20.143  24.374  1.00  0.00    -0.011 A 
ATOM     99  C   UNL A   1      32.502  19.503  23.142  1.00  0.00     0.007 A 
ATOM    100  C   UNL A   1      32.801  19.345  25.526  1.00  0.00     0.007 A 
ATOM    101  C   UNL A   1      32.462  18.111  23.051  1.00  0.00     0.000 A 
ATOM    102  C   UNL A   1      32.738  17.951  25.438  1.00  0.00     0.000 A 
ATOM    103  C   UNL A   1      32.577  17.335  24.200  1.00  0.00     0.000 A 
ENDBRANCH  97  98
ENDBRANCH  96  97
ENDBRANCH  92  96
ENDBRANCH  89  90
ENDBRANCH  87  89
ENDBRANCH  79  85
ENDBRANCH   2  78
TORSDOF 17
ENDMDL
