MODEL 1
REMARK VINA RESULT:     -13.5      0.000      0.000
REMARK SMILES Cc1ccccc1C[C@H](C[C@@H]1Cc2ccccc21)C(=O)NCCCCNC(=O)c1ccc(-c2c3nc(c(-c4c(F)c(F)c(F)c(F)c4F)c4ccc([nH]4)c(-c4c(F)c(F)c(F)c(F)c4F)c4nc(c(-c5c(F)c(F)c(F)c(F)c5F)c5ccc2[nH]5)C=C4)C=C3)cc1
REMARK SMILES IDX 23 1 22 2 21 3 19 4 20 5 9 7 8 8 7 9 1 10 2 11 3 12 4 13
REMARK SMILES IDX 6 14 5 15 10 16 11 17 12 18 18 19 13 20 17 21 14 22 16 23
REMARK SMILES IDX 15 24 24 25 25 26 26 27 27 28 28 30 29 31 30 32 91 33 31 34
REMARK SMILES IDX 90 35 32 36 33 37 34 38 84 39 35 40 89 41 83 42 85 43 36 44
REMARK SMILES IDX 88 45 82 46 81 47 37 49 69 50 49 51 68 52 50 53 53 54 67 55
REMARK SMILES IDX 86 56 51 57 52 58 66 60 87 61 54 62 38 63 39 64 47 65 40 66
REMARK SMILES IDX 41 67 45 68 48 69 42 70 43 71 46 72 44 73 70 74 71 75 79 76
REMARK SMILES IDX 72 77 73 78 77 79 80 80 74 81 75 82 78 83 76 84 55 85 56 86
REMARK SMILES IDX 64 87 57 88 58 89 62 90 65 91 59 92 60 93 63 94 61 95
REMARK H PARENT 21 6 26 29 85 48 53 59
REMARK Flexibility Score: inf
ROOT
ATOM      1  C   UNL A   1      31.610  30.647  26.130  1.00  0.00     0.023 C 
ENDROOT
BRANCH   1   2
ATOM      2  C   UNL A   1      31.900  29.949  24.799  1.00  0.00     0.116 C 
BRANCH   2   3
ATOM      3  N   UNL A   1      30.718  29.664  24.007  1.00  0.00    -0.356 N 
ATOM      4  C   UNL A   1      30.085  28.490  23.726  1.00  0.00     0.223 C 
ATOM      5  O   UNL A   1      28.972  28.588  23.196  1.00  0.00    -0.275 OA
ATOM      6  H   UNL A   1      30.300  30.458  23.602  1.00  0.00     0.163 HD
BRANCH   4   7
ATOM      7  C   UNL A   1      30.674  27.098  24.015  1.00  0.00     0.083 C 
BRANCH   7   8
ATOM      8  C   UNL A   1      30.698  26.046  22.869  1.00  0.00     0.049 C 
BRANCH   8   9
ATOM      9  C   UNL A   1      31.485  24.746  22.867  1.00  0.00    -0.044 A 
ATOM     10  C   UNL A   1      33.567  25.997  22.015  1.00  0.00     0.044 C 
ATOM     11  C   UNL A   1      32.845  24.748  22.457  1.00  0.00    -0.048 A 
ATOM     12  C   UNL A   1      33.571  23.543  22.418  1.00  0.00     0.004 A 
ATOM     13  C   UNL A   1      32.996  22.347  22.832  1.00  0.00     0.000 A 
ATOM     14  C   UNL A   1      30.955  23.537  23.334  1.00  0.00     0.004 A 
ATOM     15  C   UNL A   1      31.692  22.348  23.304  1.00  0.00     0.000 A 
ENDBRANCH   8   9
ENDBRANCH   7   8
BRANCH   7  16
ATOM     16  C   UNL A   1      30.517  26.586  25.469  1.00  0.00     0.022 C 
BRANCH  16  17
ATOM     17  C   UNL A   1      31.784  26.540  26.338  1.00  0.00     0.025 C 
ATOM     18  C   UNL A   1      33.244  26.844  25.802  1.00  0.00     0.044 C 
ATOM     19  C   UNL A   1      32.281  25.119  26.514  1.00  0.00    -0.041 A 
ATOM     20  C   UNL A   1      33.506  25.376  25.949  1.00  0.00    -0.044 A 
ATOM     21  C   UNL A   1      31.922  23.859  26.937  1.00  0.00     0.004 A 
ATOM     22  C   UNL A   1      34.440  24.388  25.755  1.00  0.00     0.004 A 
ATOM     23  C   UNL A   1      32.855  22.835  26.763  1.00  0.00     0.000 A 
ATOM     24  C   UNL A   1      34.104  23.096  26.167  1.00  0.00     0.000 A 
ENDBRANCH  16  17
ENDBRANCH   7  16
ENDBRANCH   4   7
ENDBRANCH   2   3
ENDBRANCH   1   2
BRANCH   1  25
ATOM     25  C   UNL A   1      32.384  30.108  27.334  1.00  0.00     0.023 C 
BRANCH  25  26
ATOM     26  C   UNL A   1      33.883  30.380  27.297  1.00  0.00     0.116 C 
BRANCH  26  27
ATOM     27  N   UNL A   1      34.389  31.273  28.323  1.00  0.00    -0.352 N 
ATOM     28  C   UNL A   1      35.452  31.109  29.201  1.00  0.00     0.251 C 
ATOM     29  H   UNL A   1      33.904  32.126  28.410  1.00  0.00     0.163 HD
ATOM     30  O   UNL A   1      35.613  31.917  30.100  1.00  0.00    -0.269 OA
BRANCH  28  31
ATOM     31  C   UNL A   1      36.474  30.044  28.976  1.00  0.00     0.039 A 
ATOM     32  C   UNL A   1      36.770  29.181  30.043  1.00  0.00     0.014 A 
ATOM     33  C   UNL A   1      37.246  29.978  27.821  1.00  0.00     0.014 A 
ATOM     34  C   UNL A   1      37.962  28.456  30.042  1.00  0.00     0.010 A 
ATOM     35  C   UNL A   1      38.476  29.357  27.858  1.00  0.00     0.010 A 
ATOM     36  C   UNL A   1      38.860  28.647  28.994  1.00  0.00    -0.014 A 
BRANCH  36  37
ATOM     37  C   UNL A   1      40.251  28.219  29.027  1.00  0.00     0.031 A 
ATOM     38  C   UNL A   1      40.639  26.895  28.509  1.00  0.00     0.074 A 
ATOM     39  C   UNL A   1      41.194  29.098  29.427  1.00  0.00     0.049 A 
ATOM     40  N   UNL A   1      41.692  26.254  28.888  1.00  0.00    -0.248 NA
ATOM     41  C   UNL A   1      39.847  26.173  27.522  1.00  0.00     0.031 C 
ATOM     42  C   UNL A   1      42.643  28.977  29.294  1.00  0.00     0.029 A 
ATOM     43  N   UNL A   1      41.013  30.230  30.239  1.00  0.00    -0.354 N 
ATOM     44  C   UNL A   1      41.867  25.194  28.028  1.00  0.00     0.074 A 
ATOM     45  C   UNL A   1      40.659  25.151  27.236  1.00  0.00     0.031 C 
ATOM     46  C   UNL A   1      43.226  29.762  30.216  1.00  0.00     0.029 A 
ATOM     47  C   UNL A   1      42.163  30.282  31.060  1.00  0.00     0.049 A 
ATOM     48  H   UNL A   1      40.249  30.852  30.237  1.00  0.00     0.167 HD
ATOM     49  C   UNL A   1      43.075  24.561  27.987  1.00  0.00     0.037 A 
ATOM     50  C   UNL A   1      42.078  30.111  32.411  1.00  0.00     0.037 A 
ATOM     51  C   UNL A   1      44.006  25.142  28.950  1.00  0.00     0.049 A 
ATOM     52  C   UNL A   1      42.925  28.975  32.934  1.00  0.00     0.074 A 
ATOM     53  C   UNL A   1      45.011  26.088  28.819  1.00  0.00     0.029 A 
ATOM     54  N   UNL A   1      43.761  25.013  30.312  1.00  0.00    -0.354 N 
ATOM     55  N   UNL A   1      43.320  27.968  32.208  1.00  0.00    -0.248 NA
ATOM     56  C   UNL A   1      43.357  28.869  34.323  1.00  0.00     0.031 C 
ATOM     57  C   UNL A   1      45.353  26.551  30.112  1.00  0.00     0.029 A 
ATOM     58  C   UNL A   1      44.568  25.875  31.030  1.00  0.00     0.049 A 
ATOM     59  H   UNL A   1      43.107  24.394  30.710  1.00  0.00     0.167 HD
ATOM     60  C   UNL A   1      44.023  27.088  32.992  1.00  0.00     0.074 A 
ATOM     61  C   UNL A   1      44.035  27.709  34.303  1.00  0.00     0.031 C 
ATOM     62  C   UNL A   1      44.518  25.919  32.484  1.00  0.00     0.037 A 
BRANCH  49  63
ATOM     63  C   UNL A   1      43.500  23.638  26.867  1.00  0.00     0.064 A 
ATOM     64  C   UNL A   1      43.071  22.293  26.829  1.00  0.00     0.173 A 
ATOM     65  C   UNL A   1      44.371  24.007  25.827  1.00  0.00     0.173 A 
ATOM     66  F   UNL A   1      42.148  21.825  27.678  1.00  0.00    -0.203 F 
ATOM     67  C   UNL A   1      43.579  21.367  25.914  1.00  0.00     0.198 A 
ATOM     68  C   UNL A   1      44.924  23.071  24.945  1.00  0.00     0.198 A 
ATOM     69  F   UNL A   1      44.678  25.292  25.602  1.00  0.00    -0.203 F 
ATOM     70  F   UNL A   1      43.144  20.100  25.939  1.00  0.00    -0.200 F 
ATOM     71  C   UNL A   1      44.538  21.746  24.998  1.00  0.00     0.200 A 
ATOM     72  F   UNL A   1      45.835  23.463  24.043  1.00  0.00    -0.200 F 
ATOM     73  F   UNL A   1      45.067  20.848  24.156  1.00  0.00    -0.200 F 
ENDBRANCH  49  63
BRANCH  50  74
ATOM     74  C   UNL A   1      40.755  30.503  32.972  1.00  0.00     0.064 A 
ATOM     75  C   UNL A   1      40.397  31.867  32.975  1.00  0.00     0.173 A 
ATOM     76  C   UNL A   1      39.729  29.568  33.153  1.00  0.00     0.173 A 
ATOM     77  F   UNL A   1      41.340  32.809  32.806  1.00  0.00    -0.203 F 
ATOM     78  C   UNL A   1      39.065  32.267  33.026  1.00  0.00     0.198 A 
ATOM     79  C   UNL A   1      38.395  29.976  33.225  1.00  0.00     0.198 A 
ATOM     80  F   UNL A   1      39.997  28.255  33.152  1.00  0.00    -0.203 F 
ATOM     81  F   UNL A   1      38.750  33.564  32.901  1.00  0.00    -0.200 F 
ATOM     82  C   UNL A   1      38.063  31.319  33.125  1.00  0.00     0.200 A 
ATOM     83  F   UNL A   1      37.421  29.058  33.296  1.00  0.00    -0.200 F 
ATOM     84  F   UNL A   1      36.777  31.695  33.083  1.00  0.00    -0.200 F 
ENDBRANCH  50  74
BRANCH  62  85
ATOM     85  C   UNL A   1      45.091  24.749  33.259  1.00  0.00     0.064 A 
ATOM     86  C   UNL A   1      44.396  23.561  33.535  1.00  0.00     0.173 A 
ATOM     87  C   UNL A   1      46.460  24.744  33.635  1.00  0.00     0.173 A 
ATOM     88  F   UNL A   1      43.135  23.374  33.126  1.00  0.00    -0.203 F 
ATOM     89  C   UNL A   1      44.999  22.481  34.190  1.00  0.00     0.198 A 
ATOM     90  C   UNL A   1      47.075  23.641  34.230  1.00  0.00     0.198 A 
ATOM     91  F   UNL A   1      47.259  25.796  33.412  1.00  0.00    -0.203 F 
ATOM     92  F   UNL A   1      44.275  21.388  34.468  1.00  0.00    -0.200 F 
ATOM     93  C   UNL A   1      46.340  22.515  34.524  1.00  0.00     0.200 A 
ATOM     94  F   UNL A   1      48.389  23.674  34.493  1.00  0.00    -0.200 F 
ATOM     95  F   UNL A   1      46.923  21.459  35.103  1.00  0.00    -0.200 F 
ENDBRANCH  62  85
ENDBRANCH  36  37
ENDBRANCH  28  31
ENDBRANCH  26  27
ENDBRANCH  25  26
ENDBRANCH   1  25
TORSDOF 15
ENDMDL
MODEL 2
REMARK VINA RESULT:     -13.5      3.928      9.869
REMARK SMILES Cc1ccccc1C[C@H](C[C@@H]1Cc2ccccc21)C(=O)NCCCCNC(=O)c1ccc(-c2c3nc(c(-c4c(F)c(F)c(F)c(F)c4F)c4ccc([nH]4)c(-c4c(F)c(F)c(F)c(F)c4F)c4nc(c(-c5c(F)c(F)c(F)c(F)c5F)c5ccc2[nH]5)C=C4)C=C3)cc1
REMARK SMILES IDX 23 1 22 2 21 3 19 4 20 5 9 7 8 8 7 9 1 10 2 11 3 12 4 13
REMARK SMILES IDX 6 14 5 15 10 16 11 17 12 18 18 19 13 20 17 21 14 22 16 23
REMARK SMILES IDX 15 24 24 25 25 26 26 27 27 28 28 30 29 31 30 32 91 33 31 34
REMARK SMILES IDX 90 35 32 36 33 37 34 38 84 39 35 40 89 41 83 42 85 43 36 44
REMARK SMILES IDX 88 45 82 46 81 47 37 49 69 50 49 51 68 52 50 53 53 54 67 55
REMARK SMILES IDX 86 56 51 57 52 58 66 60 87 61 54 62 38 63 39 64 47 65 40 66
REMARK SMILES IDX 41 67 45 68 48 69 42 70 43 71 46 72 44 73 70 74 71 75 79 76
REMARK SMILES IDX 72 77 73 78 77 79 80 80 74 81 75 82 78 83 76 84 55 85 56 86
REMARK SMILES IDX 64 87 57 88 58 89 62 90 65 91 59 92 60 93 63 94 61 95
REMARK H PARENT 21 6 26 29 85 48 53 59
REMARK Flexibility Score: inf
ROOT
ATOM      1  C   UNL A   1      37.004  21.284  24.777  1.00  0.00     0.023 C 
ENDROOT
BRANCH   1   2
ATOM      2  C   UNL A   1      35.817  21.130  25.731  1.00  0.00     0.116 C 
BRANCH   2   3
ATOM      3  N   UNL A   1      34.758  20.275  25.229  1.00  0.00    -0.356 N 
ATOM      4  C   UNL A   1      33.650  20.557  24.486  1.00  0.00     0.223 C 
ATOM      5  O   UNL A   1      33.043  19.581  24.029  1.00  0.00    -0.275 OA
ATOM      6  H   UNL A   1      34.857  19.325  25.468  1.00  0.00     0.163 HD
BRANCH   4   7
ATOM      7  C   UNL A   1      33.133  21.978  24.207  1.00  0.00     0.083 C 
BRANCH   7   8
ATOM      8  C   UNL A   1      31.616  22.270  24.392  1.00  0.00     0.049 C 
BRANCH   8   9
ATOM      9  C   UNL A   1      30.982  23.642  24.547  1.00  0.00    -0.044 A 
ATOM     10  C   UNL A   1      31.594  23.653  27.047  1.00  0.00     0.044 C 
ATOM     11  C   UNL A   1      30.984  24.278  25.816  1.00  0.00    -0.048 A 
ATOM     12  C   UNL A   1      30.368  25.534  25.977  1.00  0.00     0.004 A 
ATOM     13  C   UNL A   1      29.803  26.197  24.894  1.00  0.00     0.000 A 
ATOM     14  C   UNL A   1      30.459  24.363  23.466  1.00  0.00     0.004 A 
ATOM     15  C   UNL A   1      29.862  25.617  23.636  1.00  0.00     0.000 A 
ENDBRANCH   8   9
ENDBRANCH   7   8
BRANCH   7  16
ATOM     16  C   UNL A   1      33.900  22.777  23.123  1.00  0.00     0.022 C 
BRANCH  16  17
ATOM     17  C   UNL A   1      34.802  23.926  23.603  1.00  0.00     0.025 C 
ATOM     18  C   UNL A   1      34.910  24.403  25.110  1.00  0.00     0.044 C 
ATOM     19  C   UNL A   1      34.155  25.275  23.355  1.00  0.00    -0.041 A 
ATOM     20  C   UNL A   1      34.162  25.629  24.682  1.00  0.00    -0.044 A 
ATOM     21  C   UNL A   1      33.607  26.084  22.386  1.00  0.00     0.004 A 
ATOM     22  C   UNL A   1      33.605  26.803  25.125  1.00  0.00     0.004 A 
ATOM     23  C   UNL A   1      33.041  27.291  22.805  1.00  0.00     0.000 A 
ATOM     24  C   UNL A   1      33.033  27.645  24.168  1.00  0.00     0.000 A 
ENDBRANCH  16  17
ENDBRANCH   7  16
ENDBRANCH   4   7
ENDBRANCH   2   3
ENDBRANCH   1   2
BRANCH   1  25
ATOM     25  C   UNL A   1      38.383  21.260  25.439  1.00  0.00     0.023 C 
BRANCH  25  26
ATOM     26  C   UNL A   1      38.850  22.607  25.979  1.00  0.00     0.116 C 
BRANCH  26  27
ATOM     27  N   UNL A   1      40.262  22.702  26.302  1.00  0.00    -0.352 N 
ATOM     28  C   UNL A   1      41.023  23.811  26.647  1.00  0.00     0.251 C 
ATOM     29  H   UNL A   1      40.755  21.851  26.271  1.00  0.00     0.163 HD
ATOM     30  O   UNL A   1      42.235  23.702  26.725  1.00  0.00    -0.269 OA
BRANCH  28  31
ATOM     31  C   UNL A   1      40.370  25.090  27.058  1.00  0.00     0.039 A 
ATOM     32  C   UNL A   1      40.693  26.253  26.342  1.00  0.00     0.014 A 
ATOM     33  C   UNL A   1      39.594  25.199  28.207  1.00  0.00     0.014 A 
ATOM     34  C   UNL A   1      40.455  27.507  26.905  1.00  0.00     0.010 A 
ATOM     35  C   UNL A   1      39.456  26.425  28.823  1.00  0.00     0.010 A 
ATOM     36  C   UNL A   1      39.942  27.573  28.199  1.00  0.00    -0.014 A 
BRANCH  36  37
ATOM     37  C   UNL A   1      39.951  28.776  29.017  1.00  0.00     0.031 A 
ATOM     38  C   UNL A   1      38.907  29.802  28.851  1.00  0.00     0.074 A 
ATOM     39  C   UNL A   1      40.858  28.882  30.011  1.00  0.00     0.049 A 
ATOM     40  N   UNL A   1      39.061  31.044  29.163  1.00  0.00    -0.248 NA
ATOM     41  C   UNL A   1      37.593  29.505  28.294  1.00  0.00     0.031 C 
ATOM     42  C   UNL A   1      40.885  29.856  31.099  1.00  0.00     0.029 A 
ATOM     43  N   UNL A   1      42.089  28.212  30.114  1.00  0.00    -0.354 N 
ATOM     44  C   UNL A   1      37.824  31.644  29.111  1.00  0.00     0.074 A 
ATOM     45  C   UNL A   1      36.955  30.660  28.505  1.00  0.00     0.031 C 
ATOM     46  C   UNL A   1      42.144  29.955  31.556  1.00  0.00     0.029 A 
ATOM     47  C   UNL A   1      42.979  29.161  30.670  1.00  0.00     0.049 A 
ATOM     48  H   UNL A   1      42.289  27.284  29.856  1.00  0.00     0.167 HD
ATOM     49  C   UNL A   1      37.643  32.853  29.718  1.00  0.00     0.037 A 
ATOM     50  C   UNL A   1      44.043  29.635  29.960  1.00  0.00     0.037 A 
ATOM     51  C   UNL A   1      38.886  33.331  30.317  1.00  0.00     0.049 A 
ATOM     52  C   UNL A   1      44.049  31.138  29.805  1.00  0.00     0.074 A 
ATOM     53  C   UNL A   1      39.378  33.268  31.612  1.00  0.00     0.029 A 
ATOM     54  N   UNL A   1      39.958  33.676  29.504  1.00  0.00    -0.354 N 
ATOM     55  N   UNL A   1      42.983  31.882  29.891  1.00  0.00    -0.248 NA
ATOM     56  C   UNL A   1      45.249  31.909  29.502  1.00  0.00     0.031 C 
ATOM     57  C   UNL A   1      40.764  33.552  31.571  1.00  0.00     0.029 A 
ATOM     58  C   UNL A   1      41.111  33.802  30.255  1.00  0.00     0.049 A 
ATOM     59  H   UNL A   1      39.904  33.814  28.530  1.00  0.00     0.167 HD
ATOM     60  C   UNL A   1      43.319  33.190  29.648  1.00  0.00     0.074 A 
ATOM     61  C   UNL A   1      44.753  33.156  29.431  1.00  0.00     0.031 C 
ATOM     62  C   UNL A   1      42.374  34.179  29.638  1.00  0.00     0.037 A 
BRANCH  49  63
ATOM     63  C   UNL A   1      36.285  33.438  30.032  1.00  0.00     0.064 A 
ATOM     64  C   UNL A   1      35.446  33.926  29.005  1.00  0.00     0.173 A 
ATOM     65  C   UNL A   1      35.772  33.591  31.333  1.00  0.00     0.173 A 
ATOM     66  F   UNL A   1      35.740  33.745  27.712  1.00  0.00    -0.203 F 
ATOM     67  C   UNL A   1      34.268  34.629  29.268  1.00  0.00     0.198 A 
ATOM     68  C   UNL A   1      34.622  34.342  31.601  1.00  0.00     0.198 A 
ATOM     69  F   UNL A   1      36.342  32.978  32.379  1.00  0.00    -0.203 F 
ATOM     70  F   UNL A   1      33.523  35.082  28.250  1.00  0.00    -0.200 F 
ATOM     71  C   UNL A   1      33.877  34.875  30.568  1.00  0.00     0.200 A 
ATOM     72  F   UNL A   1      34.242  34.547  32.870  1.00  0.00    -0.200 F 
ATOM     73  F   UNL A   1      32.777  35.596  30.822  1.00  0.00    -0.200 F 
ENDBRANCH  49  63
BRANCH  50  74
ATOM     74  C   UNL A   1      44.536  28.680  28.928  1.00  0.00     0.064 A 
ATOM     75  C   UNL A   1      45.240  27.533  29.349  1.00  0.00     0.173 A 
ATOM     76  C   UNL A   1      44.026  28.682  27.624  1.00  0.00     0.173 A 
ATOM     77  F   UNL A   1      45.751  27.475  30.589  1.00  0.00    -0.203 F 
ATOM     78  C   UNL A   1      45.316  26.396  28.550  1.00  0.00     0.198 A 
ATOM     79  C   UNL A   1      44.124  27.545  26.818  1.00  0.00     0.198 A 
ATOM     80  F   UNL A   1      43.340  29.736  27.164  1.00  0.00    -0.203 F 
ATOM     81  F   UNL A   1      45.883  25.279  29.026  1.00  0.00    -0.200 F 
ATOM     82  C   UNL A   1      44.735  26.394  27.294  1.00  0.00     0.200 A 
ATOM     83  F   UNL A   1      43.540  27.533  25.612  1.00  0.00    -0.200 F 
ATOM     84  F   UNL A   1      44.728  25.273  26.560  1.00  0.00    -0.200 F 
ENDBRANCH  50  74
BRANCH  62  85
ATOM     85  C   UNL A   1      42.542  35.605  29.154  1.00  0.00     0.064 A 
ATOM     86  C   UNL A   1      41.922  36.137  28.011  1.00  0.00     0.173 A 
ATOM     87  C   UNL A   1      43.250  36.549  29.944  1.00  0.00     0.173 A 
ATOM     88  F   UNL A   1      41.118  35.394  27.240  1.00  0.00    -0.203 F 
ATOM     89  C   UNL A   1      42.051  37.483  27.652  1.00  0.00     0.198 A 
ATOM     90  C   UNL A   1      43.323  37.904  29.618  1.00  0.00     0.198 A 
ATOM     91  F   UNL A   1      43.871  36.196  31.078  1.00  0.00    -0.203 F 
ATOM     92  F   UNL A   1      41.474  37.926  26.527  1.00  0.00    -0.200 F 
ATOM     93  C   UNL A   1      42.738  38.368  28.461  1.00  0.00     0.200 A 
ATOM     94  F   UNL A   1      43.945  38.755  30.446  1.00  0.00    -0.200 F 
ATOM     95  F   UNL A   1      42.814  39.665  28.139  1.00  0.00    -0.200 F 
ENDBRANCH  62  85
ENDBRANCH  36  37
ENDBRANCH  28  31
ENDBRANCH  26  27
ENDBRANCH  25  26
ENDBRANCH   1  25
TORSDOF 15
ENDMDL
MODEL 3
REMARK VINA RESULT:     -13.3      1.077      2.136
REMARK SMILES Cc1ccccc1C[C@H](C[C@@H]1Cc2ccccc21)C(=O)NCCCCNC(=O)c1ccc(-c2c3nc(c(-c4c(F)c(F)c(F)c(F)c4F)c4ccc([nH]4)c(-c4c(F)c(F)c(F)c(F)c4F)c4nc(c(-c5c(F)c(F)c(F)c(F)c5F)c5ccc2[nH]5)C=C4)C=C3)cc1
REMARK SMILES IDX 23 1 22 2 21 3 19 4 20 5 9 7 8 8 7 9 1 10 2 11 3 12 4 13
REMARK SMILES IDX 6 14 5 15 10 16 11 17 12 18 18 19 13 20 17 21 14 22 16 23
REMARK SMILES IDX 15 24 24 25 25 26 26 27 27 28 28 30 29 31 30 32 91 33 31 34
REMARK SMILES IDX 90 35 32 36 33 37 34 38 84 39 35 40 89 41 83 42 85 43 36 44
REMARK SMILES IDX 88 45 82 46 81 47 37 49 69 50 49 51 68 52 50 53 53 54 67 55
REMARK SMILES IDX 86 56 51 57 52 58 66 60 87 61 54 62 38 63 39 64 47 65 40 66
REMARK SMILES IDX 41 67 45 68 48 69 42 70 43 71 46 72 44 73 70 74 71 75 79 76
REMARK SMILES IDX 72 77 73 78 77 79 80 80 74 81 75 82 78 83 76 84 55 85 56 86
REMARK SMILES IDX 64 87 57 88 58 89 62 90 65 91 59 92 60 93 63 94 61 95
REMARK H PARENT 21 6 26 29 85 48 53 59
REMARK Flexibility Score: inf
ROOT
ATOM      1  C   UNL A   1      31.765  29.579  26.601  1.00  0.00     0.023 C 
ENDROOT
BRANCH   1   2
ATOM      2  C   UNL A   1      31.401  29.497  25.117  1.00  0.00     0.116 C 
BRANCH   2   3
ATOM      3  N   UNL A   1      32.521  29.700  24.217  1.00  0.00    -0.356 N 
ATOM      4  C   UNL A   1      33.323  28.812  23.565  1.00  0.00     0.223 C 
ATOM      5  O   UNL A   1      34.062  29.288  22.695  1.00  0.00    -0.275 OA
ATOM      6  H   UNL A   1      32.739  30.646  24.048  1.00  0.00     0.163 HD
BRANCH   4   7
ATOM      7  C   UNL A   1      33.360  27.303  23.857  1.00  0.00     0.083 C 
BRANCH   7   8
ATOM      8  C   UNL A   1      33.773  26.828  25.280  1.00  0.00     0.049 C 
BRANCH   8   9
ATOM      9  C   UNL A   1      33.978  25.388  25.717  1.00  0.00    -0.044 A 
ATOM     10  C   UNL A   1      31.566  25.308  26.613  1.00  0.00     0.044 C 
ATOM     11  C   UNL A   1      32.915  24.687  26.348  1.00  0.00    -0.048 A 
ATOM     12  C   UNL A   1      33.106  23.364  26.789  1.00  0.00     0.004 A 
ATOM     13  C   UNL A   1      34.308  22.702  26.564  1.00  0.00     0.000 A 
ATOM     14  C   UNL A   1      35.152  24.673  25.453  1.00  0.00     0.004 A 
ATOM     15  C   UNL A   1      35.325  23.353  25.883  1.00  0.00     0.000 A 
ENDBRANCH   8   9
ENDBRANCH   7   8
BRANCH   7  16
ATOM     16  C   UNL A   1      33.712  26.389  22.656  1.00  0.00     0.022 C 
BRANCH  16  17
ATOM     17  C   UNL A   1      32.580  25.530  22.071  1.00  0.00     0.025 C 
ATOM     18  C   UNL A   1      31.120  25.445  22.680  1.00  0.00     0.044 C 
ATOM     19  C   UNL A   1      32.707  24.082  22.501  1.00  0.00    -0.041 A 
ATOM     20  C   UNL A   1      31.480  24.059  23.118  1.00  0.00    -0.044 A 
ATOM     21  C   UNL A   1      33.551  22.995  22.513  1.00  0.00     0.004 A 
ATOM     22  C   UNL A   1      31.029  22.955  23.800  1.00  0.00     0.004 A 
ATOM     23  C   UNL A   1      33.116  21.854  23.190  1.00  0.00     0.000 A 
ATOM     24  C   UNL A   1      31.865  21.837  23.837  1.00  0.00     0.000 A 
ENDBRANCH  16  17
ENDBRANCH   7  16
ENDBRANCH   4   7
ENDBRANCH   2   3
ENDBRANCH   1   2
BRANCH   1  25
ATOM     25  C   UNL A   1      32.748  30.690  26.973  1.00  0.00     0.023 C 
BRANCH  25  26
ATOM     26  C   UNL A   1      34.037  30.203  27.623  1.00  0.00     0.116 C 
BRANCH  26  27
ATOM     27  N   UNL A   1      34.783  31.199  28.371  1.00  0.00    -0.352 N 
ATOM     28  C   UNL A   1      35.980  31.079  29.065  1.00  0.00     0.251 C 
ATOM     29  H   UNL A   1      34.379  32.096  28.389  1.00  0.00     0.163 HD
ATOM     30  O   UNL A   1      36.358  32.003  29.765  1.00  0.00    -0.269 OA
BRANCH  28  31
ATOM     31  C   UNL A   1      36.870  29.899  28.858  1.00  0.00     0.039 A 
ATOM     32  C   UNL A   1      37.107  29.053  29.953  1.00  0.00     0.014 A 
ATOM     33  C   UNL A   1      37.591  29.701  27.685  1.00  0.00     0.014 A 
ATOM     34  C   UNL A   1      38.213  28.201  29.949  1.00  0.00     0.010 A 
ATOM     35  C   UNL A   1      38.747  28.949  27.713  1.00  0.00     0.010 A 
ATOM     36  C   UNL A   1      39.089  28.248  28.868  1.00  0.00    -0.014 A 
BRANCH  36  37
ATOM     37  C   UNL A   1      40.425  27.670  28.878  1.00  0.00     0.031 A 
ATOM     38  C   UNL A   1      40.632  26.256  28.521  1.00  0.00     0.074 A 
ATOM     39  C   UNL A   1      41.483  28.479  29.102  1.00  0.00     0.049 A 
ATOM     40  N   UNL A   1      41.635  25.551  28.922  1.00  0.00    -0.248 NA
ATOM     41  C   UNL A   1      39.699  25.510  27.687  1.00  0.00     0.031 C 
ATOM     42  C   UNL A   1      42.898  28.176  28.904  1.00  0.00     0.029 A 
ATOM     43  N   UNL A   1      41.482  29.718  29.764  1.00  0.00    -0.354 N 
ATOM     44  C   UNL A   1      41.634  24.378  28.204  1.00  0.00     0.074 A 
ATOM     45  C   UNL A   1      40.375  24.374  27.495  1.00  0.00     0.031 C 
ATOM     46  C   UNL A   1      43.625  29.000  29.678  1.00  0.00     0.029 A 
ATOM     47  C   UNL A   1      42.687  29.742  30.503  1.00  0.00     0.049 A 
ATOM     48  H   UNL A   1      40.791  30.419  29.722  1.00  0.00     0.167 HD
ATOM     49  C   UNL A   1      42.762  23.610  28.179  1.00  0.00     0.037 A 
ATOM     50  C   UNL A   1      42.682  29.755  31.867  1.00  0.00     0.037 A 
ATOM     51  C   UNL A   1      43.816  24.198  29.001  1.00  0.00     0.049 A 
ATOM     52  C   UNL A   1      43.438  28.605  32.489  1.00  0.00     0.074 A 
ATOM     53  C   UNL A   1      44.904  24.997  28.687  1.00  0.00     0.029 A 
ATOM     54  N   UNL A   1      43.657  24.272  30.380  1.00  0.00    -0.354 N 
ATOM     55  N   UNL A   1      43.671  27.475  31.883  1.00  0.00    -0.248 NA
ATOM     56  C   UNL A   1      43.954  28.628  33.853  1.00  0.00     0.031 C 
ATOM     57  C   UNL A   1      45.385  25.578  29.884  1.00  0.00     0.029 A 
ATOM     58  C   UNL A   1      44.600  25.120  30.928  1.00  0.00     0.049 A 
ATOM     59  H   UNL A   1      42.971  23.788  30.894  1.00  0.00     0.167 HD
ATOM     60  C   UNL A   1      44.329  26.627  32.738  1.00  0.00     0.074 A 
ATOM     61  C   UNL A   1      44.501  27.404  33.950  1.00  0.00     0.031 C 
ATOM     62  C   UNL A   1      44.660  25.353  32.363  1.00  0.00     0.037 A 
BRANCH  49  63
ATOM     63  C   UNL A   1      43.005  22.509  27.171  1.00  0.00     0.064 A 
ATOM     64  C   UNL A   1      42.290  21.293  27.235  1.00  0.00     0.173 A 
ATOM     65  C   UNL A   1      43.966  22.574  26.147  1.00  0.00     0.173 A 
ATOM     66  F   UNL A   1      41.263  21.123  28.076  1.00  0.00    -0.203 F 
ATOM     67  C   UNL A   1      42.608  20.192  26.435  1.00  0.00     0.198 A 
ATOM     68  C   UNL A   1      44.323  21.457  25.383  1.00  0.00     0.198 A 
ATOM     69  F   UNL A   1      44.555  23.733  25.822  1.00  0.00    -0.203 F 
ATOM     70  F   UNL A   1      41.903  19.058  26.554  1.00  0.00    -0.200 F 
ATOM     71  C   UNL A   1      43.653  20.260  25.538  1.00  0.00     0.200 A 
ATOM     72  F   UNL A   1      45.324  21.550  24.496  1.00  0.00    -0.200 F 
ATOM     73  F   UNL A   1      43.995  19.189  24.809  1.00  0.00    -0.200 F 
ENDBRANCH  49  63
BRANCH  50  74
ATOM     74  C   UNL A   1      41.451  30.365  32.446  1.00  0.00     0.064 A 
ATOM     75  C   UNL A   1      41.260  31.756  32.317  1.00  0.00     0.173 A 
ATOM     76  C   UNL A   1      40.334  29.589  32.777  1.00  0.00     0.173 A 
ATOM     77  F   UNL A   1      42.296  32.550  32.000  1.00  0.00    -0.203 F 
ATOM     78  C   UNL A   1      39.990  32.322  32.387  1.00  0.00     0.198 A 
ATOM     79  C   UNL A   1      39.066  30.166  32.868  1.00  0.00     0.198 A 
ATOM     80  F   UNL A   1      40.444  28.260  32.906  1.00  0.00    -0.203 F 
ATOM     81  F   UNL A   1      39.825  33.628  32.137  1.00  0.00    -0.200 F 
ATOM     82  C   UNL A   1      38.890  31.522  32.637  1.00  0.00     0.200 A 
ATOM     83  F   UNL A   1      37.995  29.388  33.086  1.00  0.00    -0.200 F 
ATOM     84  F   UNL A   1      37.658  32.050  32.616  1.00  0.00    -0.200 F 
ENDBRANCH  50  74
BRANCH  62  85
ATOM     85  C   UNL A   1      45.158  24.234  33.255  1.00  0.00     0.064 A 
ATOM     86  C   UNL A   1      44.403  23.106  33.614  1.00  0.00     0.173 A 
ATOM     87  C   UNL A   1      46.517  24.202  33.670  1.00  0.00     0.173 A 
ATOM     88  F   UNL A   1      43.146  22.939  33.186  1.00  0.00    -0.203 F 
ATOM     89  C   UNL A   1      44.940  22.064  34.379  1.00  0.00     0.198 A 
ATOM     90  C   UNL A   1      47.065  23.131  34.376  1.00  0.00     0.198 A 
ATOM     91  F   UNL A   1      47.368  25.195  33.378  1.00  0.00    -0.203 F 
ATOM     92  F   UNL A   1      44.160  21.033  34.731  1.00  0.00    -0.200 F 
ATOM     93  C   UNL A   1      46.272  22.069  34.747  1.00  0.00     0.200 A 
ATOM     94  F   UNL A   1      48.372  23.131  34.673  1.00  0.00    -0.200 F 
ATOM     95  F   UNL A   1      46.792  21.045  35.434  1.00  0.00    -0.200 F 
ENDBRANCH  62  85
ENDBRANCH  36  37
ENDBRANCH  28  31
ENDBRANCH  26  27
ENDBRANCH  25  26
ENDBRANCH   1  25
TORSDOF 15
ENDMDL
