MODEL 1
REMARK VINA RESULT:     -12.4      0.000      0.000
REMARK SMILES CC[C@H]1CC[C@@](C(=O)NCCCCNC(=O)c2ccc(-c3c4nc(c(-c5c(F)c(F)c(F)c(F)c5F)c5ccc([nH]5)c(-c5c(F)c(F)c(F)c(F)c5F)c5nc(c(-c6c(F)c(F)c(F)c(F)c6F)c6ccc3[nH]6)C=C5)C=C4)cc2)(C2CCCC2)C1
REMARK SMILES IDX 12 1 11 2 10 3 9 4 7 5 8 6 6 8 3 9 4 10 85 11 5 12 2 13 1 14
REMARK SMILES IDX 80 15 81 16 84 17 82 18 83 19 13 20 14 21 15 22 16 24 17 25
REMARK SMILES IDX 18 26 79 27 19 28 78 29 20 30 21 31 22 32 72 33 23 34 77 35
REMARK SMILES IDX 71 36 73 37 24 38 76 39 70 40 69 41 25 43 57 44 37 45 56 46
REMARK SMILES IDX 38 47 41 48 55 49 74 50 39 51 40 52 54 54 75 55 42 56 26 57
REMARK SMILES IDX 27 58 35 59 28 60 29 61 33 62 36 63 30 64 31 65 34 66 32 67
REMARK SMILES IDX 58 68 59 69 67 70 60 71 61 72 65 73 68 74 62 75 63 76 66 77
REMARK SMILES IDX 64 78 43 79 44 80 52 81 45 82 46 83 50 84 53 85 47 86 48 87
REMARK SMILES IDX 51 88 49 89
REMARK H PARENT 9 7 14 23 73 42 41 53
REMARK Flexibility Score: inf
ROOT
ATOM      1  C   UNL A   1      31.467  31.848  27.017  1.00  0.00     0.023 C 
ENDROOT
BRANCH   1   2
ATOM      2  C   UNL A   1      31.611  30.863  25.855  1.00  0.00     0.023 C 
BRANCH   2   3
ATOM      3  C   UNL A   1      32.811  29.925  25.955  1.00  0.00     0.116 C 
BRANCH   3   4
ATOM      4  N   UNL A   1      33.451  29.716  24.676  1.00  0.00    -0.356 N 
ATOM      5  C   UNL A   1      33.536  28.648  23.843  1.00  0.00     0.226 C 
ATOM      6  O   UNL A   1      34.116  28.886  22.778  1.00  0.00    -0.274 OA
ATOM      7  H   UNL A   1      33.923  30.513  24.340  1.00  0.00     0.163 HD
BRANCH   5   8
ATOM      8  C   UNL A   1      32.909  27.250  24.139  1.00  0.00     0.052 C 
ATOM      9  C   UNL A   1      34.172  25.382  25.249  1.00  0.00    -0.010 C 
ATOM     10  C   UNL A   1      33.993  25.034  23.773  1.00  0.00     0.005 C 
ATOM     11  C   UNL A   1      33.463  26.722  25.491  1.00  0.00     0.020 C 
ATOM     12  C   UNL A   1      33.274  26.188  23.086  1.00  0.00     0.017 C 
BRANCH   9  13
ATOM     13  C   UNL A   1      33.848  24.202  26.190  1.00  0.00     0.000 C 
ATOM     14  C   UNL A   1      32.395  23.991  26.580  1.00  0.00     0.004 C 
ENDBRANCH   9  13
BRANCH   8  15
ATOM     15  C   UNL A   1      31.348  27.458  24.219  1.00  0.00     0.004 C 
ATOM     16  C   UNL A   1      30.701  28.097  22.976  1.00  0.00     0.005 C 
ATOM     17  C   UNL A   1      30.495  26.197  24.404  1.00  0.00     0.005 C 
ATOM     18  C   UNL A   1      29.209  27.886  23.190  1.00  0.00     0.000 C 
ATOM     19  C   UNL A   1      29.085  26.573  23.951  1.00  0.00     0.000 C 
ENDBRANCH   8  15
ENDBRANCH   5   8
ENDBRANCH   3   4
ENDBRANCH   2   3
ENDBRANCH   1   2
BRANCH   1  20
ATOM     20  C   UNL A   1      32.694  32.708  27.305  1.00  0.00     0.116 C 
BRANCH  20  21
ATOM     21  N   UNL A   1      32.365  34.091  27.611  1.00  0.00    -0.352 N 
ATOM     22  C   UNL A   1      32.945  34.947  28.518  1.00  0.00     0.251 C 
ATOM     23  H   UNL A   1      31.618  34.471  27.094  1.00  0.00     0.163 HD
ATOM     24  O   UNL A   1      32.459  36.049  28.728  1.00  0.00    -0.269 OA
BRANCH  22  25
ATOM     25  C   UNL A   1      34.142  34.512  29.272  1.00  0.00     0.039 A 
ATOM     26  C   UNL A   1      33.970  33.973  30.550  1.00  0.00     0.014 A 
ATOM     27  C   UNL A   1      35.418  34.611  28.715  1.00  0.00     0.014 A 
ATOM     28  C   UNL A   1      35.071  33.453  31.234  1.00  0.00     0.010 A 
ATOM     29  C   UNL A   1      36.503  34.032  29.368  1.00  0.00     0.010 A 
ATOM     30  C   UNL A   1      36.338  33.436  30.628  1.00  0.00    -0.014 A 
BRANCH  30  31
ATOM     31  C   UNL A   1      37.492  32.766  31.279  1.00  0.00     0.031 A 
ATOM     32  C   UNL A   1      38.164  31.595  30.618  1.00  0.00     0.074 A 
ATOM     33  C   UNL A   1      37.878  33.159  32.508  1.00  0.00     0.049 A 
ATOM     34  N   UNL A   1      39.125  30.831  31.070  1.00  0.00    -0.248 NA
ATOM     35  C   UNL A   1      37.671  31.216  29.285  1.00  0.00     0.031 C 
ATOM     36  C   UNL A   1      37.267  34.243  33.280  1.00  0.00     0.029 A 
ATOM     37  N   UNL A   1      38.862  32.680  33.337  1.00  0.00    -0.354 N 
ATOM     38  C   UNL A   1      39.339  29.872  30.088  1.00  0.00     0.074 A 
ATOM     39  C   UNL A   1      38.379  30.125  29.035  1.00  0.00     0.031 C 
ATOM     40  C   UNL A   1      37.895  34.354  34.460  1.00  0.00     0.029 A 
ATOM     41  C   UNL A   1      38.928  33.326  34.547  1.00  0.00     0.049 A 
ATOM     42  H   UNL A   1      39.465  31.943  33.087  1.00  0.00     0.167 HD
ATOM     43  C   UNL A   1      40.265  28.884  30.061  1.00  0.00     0.037 A 
ATOM     44  C   UNL A   1      39.719  33.105  35.615  1.00  0.00     0.037 A 
ATOM     45  C   UNL A   1      41.240  28.658  31.097  1.00  0.00     0.049 A 
ATOM     46  C   UNL A   1      40.742  32.003  35.555  1.00  0.00     0.074 A 
ATOM     47  C   UNL A   1      42.277  27.743  31.118  1.00  0.00     0.029 A 
ATOM     48  N   UNL A   1      41.291  29.349  32.298  1.00  0.00    -0.354 N 
ATOM     49  N   UNL A   1      40.996  31.162  34.582  1.00  0.00    -0.248 NA
ATOM     50  C   UNL A   1      41.592  31.822  36.740  1.00  0.00     0.031 C 
ATOM     51  C   UNL A   1      42.925  27.844  32.353  1.00  0.00     0.029 A 
ATOM     52  C   UNL A   1      42.323  28.857  33.082  1.00  0.00     0.049 A 
ATOM     53  H   UNL A   1      40.684  30.081  32.557  1.00  0.00     0.167 HD
ATOM     54  C   UNL A   1      42.044  30.368  35.027  1.00  0.00     0.074 A 
ATOM     55  C   UNL A   1      42.394  30.841  36.350  1.00  0.00     0.031 C 
ATOM     56  C   UNL A   1      42.659  29.338  34.398  1.00  0.00     0.037 A 
BRANCH  43  57
ATOM     57  C   UNL A   1      40.275  27.969  28.873  1.00  0.00     0.064 A 
ATOM     58  C   UNL A   1      41.004  28.276  27.713  1.00  0.00     0.173 A 
ATOM     59  C   UNL A   1      39.594  26.743  28.914  1.00  0.00     0.173 A 
ATOM     60  F   UNL A   1      41.665  29.439  27.618  1.00  0.00    -0.203 F 
ATOM     61  C   UNL A   1      41.029  27.400  26.631  1.00  0.00     0.198 A 
ATOM     62  C   UNL A   1      39.646  25.857  27.842  1.00  0.00     0.198 A 
ATOM     63  F   UNL A   1      38.888  26.398  30.002  1.00  0.00    -0.203 F 
ATOM     64  F   UNL A   1      41.697  27.732  25.517  1.00  0.00    -0.200 F 
ATOM     65  C   UNL A   1      40.357  26.189  26.699  1.00  0.00     0.200 A 
ATOM     66  F   UNL A   1      39.008  24.680  27.915  1.00  0.00    -0.200 F 
ATOM     67  F   UNL A   1      40.393  25.342  25.661  1.00  0.00    -0.200 F 
ENDBRANCH  43  57
BRANCH  44  68
ATOM     68  C   UNL A   1      39.579  33.946  36.831  1.00  0.00     0.064 A 
ATOM     69  C   UNL A   1      38.796  33.523  37.914  1.00  0.00     0.173 A 
ATOM     70  C   UNL A   1      40.215  35.192  36.934  1.00  0.00     0.173 A 
ATOM     71  F   UNL A   1      38.151  32.349  37.856  1.00  0.00    -0.203 F 
ATOM     72  C   UNL A   1      38.636  34.324  39.044  1.00  0.00     0.198 A 
ATOM     73  C   UNL A   1      40.078  35.980  38.075  1.00  0.00     0.198 A 
ATOM     74  F   UNL A   1      40.979  35.641  35.927  1.00  0.00    -0.203 F 
ATOM     75  F   UNL A   1      37.843  33.916  40.044  1.00  0.00    -0.200 F 
ATOM     76  C   UNL A   1      39.281  35.548  39.125  1.00  0.00     0.200 A 
ATOM     77  F   UNL A   1      40.715  37.156  38.157  1.00  0.00    -0.200 F 
ATOM     78  F   UNL A   1      39.130  36.317  40.212  1.00  0.00    -0.200 F 
ENDBRANCH  44  68
BRANCH  56  79
ATOM     79  C   UNL A   1      43.786  28.662  35.123  1.00  0.00     0.064 A 
ATOM     80  C   UNL A   1      45.110  29.105  34.994  1.00  0.00     0.173 A 
ATOM     81  C   UNL A   1      43.533  27.588  35.987  1.00  0.00     0.173 A 
ATOM     82  F   UNL A   1      45.406  30.118  34.166  1.00  0.00    -0.203 F 
ATOM     83  C   UNL A   1      46.143  28.482  35.689  1.00  0.00     0.198 A 
ATOM     84  C   UNL A   1      44.564  26.987  36.704  1.00  0.00     0.198 A 
ATOM     85  F   UNL A   1      42.282  27.130  36.150  1.00  0.00    -0.203 F 
ATOM     86  F   UNL A   1      47.408  28.892  35.516  1.00  0.00    -0.200 F 
ATOM     87  C   UNL A   1      45.868  27.430  36.549  1.00  0.00     0.200 A 
ATOM     88  F   UNL A   1      44.295  25.978  37.545  1.00  0.00    -0.200 F 
ATOM     89  F   UNL A   1      46.863  26.837  37.224  1.00  0.00    -0.200 F 
ENDBRANCH  56  79
ENDBRANCH  30  31
ENDBRANCH  22  25
ENDBRANCH  20  21
ENDBRANCH   1  20
TORSDOF 13
ENDMDL
MODEL 2
REMARK VINA RESULT:     -12.4      0.217      1.644
REMARK SMILES CC[C@H]1CC[C@@](C(=O)NCCCCNC(=O)c2ccc(-c3c4nc(c(-c5c(F)c(F)c(F)c(F)c5F)c5ccc([nH]5)c(-c5c(F)c(F)c(F)c(F)c5F)c5nc(c(-c6c(F)c(F)c(F)c(F)c6F)c6ccc3[nH]6)C=C5)C=C4)cc2)(C2CCCC2)C1
REMARK SMILES IDX 12 1 11 2 10 3 9 4 7 5 8 6 6 8 3 9 4 10 85 11 5 12 2 13 1 14
REMARK SMILES IDX 80 15 81 16 84 17 82 18 83 19 13 20 14 21 15 22 16 24 17 25
REMARK SMILES IDX 18 26 79 27 19 28 78 29 20 30 21 31 22 32 72 33 23 34 77 35
REMARK SMILES IDX 71 36 73 37 24 38 76 39 70 40 69 41 25 43 57 44 37 45 56 46
REMARK SMILES IDX 38 47 41 48 55 49 74 50 39 51 40 52 54 54 75 55 42 56 26 57
REMARK SMILES IDX 27 58 35 59 28 60 29 61 33 62 36 63 30 64 31 65 34 66 32 67
REMARK SMILES IDX 58 68 59 69 67 70 60 71 61 72 65 73 68 74 62 75 63 76 66 77
REMARK SMILES IDX 64 78 43 79 44 80 52 81 45 82 46 83 50 84 53 85 47 86 48 87
REMARK SMILES IDX 51 88 49 89
REMARK H PARENT 9 7 14 23 73 42 41 53
REMARK Flexibility Score: inf
ROOT
ATOM      1  C   UNL A   1      31.674  31.790  26.635  1.00  0.00     0.023 C 
ENDROOT
BRANCH   1   2
ATOM      2  C   UNL A   1      31.753  30.269  26.777  1.00  0.00     0.023 C 
BRANCH   2   3
ATOM      3  C   UNL A   1      33.135  29.672  26.522  1.00  0.00     0.116 C 
BRANCH   3   4
ATOM      4  N   UNL A   1      33.493  29.696  25.122  1.00  0.00    -0.356 N 
ATOM      5  C   UNL A   1      33.381  28.788  24.120  1.00  0.00     0.226 C 
ATOM      6  O   UNL A   1      33.733  29.214  23.014  1.00  0.00    -0.274 OA
ATOM      7  H   UNL A   1      33.902  30.545  24.837  1.00  0.00     0.163 HD
BRANCH   5   8
ATOM      8  C   UNL A   1      32.801  27.350  24.295  1.00  0.00     0.052 C 
ATOM      9  C   UNL A   1      34.102  25.453  25.307  1.00  0.00    -0.010 C 
ATOM     10  C   UNL A   1      33.978  25.208  23.805  1.00  0.00     0.005 C 
ATOM     11  C   UNL A   1      33.336  26.745  25.623  1.00  0.00     0.020 C 
ATOM     12  C   UNL A   1      33.235  26.382  23.181  1.00  0.00     0.017 C 
BRANCH   9  13
ATOM     13  C   UNL A   1      33.797  24.198  26.151  1.00  0.00     0.000 C 
ATOM     14  C   UNL A   1      32.366  23.992  26.616  1.00  0.00     0.004 C 
ENDBRANCH   9  13
BRANCH   8  15
ATOM     15  C   UNL A   1      31.231  27.496  24.342  1.00  0.00     0.004 C 
ATOM     16  C   UNL A   1      30.588  28.135  23.097  1.00  0.00     0.005 C 
ATOM     17  C   UNL A   1      30.424  26.199  24.481  1.00  0.00     0.005 C 
ATOM     18  C   UNL A   1      29.101  27.862  23.271  1.00  0.00     0.000 C 
ATOM     19  C   UNL A   1      29.011  26.528  24.002  1.00  0.00     0.000 C 
ENDBRANCH   8  15
ENDBRANCH   5   8
ENDBRANCH   3   4
ENDBRANCH   2   3
ENDBRANCH   1   2
BRANCH   1  20
ATOM     20  C   UNL A   1      32.801  32.571  27.305  1.00  0.00     0.116 C 
BRANCH  20  21
ATOM     21  N   UNL A   1      32.441  33.947  27.610  1.00  0.00    -0.352 N 
ATOM     22  C   UNL A   1      32.989  34.809  28.531  1.00  0.00     0.251 C 
ATOM     23  H   UNL A   1      31.696  34.315  27.082  1.00  0.00     0.163 HD
ATOM     24  O   UNL A   1      32.478  35.902  28.736  1.00  0.00    -0.269 OA
BRANCH  22  25
ATOM     25  C   UNL A   1      34.179  34.394  29.305  1.00  0.00     0.039 A 
ATOM     26  C   UNL A   1      33.992  33.794  30.553  1.00  0.00     0.014 A 
ATOM     27  C   UNL A   1      35.467  34.570  28.794  1.00  0.00     0.014 A 
ATOM     28  C   UNL A   1      35.094  33.293  31.250  1.00  0.00     0.010 A 
ATOM     29  C   UNL A   1      36.555  34.011  29.457  1.00  0.00     0.010 A 
ATOM     30  C   UNL A   1      36.378  33.355  30.685  1.00  0.00    -0.014 A 
BRANCH  30  31
ATOM     31  C   UNL A   1      37.540  32.706  31.344  1.00  0.00     0.031 A 
ATOM     32  C   UNL A   1      38.229  31.540  30.696  1.00  0.00     0.074 A 
ATOM     33  C   UNL A   1      37.918  33.117  32.571  1.00  0.00     0.049 A 
ATOM     34  N   UNL A   1      39.200  30.793  31.157  1.00  0.00    -0.248 NA
ATOM     35  C   UNL A   1      37.744  31.141  29.365  1.00  0.00     0.031 C 
ATOM     36  C   UNL A   1      37.290  34.200  33.331  1.00  0.00     0.029 A 
ATOM     37  N   UNL A   1      38.907  32.659  33.405  1.00  0.00    -0.354 N 
ATOM     38  C   UNL A   1      39.429  29.828  30.185  1.00  0.00     0.074 A 
ATOM     39  C   UNL A   1      38.468  30.057  29.127  1.00  0.00     0.031 C 
ATOM     40  C   UNL A   1      37.915  34.331  34.511  1.00  0.00     0.029 A 
ATOM     41  C   UNL A   1      38.962  33.317  34.610  1.00  0.00     0.049 A 
ATOM     42  H   UNL A   1      39.521  31.928  33.163  1.00  0.00     0.167 HD
ATOM     43  C   UNL A   1      40.369  28.852  30.169  1.00  0.00     0.037 A 
ATOM     44  C   UNL A   1      39.754  33.118  35.681  1.00  0.00     0.037 A 
ATOM     45  C   UNL A   1      41.344  28.650  31.208  1.00  0.00     0.049 A 
ATOM     46  C   UNL A   1      40.792  32.030  35.633  1.00  0.00     0.074 A 
ATOM     47  C   UNL A   1      42.394  27.749  31.240  1.00  0.00     0.029 A 
ATOM     48  N   UNL A   1      41.384  29.352  32.403  1.00  0.00    -0.354 N 
ATOM     49  N   UNL A   1      41.059  31.183  34.669  1.00  0.00    -0.248 NA
ATOM     50  C   UNL A   1      41.642  31.872  36.822  1.00  0.00     0.031 C 
ATOM     51  C   UNL A   1      43.038  27.871  32.475  1.00  0.00     0.029 A 
ATOM     52  C   UNL A   1      42.421  28.882  33.193  1.00  0.00     0.049 A 
ATOM     53  H   UNL A   1      40.767  30.078  32.653  1.00  0.00     0.167 HD
ATOM     54  C   UNL A   1      42.117  30.408  35.124  1.00  0.00     0.074 A 
ATOM     55  C   UNL A   1      42.458  30.898  36.443  1.00  0.00     0.031 C 
ATOM     56  C   UNL A   1      42.748  29.380  34.505  1.00  0.00     0.037 A 
BRANCH  43  57
ATOM     57  C   UNL A   1      40.394  27.926  28.989  1.00  0.00     0.064 A 
ATOM     58  C   UNL A   1      39.644  26.739  28.967  1.00  0.00     0.173 A 
ATOM     59  C   UNL A   1      41.134  28.255  27.843  1.00  0.00     0.173 A 
ATOM     60  F   UNL A   1      38.927  26.374  30.041  1.00  0.00    -0.203 F 
ATOM     61  C   UNL A   1      39.654  25.907  27.852  1.00  0.00     0.198 A 
ATOM     62  C   UNL A   1      41.118  27.434  26.719  1.00  0.00     0.198 A 
ATOM     63  F   UNL A   1      41.863  29.381  27.809  1.00  0.00    -0.203 F 
ATOM     64  F   UNL A   1      38.964  24.758  27.869  1.00  0.00    -0.200 F 
ATOM     65  C   UNL A   1      40.384  26.258  26.726  1.00  0.00     0.200 A 
ATOM     66  F   UNL A   1      41.813  27.783  25.627  1.00  0.00    -0.200 F 
ATOM     67  F   UNL A   1      40.382  25.461  25.649  1.00  0.00    -0.200 F 
ENDBRANCH  43  57
BRANCH  44  68
ATOM     68  C   UNL A   1      39.600  33.969  36.889  1.00  0.00     0.064 A 
ATOM     69  C   UNL A   1      38.806  33.553  37.967  1.00  0.00     0.173 A 
ATOM     70  C   UNL A   1      40.233  35.217  36.989  1.00  0.00     0.173 A 
ATOM     71  F   UNL A   1      38.163  32.377  37.911  1.00  0.00    -0.203 F 
ATOM     72  C   UNL A   1      38.632  34.363  39.088  1.00  0.00     0.198 A 
ATOM     73  C   UNL A   1      40.083  36.013  38.122  1.00  0.00     0.198 A 
ATOM     74  F   UNL A   1      41.007  35.658  35.986  1.00  0.00    -0.203 F 
ATOM     75  F   UNL A   1      37.830  33.962  40.083  1.00  0.00    -0.200 F 
ATOM     76  C   UNL A   1      39.275  35.589  39.167  1.00  0.00     0.200 A 
ATOM     77  F   UNL A   1      40.717  37.190  38.200  1.00  0.00    -0.200 F 
ATOM     78  F   UNL A   1      39.111  36.366  40.246  1.00  0.00    -0.200 F 
ENDBRANCH  44  68
BRANCH  56  79
ATOM     79  C   UNL A   1      43.883  28.727  35.238  1.00  0.00     0.064 A 
ATOM     80  C   UNL A   1      43.673  27.632  36.088  1.00  0.00     0.173 A 
ATOM     81  C   UNL A   1      45.199  29.176  35.057  1.00  0.00     0.173 A 
ATOM     82  F   UNL A   1      42.430  27.176  36.308  1.00  0.00    -0.203 F 
ATOM     83  C   UNL A   1      44.738  27.023  36.746  1.00  0.00     0.198 A 
ATOM     84  C   UNL A   1      46.264  28.546  35.693  1.00  0.00     0.198 A 
ATOM     85  F   UNL A   1      45.454  30.218  34.250  1.00  0.00    -0.203 F 
ATOM     86  F   UNL A   1      44.509  26.006  37.589  1.00  0.00    -0.200 F 
ATOM     87  C   UNL A   1      46.033  27.475  36.542  1.00  0.00     0.200 A 
ATOM     88  F   UNL A   1      47.517  28.977  35.484  1.00  0.00    -0.200 F 
ATOM     89  F   UNL A   1      47.057  26.882  37.169  1.00  0.00    -0.200 F 
ENDBRANCH  56  79
ENDBRANCH  30  31
ENDBRANCH  22  25
ENDBRANCH  20  21
ENDBRANCH   1  20
TORSDOF 13
ENDMDL
MODEL 3
REMARK VINA RESULT:     -12.3      0.646      2.280
REMARK SMILES CC[C@H]1CC[C@@](C(=O)NCCCCNC(=O)c2ccc(-c3c4nc(c(-c5c(F)c(F)c(F)c(F)c5F)c5ccc([nH]5)c(-c5c(F)c(F)c(F)c(F)c5F)c5nc(c(-c6c(F)c(F)c(F)c(F)c6F)c6ccc3[nH]6)C=C5)C=C4)cc2)(C2CCCC2)C1
REMARK SMILES IDX 12 1 11 2 10 3 9 4 7 5 8 6 6 8 3 9 4 10 85 11 5 12 2 13 1 14
REMARK SMILES IDX 80 15 81 16 84 17 82 18 83 19 13 20 14 21 15 22 16 24 17 25
REMARK SMILES IDX 18 26 79 27 19 28 78 29 20 30 21 31 22 32 72 33 23 34 77 35
REMARK SMILES IDX 71 36 73 37 24 38 76 39 70 40 69 41 25 43 57 44 37 45 56 46
REMARK SMILES IDX 38 47 41 48 55 49 74 50 39 51 40 52 54 54 75 55 42 56 26 57
REMARK SMILES IDX 27 58 35 59 28 60 29 61 33 62 36 63 30 64 31 65 34 66 32 67
REMARK SMILES IDX 58 68 59 69 67 70 60 71 61 72 65 73 68 74 62 75 63 76 66 77
REMARK SMILES IDX 64 78 43 79 44 80 52 81 45 82 46 83 50 84 53 85 47 86 48 87
REMARK SMILES IDX 51 88 49 89
REMARK H PARENT 9 7 14 23 73 42 41 53
REMARK Flexibility Score: inf
ROOT
ATOM      1  C   UNL A   1      31.562  31.990  26.670  1.00  0.00     0.023 C 
ENDROOT
BRANCH   1   2
ATOM      2  C   UNL A   1      31.802  30.494  26.461  1.00  0.00     0.023 C 
BRANCH   2   3
ATOM      3  C   UNL A   1      31.448  29.975  25.070  1.00  0.00     0.116 C 
BRANCH   3   4
ATOM      4  N   UNL A   1      32.621  29.633  24.298  1.00  0.00    -0.356 N 
ATOM      5  C   UNL A   1      33.328  28.485  24.143  1.00  0.00     0.226 C 
ATOM      6  O   UNL A   1      34.244  28.566  23.317  1.00  0.00    -0.274 OA
ATOM      7  H   UNL A   1      32.981  30.387  23.778  1.00  0.00     0.163 HD
BRANCH   5   8
ATOM      8  C   UNL A   1      33.001  27.145  24.874  1.00  0.00     0.052 C 
ATOM      9  C   UNL A   1      30.746  26.622  25.850  1.00  0.00    -0.010 C 
ATOM     10  C   UNL A   1      31.719  26.889  26.996  1.00  0.00     0.005 C 
ATOM     11  C   UNL A   1      31.542  26.729  24.542  1.00  0.00     0.020 C 
ATOM     12  C   UNL A   1      33.074  27.258  26.407  1.00  0.00     0.017 C 
BRANCH   9  13
ATOM     13  C   UNL A   1      29.877  25.367  26.077  1.00  0.00     0.000 C 
ATOM     14  C   UNL A   1      30.575  24.018  26.087  1.00  0.00     0.004 C 
ENDBRANCH   9  13
BRANCH   8  15
ATOM     15  C   UNL A   1      34.023  26.071  24.333  1.00  0.00     0.004 C 
ATOM     16  C   UNL A   1      34.559  25.081  25.384  1.00  0.00     0.005 C 
ATOM     17  C   UNL A   1      33.512  25.124  23.241  1.00  0.00     0.005 C 
ATOM     18  C   UNL A   1      35.242  24.002  24.555  1.00  0.00     0.000 C 
ATOM     19  C   UNL A   1      34.449  23.917  23.258  1.00  0.00     0.000 C 
ENDBRANCH   8  15
ENDBRANCH   5   8
ENDBRANCH   3   4
ENDBRANCH   2   3
ENDBRANCH   1   2
BRANCH   1  20
ATOM     20  C   UNL A   1      32.710  32.756  27.321  1.00  0.00     0.116 C 
BRANCH  20  21
ATOM     21  N   UNL A   1      32.371  34.135  27.636  1.00  0.00    -0.352 N 
ATOM     22  C   UNL A   1      32.942  34.986  28.554  1.00  0.00     0.251 C 
ATOM     23  H   UNL A   1      31.626  34.515  27.118  1.00  0.00     0.163 HD
ATOM     24  O   UNL A   1      32.449  36.084  28.770  1.00  0.00    -0.269 OA
BRANCH  22  25
ATOM     25  C   UNL A   1      34.136  34.551  29.311  1.00  0.00     0.039 A 
ATOM     26  C   UNL A   1      33.963  34.040  30.600  1.00  0.00     0.014 A 
ATOM     27  C   UNL A   1      35.411  34.622  28.747  1.00  0.00     0.014 A 
ATOM     28  C   UNL A   1      35.061  33.520  31.290  1.00  0.00     0.010 A 
ATOM     29  C   UNL A   1      36.492  34.043  29.407  1.00  0.00     0.010 A 
ATOM     30  C   UNL A   1      36.325  33.475  30.679  1.00  0.00    -0.014 A 
BRANCH  30  31
ATOM     31  C   UNL A   1      37.473  32.802  31.338  1.00  0.00     0.031 A 
ATOM     32  C   UNL A   1      38.135  31.619  30.692  1.00  0.00     0.074 A 
ATOM     33  C   UNL A   1      37.862  33.207  32.563  1.00  0.00     0.049 A 
ATOM     34  N   UNL A   1      39.091  30.852  31.153  1.00  0.00    -0.248 NA
ATOM     35  C   UNL A   1      37.640  31.228  29.363  1.00  0.00     0.031 C 
ATOM     36  C   UNL A   1      37.259  34.305  33.321  1.00  0.00     0.029 A 
ATOM     37  N   UNL A   1      38.842  32.729  33.397  1.00  0.00    -0.354 N 
ATOM     38  C   UNL A   1      39.297  29.880  30.183  1.00  0.00     0.074 A 
ATOM     39  C   UNL A   1      38.339  30.128  29.126  1.00  0.00     0.031 C 
ATOM     40  C   UNL A   1      37.889  34.425  34.500  1.00  0.00     0.029 A 
ATOM     41  C   UNL A   1      38.913  33.389  34.600  1.00  0.00     0.049 A 
ATOM     42  H   UNL A   1      39.439  31.985  33.156  1.00  0.00     0.167 HD
ATOM     43  C   UNL A   1      40.215  28.884  30.167  1.00  0.00     0.037 A 
ATOM     44  C   UNL A   1      39.702  33.174  35.670  1.00  0.00     0.037 A 
ATOM     45  C   UNL A   1      41.187  28.662  31.206  1.00  0.00     0.049 A 
ATOM     46  C   UNL A   1      40.716  32.064  35.624  1.00  0.00     0.074 A 
ATOM     47  C   UNL A   1      42.217  27.739  31.238  1.00  0.00     0.029 A 
ATOM     48  N   UNL A   1      41.244  29.367  32.399  1.00  0.00    -0.354 N 
ATOM     49  N   UNL A   1      40.963  31.209  34.661  1.00  0.00    -0.248 NA
ATOM     50  C   UNL A   1      41.564  31.890  36.811  1.00  0.00     0.031 C 
ATOM     51  C   UNL A   1      42.865  27.850  32.472  1.00  0.00     0.029 A 
ATOM     52  C   UNL A   1      42.272  28.876  33.189  1.00  0.00     0.049 A 
ATOM     53  H   UNL A   1      40.643  30.106  32.648  1.00  0.00     0.167 HD
ATOM     54  C   UNL A   1      42.004  30.412  35.116  1.00  0.00     0.074 A 
ATOM     55  C   UNL A   1      42.358  30.898  36.433  1.00  0.00     0.031 C 
ATOM     56  C   UNL A   1      42.612  29.369  34.499  1.00  0.00     0.037 A 
BRANCH  43  57
ATOM     57  C   UNL A   1      40.218  27.954  28.990  1.00  0.00     0.064 A 
ATOM     58  C   UNL A   1      40.953  28.239  27.828  1.00  0.00     0.173 A 
ATOM     59  C   UNL A   1      39.523  26.737  29.043  1.00  0.00     0.173 A 
ATOM     60  F   UNL A   1      41.628  29.394  27.722  1.00  0.00    -0.203 F 
ATOM     61  C   UNL A   1      40.971  27.351  26.757  1.00  0.00     0.198 A 
ATOM     62  C   UNL A   1      39.567  25.838  27.982  1.00  0.00     0.198 A 
ATOM     63  F   UNL A   1      38.809  26.413  30.133  1.00  0.00    -0.203 F 
ATOM     64  F   UNL A   1      41.646  27.662  25.642  1.00  0.00    -0.200 F 
ATOM     65  C   UNL A   1      40.285  26.148  26.837  1.00  0.00     0.200 A 
ATOM     66  F   UNL A   1      38.915  24.670  28.067  1.00  0.00    -0.200 F 
ATOM     67  F   UNL A   1      40.315  25.289  25.810  1.00  0.00    -0.200 F 
ENDBRANCH  43  57
BRANCH  44  68
ATOM     68  C   UNL A   1      39.568  34.031  36.877  1.00  0.00     0.064 A 
ATOM     69  C   UNL A   1      40.231  35.264  36.962  1.00  0.00     0.173 A 
ATOM     70  C   UNL A   1      38.786  33.635  37.971  1.00  0.00     0.173 A 
ATOM     71  F   UNL A   1      41.008  35.678  35.950  1.00  0.00    -0.203 F 
ATOM     72  C   UNL A   1      40.135  36.056  38.105  1.00  0.00     0.198 A 
ATOM     73  C   UNL A   1      38.666  34.441  39.101  1.00  0.00     0.198 A 
ATOM     74  F   UNL A   1      38.127  32.467  37.938  1.00  0.00    -0.203 F 
ATOM     75  F   UNL A   1      40.818  37.206  38.179  1.00  0.00    -0.200 F 
ATOM     76  C   UNL A   1      39.349  35.646  39.171  1.00  0.00     0.200 A 
ATOM     77  F   UNL A   1      37.894  34.048  40.124  1.00  0.00    -0.200 F 
ATOM     78  F   UNL A   1      39.254  36.409  40.268  1.00  0.00    -0.200 F 
ENDBRANCH  44  68
BRANCH  56  79
ATOM     79  C   UNL A   1      43.733  28.694  35.232  1.00  0.00     0.064 A 
ATOM     80  C   UNL A   1      43.494  27.644  36.130  1.00  0.00     0.173 A 
ATOM     81  C   UNL A   1      45.063  29.072  35.003  1.00  0.00     0.173 A 
ATOM     82  F   UNL A   1      42.237  27.256  36.396  1.00  0.00    -0.203 F 
ATOM     83  C   UNL A   1      44.545  27.011  36.788  1.00  0.00     0.198 A 
ATOM     84  C   UNL A   1      46.114  28.419  35.639  1.00  0.00     0.198 A 
ATOM     85  F   UNL A   1      45.346  30.069  34.149  1.00  0.00    -0.203 F 
ATOM     86  F   UNL A   1      44.291  26.041  37.676  1.00  0.00    -0.200 F 
ATOM     87  C   UNL A   1      45.854  27.394  36.536  1.00  0.00     0.200 A 
ATOM     88  F   UNL A   1      47.380  28.781  35.385  1.00  0.00    -0.200 F 
ATOM     89  F   UNL A   1      46.866  26.779  37.164  1.00  0.00    -0.200 F 
ENDBRANCH  56  79
ENDBRANCH  30  31
ENDBRANCH  22  25
ENDBRANCH  20  21
ENDBRANCH   1  20
TORSDOF 13
ENDMDL
