MODEL 1
REMARK VINA RESULT:     -15.1      0.000      0.000
REMARK SMILES Cc1ccc(-c2c(C)sc(NC(=O)[C@H]3CC=CC[C@H]3C(=O)NCCCCNC(=O)c3ccc(-c4c5nc(c(-c6c(F)c(F)c(F)c(F)c6F)c6ccc([nH]6)c(-c6c(F)c(F)c(F)c(F)c6F)c6nc(c(-c7c(F)c(F)c(F)c(F)c7F)c7ccc4[nH]7)C=C6)C=C5)cc3)c2C(N)=O)cc1
REMARK SMILES IDX 24 1 23 2 22 3 20 4 21 5 19 7 14 8 15 9 16 10 18 11 17 12
REMARK SMILES IDX 12 13 11 14 13 16 10 17 6 18 7 19 93 20 8 21 9 22 5 23 1 24
REMARK SMILES IDX 2 25 3 26 98 27 4 28 97 29 94 30 95 31 96 32 25 35 26 36
REMARK SMILES IDX 27 37 28 38 29 40 30 41 31 42 92 43 32 44 91 45 33 46 34 47
REMARK SMILES IDX 35 48 85 49 36 50 90 51 84 52 86 53 37 54 89 55 83 56 82 57
REMARK SMILES IDX 38 59 70 60 50 61 69 62 51 63 54 64 68 65 87 66 52 67 53 68
REMARK SMILES IDX 67 70 88 71 55 72 39 73 40 74 48 75 41 76 42 77 46 78 49 79
REMARK SMILES IDX 43 80 44 81 47 82 45 83 71 84 72 85 80 86 73 87 74 88 78 89
REMARK SMILES IDX 81 90 75 91 76 92 79 93 77 94 56 95 57 96 65 97 58 98 59 99
REMARK SMILES IDX 63 100 66 101 60 102 61 103 64 104 62 105
REMARK H PARENT 22 6 11 15 95 33 95 34 27 39 86 58 54 69
REMARK Flexibility Score: inf
ROOT
ATOM      1  C   UNL A   1      37.155  21.350  24.723  1.00  0.00     0.023 C 
ENDROOT
BRANCH   1   2
ATOM      2  C   UNL A   1      35.906  21.413  25.612  1.00  0.00     0.116 C 
BRANCH   2   3
ATOM      3  N   UNL A   1      35.036  20.300  25.354  1.00  0.00    -0.356 N 
ATOM      4  C   UNL A   1      33.711  20.255  25.108  1.00  0.00     0.224 C 
ATOM      5  O   UNL A   1      33.197  19.131  25.176  1.00  0.00    -0.275 OA
ATOM      6  H   UNL A   1      35.481  19.422  25.358  1.00  0.00     0.163 HD
BRANCH   4   7
ATOM      7  C   UNL A   1      32.868  21.449  24.678  1.00  0.00     0.095 C 
ATOM      8  C   UNL A   1      32.256  22.440  25.687  1.00  0.00     0.095 C 
ATOM      9  C   UNL A   1      30.979  23.038  25.057  1.00  0.00     0.041 C 
ATOM     10  C   UNL A   1      31.062  23.240  23.557  1.00  0.00    -0.030 C 
ATOM     11  C   UNL A   1      33.285  22.096  23.364  1.00  0.00     0.041 C 
ATOM     12  C   UNL A   1      32.118  22.870  22.807  1.00  0.00    -0.030 C 
BRANCH   8  13
ATOM     13  C   UNL A   1      33.099  23.452  26.515  1.00  0.00     0.229 C 
ATOM     14  N   UNL A   1      33.650  24.642  26.134  1.00  0.00    -0.317 N 
ATOM     15  H   UNL A   1      34.545  24.807  26.508  1.00  0.00     0.170 HD
ATOM     16  O   UNL A   1      33.408  23.111  27.672  1.00  0.00    -0.274 OA
BRANCH  14  17
ATOM     17  C   UNL A   1      33.184  25.658  25.324  1.00  0.00     0.109 A 
ATOM     18  C   UNL A   1      32.027  27.409  24.292  1.00  0.00     0.010 A 
ATOM     19  C   UNL A   1      33.088  27.191  23.426  1.00  0.00     0.012 A 
ATOM     20  C   UNL A   1      32.059  26.479  25.426  1.00  0.00     0.082 A 
ATOM     21  C   UNL A   1      33.627  27.988  22.285  1.00  0.00     0.057 C 
ATOM     22  S   UNL A   1      33.731  25.653  23.720  1.00  0.00    -0.122 S 
BRANCH  18  23
ATOM     23  C   UNL A   1      31.032  28.427  23.964  1.00  0.00    -0.016 A 
ATOM     24  C   UNL A   1      28.121  31.517  23.205  1.00  0.00     0.044 C 
ATOM     25  C   UNL A   1      29.125  30.438  23.480  1.00  0.00    -0.051 A 
ATOM     26  C   UNL A   1      29.043  29.199  22.825  1.00  0.00     0.004 A 
ATOM     27  C   UNL A   1      30.177  30.668  24.368  1.00  0.00     0.004 A 
ATOM     28  C   UNL A   1      29.988  28.195  23.069  1.00  0.00     0.009 A 
ATOM     29  C   UNL A   1      31.126  29.676  24.598  1.00  0.00     0.009 A 
ENDBRANCH  18  23
BRANCH  20  30
ATOM     30  C   UNL A   1      31.024  26.435  26.468  1.00  0.00     0.252 C 
ATOM     31  N   UNL A   1      31.108  27.362  27.475  1.00  0.00    -0.365 N 
ATOM     32  O   UNL A   1      30.116  25.628  26.490  1.00  0.00    -0.269 OA
ATOM     33  H   UNL A   1      31.836  28.025  27.476  1.00  0.00     0.159 HD
ATOM     34  H   UNL A   1      30.439  27.365  28.198  1.00  0.00     0.159 HD
ENDBRANCH  20  30
ENDBRANCH  14  17
ENDBRANCH   8  13
ENDBRANCH   4   7
ENDBRANCH   2   3
ENDBRANCH   1   2
BRANCH   1  35
ATOM     35  C   UNL A   1      38.502  21.376  25.446  1.00  0.00     0.023 C 
BRANCH  35  36
ATOM     36  C   UNL A   1      38.836  22.709  26.080  1.00  0.00     0.116 C 
BRANCH  36  37
ATOM     37  N   UNL A   1      40.198  22.834  26.570  1.00  0.00    -0.352 N 
ATOM     38  C   UNL A   1      40.913  23.970  26.909  1.00  0.00     0.251 C 
ATOM     39  H   UNL A   1      40.685  21.985  26.677  1.00  0.00     0.163 HD
ATOM     40  O   UNL A   1      42.115  23.874  27.137  1.00  0.00    -0.269 OA
BRANCH  38  41
ATOM     41  C   UNL A   1      40.214  25.258  27.167  1.00  0.00     0.039 A 
ATOM     42  C   UNL A   1      40.585  26.366  26.390  1.00  0.00     0.014 A 
ATOM     43  C   UNL A   1      39.417  25.451  28.288  1.00  0.00     0.014 A 
ATOM     44  C   UNL A   1      40.419  27.650  26.900  1.00  0.00     0.010 A 
ATOM     45  C   UNL A   1      39.382  26.698  28.866  1.00  0.00     0.010 A 
ATOM     46  C   UNL A   1      39.953  27.784  28.202  1.00  0.00    -0.014 A 
BRANCH  46  47
ATOM     47  C   UNL A   1      40.060  28.996  28.996  1.00  0.00     0.031 A 
ATOM     48  C   UNL A   1      39.025  30.032  28.881  1.00  0.00     0.074 A 
ATOM     49  C   UNL A   1      41.007  29.061  29.957  1.00  0.00     0.049 A 
ATOM     50  N   UNL A   1      39.138  31.228  29.344  1.00  0.00    -0.248 NA
ATOM     51  C   UNL A   1      37.771  29.798  28.181  1.00  0.00     0.031 C 
ATOM     52  C   UNL A   1      41.098  29.999  31.073  1.00  0.00     0.029 A 
ATOM     53  N   UNL A   1      42.239  28.386  29.973  1.00  0.00    -0.354 N 
ATOM     54  C   UNL A   1      37.904  31.831  29.258  1.00  0.00     0.074 A 
ATOM     55  C   UNL A   1      37.114  30.929  28.453  1.00  0.00     0.031 C 
ATOM     56  C   UNL A   1      42.383  30.080  31.458  1.00  0.00     0.029 A 
ATOM     57  C   UNL A   1      43.159  29.336  30.481  1.00  0.00     0.049 A 
ATOM     58  H   UNL A   1      42.421  27.460  29.693  1.00  0.00     0.167 HD
ATOM     59  C   UNL A   1      37.685  32.963  29.987  1.00  0.00     0.037 A 
ATOM     60  C   UNL A   1      44.114  29.871  29.663  1.00  0.00     0.037 A 
ATOM     61  C   UNL A   1      38.931  33.432  30.608  1.00  0.00     0.049 A 
ATOM     62  C   UNL A   1      44.046  31.379  29.508  1.00  0.00     0.074 A 
ATOM     63  C   UNL A   1      39.479  33.367  31.878  1.00  0.00     0.029 A 
ATOM     64  N   UNL A   1      39.965  33.822  29.775  1.00  0.00    -0.354 N 
ATOM     65  N   UNL A   1      43.075  32.129  29.950  1.00  0.00    -0.248 NA
ATOM     66  C   UNL A   1      45.024  32.136  28.727  1.00  0.00     0.031 C 
ATOM     67  C   UNL A   1      40.858  33.729  31.789  1.00  0.00     0.029 A 
ATOM     68  C   UNL A   1      41.142  34.024  30.469  1.00  0.00     0.049 A 
ATOM     69  H   UNL A   1      39.873  33.941  28.802  1.00  0.00     0.167 HD
ATOM     70  C   UNL A   1      43.239  33.408  29.486  1.00  0.00     0.074 A 
ATOM     71  C   UNL A   1      44.468  33.359  28.715  1.00  0.00     0.031 C 
ATOM     72  C   UNL A   1      42.332  34.401  29.720  1.00  0.00     0.037 A 
BRANCH  59  73
ATOM     73  C   UNL A   1      36.321  33.535  30.330  1.00  0.00     0.064 A 
ATOM     74  C   UNL A   1      35.487  34.047  29.310  1.00  0.00     0.173 A 
ATOM     75  C   UNL A   1      35.792  33.678  31.628  1.00  0.00     0.173 A 
ATOM     76  F   UNL A   1      35.789  33.895  28.014  1.00  0.00    -0.203 F 
ATOM     77  C   UNL A   1      34.301  34.740  29.579  1.00  0.00     0.198 A 
ATOM     78  C   UNL A   1      34.632  34.410  31.902  1.00  0.00     0.198 A 
ATOM     79  F   UNL A   1      36.326  33.060  32.682  1.00  0.00    -0.203 F 
ATOM     80  F   UNL A   1      33.564  35.211  28.564  1.00  0.00    -0.200 F 
ATOM     81  C   UNL A   1      33.891  34.952  30.877  1.00  0.00     0.200 A 
ATOM     82  F   UNL A   1      34.237  34.573  33.174  1.00  0.00    -0.200 F 
ATOM     83  F   UNL A   1      32.776  35.647  31.138  1.00  0.00    -0.200 F 
ENDBRANCH  59  73
BRANCH  60  84
ATOM     84  C   UNL A   1      44.534  28.935  28.577  1.00  0.00     0.064 A 
ATOM     85  C   UNL A   1      45.271  27.786  28.926  1.00  0.00     0.173 A 
ATOM     86  C   UNL A   1      43.924  28.948  27.317  1.00  0.00     0.173 A 
ATOM     87  F   UNL A   1      45.854  27.707  30.133  1.00  0.00    -0.203 F 
ATOM     88  C   UNL A   1      45.280  26.653  28.117  1.00  0.00     0.198 A 
ATOM     89  C   UNL A   1      43.970  27.825  26.489  1.00  0.00     0.198 A 
ATOM     90  F   UNL A   1      43.176  29.992  26.932  1.00  0.00    -0.203 F 
ATOM     91  F   UNL A   1      45.844  25.520  28.564  1.00  0.00    -0.200 F 
ATOM     92  C   UNL A   1      44.613  26.669  26.905  1.00  0.00     0.200 A 
ATOM     93  F   UNL A   1      43.285  27.826  25.337  1.00  0.00    -0.200 F 
ATOM     94  F   UNL A   1      44.533  25.554  26.166  1.00  0.00    -0.200 F 
ENDBRANCH  60  84
BRANCH  72  95
ATOM     95  C   UNL A   1      42.476  35.810  29.201  1.00  0.00     0.064 A 
ATOM     96  C   UNL A   1      41.895  36.240  27.998  1.00  0.00     0.173 A 
ATOM     97  C   UNL A   1      43.279  36.766  29.865  1.00  0.00     0.173 A 
ATOM     98  F   UNL A   1      41.206  35.389  27.223  1.00  0.00    -0.203 F 
ATOM     99  C   UNL A   1      42.024  37.556  27.545  1.00  0.00     0.198 A 
ATOM    100  C   UNL A   1      43.456  38.060  29.380  1.00  0.00     0.198 A 
ATOM    101  F   UNL A   1      43.899  36.489  31.020  1.00  0.00    -0.203 F 
ATOM    102  F   UNL A   1      41.385  37.940  26.431  1.00  0.00    -0.200 F 
ATOM    103  C   UNL A   1      42.807  38.463  28.233  1.00  0.00     0.200 A 
ATOM    104  F   UNL A   1      44.249  38.914  30.043  1.00  0.00    -0.200 F 
ATOM    105  F   UNL A   1      42.938  39.721  27.794  1.00  0.00    -0.200 F 
ENDBRANCH  72  95
ENDBRANCH  46  47
ENDBRANCH  38  41
ENDBRANCH  36  37
ENDBRANCH  35  36
ENDBRANCH   1  35
TORSDOF 15
ENDMDL
MODEL 2
REMARK VINA RESULT:     -14.9      3.786     10.313
REMARK SMILES Cc1ccc(-c2c(C)sc(NC(=O)[C@H]3CC=CC[C@H]3C(=O)NCCCCNC(=O)c3ccc(-c4c5nc(c(-c6c(F)c(F)c(F)c(F)c6F)c6ccc([nH]6)c(-c6c(F)c(F)c(F)c(F)c6F)c6nc(c(-c7c(F)c(F)c(F)c(F)c7F)c7ccc4[nH]7)C=C6)C=C5)cc3)c2C(N)=O)cc1
REMARK SMILES IDX 24 1 23 2 22 3 20 4 21 5 19 7 14 8 15 9 16 10 18 11 17 12
REMARK SMILES IDX 12 13 11 14 13 16 10 17 6 18 7 19 93 20 8 21 9 22 5 23 1 24
REMARK SMILES IDX 2 25 3 26 98 27 4 28 97 29 94 30 95 31 96 32 25 35 26 36
REMARK SMILES IDX 27 37 28 38 29 40 30 41 31 42 92 43 32 44 91 45 33 46 34 47
REMARK SMILES IDX 35 48 85 49 36 50 90 51 84 52 86 53 37 54 89 55 83 56 82 57
REMARK SMILES IDX 38 59 70 60 50 61 69 62 51 63 54 64 68 65 87 66 52 67 53 68
REMARK SMILES IDX 67 70 88 71 55 72 39 73 40 74 48 75 41 76 42 77 46 78 49 79
REMARK SMILES IDX 43 80 44 81 47 82 45 83 71 84 72 85 80 86 73 87 74 88 78 89
REMARK SMILES IDX 81 90 75 91 76 92 79 93 77 94 56 95 57 96 65 97 58 98 59 99
REMARK SMILES IDX 63 100 66 101 60 102 61 103 64 104 62 105
REMARK H PARENT 22 6 11 15 95 33 95 34 27 39 86 58 54 69
REMARK Flexibility Score: inf
ROOT
ATOM      1  C   UNL A   1      32.080  30.127  26.841  1.00  0.00     0.023 C 
ENDROOT
BRANCH   1   2
ATOM      2  C   UNL A   1      32.419  29.698  25.408  1.00  0.00     0.116 C 
BRANCH   2   3
ATOM      3  N   UNL A   1      31.308  29.930  24.527  1.00  0.00    -0.356 N 
ATOM      4  C   UNL A   1      30.656  29.096  23.691  1.00  0.00     0.224 C 
ATOM      5  O   UNL A   1      29.905  29.645  22.874  1.00  0.00    -0.275 OA
ATOM      6  H   UNL A   1      30.965  30.853  24.534  1.00  0.00     0.163 HD
BRANCH   4   7
ATOM      7  C   UNL A   1      30.722  27.575  23.757  1.00  0.00     0.095 C 
ATOM      8  C   UNL A   1      31.818  26.760  23.044  1.00  0.00     0.095 C 
ATOM      9  C   UNL A   1      31.240  25.365  22.717  1.00  0.00     0.041 C 
ATOM     10  C   UNL A   1      30.277  24.832  23.760  1.00  0.00    -0.030 C 
ATOM     11  C   UNL A   1      30.270  26.966  25.077  1.00  0.00     0.041 C 
ATOM     12  C   UNL A   1      29.886  25.527  24.846  1.00  0.00    -0.030 C 
BRANCH   8  13
ATOM     13  C   UNL A   1      33.308  26.751  23.489  1.00  0.00     0.229 C 
ATOM     14  N   UNL A   1      33.918  26.026  24.473  1.00  0.00    -0.317 N 
ATOM     15  H   UNL A   1      34.596  26.529  24.979  1.00  0.00     0.170 HD
ATOM     16  O   UNL A   1      34.061  27.580  22.947  1.00  0.00    -0.274 OA
BRANCH  14  17
ATOM     17  C   UNL A   1      33.762  24.718  24.888  1.00  0.00     0.109 A 
ATOM     18  C   UNL A   1      33.624  22.396  25.117  1.00  0.00     0.010 A 
ATOM     19  C   UNL A   1      33.268  22.849  26.378  1.00  0.00     0.012 A 
ATOM     20  C   UNL A   1      33.900  23.509  24.203  1.00  0.00     0.082 A 
ATOM     21  C   UNL A   1      33.120  22.149  27.688  1.00  0.00     0.057 C 
ATOM     22  S   UNL A   1      32.812  24.476  26.270  1.00  0.00    -0.122 S 
BRANCH  18  23
ATOM     23  C   UNL A   1      33.619  20.960  24.845  1.00  0.00    -0.016 A 
ATOM     24  C   UNL A   1      33.816  16.743  23.965  1.00  0.00     0.044 C 
ATOM     25  C   UNL A   1      33.750  18.213  24.257  1.00  0.00    -0.051 A 
ATOM     26  C   UNL A   1      32.528  18.900  24.196  1.00  0.00     0.004 A 
ATOM     27  C   UNL A   1      34.903  18.907  24.628  1.00  0.00     0.004 A 
ATOM     28  C   UNL A   1      32.461  20.270  24.483  1.00  0.00     0.009 A 
ATOM     29  C   UNL A   1      34.834  20.264  24.929  1.00  0.00     0.009 A 
ENDBRANCH  18  23
BRANCH  20  30
ATOM     30  C   UNL A   1      34.238  23.330  22.785  1.00  0.00     0.252 C 
ATOM     31  N   UNL A   1      33.199  23.145  21.910  1.00  0.00    -0.365 N 
ATOM     32  O   UNL A   1      35.373  23.329  22.353  1.00  0.00    -0.269 OA
ATOM     33  H   UNL A   1      32.271  23.143  22.240  1.00  0.00     0.159 HD
ATOM     34  H   UNL A   1      33.380  23.014  20.951  1.00  0.00     0.159 HD
ENDBRANCH  20  30
ENDBRANCH  14  17
ENDBRANCH   8  13
ENDBRANCH   4   7
ENDBRANCH   2   3
ENDBRANCH   1   2
BRANCH   1  35
ATOM     35  C   UNL A   1      32.999  31.176  27.469  1.00  0.00     0.023 C 
BRANCH  35  36
ATOM     36  C   UNL A   1      34.455  30.767  27.523  1.00  0.00     0.116 C 
BRANCH  36  37
ATOM     37  N   UNL A   1      35.307  31.627  28.327  1.00  0.00    -0.352 N 
ATOM     38  C   UNL A   1      36.412  31.304  29.094  1.00  0.00     0.251 C 
ATOM     39  H   UNL A   1      35.061  32.580  28.325  1.00  0.00     0.163 HD
ATOM     40  O   UNL A   1      36.891  32.153  29.840  1.00  0.00    -0.269 OA
BRANCH  38  41
ATOM     41  C   UNL A   1      37.123  30.012  28.896  1.00  0.00     0.039 A 
ATOM     42  C   UNL A   1      37.276  29.177  30.013  1.00  0.00     0.014 A 
ATOM     43  C   UNL A   1      37.839  29.736  27.738  1.00  0.00     0.014 A 
ATOM     44  C   UNL A   1      38.343  28.284  30.063  1.00  0.00     0.010 A 
ATOM     45  C   UNL A   1      38.977  28.970  27.833  1.00  0.00     0.010 A 
ATOM     46  C   UNL A   1      39.266  28.306  29.024  1.00  0.00    -0.014 A 
BRANCH  46  47
ATOM     47  C   UNL A   1      40.593  27.717  29.088  1.00  0.00     0.031 A 
ATOM     48  C   UNL A   1      40.774  26.298  28.752  1.00  0.00     0.074 A 
ATOM     49  C   UNL A   1      41.655  28.530  29.273  1.00  0.00     0.049 A 
ATOM     50  N   UNL A   1      41.841  25.622  29.000  1.00  0.00    -0.248 NA
ATOM     51  C   UNL A   1      39.720  25.511  28.130  1.00  0.00     0.031 C 
ATOM     52  C   UNL A   1      43.068  28.236  29.044  1.00  0.00     0.029 A 
ATOM     53  N   UNL A   1      41.665  29.766  29.939  1.00  0.00    -0.354 N 
ATOM     54  C   UNL A   1      41.736  24.416  28.345  1.00  0.00     0.074 A 
ATOM     55  C   UNL A   1      40.367  24.366  27.890  1.00  0.00     0.031 C 
ATOM     56  C   UNL A   1      43.804  29.057  29.812  1.00  0.00     0.029 A 
ATOM     57  C   UNL A   1      42.875  29.764  30.676  1.00  0.00     0.049 A 
ATOM     58  H   UNL A   1      40.982  30.474  29.903  1.00  0.00     0.167 HD
ATOM     59  C   UNL A   1      42.868  23.673  28.173  1.00  0.00     0.037 A 
ATOM     60  C   UNL A   1      42.847  29.677  32.040  1.00  0.00     0.037 A 
ATOM     61  C   UNL A   1      43.992  24.258  28.917  1.00  0.00     0.049 A 
ATOM     62  C   UNL A   1      43.564  28.469  32.614  1.00  0.00     0.074 A 
ATOM     63  C   UNL A   1      45.094  25.028  28.584  1.00  0.00     0.029 A 
ATOM     64  N   UNL A   1      43.895  24.321  30.296  1.00  0.00    -0.354 N 
ATOM     65  N   UNL A   1      44.027  27.475  31.909  1.00  0.00    -0.248 NA
ATOM     66  C   UNL A   1      43.697  28.242  34.053  1.00  0.00     0.031 C 
ATOM     67  C   UNL A   1      45.657  25.548  29.791  1.00  0.00     0.029 A 
ATOM     68  C   UNL A   1      44.903  25.084  30.852  1.00  0.00     0.049 A 
ATOM     69  H   UNL A   1      43.191  23.873  30.820  1.00  0.00     0.167 HD
ATOM     70  C   UNL A   1      44.449  26.478  32.749  1.00  0.00     0.074 A 
ATOM     71  C   UNL A   1      44.210  27.002  34.082  1.00  0.00     0.031 C 
ATOM     72  C   UNL A   1      44.912  25.276  32.295  1.00  0.00     0.037 A 
BRANCH  59  73
ATOM     73  C   UNL A   1      43.034  22.548  27.168  1.00  0.00     0.064 A 
ATOM     74  C   UNL A   1      42.276  21.361  27.296  1.00  0.00     0.173 A 
ATOM     75  C   UNL A   1      43.954  22.526  26.102  1.00  0.00     0.173 A 
ATOM     76  F   UNL A   1      41.283  21.257  28.188  1.00  0.00    -0.203 F 
ATOM     77  C   UNL A   1      42.507  20.227  26.509  1.00  0.00     0.198 A 
ATOM     78  C   UNL A   1      44.219  21.380  25.345  1.00  0.00     0.198 A 
ATOM     79  F   UNL A   1      44.588  23.626  25.692  1.00  0.00    -0.203 F 
ATOM     80  F   UNL A   1      41.759  19.130  26.692  1.00  0.00    -0.200 F 
ATOM     81  C   UNL A   1      43.502  20.225  25.557  1.00  0.00     0.200 A 
ATOM     82  F   UNL A   1      45.172  21.415  24.402  1.00  0.00    -0.200 F 
ATOM     83  F   UNL A   1      43.750  19.128  24.828  1.00  0.00    -0.200 F 
ENDBRANCH  59  73
BRANCH  60  84
ATOM     84  C   UNL A   1      41.617  30.282  32.632  1.00  0.00     0.064 A 
ATOM     85  C   UNL A   1      41.460  31.682  32.577  1.00  0.00     0.173 A 
ATOM     86  C   UNL A   1      40.472  29.518  32.891  1.00  0.00     0.173 A 
ATOM     87  F   UNL A   1      42.518  32.462  32.304  1.00  0.00    -0.203 F 
ATOM     88  C   UNL A   1      40.203  32.277  32.637  1.00  0.00     0.198 A 
ATOM     89  C   UNL A   1      39.218  30.122  32.993  1.00  0.00     0.198 A 
ATOM     90  F   UNL A   1      40.538  28.179  32.921  1.00  0.00    -0.203 F 
ATOM     91  F   UNL A   1      40.077  33.592  32.404  1.00  0.00    -0.200 F 
ATOM     92  C   UNL A   1      39.079  31.492  32.828  1.00  0.00     0.200 A 
ATOM     93  F   UNL A   1      38.126  29.357  33.131  1.00  0.00    -0.200 F 
ATOM     94  F   UNL A   1      37.859  32.043  32.788  1.00  0.00    -0.200 F 
ENDBRANCH  60  84
BRANCH  72  95
ATOM     95  C   UNL A   1      45.359  24.153  33.197  1.00  0.00     0.064 A 
ATOM     96  C   UNL A   1      44.521  23.084  33.553  1.00  0.00     0.173 A 
ATOM     97  C   UNL A   1      46.635  24.155  33.806  1.00  0.00     0.173 A 
ATOM     98  F   UNL A   1      43.249  23.035  33.129  1.00  0.00    -0.203 F 
ATOM     99  C   UNL A   1      44.962  22.043  34.375  1.00  0.00     0.198 A 
ATOM    100  C   UNL A   1      47.051  23.147  34.674  1.00  0.00     0.198 A 
ATOM    101  F   UNL A   1      47.534  25.118  33.562  1.00  0.00    -0.203 F 
ATOM    102  F   UNL A   1      44.152  21.004  34.622  1.00  0.00    -0.200 F 
ATOM    103  C   UNL A   1      46.224  22.077  34.938  1.00  0.00     0.200 A 
ATOM    104  F   UNL A   1      48.265  23.217  35.238  1.00  0.00    -0.200 F 
ATOM    105  F   UNL A   1      46.642  21.084  35.733  1.00  0.00    -0.200 F 
ENDBRANCH  72  95
ENDBRANCH  46  47
ENDBRANCH  38  41
ENDBRANCH  36  37
ENDBRANCH  35  36
ENDBRANCH   1  35
TORSDOF 15
ENDMDL
MODEL 3
REMARK VINA RESULT:     -14.9      3.409      9.992
REMARK SMILES Cc1ccc(-c2c(C)sc(NC(=O)[C@H]3CC=CC[C@H]3C(=O)NCCCCNC(=O)c3ccc(-c4c5nc(c(-c6c(F)c(F)c(F)c(F)c6F)c6ccc([nH]6)c(-c6c(F)c(F)c(F)c(F)c6F)c6nc(c(-c7c(F)c(F)c(F)c(F)c7F)c7ccc4[nH]7)C=C6)C=C5)cc3)c2C(N)=O)cc1
REMARK SMILES IDX 24 1 23 2 22 3 20 4 21 5 19 7 14 8 15 9 16 10 18 11 17 12
REMARK SMILES IDX 12 13 11 14 13 16 10 17 6 18 7 19 93 20 8 21 9 22 5 23 1 24
REMARK SMILES IDX 2 25 3 26 98 27 4 28 97 29 94 30 95 31 96 32 25 35 26 36
REMARK SMILES IDX 27 37 28 38 29 40 30 41 31 42 92 43 32 44 91 45 33 46 34 47
REMARK SMILES IDX 35 48 85 49 36 50 90 51 84 52 86 53 37 54 89 55 83 56 82 57
REMARK SMILES IDX 38 59 70 60 50 61 69 62 51 63 54 64 68 65 87 66 52 67 53 68
REMARK SMILES IDX 67 70 88 71 55 72 39 73 40 74 48 75 41 76 42 77 46 78 49 79
REMARK SMILES IDX 43 80 44 81 47 82 45 83 71 84 72 85 80 86 73 87 74 88 78 89
REMARK SMILES IDX 81 90 75 91 76 92 79 93 77 94 56 95 57 96 65 97 58 98 59 99
REMARK SMILES IDX 63 100 66 101 60 102 61 103 64 104 62 105
REMARK H PARENT 22 6 11 15 95 33 95 34 27 39 86 58 54 69
REMARK Flexibility Score: inf
ROOT
ATOM      1  C   UNL A   1      31.435  30.602  25.604  1.00  0.00     0.023 C 
ENDROOT
BRANCH   1   2
ATOM      2  C   UNL A   1      30.336  31.292  24.786  1.00  0.00     0.116 C 
BRANCH   2   3
ATOM      3  N   UNL A   1      29.916  30.464  23.689  1.00  0.00    -0.356 N 
ATOM      4  C   UNL A   1      30.376  29.272  23.258  1.00  0.00     0.224 C 
ATOM      5  O   UNL A   1      29.982  28.926  22.137  1.00  0.00    -0.275 OA
ATOM      6  H   UNL A   1      29.166  30.827  23.164  1.00  0.00     0.163 HD
BRANCH   4   7
ATOM      7  C   UNL A   1      31.244  28.328  24.081  1.00  0.00     0.095 C 
ATOM      8  C   UNL A   1      30.651  27.221  24.973  1.00  0.00     0.095 C 
ATOM      9  C   UNL A   1      31.642  26.955  26.128  1.00  0.00     0.041 C 
ATOM     10  C   UNL A   1      33.101  27.092  25.738  1.00  0.00    -0.030 C 
ATOM     11  C   UNL A   1      32.574  27.950  23.442  1.00  0.00     0.041 C 
ATOM     12  C   UNL A   1      33.519  27.483  24.519  1.00  0.00    -0.030 C 
BRANCH   8  13
ATOM     13  C   UNL A   1      29.959  25.946  24.413  1.00  0.00     0.229 C 
ATOM     14  N   UNL A   1      30.501  24.740  24.072  1.00  0.00    -0.317 N 
ATOM     15  H   UNL A   1      30.113  24.342  23.259  1.00  0.00     0.170 HD
ATOM     16  O   UNL A   1      28.747  26.037  24.143  1.00  0.00    -0.274 OA
BRANCH  14  17
ATOM     17  C   UNL A   1      31.491  23.974  24.655  1.00  0.00     0.109 A 
ATOM     18  C   UNL A   1      33.379  22.700  25.186  1.00  0.00     0.010 A 
ATOM     19  C   UNL A   1      32.669  22.706  26.377  1.00  0.00     0.012 A 
ATOM     20  C   UNL A   1      32.672  23.439  24.134  1.00  0.00     0.082 A 
ATOM     21  C   UNL A   1      33.044  22.313  27.767  1.00  0.00     0.057 C 
ATOM     22  S   UNL A   1      31.060  23.125  26.057  1.00  0.00    -0.122 S 
BRANCH  18  23
ATOM     23  C   UNL A   1      34.633  21.955  25.104  1.00  0.00    -0.016 A 
ATOM     24  C   UNL A   1      38.231  19.582  24.965  1.00  0.00     0.044 C 
ATOM     25  C   UNL A   1      36.980  20.407  25.028  1.00  0.00    -0.051 A 
ATOM     26  C   UNL A   1      37.047  21.807  25.090  1.00  0.00     0.004 A 
ATOM     27  C   UNL A   1      35.729  19.787  24.990  1.00  0.00     0.004 A 
ATOM     28  C   UNL A   1      35.880  22.580  25.134  1.00  0.00     0.009 A 
ATOM     29  C   UNL A   1      34.569  20.556  25.016  1.00  0.00     0.009 A 
ENDBRANCH  18  23
BRANCH  20  30
ATOM     30  C   UNL A   1      33.156  23.545  22.752  1.00  0.00     0.252 C 
ATOM     31  N   UNL A   1      32.620  22.684  21.830  1.00  0.00    -0.365 N 
ATOM     32  O   UNL A   1      34.001  24.340  22.388  1.00  0.00    -0.269 OA
ATOM     33  H   UNL A   1      31.935  22.032  22.104  1.00  0.00     0.159 HD
ATOM     34  H   UNL A   1      32.921  22.716  20.893  1.00  0.00     0.159 HD
ENDBRANCH  20  30
ENDBRANCH  14  17
ENDBRANCH   8  13
ENDBRANCH   4   7
ENDBRANCH   2   3
ENDBRANCH   1   2
BRANCH   1  35
ATOM     35  C   UNL A   1      31.915  31.344  26.853  1.00  0.00     0.023 C 
BRANCH  35  36
ATOM     36  C   UNL A   1      33.254  30.870  27.374  1.00  0.00     0.116 C 
BRANCH  36  37
ATOM     37  N   UNL A   1      34.000  31.854  28.139  1.00  0.00    -0.352 N 
ATOM     38  C   UNL A   1      35.146  31.696  28.900  1.00  0.00     0.251 C 
ATOM     39  H   UNL A   1      33.637  32.769  28.113  1.00  0.00     0.163 HD
ATOM     40  O   UNL A   1      35.523  32.621  29.613  1.00  0.00    -0.269 OA
BRANCH  38  41
ATOM     41  C   UNL A   1      36.011  30.497  28.731  1.00  0.00     0.039 A 
ATOM     42  C   UNL A   1      36.254  29.706  29.863  1.00  0.00     0.014 A 
ATOM     43  C   UNL A   1      36.766  30.291  27.583  1.00  0.00     0.014 A 
ATOM     44  C   UNL A   1      37.421  28.951  29.937  1.00  0.00     0.010 A 
ATOM     45  C   UNL A   1      37.988  29.672  27.700  1.00  0.00     0.010 A 
ATOM     46  C   UNL A   1      38.345  29.068  28.905  1.00  0.00    -0.014 A 
BRANCH  46  47
ATOM     47  C   UNL A   1      39.732  28.646  28.989  1.00  0.00     0.031 A 
ATOM     48  C   UNL A   1      40.095  27.268  28.632  1.00  0.00     0.074 A 
ATOM     49  C   UNL A   1      40.681  29.580  29.214  1.00  0.00     0.049 A 
ATOM     50  N   UNL A   1      41.232  26.724  28.893  1.00  0.00    -0.248 NA
ATOM     51  C   UNL A   1      39.161  26.370  27.971  1.00  0.00     0.031 C 
ATOM     52  C   UNL A   1      42.124  29.469  29.014  1.00  0.00     0.029 A 
ATOM     53  N   UNL A   1      40.523  30.793  29.903  1.00  0.00    -0.354 N 
ATOM     54  C   UNL A   1      41.292  25.528  28.213  1.00  0.00     0.074 A 
ATOM     55  C   UNL A   1      39.949  25.319  27.726  1.00  0.00     0.031 C 
ATOM     56  C   UNL A   1      42.736  30.358  29.814  1.00  0.00     0.029 A 
ATOM     57  C   UNL A   1      41.708  30.926  30.668  1.00  0.00     0.049 A 
ATOM     58  H   UNL A   1      39.759  31.412  29.864  1.00  0.00     0.167 HD
ATOM     59  C   UNL A   1      42.511  24.935  28.055  1.00  0.00     0.037 A 
ATOM     60  C   UNL A   1      41.663  30.808  32.029  1.00  0.00     0.037 A 
ATOM     61  C   UNL A   1      43.537  25.638  28.836  1.00  0.00     0.049 A 
ATOM     62  C   UNL A   1      42.511  29.686  32.598  1.00  0.00     0.074 A 
ATOM     63  C   UNL A   1      44.542  26.545  28.544  1.00  0.00     0.029 A 
ATOM     64  N   UNL A   1      43.404  25.660  30.213  1.00  0.00    -0.354 N 
ATOM     65  N   UNL A   1      43.109  28.771  31.886  1.00  0.00    -0.248 NA
ATOM     66  C   UNL A   1      42.641  29.447  34.035  1.00  0.00     0.031 C 
ATOM     67  C   UNL A   1      45.010  27.106  29.772  1.00  0.00     0.029 A 
ATOM     68  C   UNL A   1      44.297  26.530  30.807  1.00  0.00     0.049 A 
ATOM     69  H   UNL A   1      42.750  25.118  30.712  1.00  0.00     0.167 HD
ATOM     70  C   UNL A   1      43.633  27.817  32.718  1.00  0.00     0.074 A 
ATOM     71  C   UNL A   1      43.304  28.279  34.054  1.00  0.00     0.031 C 
ATOM     72  C   UNL A   1      44.252  26.691  32.253  1.00  0.00     0.037 A 
BRANCH  59  73
ATOM     73  C   UNL A   1      42.836  23.860  27.034  1.00  0.00     0.064 A 
ATOM     74  C   UNL A   1      42.533  22.506  27.304  1.00  0.00     0.173 A 
ATOM     75  C   UNL A   1      43.501  24.064  25.808  1.00  0.00     0.173 A 
ATOM     76  F   UNL A   1      41.808  22.150  28.372  1.00  0.00    -0.203 F 
ATOM     77  C   UNL A   1      42.962  21.456  26.484  1.00  0.00     0.198 A 
ATOM     78  C   UNL A   1      43.970  23.015  25.012  1.00  0.00     0.198 A 
ATOM     79  F   UNL A   1      43.664  25.281  25.286  1.00  0.00    -0.203 F 
ATOM     80  F   UNL A   1      42.650  20.193  26.806  1.00  0.00    -0.200 F 
ATOM     81  C   UNL A   1      43.711  21.708  25.356  1.00  0.00     0.200 A 
ATOM     82  F   UNL A   1      44.669  23.290  23.900  1.00  0.00    -0.200 F 
ATOM     83  F   UNL A   1      44.155  20.703  24.589  1.00  0.00    -0.200 F 
ENDBRANCH  59  73
BRANCH  60  84
ATOM     84  C   UNL A   1      40.355  31.243  32.603  1.00  0.00     0.064 A 
ATOM     85  C   UNL A   1      40.026  32.613  32.569  1.00  0.00     0.173 A 
ATOM     86  C   UNL A   1      39.309  30.338  32.821  1.00  0.00     0.173 A 
ATOM     87  F   UNL A   1      40.984  33.524  32.335  1.00  0.00    -0.203 F 
ATOM     88  C   UNL A   1      38.704  33.047  32.610  1.00  0.00     0.198 A 
ATOM     89  C   UNL A   1      37.987  30.779  32.905  1.00  0.00     0.198 A 
ATOM     90  F   UNL A   1      39.540  29.018  32.829  1.00  0.00    -0.203 F 
ATOM     91  F   UNL A   1      38.421  34.341  32.397  1.00  0.00    -0.200 F 
ATOM     92  C   UNL A   1      37.683  32.125  32.761  1.00  0.00     0.200 A 
ATOM     93  F   UNL A   1      36.996  29.882  33.004  1.00  0.00    -0.200 F 
ATOM     94  F   UNL A   1      36.404  32.521  32.702  1.00  0.00    -0.200 F 
ENDBRANCH  60  84
BRANCH  72  95
ATOM     95  C   UNL A   1      44.815  25.613  33.145  1.00  0.00     0.064 A 
ATOM     96  C   UNL A   1      46.178  25.279  33.164  1.00  0.00     0.173 A 
ATOM     97  C   UNL A   1      43.981  24.817  33.963  1.00  0.00     0.173 A 
ATOM     98  F   UNL A   1      47.049  25.887  32.344  1.00  0.00    -0.203 F 
ATOM     99  C   UNL A   1      46.684  24.289  34.013  1.00  0.00     0.198 A 
ATOM    100  C   UNL A   1      44.479  23.791  34.764  1.00  0.00     0.198 A 
ATOM    101  F   UNL A   1      42.659  25.022  34.037  1.00  0.00    -0.203 F 
ATOM    102  F   UNL A   1      48.003  24.061  34.053  1.00  0.00    -0.200 F 
ATOM    103  C   UNL A   1      45.834  23.545  34.809  1.00  0.00     0.200 A 
ATOM    104  F   UNL A   1      43.634  23.056  35.501  1.00  0.00    -0.200 F 
ATOM    105  F   UNL A   1      46.318  22.591  35.615  1.00  0.00    -0.200 F 
ENDBRANCH  72  95
ENDBRANCH  46  47
ENDBRANCH  38  41
ENDBRANCH  36  37
ENDBRANCH  35  36
ENDBRANCH   1  35
TORSDOF 15
ENDMDL
