MODEL 1
REMARK VINA RESULT:     -13.0      0.000      0.000
REMARK SMILES COC(=O)C[C@@H](NC(=O)c1ccccc1C(=O)NCCCCNC(=O)c1ccc(-c2c3nc(c(-c4c(F)c(F)c(F)c(F)c4F)c4ccc([nH]4)c(-c4c(F)c(F)c(F)c(F)c4F)c4nc(c(-c5c(F)c(F)c(F)c(F)c5F)c5ccc2[nH]5)C=C4)C=C3)cc1)c1cccc(C)c1C
REMARK SMILES IDX 19 1 18 2 16 3 17 4 15 6 10 7 11 8 12 9 14 10 13 11 8 12
REMARK SMILES IDX 7 13 9 15 6 16 5 17 3 18 4 19 2 20 1 21 89 22 90 23 95 24
REMARK SMILES IDX 91 25 93 26 96 27 92 28 94 29 20 30 21 31 22 32 23 33 24 34
REMARK SMILES IDX 25 36 26 37 27 38 88 39 28 40 87 41 29 42 30 43 31 44 81 45
REMARK SMILES IDX 32 46 86 47 80 48 82 49 33 50 85 51 79 52 78 53 34 55 66 56
REMARK SMILES IDX 46 57 65 58 47 59 50 60 64 61 83 62 48 63 49 64 63 66 84 67
REMARK SMILES IDX 51 68 35 69 36 70 44 71 37 72 38 73 42 74 45 75 39 76 40 77
REMARK SMILES IDX 43 78 41 79 67 80 68 81 76 82 69 83 70 84 74 85 77 86 71 87
REMARK SMILES IDX 72 88 75 89 73 90 52 91 53 92 61 93 54 94 55 95 59 96 62 97
REMARK SMILES IDX 56 98 57 99 60 100 58 101
REMARK H PARENT 18 5 7 14 23 35 82 54 50 65
REMARK Flexibility Score: inf
ROOT
ATOM      1  C   UNL A   1      32.479  30.228  26.693  1.00  0.00     0.116 C 
ENDROOT
BRANCH   1   2
ATOM      2  N   UNL A   1      33.306  29.629  25.667  1.00  0.00    -0.352 N 
ATOM      3  C   UNL A   1      33.073  28.771  24.646  1.00  0.00     0.252 C 
ATOM      4  O   UNL A   1      34.073  28.360  24.064  1.00  0.00    -0.269 OA
ATOM      5  H   UNL A   1      34.248  29.908  25.725  1.00  0.00     0.163 HD
BRANCH   3   6
ATOM      6  C   UNL A   1      31.754  28.239  24.281  1.00  0.00     0.052 A 
ATOM      7  C   UNL A   1      31.085  27.232  24.964  1.00  0.00     0.052 A 
ATOM      8  C   UNL A   1      29.830  26.775  24.522  1.00  0.00     0.014 A 
ATOM      9  C   UNL A   1      29.191  27.414  23.463  1.00  0.00     0.001 A 
ATOM     10  C   UNL A   1      31.080  28.905  23.247  1.00  0.00     0.014 A 
ATOM     11  C   UNL A   1      29.803  28.501  22.847  1.00  0.00     0.001 A 
BRANCH   7  12
ATOM     12  C   UNL A   1      31.601  26.603  26.170  1.00  0.00     0.252 C 
ATOM     13  N   UNL A   1      32.301  25.439  26.135  1.00  0.00    -0.345 N 
ATOM     14  H   UNL A   1      32.771  25.286  26.988  1.00  0.00     0.164 HD
ATOM     15  O   UNL A   1      31.489  27.203  27.238  1.00  0.00    -0.269 OA
BRANCH  13  16
ATOM     16  C   UNL A   1      32.562  24.327  25.178  1.00  0.00     0.124 C 
BRANCH  16  17
ATOM     17  C   UNL A   1      31.648  23.145  25.589  1.00  0.00     0.152 C 
BRANCH  17  18
ATOM     18  C   UNL A   1      31.345  23.119  27.074  1.00  0.00     0.307 C 
ATOM     19  O   UNL A   1      32.152  22.810  27.939  1.00  0.00    -0.252 OA
BRANCH  18  20
ATOM     20  O   UNL A   1      30.073  23.547  27.315  1.00  0.00    -0.469 OA
ATOM     21  C   UNL A   1      29.054  22.546  27.372  1.00  0.00     0.282 C 
ENDBRANCH  18  20
ENDBRANCH  17  18
ENDBRANCH  16  17
BRANCH  16  22
ATOM     22  C   UNL A   1      34.024  23.868  25.108  1.00  0.00    -0.022 A 
ATOM     23  C   UNL A   1      34.827  24.035  26.253  1.00  0.00     0.006 A 
ATOM     24  C   UNL A   1      34.629  23.300  23.950  1.00  0.00    -0.043 A 
ATOM     25  C   UNL A   1      36.189  23.739  26.237  1.00  0.00     0.001 A 
ATOM     26  C   UNL A   1      36.045  23.195  23.886  1.00  0.00    -0.048 A 
ATOM     27  C   UNL A   1      33.843  22.685  22.812  1.00  0.00     0.045 C 
ATOM     28  C   UNL A   1      36.802  23.369  25.048  1.00  0.00     0.004 A 
ATOM     29  C   UNL A   1      36.781  22.901  22.601  1.00  0.00     0.044 C 
ENDBRANCH  16  22
ENDBRANCH  13  16
ENDBRANCH   7  12
ENDBRANCH   3   6
ENDBRANCH   1   2
BRANCH   1  30
ATOM     30  C   UNL A   1      31.374  31.079  26.047  1.00  0.00     0.023 C 
BRANCH  30  31
ATOM     31  C   UNL A   1      31.351  32.561  26.471  1.00  0.00     0.023 C 
BRANCH  31  32
ATOM     32  C   UNL A   1      32.515  33.001  27.356  1.00  0.00     0.116 C 
BRANCH  32  33
ATOM     33  N   UNL A   1      32.416  34.404  27.716  1.00  0.00    -0.352 N 
ATOM     34  C   UNL A   1      33.027  35.086  28.735  1.00  0.00     0.251 C 
ATOM     35  H   UNL A   1      31.825  34.945  27.143  1.00  0.00     0.163 HD
ATOM     36  O   UNL A   1      32.613  36.192  29.074  1.00  0.00    -0.269 OA
BRANCH  34  37
ATOM     37  C   UNL A   1      34.184  34.495  29.435  1.00  0.00     0.039 A 
ATOM     38  C   UNL A   1      33.993  33.903  30.686  1.00  0.00     0.014 A 
ATOM     39  C   UNL A   1      35.465  34.571  28.884  1.00  0.00     0.014 A 
ATOM     40  C   UNL A   1      35.078  33.336  31.357  1.00  0.00     0.010 A 
ATOM     41  C   UNL A   1      36.535  33.947  29.521  1.00  0.00     0.010 A 
ATOM     42  C   UNL A   1      36.352  33.327  30.764  1.00  0.00    -0.014 A 
BRANCH  42  43
ATOM     43  C   UNL A   1      37.503  32.664  31.427  1.00  0.00     0.031 A 
ATOM     44  C   UNL A   1      38.197  31.507  30.762  1.00  0.00     0.074 A 
ATOM     45  C   UNL A   1      37.878  33.067  32.656  1.00  0.00     0.049 A 
ATOM     46  N   UNL A   1      39.177  30.763  31.208  1.00  0.00    -0.248 NA
ATOM     47  C   UNL A   1      37.710  31.122  29.428  1.00  0.00     0.031 C 
ATOM     48  C   UNL A   1      37.246  34.144  33.420  1.00  0.00     0.029 A 
ATOM     49  N   UNL A   1      38.870  32.610  33.485  1.00  0.00    -0.354 N 
ATOM     50  C   UNL A   1      39.423  29.826  30.213  1.00  0.00     0.074 A 
ATOM     51  C   UNL A   1      38.449  30.053  29.168  1.00  0.00     0.031 C 
ATOM     52  C   UNL A   1      37.878  34.277  34.597  1.00  0.00     0.029 A 
ATOM     53  C   UNL A   1      38.933  33.273  34.686  1.00  0.00     0.049 A 
ATOM     54  H   UNL A   1      39.480  31.875  33.243  1.00  0.00     0.167 HD
ATOM     55  C   UNL A   1      40.394  28.882  30.163  1.00  0.00     0.037 A 
ATOM     56  C   UNL A   1      39.745  33.084  35.744  1.00  0.00     0.037 A 
ATOM     57  C   UNL A   1      41.363  28.664  31.205  1.00  0.00     0.049 A 
ATOM     58  C   UNL A   1      40.796  32.008  35.672  1.00  0.00     0.074 A 
ATOM     59  C   UNL A   1      42.404  27.752  31.242  1.00  0.00     0.029 A 
ATOM     60  N   UNL A   1      41.407  29.369  32.400  1.00  0.00    -0.354 N 
ATOM     61  N   UNL A   1      41.063  31.173  34.696  1.00  0.00    -0.248 NA
ATOM     62  C   UNL A   1      41.665  31.854  36.846  1.00  0.00     0.031 C 
ATOM     63  C   UNL A   1      43.052  27.878  32.475  1.00  0.00     0.029 A 
ATOM     64  C   UNL A   1      42.449  28.904  33.185  1.00  0.00     0.049 A 
ATOM     65  H   UNL A   1      40.790  30.093  32.651  1.00  0.00     0.167 HD
ATOM     66  C   UNL A   1      42.150  30.424  35.123  1.00  0.00     0.074 A 
ATOM     67  C   UNL A   1      42.504  30.912  36.439  1.00  0.00     0.031 C 
ATOM     68  C   UNL A   1      42.798  29.418  34.485  1.00  0.00     0.037 A 
BRANCH  55  69
ATOM     69  C   UNL A   1      40.466  28.024  28.932  1.00  0.00     0.064 A 
ATOM     70  C   UNL A   1      39.741  26.825  28.836  1.00  0.00     0.173 A 
ATOM     71  C   UNL A   1      41.229  28.417  27.823  1.00  0.00     0.173 A 
ATOM     72  F   UNL A   1      39.001  26.398  29.871  1.00  0.00    -0.203 F 
ATOM     73  C   UNL A   1      39.798  26.042  27.685  1.00  0.00     0.198 A 
ATOM     74  C   UNL A   1      41.260  27.646  26.664  1.00  0.00     0.198 A 
ATOM     75  F   UNL A   1      41.937  29.556  27.859  1.00  0.00    -0.203 F 
ATOM     76  F   UNL A   1      39.133  24.879  27.636  1.00  0.00    -0.200 F 
ATOM     77  C   UNL A   1      40.551  26.456  26.599  1.00  0.00     0.200 A 
ATOM     78  F   UNL A   1      41.976  28.056  25.607  1.00  0.00    -0.200 F 
ATOM     79  F   UNL A   1      40.596  25.707  25.489  1.00  0.00    -0.200 F 
ENDBRANCH  55  69
BRANCH  56  80
ATOM     80  C   UNL A   1      39.618  33.942  36.951  1.00  0.00     0.064 A 
ATOM     81  C   UNL A   1      38.855  33.528  38.052  1.00  0.00     0.173 A 
ATOM     82  C   UNL A   1      40.229  35.203  37.021  1.00  0.00     0.173 A 
ATOM     83  F   UNL A   1      38.236  32.337  38.026  1.00  0.00    -0.203 F 
ATOM     84  C   UNL A   1      38.679  34.354  39.159  1.00  0.00     0.198 A 
ATOM     85  C   UNL A   1      40.079  36.015  38.143  1.00  0.00     0.198 A 
ATOM     86  F   UNL A   1      40.977  35.645  35.998  1.00  0.00    -0.203 F 
ATOM     87  F   UNL A   1      37.894  33.957  40.170  1.00  0.00    -0.200 F 
ATOM     88  C   UNL A   1      39.293  35.596  39.206  1.00  0.00     0.200 A 
ATOM     89  F   UNL A   1      40.688  37.208  38.190  1.00  0.00    -0.200 F 
ATOM     90  F   UNL A   1      39.121  36.392  40.269  1.00  0.00    -0.200 F 
ENDBRANCH  56  80
BRANCH  68  91
ATOM     91  C   UNL A   1      43.986  28.816  35.179  1.00  0.00     0.064 A 
ATOM     92  C   UNL A   1      43.857  27.720  36.045  1.00  0.00     0.173 A 
ATOM     93  C   UNL A   1      45.272  29.324  34.947  1.00  0.00     0.173 A 
ATOM     94  F   UNL A   1      42.646  27.209  36.313  1.00  0.00    -0.203 F 
ATOM     95  C   UNL A   1      44.972  27.174  36.677  1.00  0.00     0.198 A 
ATOM     96  C   UNL A   1      46.387  28.754  35.554  1.00  0.00     0.198 A 
ATOM     97  F   UNL A   1      45.450  30.366  34.122  1.00  0.00    -0.203 F 
ATOM     98  F   UNL A   1      44.819  26.162  37.542  1.00  0.00    -0.200 F 
ATOM     99  C   UNL A   1      46.236  27.686  36.424  1.00  0.00     0.200 A 
ATOM    100  F   UNL A   1      47.610  29.241  35.298  1.00  0.00    -0.200 F 
ATOM    101  F   UNL A   1      47.307  27.154  37.028  1.00  0.00    -0.200 F 
ENDBRANCH  68  91
ENDBRANCH  42  43
ENDBRANCH  34  37
ENDBRANCH  32  33
ENDBRANCH  31  32
ENDBRANCH  30  31
ENDBRANCH   1  30
TORSDOF 17
ENDMDL
MODEL 2
REMARK VINA RESULT:     -12.7      0.593      7.069
REMARK SMILES COC(=O)C[C@@H](NC(=O)c1ccccc1C(=O)NCCCCNC(=O)c1ccc(-c2c3nc(c(-c4c(F)c(F)c(F)c(F)c4F)c4ccc([nH]4)c(-c4c(F)c(F)c(F)c(F)c4F)c4nc(c(-c5c(F)c(F)c(F)c(F)c5F)c5ccc2[nH]5)C=C4)C=C3)cc1)c1cccc(C)c1C
REMARK SMILES IDX 19 1 18 2 16 3 17 4 15 6 10 7 11 8 12 9 14 10 13 11 8 12
REMARK SMILES IDX 7 13 9 15 6 16 5 17 3 18 4 19 2 20 1 21 89 22 90 23 95 24
REMARK SMILES IDX 91 25 93 26 96 27 92 28 94 29 20 30 21 31 22 32 23 33 24 34
REMARK SMILES IDX 25 36 26 37 27 38 88 39 28 40 87 41 29 42 30 43 31 44 81 45
REMARK SMILES IDX 32 46 86 47 80 48 82 49 33 50 85 51 79 52 78 53 34 55 66 56
REMARK SMILES IDX 46 57 65 58 47 59 50 60 64 61 83 62 48 63 49 64 63 66 84 67
REMARK SMILES IDX 51 68 35 69 36 70 44 71 37 72 38 73 42 74 45 75 39 76 40 77
REMARK SMILES IDX 43 78 41 79 67 80 68 81 76 82 69 83 70 84 74 85 77 86 71 87
REMARK SMILES IDX 72 88 75 89 73 90 52 91 53 92 61 93 54 94 55 95 59 96 62 97
REMARK SMILES IDX 56 98 57 99 60 100 58 101
REMARK H PARENT 18 5 7 14 23 35 82 54 50 65
REMARK Flexibility Score: inf
ROOT
ATOM      1  C   UNL A   1      32.300  30.256  26.755  1.00  0.00     0.116 C 
ENDROOT
BRANCH   1   2
ATOM      2  N   UNL A   1      33.179  29.668  25.766  1.00  0.00    -0.352 N 
ATOM      3  C   UNL A   1      33.006  28.792  24.749  1.00  0.00     0.252 C 
ATOM      4  O   UNL A   1      34.037  28.401  24.208  1.00  0.00    -0.269 OA
ATOM      5  H   UNL A   1      34.111  29.973  25.854  1.00  0.00     0.163 HD
BRANCH   3   6
ATOM      6  C   UNL A   1      31.716  28.219  24.344  1.00  0.00     0.052 A 
ATOM      7  C   UNL A   1      31.066  27.181  24.998  1.00  0.00     0.052 A 
ATOM      8  C   UNL A   1      29.839  26.687  24.518  1.00  0.00     0.014 A 
ATOM      9  C   UNL A   1      29.204  27.318  23.452  1.00  0.00     0.001 A 
ATOM     10  C   UNL A   1      31.045  28.875  23.302  1.00  0.00     0.014 A 
ATOM     11  C   UNL A   1      29.793  28.434  22.865  1.00  0.00     0.001 A 
BRANCH   7  12
ATOM     12  C   UNL A   1      31.573  26.554  26.208  1.00  0.00     0.252 C 
ATOM     13  N   UNL A   1      32.274  25.390  26.180  1.00  0.00    -0.345 N 
ATOM     14  H   UNL A   1      32.738  25.239  27.036  1.00  0.00     0.164 HD
ATOM     15  O   UNL A   1      31.453  27.155  27.274  1.00  0.00    -0.269 OA
BRANCH  13  16
ATOM     16  C   UNL A   1      32.543  24.277  25.226  1.00  0.00     0.124 C 
BRANCH  16  17
ATOM     17  C   UNL A   1      31.652  23.083  25.653  1.00  0.00     0.152 C 
BRANCH  17  18
ATOM     18  C   UNL A   1      31.390  23.044  27.146  1.00  0.00     0.307 C 
ATOM     19  O   UNL A   1      32.215  22.711  27.984  1.00  0.00    -0.252 OA
BRANCH  18  20
ATOM     20  O   UNL A   1      30.133  23.492  27.427  1.00  0.00    -0.469 OA
ATOM     21  C   UNL A   1      29.055  22.582  27.190  1.00  0.00     0.282 C 
ENDBRANCH  18  20
ENDBRANCH  17  18
ENDBRANCH  16  17
BRANCH  16  22
ATOM     22  C   UNL A   1      34.011  23.842  25.143  1.00  0.00    -0.022 A 
ATOM     23  C   UNL A   1      34.819  24.009  26.285  1.00  0.00     0.006 A 
ATOM     24  C   UNL A   1      34.618  23.295  23.976  1.00  0.00    -0.043 A 
ATOM     25  C   UNL A   1      36.184  23.734  26.259  1.00  0.00     0.001 A 
ATOM     26  C   UNL A   1      36.035  23.212  23.903  1.00  0.00    -0.048 A 
ATOM     27  C   UNL A   1      33.836  22.679  22.836  1.00  0.00     0.045 C 
ATOM     28  C   UNL A   1      36.797  23.386  25.063  1.00  0.00     0.004 A 
ATOM     29  C   UNL A   1      36.768  22.942  22.611  1.00  0.00     0.044 C 
ENDBRANCH  16  22
ENDBRANCH  13  16
ENDBRANCH   7  12
ENDBRANCH   3   6
ENDBRANCH   1   2
BRANCH   1  30
ATOM     30  C   UNL A   1      31.275  31.172  26.067  1.00  0.00     0.023 C 
BRANCH  30  31
ATOM     31  C   UNL A   1      31.302  32.646  26.516  1.00  0.00     0.023 C 
BRANCH  31  32
ATOM     32  C   UNL A   1      32.599  33.096  27.185  1.00  0.00     0.116 C 
BRANCH  32  33
ATOM     33  N   UNL A   1      32.485  34.438  27.729  1.00  0.00    -0.352 N 
ATOM     34  C   UNL A   1      33.079  34.980  28.838  1.00  0.00     0.251 C 
ATOM     35  H   UNL A   1      31.895  35.046  27.227  1.00  0.00     0.163 HD
ATOM     36  O   UNL A   1      32.653  36.028  29.318  1.00  0.00    -0.269 OA
BRANCH  34  37
ATOM     37  C   UNL A   1      34.233  34.308  29.466  1.00  0.00     0.039 A 
ATOM     38  C   UNL A   1      34.018  33.470  30.563  1.00  0.00     0.014 A 
ATOM     39  C   UNL A   1      35.531  34.545  29.008  1.00  0.00     0.014 A 
ATOM     40  C   UNL A   1      35.101  32.824  31.163  1.00  0.00     0.010 A 
ATOM     41  C   UNL A   1      36.603  33.850  29.563  1.00  0.00     0.010 A 
ATOM     42  C   UNL A   1      36.398  32.986  30.648  1.00  0.00    -0.014 A 
BRANCH  42  43
ATOM     43  C   UNL A   1      37.551  32.250  31.224  1.00  0.00     0.031 A 
ATOM     44  C   UNL A   1      38.082  32.617  32.583  1.00  0.00     0.074 A 
ATOM     45  C   UNL A   1      38.156  31.296  30.492  1.00  0.00     0.049 A 
ATOM     46  N   UNL A   1      39.114  32.133  33.226  1.00  0.00    -0.248 NA
ATOM     47  C   UNL A   1      37.372  33.684  33.304  1.00  0.00     0.031 C 
ATOM     48  C   UNL A   1      37.761  30.890  29.142  1.00  0.00     0.029 A 
ATOM     49  N   UNL A   1      39.240  30.503  30.772  1.00  0.00    -0.354 N 
ATOM     50  C   UNL A   1      39.176  32.833  34.423  1.00  0.00     0.074 A 
ATOM     51  C   UNL A   1      38.118  33.820  34.391  1.00  0.00     0.031 C 
ATOM     52  C   UNL A   1      38.578  29.912  28.720  1.00  0.00     0.029 A 
ATOM     53  C   UNL A   1      39.575  29.647  29.752  1.00  0.00     0.049 A 
ATOM     54  H   UNL A   1      39.731  30.543  31.626  1.00  0.00     0.167 HD
ATOM     55  C   UNL A   1      40.020  32.650  35.467  1.00  0.00     0.037 A 
ATOM     56  C   UNL A   1      40.581  28.756  29.658  1.00  0.00     0.037 A 
ATOM     57  C   UNL A   1      41.069  31.663  35.494  1.00  0.00     0.049 A 
ATOM     58  C   UNL A   1      41.521  28.594  30.822  1.00  0.00     0.074 A 
ATOM     59  C   UNL A   1      41.962  31.378  36.512  1.00  0.00     0.029 A 
ATOM     60  N   UNL A   1      41.366  30.801  34.448  1.00  0.00    -0.354 N 
ATOM     61  N   UNL A   1      41.527  29.215  31.977  1.00  0.00    -0.248 NA
ATOM     62  C   UNL A   1      42.592  27.598  30.673  1.00  0.00     0.031 C 
ATOM     63  C   UNL A   1      42.824  30.371  36.068  1.00  0.00     0.029 A 
ATOM     64  C   UNL A   1      42.437  29.992  34.792  1.00  0.00     0.049 A 
ATOM     65  H   UNL A   1      40.887  30.769  33.589  1.00  0.00     0.167 HD
ATOM     66  C   UNL A   1      42.572  28.661  32.703  1.00  0.00     0.074 A 
ATOM     67  C   UNL A   1      43.169  27.643  31.865  1.00  0.00     0.031 C 
ATOM     68  C   UNL A   1      43.003  28.969  33.951  1.00  0.00     0.037 A 
BRANCH  55  69
ATOM     69  C   UNL A   1      39.833  33.523  36.675  1.00  0.00     0.064 A 
ATOM     70  C   UNL A   1      38.941  33.168  37.700  1.00  0.00     0.173 A 
ATOM     71  C   UNL A   1      40.578  34.701  36.835  1.00  0.00     0.173 A 
ATOM     72  F   UNL A   1      38.197  32.056  37.594  1.00  0.00    -0.203 F 
ATOM     73  C   UNL A   1      38.784  33.973  38.826  1.00  0.00     0.198 A 
ATOM     74  C   UNL A   1      40.440  35.486  37.976  1.00  0.00     0.198 A 
ATOM     75  F   UNL A   1      41.448  35.084  35.890  1.00  0.00    -0.203 F 
ATOM     76  F   UNL A   1      37.893  33.635  39.769  1.00  0.00    -0.200 F 
ATOM     77  C   UNL A   1      39.538  35.126  38.967  1.00  0.00     0.200 A 
ATOM     78  F   UNL A   1      41.182  36.594  38.119  1.00  0.00    -0.200 F 
ATOM     79  F   UNL A   1      39.394  35.894  40.056  1.00  0.00    -0.200 F 
ENDBRANCH  55  69
BRANCH  56  80
ATOM     80  C   UNL A   1      40.742  27.932  28.430  1.00  0.00     0.064 A 
ATOM     81  C   UNL A   1      40.133  26.674  28.324  1.00  0.00     0.173 A 
ATOM     82  C   UNL A   1      41.528  28.368  27.354  1.00  0.00     0.173 A 
ATOM     83  F   UNL A   1      39.385  26.204  29.335  1.00  0.00    -0.203 F 
ATOM     84  C   UNL A   1      40.332  25.869  27.205  1.00  0.00     0.198 A 
ATOM     85  C   UNL A   1      41.699  27.576  26.221  1.00  0.00     0.198 A 
ATOM     86  F   UNL A   1      42.127  29.567  27.401  1.00  0.00    -0.203 F 
ATOM     87  F   UNL A   1      39.787  24.646  27.157  1.00  0.00    -0.200 F 
ATOM     88  C   UNL A   1      41.112  26.322  26.152  1.00  0.00     0.200 A 
ATOM     89  F   UNL A   1      42.442  28.024  25.199  1.00  0.00    -0.200 F 
ATOM     90  F   UNL A   1      41.307  25.546  25.078  1.00  0.00    -0.200 F 
ENDBRANCH  56  80
BRANCH  68  91
ATOM     91  C   UNL A   1      44.141  28.160  34.504  1.00  0.00     0.064 A 
ATOM     92  C   UNL A   1      45.475  28.564  34.353  1.00  0.00     0.173 A 
ATOM     93  C   UNL A   1      43.887  26.983  35.223  1.00  0.00     0.173 A 
ATOM     94  F   UNL A   1      45.771  29.674  33.659  1.00  0.00    -0.203 F 
ATOM     95  C   UNL A   1      46.517  27.801  34.876  1.00  0.00     0.198 A 
ATOM     96  C   UNL A   1      44.928  26.241  35.773  1.00  0.00     0.198 A 
ATOM     97  F   UNL A   1      42.628  26.557  35.402  1.00  0.00    -0.203 F 
ATOM     98  F   UNL A   1      47.786  28.178  34.674  1.00  0.00    -0.200 F 
ATOM     99  C   UNL A   1      46.241  26.646  35.593  1.00  0.00     0.200 A 
ATOM    100  F   UNL A   1      44.660  25.133  36.478  1.00  0.00    -0.200 F 
ATOM    101  F   UNL A   1      47.245  25.918  36.101  1.00  0.00    -0.200 F 
ENDBRANCH  68  91
ENDBRANCH  42  43
ENDBRANCH  34  37
ENDBRANCH  32  33
ENDBRANCH  31  32
ENDBRANCH  30  31
ENDBRANCH   1  30
TORSDOF 17
ENDMDL
MODEL 3
REMARK VINA RESULT:     -12.6      5.244     10.761
REMARK SMILES COC(=O)C[C@@H](NC(=O)c1ccccc1C(=O)NCCCCNC(=O)c1ccc(-c2c3nc(c(-c4c(F)c(F)c(F)c(F)c4F)c4ccc([nH]4)c(-c4c(F)c(F)c(F)c(F)c4F)c4nc(c(-c5c(F)c(F)c(F)c(F)c5F)c5ccc2[nH]5)C=C4)C=C3)cc1)c1cccc(C)c1C
REMARK SMILES IDX 19 1 18 2 16 3 17 4 15 6 10 7 11 8 12 9 14 10 13 11 8 12
REMARK SMILES IDX 7 13 9 15 6 16 5 17 3 18 4 19 2 20 1 21 89 22 90 23 95 24
REMARK SMILES IDX 91 25 93 26 96 27 92 28 94 29 20 30 21 31 22 32 23 33 24 34
REMARK SMILES IDX 25 36 26 37 27 38 88 39 28 40 87 41 29 42 30 43 31 44 81 45
REMARK SMILES IDX 32 46 86 47 80 48 82 49 33 50 85 51 79 52 78 53 34 55 66 56
REMARK SMILES IDX 46 57 65 58 47 59 50 60 64 61 83 62 48 63 49 64 63 66 84 67
REMARK SMILES IDX 51 68 35 69 36 70 44 71 37 72 38 73 42 74 45 75 39 76 40 77
REMARK SMILES IDX 43 78 41 79 67 80 68 81 76 82 69 83 70 84 74 85 77 86 71 87
REMARK SMILES IDX 72 88 75 89 73 90 52 91 53 92 61 93 54 94 55 95 59 96 62 97
REMARK SMILES IDX 56 98 57 99 60 100 58 101
REMARK H PARENT 18 5 7 14 23 35 82 54 50 65
REMARK Flexibility Score: inf
ROOT
ATOM      1  C   UNL A   1      35.498  20.550  25.388  1.00  0.00     0.116 C 
ENDROOT
BRANCH   1   2
ATOM      2  N   UNL A   1      35.317  21.814  26.071  1.00  0.00    -0.352 N 
ATOM      3  C   UNL A   1      34.449  22.845  25.938  1.00  0.00     0.252 C 
ATOM      4  O   UNL A   1      34.703  23.839  26.613  1.00  0.00    -0.269 OA
ATOM      5  H   UNL A   1      35.971  21.956  26.792  1.00  0.00     0.163 HD
BRANCH   3   6
ATOM      6  C   UNL A   1      33.330  22.883  24.988  1.00  0.00     0.052 A 
ATOM      7  C   UNL A   1      32.045  23.316  25.290  1.00  0.00     0.052 A 
ATOM      8  C   UNL A   1      31.033  23.294  24.312  1.00  0.00     0.014 A 
ATOM      9  C   UNL A   1      31.341  22.951  22.999  1.00  0.00     0.001 A 
ATOM     10  C   UNL A   1      33.638  22.585  23.653  1.00  0.00     0.014 A 
ATOM     11  C   UNL A   1      32.652  22.629  22.663  1.00  0.00     0.001 A 
BRANCH   7  12
ATOM     12  C   UNL A   1      31.659  23.833  26.593  1.00  0.00     0.252 C 
ATOM     13  N   UNL A   1      31.672  25.162  26.875  1.00  0.00    -0.345 N 
ATOM     14  H   UNL A   1      31.165  25.351  27.698  1.00  0.00     0.164 HD
ATOM     15  O   UNL A   1      31.207  23.048  27.425  1.00  0.00    -0.269 OA
BRANCH  13  16
ATOM     16  C   UNL A   1      32.234  26.416  26.298  1.00  0.00     0.124 C 
BRANCH  16  17
ATOM     17  C   UNL A   1      31.847  27.573  27.253  1.00  0.00     0.152 C 
BRANCH  17  18
ATOM     18  C   UNL A   1      32.854  28.706  27.248  1.00  0.00     0.307 C 
ATOM     19  O   UNL A   1      34.067  28.554  27.258  1.00  0.00    -0.252 OA
BRANCH  18  20
ATOM     20  O   UNL A   1      32.224  29.913  27.165  1.00  0.00    -0.469 OA
ATOM     21  C   UNL A   1      33.047  31.079  27.249  1.00  0.00     0.282 C 
ENDBRANCH  18  20
ENDBRANCH  17  18
ENDBRANCH  16  17
BRANCH  16  22
ATOM     22  C   UNL A   1      31.773  26.729  24.869  1.00  0.00    -0.022 A 
ATOM     23  C   UNL A   1      30.494  27.293  24.692  1.00  0.00     0.006 A 
ATOM     24  C   UNL A   1      32.550  26.469  23.703  1.00  0.00    -0.043 A 
ATOM     25  C   UNL A   1      29.963  27.511  23.423  1.00  0.00     0.001 A 
ATOM     26  C   UNL A   1      31.924  26.507  22.428  1.00  0.00    -0.048 A 
ATOM     27  C   UNL A   1      34.049  26.265  23.725  1.00  0.00     0.045 C 
ATOM     28  C   UNL A   1      30.652  27.075  22.300  1.00  0.00     0.004 A 
ATOM     29  C   UNL A   1      32.576  25.951  21.185  1.00  0.00     0.044 C 
ENDBRANCH  16  22
ENDBRANCH  13  16
ENDBRANCH   7  12
ENDBRANCH   3   6
ENDBRANCH   1   2
BRANCH   1  30
ATOM     30  C   UNL A   1      36.819  20.562  24.602  1.00  0.00     0.023 C 
BRANCH  30  31
ATOM     31  C   UNL A   1      37.883  19.558  25.087  1.00  0.00     0.023 C 
BRANCH  31  32
ATOM     32  C   UNL A   1      39.111  20.182  25.746  1.00  0.00     0.116 C 
BRANCH  32  33
ATOM     33  N   UNL A   1      40.158  19.201  25.970  1.00  0.00    -0.352 N 
ATOM     34  C   UNL A   1      41.506  19.388  26.125  1.00  0.00     0.251 C 
ATOM     35  H   UNL A   1      39.854  18.265  26.017  1.00  0.00     0.163 HD
ATOM     36  O   UNL A   1      42.279  18.439  26.015  1.00  0.00    -0.269 OA
BRANCH  34  37
ATOM     37  C   UNL A   1      42.040  20.731  26.424  1.00  0.00     0.039 A 
ATOM     38  C   UNL A   1      42.353  21.589  25.367  1.00  0.00     0.014 A 
ATOM     39  C   UNL A   1      42.282  21.124  27.742  1.00  0.00     0.014 A 
ATOM     40  C   UNL A   1      42.855  22.864  25.636  1.00  0.00     0.010 A 
ATOM     41  C   UNL A   1      42.719  22.419  28.013  1.00  0.00     0.010 A 
ATOM     42  C   UNL A   1      43.013  23.299  26.963  1.00  0.00    -0.014 A 
BRANCH  42  43
ATOM     43  C   UNL A   1      43.473  24.676  27.271  1.00  0.00     0.031 A 
ATOM     44  C   UNL A   1      42.505  25.699  27.798  1.00  0.00     0.074 A 
ATOM     45  C   UNL A   1      44.750  25.017  27.013  1.00  0.00     0.049 A 
ATOM     46  N   UNL A   1      42.704  26.965  28.066  1.00  0.00    -0.248 NA
ATOM     47  C   UNL A   1      41.126  25.246  28.032  1.00  0.00     0.031 C 
ATOM     48  C   UNL A   1      45.766  24.123  26.454  1.00  0.00     0.029 A 
ATOM     49  N   UNL A   1      45.409  26.209  27.172  1.00  0.00    -0.354 N 
ATOM     50  C   UNL A   1      41.480  27.456  28.501  1.00  0.00     0.074 A 
ATOM     51  C   UNL A   1      40.529  26.371  28.399  1.00  0.00     0.031 C 
ATOM     52  C   UNL A   1      46.923  24.792  26.335  1.00  0.00     0.029 A 
ATOM     53  C   UNL A   1      46.723  26.169  26.774  1.00  0.00     0.049 A 
ATOM     54  H   UNL A   1      44.982  27.017  27.539  1.00  0.00     0.167 HD
ATOM     55  C   UNL A   1      41.184  28.691  28.971  1.00  0.00     0.037 A 
ATOM     56  C   UNL A   1      47.658  27.140  26.757  1.00  0.00     0.037 A 
ATOM     57  C   UNL A   1      42.136  29.767  29.074  1.00  0.00     0.049 A 
ATOM     58  C   UNL A   1      47.292  28.511  27.258  1.00  0.00     0.074 A 
ATOM     59  C   UNL A   1      41.946  31.048  29.560  1.00  0.00     0.029 A 
ATOM     60  N   UNL A   1      43.464  29.683  28.678  1.00  0.00    -0.354 N 
ATOM     61  N   UNL A   1      46.148  28.944  27.731  1.00  0.00    -0.248 NA
ATOM     62  C   UNL A   1      48.352  29.528  27.231  1.00  0.00     0.031 C 
ATOM     63  C   UNL A   1      43.146  31.752  29.422  1.00  0.00     0.029 A 
ATOM     64  C   UNL A   1      44.100  30.894  28.897  1.00  0.00     0.049 A 
ATOM     65  H   UNL A   1      43.890  28.882  28.297  1.00  0.00     0.167 HD
ATOM     66  C   UNL A   1      46.361  30.268  28.091  1.00  0.00     0.074 A 
ATOM     67  C   UNL A   1      47.748  30.563  27.797  1.00  0.00     0.031 C 
ATOM     68  C   UNL A   1      45.487  31.161  28.617  1.00  0.00     0.037 A 
BRANCH  55  69
ATOM     69  C   UNL A   1      39.775  28.943  29.427  1.00  0.00     0.064 A 
ATOM     70  C   UNL A   1      39.388  28.715  30.758  1.00  0.00     0.173 A 
ATOM     71  C   UNL A   1      38.813  29.456  28.545  1.00  0.00     0.173 A 
ATOM     72  F   UNL A   1      40.266  28.217  31.641  1.00  0.00    -0.203 F 
ATOM     73  C   UNL A   1      38.084  28.966  31.180  1.00  0.00     0.198 A 
ATOM     74  C   UNL A   1      37.519  29.735  28.979  1.00  0.00     0.198 A 
ATOM     75  F   UNL A   1      39.130  29.699  27.265  1.00  0.00    -0.203 F 
ATOM     76  F   UNL A   1      37.728  28.697  32.443  1.00  0.00    -0.200 F 
ATOM     77  C   UNL A   1      37.154  29.483  30.293  1.00  0.00     0.200 A 
ATOM     78  F   UNL A   1      36.623  30.249  28.123  1.00  0.00    -0.200 F 
ATOM     79  F   UNL A   1      35.903  29.734  30.703  1.00  0.00    -0.200 F 
ENDBRANCH  55  69
BRANCH  56  80
ATOM     80  C   UNL A   1      49.033  26.849  26.271  1.00  0.00     0.064 A 
ATOM     81  C   UNL A   1      49.376  27.041  24.926  1.00  0.00     0.173 A 
ATOM     82  C   UNL A   1      50.021  26.348  27.130  1.00  0.00     0.173 A 
ATOM     83  F   UNL A   1      48.460  27.501  24.060  1.00  0.00    -0.203 F 
ATOM     84  C   UNL A   1      50.643  26.710  24.451  1.00  0.00     0.198 A 
ATOM     85  C   UNL A   1      51.298  26.049  26.661  1.00  0.00     0.198 A 
ATOM     86  F   UNL A   1      49.748  26.154  28.429  1.00  0.00    -0.203 F 
ATOM     87  F   UNL A   1      50.924  26.846  23.148  1.00  0.00    -0.200 F 
ATOM     88  C   UNL A   1      51.605  26.217  25.319  1.00  0.00     0.200 A 
ATOM     89  F   UNL A   1      52.230  25.587  27.508  1.00  0.00    -0.200 F 
ATOM     90  F   UNL A   1      52.822  25.895  24.862  1.00  0.00    -0.200 F 
ENDBRANCH  56  80
BRANCH  68  91
ATOM     91  C   UNL A   1      46.018  32.525  28.955  1.00  0.00     0.064 A 
ATOM     92  C   UNL A   1      45.972  33.583  28.036  1.00  0.00     0.173 A 
ATOM     93  C   UNL A   1      46.550  32.780  30.227  1.00  0.00     0.173 A 
ATOM     94  F   UNL A   1      45.488  33.385  26.801  1.00  0.00    -0.203 F 
ATOM     95  C   UNL A   1      46.467  34.842  28.370  1.00  0.00     0.198 A 
ATOM     96  C   UNL A   1      47.013  34.047  30.569  1.00  0.00     0.198 A 
ATOM     97  F   UNL A   1      46.611  31.803  31.144  1.00  0.00    -0.203 F 
ATOM     98  F   UNL A   1      46.462  35.824  27.459  1.00  0.00    -0.200 F 
ATOM     99  C   UNL A   1      46.979  35.074  29.638  1.00  0.00     0.200 A 
ATOM    100  F   UNL A   1      47.495  34.274  31.799  1.00  0.00    -0.200 F 
ATOM    101  F   UNL A   1      47.448  36.288  29.959  1.00  0.00    -0.200 F 
ENDBRANCH  68  91
ENDBRANCH  42  43
ENDBRANCH  34  37
ENDBRANCH  32  33
ENDBRANCH  31  32
ENDBRANCH  30  31
ENDBRANCH   1  30
TORSDOF 17
ENDMDL
