MODEL 1
REMARK VINA RESULT:     -12.7      0.000      0.000
REMARK SMILES Cc1cccc2sc(NC(=O)/C=C/C(=O)NCCCCNC(=O)c3ccc(-c4c5nc(c(-c6c(F)c(F)c(F)c(F)c6F)c6ccc([nH]6)c(-c6c(F)c(F)c(F)c(F)c6F)c6nc(c(-c7c(F)c(F)c(F)c(F)c7F)c7ccc4[nH]7)C=C6)C=C5)cc3)nc12
REMARK SMILES IDX 18 1 17 2 16 3 14 4 15 5 13 7 12 8 10 9 9 10 11 12 8 13 1 14
REMARK SMILES IDX 2 15 3 16 88 17 4 18 6 19 87 20 5 21 7 22 19 23 20 24 21 25
REMARK SMILES IDX 22 26 23 28 24 29 25 30 86 31 26 32 85 33 27 34 28 35 29 36
REMARK SMILES IDX 79 37 30 38 84 39 78 40 80 41 31 42 83 43 77 44 76 45 32 47
REMARK SMILES IDX 64 48 44 49 63 50 45 51 48 52 62 53 81 54 46 55 47 56 61 58
REMARK SMILES IDX 82 59 49 60 33 61 34 62 42 63 35 64 36 65 40 66 43 67 37 68
REMARK SMILES IDX 38 69 41 70 39 71 65 72 66 73 74 74 67 75 68 76 72 77 75 78
REMARK SMILES IDX 69 79 70 80 73 81 71 82 50 83 51 84 59 85 52 86 53 87 57 88
REMARK SMILES IDX 60 89 54 90 55 91 58 92 56 93
REMARK H PARENT 16 6 9 11 21 27 80 46 48 57
REMARK Flexibility Score: inf
ROOT
ATOM      1  C   UNL A   1      31.870  30.395  26.714  1.00  0.00     0.023 C 
ENDROOT
BRANCH   1   2
ATOM      2  C   UNL A   1      31.730  29.708  25.359  1.00  0.00     0.116 C 
BRANCH   2   3
ATOM      3  N   UNL A   1      33.001  29.622  24.670  1.00  0.00    -0.353 N 
ATOM      4  C   UNL A   1      33.338  28.878  23.586  1.00  0.00     0.244 C 
ATOM      5  O   UNL A   1      34.411  29.059  23.018  1.00  0.00    -0.270 OA
ATOM      6  H   UNL A   1      33.721  30.184  25.039  1.00  0.00     0.163 HD
BRANCH   4   7
ATOM      7  C   UNL A   1      32.404  27.859  23.074  1.00  0.00     0.077 C 
ATOM      8  C   UNL A   1      32.875  26.747  22.492  1.00  0.00     0.077 C 
BRANCH   8   9
ATOM      9  C   UNL A   1      31.945  25.850  21.790  1.00  0.00     0.250 C 
ATOM     10  N   UNL A   1      31.892  24.522  22.074  1.00  0.00    -0.298 N 
ATOM     11  H   UNL A   1      31.272  24.017  21.500  1.00  0.00     0.172 HD
ATOM     12  O   UNL A   1      31.219  26.334  20.922  1.00  0.00    -0.270 OA
BRANCH  10  13
ATOM     13  C   UNL A   1      32.536  23.748  23.007  1.00  0.00     0.190 A 
ATOM     14  C   UNL A   1      36.703  22.671  23.356  1.00  0.00     0.047 C 
ATOM     15  C   UNL A   1      35.605  22.528  24.368  1.00  0.00    -0.024 A 
ATOM     16  C   UNL A   1      35.895  22.069  25.669  1.00  0.00     0.006 A 
ATOM     17  C   UNL A   1      34.265  22.877  24.070  1.00  0.00     0.087 A 
ATOM     18  C   UNL A   1      34.895  21.913  26.627  1.00  0.00     0.002 A 
ATOM     19  C   UNL A   1      33.278  22.655  25.030  1.00  0.00     0.057 A 
ATOM     20  N   UNL A   1      33.812  23.468  22.894  1.00  0.00    -0.220 NA
ATOM     21  C   UNL A   1      33.564  22.178  26.315  1.00  0.00     0.021 A 
ATOM     22  S   UNL A   1      31.760  23.047  24.346  1.00  0.00    -0.097 S 
ENDBRANCH  10  13
ENDBRANCH   8   9
ENDBRANCH   4   7
ENDBRANCH   2   3
ENDBRANCH   1   2
BRANCH   1  23
ATOM     23  C   UNL A   1      31.658  31.912  26.690  1.00  0.00     0.023 C 
BRANCH  23  24
ATOM     24  C   UNL A   1      32.785  32.738  27.303  1.00  0.00     0.116 C 
BRANCH  24  25
ATOM     25  N   UNL A   1      32.393  34.099  27.637  1.00  0.00    -0.352 N 
ATOM     26  C   UNL A   1      32.956  34.943  28.561  1.00  0.00     0.251 C 
ATOM     27  H   UNL A   1      31.626  34.461  27.136  1.00  0.00     0.163 HD
ATOM     28  O   UNL A   1      32.471  36.049  28.780  1.00  0.00    -0.269 OA
BRANCH  26  29
ATOM     29  C   UNL A   1      34.126  34.483  29.329  1.00  0.00     0.039 A 
ATOM     30  C   UNL A   1      33.917  33.876  30.569  1.00  0.00     0.014 A 
ATOM     31  C   UNL A   1      35.415  34.601  28.801  1.00  0.00     0.014 A 
ATOM     32  C   UNL A   1      34.997  33.321  31.253  1.00  0.00     0.010 A 
ATOM     33  C   UNL A   1      36.482  33.993  29.454  1.00  0.00     0.010 A 
ATOM     34  C   UNL A   1      36.280  33.344  30.683  1.00  0.00    -0.014 A 
BRANCH  34  35
ATOM     35  C   UNL A   1      37.427  32.689  31.356  1.00  0.00     0.031 A 
ATOM     36  C   UNL A   1      38.135  31.547  30.686  1.00  0.00     0.074 A 
ATOM     37  C   UNL A   1      37.782  33.078  32.595  1.00  0.00     0.049 A 
ATOM     38  N   UNL A   1      39.108  30.798  31.137  1.00  0.00    -0.248 NA
ATOM     39  C   UNL A   1      37.666  31.180  29.340  1.00  0.00     0.031 C 
ATOM     40  C   UNL A   1      37.133  34.141  33.366  1.00  0.00     0.029 A 
ATOM     41  N   UNL A   1      38.766  32.616  33.430  1.00  0.00    -0.354 N 
ATOM     42  C   UNL A   1      39.353  29.862  30.142  1.00  0.00     0.074 A 
ATOM     43  C   UNL A   1      38.397  30.106  29.083  1.00  0.00     0.031 C 
ATOM     44  C   UNL A   1      37.749  34.261  34.552  1.00  0.00     0.029 A 
ATOM     45  C   UNL A   1      38.813  33.267  34.639  1.00  0.00     0.049 A 
ATOM     46  H   UNL A   1      39.381  31.887  33.186  1.00  0.00     0.167 HD
ATOM     47  C   UNL A   1      40.306  28.901  30.106  1.00  0.00     0.037 A 
ATOM     48  C   UNL A   1      39.623  33.076  35.697  1.00  0.00     0.037 A 
ATOM     49  C   UNL A   1      41.275  28.685  31.147  1.00  0.00     0.049 A 
ATOM     50  C   UNL A   1      40.686  32.014  35.624  1.00  0.00     0.074 A 
ATOM     51  C   UNL A   1      42.321  27.781  31.181  1.00  0.00     0.029 A 
ATOM     52  N   UNL A   1      41.315  29.389  32.343  1.00  0.00    -0.354 N 
ATOM     53  N   UNL A   1      40.956  31.179  34.649  1.00  0.00    -0.248 NA
ATOM     54  C   UNL A   1      41.564  31.872  36.794  1.00  0.00     0.031 C 
ATOM     55  C   UNL A   1      42.973  27.912  32.411  1.00  0.00     0.029 A 
ATOM     56  C   UNL A   1      42.360  28.928  33.127  1.00  0.00     0.049 A 
ATOM     57  H   UNL A   1      40.693  30.109  32.596  1.00  0.00     0.167 HD
ATOM     58  C   UNL A   1      42.047  30.437  35.073  1.00  0.00     0.074 A 
ATOM     59  C   UNL A   1      42.399  30.925  36.390  1.00  0.00     0.031 C 
ATOM     60  C   UNL A   1      42.701  29.440  34.430  1.00  0.00     0.037 A 
BRANCH  47  61
ATOM     61  C   UNL A   1      40.351  28.017  28.895  1.00  0.00     0.064 A 
ATOM     62  C   UNL A   1      41.097  28.365  27.759  1.00  0.00     0.173 A 
ATOM     63  C   UNL A   1      39.664  26.793  28.880  1.00  0.00     0.173 A 
ATOM     64  F   UNL A   1      41.761  29.529  27.718  1.00  0.00    -0.203 F 
ATOM     65  C   UNL A   1      41.128  27.535  26.641  1.00  0.00     0.198 A 
ATOM     66  C   UNL A   1      39.721  25.953  27.771  1.00  0.00     0.198 A 
ATOM     67  F   UNL A   1      38.939  26.412  29.942  1.00  0.00    -0.203 F 
ATOM     68  F   UNL A   1      41.807  27.912  25.549  1.00  0.00    -0.200 F 
ATOM     69  C   UNL A   1      40.446  26.328  26.650  1.00  0.00     0.200 A 
ATOM     70  F   UNL A   1      39.070  24.782  27.786  1.00  0.00    -0.200 F 
ATOM     71  F   UNL A   1      40.481  25.528  25.575  1.00  0.00    -0.200 F 
ENDBRANCH  47  61
BRANCH  48  72
ATOM     72  C   UNL A   1      39.485  33.935  36.901  1.00  0.00     0.064 A 
ATOM     73  C   UNL A   1      40.109  35.188  36.964  1.00  0.00     0.173 A 
ATOM     74  C   UNL A   1      38.728  33.526  38.008  1.00  0.00     0.173 A 
ATOM     75  F   UNL A   1      40.860  35.614  35.936  1.00  0.00    -0.203 F 
ATOM     76  C   UNL A   1      39.998  35.992  38.096  1.00  0.00     0.198 A 
ATOM     77  C   UNL A   1      38.597  34.342  39.130  1.00  0.00     0.198 A 
ATOM     78  F   UNL A   1      38.105  32.339  37.995  1.00  0.00    -0.203 F 
ATOM     79  F   UNL A   1      40.640  37.168  38.146  1.00  0.00    -0.200 F 
ATOM     80  C   UNL A   1      39.238  35.571  39.176  1.00  0.00     0.200 A 
ATOM     81  F   UNL A   1      37.850  33.937  40.167  1.00  0.00    -0.200 F 
ATOM     82  F   UNL A   1      39.128  36.346  40.264  1.00  0.00    -0.200 F 
ENDBRANCH  48  72
BRANCH  60  83
ATOM     83  C   UNL A   1      43.888  28.837  35.121  1.00  0.00     0.064 A 
ATOM     84  C   UNL A   1      45.173  29.379  34.979  1.00  0.00     0.173 A 
ATOM     85  C   UNL A   1      43.725  27.736  35.975  1.00  0.00     0.173 A 
ATOM     86  F   UNL A   1      45.380  30.422  34.162  1.00  0.00    -0.203 F 
ATOM     87  C   UNL A   1      46.258  28.825  35.654  1.00  0.00     0.198 A 
ATOM     88  C   UNL A   1      44.807  27.203  36.668  1.00  0.00     0.198 A 
ATOM     89  F   UNL A   1      42.513  27.187  36.147  1.00  0.00    -0.203 F 
ATOM     90  F   UNL A   1      47.486  29.334  35.475  1.00  0.00    -0.200 F 
ATOM     91  C   UNL A   1      46.073  27.745  36.503  1.00  0.00     0.200 A 
ATOM     92  F   UNL A   1      44.626  26.166  37.497  1.00  0.00    -0.200 F 
ATOM     93  F   UNL A   1      47.118  27.221  37.160  1.00  0.00    -0.200 F 
ENDBRANCH  60  83
ENDBRANCH  34  35
ENDBRANCH  26  29
ENDBRANCH  24  25
ENDBRANCH  23  24
ENDBRANCH   1  23
TORSDOF 13
ENDMDL
MODEL 2
REMARK VINA RESULT:     -12.7      4.857      9.385
REMARK SMILES Cc1cccc2sc(NC(=O)/C=C/C(=O)NCCCCNC(=O)c3ccc(-c4c5nc(c(-c6c(F)c(F)c(F)c(F)c6F)c6ccc([nH]6)c(-c6c(F)c(F)c(F)c(F)c6F)c6nc(c(-c7c(F)c(F)c(F)c(F)c7F)c7ccc4[nH]7)C=C6)C=C5)cc3)nc12
REMARK SMILES IDX 18 1 17 2 16 3 14 4 15 5 13 7 12 8 10 9 9 10 11 12 8 13 1 14
REMARK SMILES IDX 2 15 3 16 88 17 4 18 6 19 87 20 5 21 7 22 19 23 20 24 21 25
REMARK SMILES IDX 22 26 23 28 24 29 25 30 86 31 26 32 85 33 27 34 28 35 29 36
REMARK SMILES IDX 79 37 30 38 84 39 78 40 80 41 31 42 83 43 77 44 76 45 32 47
REMARK SMILES IDX 64 48 44 49 63 50 45 51 48 52 62 53 81 54 46 55 47 56 61 58
REMARK SMILES IDX 82 59 49 60 33 61 34 62 42 63 35 64 36 65 40 66 43 67 37 68
REMARK SMILES IDX 38 69 41 70 39 71 65 72 66 73 74 74 67 75 68 76 72 77 75 78
REMARK SMILES IDX 69 79 70 80 73 81 71 82 50 83 51 84 59 85 52 86 53 87 57 88
REMARK SMILES IDX 60 89 54 90 55 91 58 92 56 93
REMARK H PARENT 16 6 9 11 21 27 80 46 48 57
REMARK Flexibility Score: inf
ROOT
ATOM      1  C   UNL A   1      44.362  23.073  25.294  1.00  0.00     0.023 C 
ENDROOT
BRANCH   1   2
ATOM      2  C   UNL A   1      44.760  22.176  24.125  1.00  0.00     0.116 C 
BRANCH   2   3
ATOM      3  N   UNL A   1      45.843  21.282  24.483  1.00  0.00    -0.353 N 
ATOM      4  C   UNL A   1      45.806  19.946  24.718  1.00  0.00     0.244 C 
ATOM      5  O   UNL A   1      46.848  19.307  24.834  1.00  0.00    -0.270 OA
ATOM      6  H   UNL A   1      46.729  21.703  24.566  1.00  0.00     0.163 HD
BRANCH   4   7
ATOM      7  C   UNL A   1      44.510  19.251  24.814  1.00  0.00     0.077 C 
ATOM      8  C   UNL A   1      43.615  19.622  25.741  1.00  0.00     0.077 C 
BRANCH   8   9
ATOM      9  C   UNL A   1      42.429  18.786  25.976  1.00  0.00     0.250 C 
ATOM     10  N   UNL A   1      41.291  19.305  26.510  1.00  0.00    -0.298 N 
ATOM     11  H   UNL A   1      40.586  18.636  26.670  1.00  0.00     0.172 HD
ATOM     12  O   UNL A   1      42.495  17.591  25.685  1.00  0.00    -0.270 OA
BRANCH  10  13
ATOM     13  C   UNL A   1      40.934  20.581  26.868  1.00  0.00     0.190 A 
ATOM     14  C   UNL A   1      42.922  23.425  29.438  1.00  0.00     0.047 C 
ATOM     15  C   UNL A   1      41.793  23.652  28.477  1.00  0.00    -0.024 A 
ATOM     16  C   UNL A   1      41.306  24.956  28.251  1.00  0.00     0.006 A 
ATOM     17  C   UNL A   1      41.209  22.589  27.747  1.00  0.00     0.087 A 
ATOM     18  C   UNL A   1      40.250  25.197  27.374  1.00  0.00     0.002 A 
ATOM     19  C   UNL A   1      40.117  22.854  26.922  1.00  0.00     0.057 A 
ATOM     20  N   UNL A   1      41.640  21.265  27.736  1.00  0.00    -0.220 NA
ATOM     21  C   UNL A   1      39.619  24.146  26.714  1.00  0.00     0.021 A 
ATOM     22  S   UNL A   1      39.551  21.373  26.279  1.00  0.00    -0.097 S 
ENDBRANCH  10  13
ENDBRANCH   8   9
ENDBRANCH   4   7
ENDBRANCH   2   3
ENDBRANCH   1   2
BRANCH   1  23
ATOM     23  C   UNL A   1      43.176  24.003  25.016  1.00  0.00     0.023 C 
BRANCH  23  24
ATOM     24  C   UNL A   1      43.485  25.495  25.096  1.00  0.00     0.116 C 
BRANCH  24  25
ATOM     25  N   UNL A   1      44.890  25.810  24.890  1.00  0.00    -0.352 N 
ATOM     26  C   UNL A   1      45.714  26.578  25.674  1.00  0.00     0.251 C 
ATOM     27  H   UNL A   1      45.304  25.421  24.085  1.00  0.00     0.163 HD
ATOM     28  O   UNL A   1      46.869  26.809  25.334  1.00  0.00    -0.269 OA
BRANCH  26  29
ATOM     29  C   UNL A   1      45.173  27.168  26.912  1.00  0.00     0.039 A 
ATOM     30  C   UNL A   1      45.040  28.556  26.989  1.00  0.00     0.014 A 
ATOM     31  C   UNL A   1      44.751  26.351  27.964  1.00  0.00     0.014 A 
ATOM     32  C   UNL A   1      44.415  29.124  28.098  1.00  0.00     0.010 A 
ATOM     33  C   UNL A   1      44.073  26.914  29.040  1.00  0.00     0.010 A 
ATOM     34  C   UNL A   1      43.896  28.305  29.113  1.00  0.00    -0.014 A 
BRANCH  34  35
ATOM     35  C   UNL A   1      43.158  28.884  30.260  1.00  0.00     0.031 A 
ATOM     36  C   UNL A   1      41.747  29.364  30.077  1.00  0.00     0.074 A 
ATOM     37  C   UNL A   1      43.783  29.040  31.443  1.00  0.00     0.049 A 
ATOM     38  N   UNL A   1      40.960  29.965  30.932  1.00  0.00    -0.248 NA
ATOM     39  C   UNL A   1      41.153  29.170  28.745  1.00  0.00     0.031 C 
ATOM     40  C   UNL A   1      45.169  28.659  31.723  1.00  0.00     0.029 A 
ATOM     41  N   UNL A   1      43.339  29.572  32.625  1.00  0.00    -0.354 N 
ATOM     42  C   UNL A   1      39.789  30.236  30.238  1.00  0.00     0.074 A 
ATOM     43  C   UNL A   1      39.984  29.778  28.879  1.00  0.00     0.031 C 
ATOM     44  C   UNL A   1      45.455  28.953  33.001  1.00  0.00     0.029 A 
ATOM     45  C   UNL A   1      44.286  29.569  33.620  1.00  0.00     0.049 A 
ATOM     46  H   UNL A   1      42.427  29.923  32.751  1.00  0.00     0.167 HD
ATOM     47  C   UNL A   1      38.646  30.794  30.701  1.00  0.00     0.037 A 
ATOM     48  C   UNL A   1      44.216  30.018  34.888  1.00  0.00     0.037 A 
ATOM     49  C   UNL A   1      38.447  31.217  32.061  1.00  0.00     0.049 A 
ATOM     50  C   UNL A   1      42.928  30.618  35.383  1.00  0.00     0.074 A 
ATOM     51  C   UNL A   1      37.306  31.737  32.647  1.00  0.00     0.029 A 
ATOM     52  N   UNL A   1      39.417  31.165  33.052  1.00  0.00    -0.354 N 
ATOM     53  N   UNL A   1      41.801  30.806  34.737  1.00  0.00    -0.248 NA
ATOM     54  C   UNL A   1      42.897  31.061  36.783  1.00  0.00     0.031 C 
ATOM     55  C   UNL A   1      37.597  32.032  33.982  1.00  0.00     0.029 A 
ATOM     56  C   UNL A   1      38.906  31.656  34.241  1.00  0.00     0.049 A 
ATOM     57  H   UNL A   1      40.335  30.828  32.927  1.00  0.00     0.167 HD
ATOM     58  C   UNL A   1      40.922  31.358  35.657  1.00  0.00     0.074 A 
ATOM     59  C   UNL A   1      41.641  31.467  36.909  1.00  0.00     0.031 C 
ATOM     60  C   UNL A   1      39.635  31.741  35.481  1.00  0.00     0.037 A 
BRANCH  47  61
ATOM     61  C   UNL A   1      37.519  30.972  29.726  1.00  0.00     0.064 A 
ATOM     62  C   UNL A   1      37.281  32.203  29.097  1.00  0.00     0.173 A 
ATOM     63  C   UNL A   1      36.685  29.893  29.396  1.00  0.00     0.173 A 
ATOM     64  F   UNL A   1      38.042  33.268  29.387  1.00  0.00    -0.203 F 
ATOM     65  C   UNL A   1      36.230  32.355  28.195  1.00  0.00     0.198 A 
ATOM     66  C   UNL A   1      35.654  30.041  28.472  1.00  0.00     0.198 A 
ATOM     67  F   UNL A   1      36.873  28.694  29.967  1.00  0.00    -0.203 F 
ATOM     68  F   UNL A   1      35.992  33.553  27.644  1.00  0.00    -0.200 F 
ATOM     69  C   UNL A   1      35.422  31.273  27.879  1.00  0.00     0.200 A 
ATOM     70  F   UNL A   1      34.881  28.992  28.159  1.00  0.00    -0.200 F 
ATOM     71  F   UNL A   1      34.415  31.420  27.008  1.00  0.00    -0.200 F 
ENDBRANCH  47  61
BRANCH  48  72
ATOM     72  C   UNL A   1      45.389  29.883  35.789  1.00  0.00     0.064 A 
ATOM     73  C   UNL A   1      45.574  28.726  36.557  1.00  0.00     0.173 A 
ATOM     74  C   UNL A   1      46.348  30.900  35.897  1.00  0.00     0.173 A 
ATOM     75  F   UNL A   1      44.672  27.734  36.500  1.00  0.00    -0.203 F 
ATOM     76  C   UNL A   1      46.663  28.598  37.416  1.00  0.00     0.198 A 
ATOM     77  C   UNL A   1      47.450  30.761  36.739  1.00  0.00     0.198 A 
ATOM     78  F   UNL A   1      46.221  32.024  35.178  1.00  0.00    -0.203 F 
ATOM     79  F   UNL A   1      46.793  27.499  38.172  1.00  0.00    -0.200 F 
ATOM     80  C   UNL A   1      47.603  29.614  37.503  1.00  0.00     0.200 A 
ATOM     81  F   UNL A   1      48.364  31.739  36.810  1.00  0.00    -0.200 F 
ATOM     82  F   UNL A   1      48.652  29.490  38.328  1.00  0.00    -0.200 F 
ENDBRANCH  48  72
BRANCH  60  83
ATOM     83  C   UNL A   1      38.906  32.275  36.678  1.00  0.00     0.064 A 
ATOM     84  C   UNL A   1      38.026  31.473  37.419  1.00  0.00     0.173 A 
ATOM     85  C   UNL A   1      39.132  33.588  37.117  1.00  0.00     0.173 A 
ATOM     86  F   UNL A   1      37.768  30.216  37.029  1.00  0.00    -0.203 F 
ATOM     87  C   UNL A   1      37.382  31.975  38.547  1.00  0.00     0.198 A 
ATOM     88  C   UNL A   1      38.507  34.077  38.259  1.00  0.00     0.198 A 
ATOM     89  F   UNL A   1      39.970  34.391  36.443  1.00  0.00    -0.203 F 
ATOM     90  F   UNL A   1      36.515  31.205  39.219  1.00  0.00    -0.200 F 
ATOM     91  C   UNL A   1      37.630  33.273  38.970  1.00  0.00     0.200 A 
ATOM     92  F   UNL A   1      38.755  35.327  38.674  1.00  0.00    -0.200 F 
ATOM     93  F   UNL A   1      37.017  33.751  40.062  1.00  0.00    -0.200 F 
ENDBRANCH  60  83
ENDBRANCH  34  35
ENDBRANCH  26  29
ENDBRANCH  24  25
ENDBRANCH  23  24
ENDBRANCH   1  23
TORSDOF 13
ENDMDL
MODEL 3
REMARK VINA RESULT:     -12.7      0.902      7.495
REMARK SMILES Cc1cccc2sc(NC(=O)/C=C/C(=O)NCCCCNC(=O)c3ccc(-c4c5nc(c(-c6c(F)c(F)c(F)c(F)c6F)c6ccc([nH]6)c(-c6c(F)c(F)c(F)c(F)c6F)c6nc(c(-c7c(F)c(F)c(F)c(F)c7F)c7ccc4[nH]7)C=C6)C=C5)cc3)nc12
REMARK SMILES IDX 18 1 17 2 16 3 14 4 15 5 13 7 12 8 10 9 9 10 11 12 8 13 1 14
REMARK SMILES IDX 2 15 3 16 88 17 4 18 6 19 87 20 5 21 7 22 19 23 20 24 21 25
REMARK SMILES IDX 22 26 23 28 24 29 25 30 86 31 26 32 85 33 27 34 28 35 29 36
REMARK SMILES IDX 79 37 30 38 84 39 78 40 80 41 31 42 83 43 77 44 76 45 32 47
REMARK SMILES IDX 64 48 44 49 63 50 45 51 48 52 62 53 81 54 46 55 47 56 61 58
REMARK SMILES IDX 82 59 49 60 33 61 34 62 42 63 35 64 36 65 40 66 43 67 37 68
REMARK SMILES IDX 38 69 41 70 39 71 65 72 66 73 74 74 67 75 68 76 72 77 75 78
REMARK SMILES IDX 69 79 70 80 73 81 71 82 50 83 51 84 59 85 52 86 53 87 57 88
REMARK SMILES IDX 60 89 54 90 55 91 58 92 56 93
REMARK H PARENT 16 6 9 11 21 27 80 46 48 57
REMARK Flexibility Score: inf
ROOT
ATOM      1  C   UNL A   1      31.572  30.518  26.587  1.00  0.00     0.023 C 
ENDROOT
BRANCH   1   2
ATOM      2  C   UNL A   1      32.675  29.951  25.698  1.00  0.00     0.116 C 
BRANCH   2   3
ATOM      3  N   UNL A   1      33.206  28.713  26.231  1.00  0.00    -0.353 N 
ATOM      4  C   UNL A   1      33.478  27.551  25.584  1.00  0.00     0.244 C 
ATOM      5  O   UNL A   1      34.094  26.654  26.152  1.00  0.00    -0.270 OA
ATOM      6  H   UNL A   1      33.398  28.716  27.196  1.00  0.00     0.163 HD
BRANCH   4   7
ATOM      7  C   UNL A   1      33.049  27.370  24.186  1.00  0.00     0.077 C 
ATOM      8  C   UNL A   1      31.891  26.752  23.912  1.00  0.00     0.077 C 
BRANCH   8   9
ATOM      9  C   UNL A   1      31.581  26.379  22.524  1.00  0.00     0.250 C 
ATOM     10  N   UNL A   1      31.935  25.167  22.020  1.00  0.00    -0.298 N 
ATOM     11  H   UNL A   1      31.724  25.056  21.065  1.00  0.00     0.172 HD
ATOM     12  O   UNL A   1      30.999  27.204  21.819  1.00  0.00    -0.270 OA
BRANCH  10  13
ATOM     13  C   UNL A   1      32.530  24.067  22.587  1.00  0.00     0.190 A 
ATOM     14  C   UNL A   1      36.706  23.112  23.131  1.00  0.00     0.047 C 
ATOM     15  C   UNL A   1      35.503  22.463  23.749  1.00  0.00    -0.024 A 
ATOM     16  C   UNL A   1      35.662  21.452  24.717  1.00  0.00     0.006 A 
ATOM     17  C   UNL A   1      34.186  22.861  23.414  1.00  0.00     0.087 A 
ATOM     18  C   UNL A   1      34.564  20.821  25.300  1.00  0.00     0.002 A 
ATOM     19  C   UNL A   1      33.109  22.172  23.969  1.00  0.00     0.057 A 
ATOM     20  N   UNL A   1      33.833  23.923  22.586  1.00  0.00    -0.220 NA
ATOM     21  C   UNL A   1      33.268  21.152  24.915  1.00  0.00     0.021 A 
ATOM     22  S   UNL A   1      31.664  22.785  23.288  1.00  0.00    -0.097 S 
ENDBRANCH  10  13
ENDBRANCH   8   9
ENDBRANCH   4   7
ENDBRANCH   2   3
ENDBRANCH   1   2
BRANCH   1  23
ATOM     23  C   UNL A   1      31.479  32.048  26.600  1.00  0.00     0.023 C 
BRANCH  23  24
ATOM     24  C   UNL A   1      32.659  32.768  27.245  1.00  0.00     0.116 C 
BRANCH  24  25
ATOM     25  N   UNL A   1      32.362  34.139  27.633  1.00  0.00    -0.352 N 
ATOM     26  C   UNL A   1      32.997  34.914  28.570  1.00  0.00     0.251 C 
ATOM     27  H   UNL A   1      31.610  34.565  27.161  1.00  0.00     0.163 HD
ATOM     28  O   UNL A   1      32.589  36.039  28.836  1.00  0.00    -0.269 OA
BRANCH  26  29
ATOM     29  C   UNL A   1      34.152  34.354  29.295  1.00  0.00     0.039 A 
ATOM     30  C   UNL A   1      33.916  33.573  30.428  1.00  0.00     0.014 A 
ATOM     31  C   UNL A   1      35.453  34.555  28.825  1.00  0.00     0.014 A 
ATOM     32  C   UNL A   1      34.985  32.932  31.054  1.00  0.00     0.010 A 
ATOM     33  C   UNL A   1      36.508  33.865  29.412  1.00  0.00     0.010 A 
ATOM     34  C   UNL A   1      36.281  33.045  30.529  1.00  0.00    -0.014 A 
BRANCH  34  35
ATOM     35  C   UNL A   1      37.417  32.307  31.131  1.00  0.00     0.031 A 
ATOM     36  C   UNL A   1      37.908  32.676  32.500  1.00  0.00     0.074 A 
ATOM     37  C   UNL A   1      38.045  31.355  30.414  1.00  0.00     0.049 A 
ATOM     38  N   UNL A   1      38.929  32.204  33.169  1.00  0.00    -0.248 NA
ATOM     39  C   UNL A   1      37.171  33.740  33.200  1.00  0.00     0.031 C 
ATOM     40  C   UNL A   1      37.690  30.948  29.053  1.00  0.00     0.029 A 
ATOM     41  N   UNL A   1      39.124  30.568  30.725  1.00  0.00    -0.354 N 
ATOM     42  C   UNL A   1      38.967  32.923  34.354  1.00  0.00     0.074 A 
ATOM     43  C   UNL A   1      37.898  33.897  34.296  1.00  0.00     0.031 C 
ATOM     44  C   UNL A   1      38.523  29.974  28.655  1.00  0.00     0.029 A 
ATOM     45  C   UNL A   1      39.488  29.710  29.717  1.00  0.00     0.049 A 
ATOM     46  H   UNL A   1      39.592  30.613  31.590  1.00  0.00     0.167 HD
ATOM     47  C   UNL A   1      39.804  32.769  35.407  1.00  0.00     0.037 A 
ATOM     48  C   UNL A   1      40.491  28.814  29.658  1.00  0.00     0.037 A 
ATOM     49  C   UNL A   1      40.844  31.777  35.472  1.00  0.00     0.049 A 
ATOM     50  C   UNL A   1      41.397  28.649  30.849  1.00  0.00     0.074 A 
ATOM     51  C   UNL A   1      41.706  31.496  36.518  1.00  0.00     0.029 A 
ATOM     52  N   UNL A   1      41.161  30.899  34.445  1.00  0.00    -0.354 N 
ATOM     53  N   UNL A   1      41.380  29.287  31.995  1.00  0.00    -0.248 NA
ATOM     54  C   UNL A   1      42.454  27.634  30.743  1.00  0.00     0.031 C 
ATOM     55  C   UNL A   1      42.567  30.472  36.110  1.00  0.00     0.029 A 
ATOM     56  C   UNL A   1      42.214  30.085  34.827  1.00  0.00     0.049 A 
ATOM     57  H   UNL A   1      40.703  30.860  33.574  1.00  0.00     0.167 HD
ATOM     58  C   UNL A   1      42.400  28.733  32.754  1.00  0.00     0.074 A 
ATOM     59  C   UNL A   1      43.010  27.699  31.944  1.00  0.00     0.031 C 
ATOM     60  C   UNL A   1      42.796  29.051  34.010  1.00  0.00     0.037 A 
BRANCH  47  61
ATOM     61  C   UNL A   1      39.622  33.690  36.576  1.00  0.00     0.064 A 
ATOM     62  C   UNL A   1      38.823  33.335  37.674  1.00  0.00     0.173 A 
ATOM     63  C   UNL A   1      40.277  34.931  36.615  1.00  0.00     0.173 A 
ATOM     64  F   UNL A   1      38.167  32.166  37.680  1.00  0.00    -0.203 F 
ATOM     65  C   UNL A   1      38.661  34.201  38.752  1.00  0.00     0.198 A 
ATOM     66  C   UNL A   1      40.135  35.782  37.708  1.00  0.00     0.198 A 
ATOM     67  F   UNL A   1      41.055  35.317  35.593  1.00  0.00    -0.203 F 
ATOM     68  F   UNL A   1      37.854  33.861  39.766  1.00  0.00    -0.200 F 
ATOM     69  C   UNL A   1      39.322  35.420  38.772  1.00  0.00     0.200 A 
ATOM     70  F   UNL A   1      40.784  36.955  37.731  1.00  0.00    -0.200 F 
ATOM     71  F   UNL A   1      39.169  36.250  39.813  1.00  0.00    -0.200 F 
ENDBRANCH  47  61
BRANCH  48  72
ATOM     72  C   UNL A   1      40.670  27.978  28.444  1.00  0.00     0.064 A 
ATOM     73  C   UNL A   1      41.450  28.428  27.370  1.00  0.00     0.173 A 
ATOM     74  C   UNL A   1      40.070  26.715  28.331  1.00  0.00     0.173 A 
ATOM     75  F   UNL A   1      42.028  29.638  27.425  1.00  0.00    -0.203 F 
ATOM     76  C   UNL A   1      41.608  27.657  26.222  1.00  0.00     0.198 A 
ATOM     77  C   UNL A   1      40.249  25.934  27.191  1.00  0.00     0.198 A 
ATOM     78  F   UNL A   1      39.319  26.236  29.333  1.00  0.00    -0.203 F 
ATOM     79  F   UNL A   1      42.326  28.130  25.193  1.00  0.00    -0.200 F 
ATOM     80  C   UNL A   1      41.012  26.408  26.134  1.00  0.00     0.200 A 
ATOM     81  F   UNL A   1      39.682  24.722  27.117  1.00  0.00    -0.200 F 
ATOM     82  F   UNL A   1      41.167  25.665  25.030  1.00  0.00    -0.200 F 
ENDBRANCH  48  72
BRANCH  60  83
ATOM     83  C   UNL A   1      43.915  28.248  34.603  1.00  0.00     0.064 A 
ATOM     84  C   UNL A   1      43.675  27.043  35.279  1.00  0.00     0.173 A 
ATOM     85  C   UNL A   1      45.246  28.664  34.446  1.00  0.00     0.173 A 
ATOM     86  F   UNL A   1      42.418  26.613  35.466  1.00  0.00    -0.203 F 
ATOM     87  C   UNL A   1      44.728  26.293  35.795  1.00  0.00     0.198 A 
ATOM     88  C   UNL A   1      46.297  27.898  34.940  1.00  0.00     0.198 A 
ATOM     89  F   UNL A   1      45.525  29.806  33.802  1.00  0.00    -0.203 F 
ATOM     90  F   UNL A   1      44.475  25.164  36.472  1.00  0.00    -0.200 F 
ATOM     91  C   UNL A   1      46.037  26.716  35.619  1.00  0.00     0.200 A 
ATOM     92  F   UNL A   1      47.561  28.302  34.760  1.00  0.00    -0.200 F 
ATOM     93  F   UNL A   1      47.050  25.988  36.108  1.00  0.00    -0.200 F 
ENDBRANCH  60  83
ENDBRANCH  34  35
ENDBRANCH  26  29
ENDBRANCH  24  25
ENDBRANCH  23  24
ENDBRANCH   1  23
TORSDOF 13
ENDMDL
