MODEL 1
REMARK VINA RESULT:     -12.1      0.000      0.000
REMARK SMILES C[C@H]1[C@@H](C(=O)NCCCCNC(=O)c2ccc(-c3c4nc(c(-c5c(F)c(F)c(F)c(F)c5F)c5ccc([nH]5)c(-c5c(F)c(F)c(F)c(F)c5F)c5nc(c(-c6c(F)c(F)c(F)c(F)c6F)c6ccc3[nH]6)C=C5)C=C4)cc2)CC[N@@H+]1CC1(O)CCCC1
REMARK SMILES IDX 8 1 7 2 6 3 4 4 5 5 3 7 1 8 2 9 79 10 77 11 78 12 80 14
REMARK SMILES IDX 81 15 83 16 86 17 84 18 85 19 82 20 9 22 10 23 11 24 12 25
REMARK SMILES IDX 13 27 14 28 15 29 76 30 16 31 75 32 17 33 18 34 19 35 69 36
REMARK SMILES IDX 20 37 74 38 68 39 70 40 21 41 73 42 67 43 66 44 22 46 54 47
REMARK SMILES IDX 34 48 53 49 35 50 38 51 52 52 71 53 36 54 37 55 51 57 72 58
REMARK SMILES IDX 39 59 23 60 24 61 32 62 25 63 26 64 30 65 33 66 27 67 28 68
REMARK SMILES IDX 31 69 29 70 55 71 56 72 64 73 57 74 58 75 62 76 65 77 59 78
REMARK SMILES IDX 60 79 63 80 61 81 40 82 41 83 49 84 42 85 43 86 47 87 50 88
REMARK SMILES IDX 44 89 45 90 48 91 46 92
REMARK H PARENT 6 6 79 13 82 21 11 26 70 45 38 56
REMARK Flexibility Score: inf
ROOT
ATOM      1  C   UNL A   1      31.814  30.499  26.885  1.00  0.00     0.023 C 
ENDROOT
BRANCH   1   2
ATOM      2  C   UNL A   1      32.803  29.856  25.910  1.00  0.00     0.116 C 
BRANCH   2   3
ATOM      3  N   UNL A   1      32.160  29.719  24.624  1.00  0.00    -0.356 N 
ATOM      4  C   UNL A   1      31.660  28.592  24.042  1.00  0.00     0.229 C 
ATOM      5  O   UNL A   1      31.574  28.604  22.813  1.00  0.00    -0.275 OA
ATOM      6  H   UNL A   1      32.072  30.547  24.100  1.00  0.00     0.163 HD
BRANCH   4   7
ATOM      7  C   UNL A   1      31.091  27.464  24.906  1.00  0.00     0.142 C 
ATOM      8  C   UNL A   1      33.408  26.161  24.904  1.00  0.00     0.076 C 
ATOM      9  C   UNL A   1      31.956  26.259  25.340  1.00  0.00     0.193 C 
ATOM     10  N   UNL A   1      31.323  25.059  24.788  1.00  0.00    -0.330 N 
ATOM     11  C   UNL A   1      29.881  26.819  24.206  1.00  0.00     0.081 C 
ATOM     12  C   UNL A   1      30.388  25.467  23.754  1.00  0.00     0.263 C 
ATOM     13  H   UNL A   1      32.039  24.489  24.339  1.00  0.00     0.348 HD
BRANCH  10  14
ATOM     14  C   UNL A   1      30.881  24.047  25.750  1.00  0.00     0.297 C 
BRANCH  14  15
ATOM     15  C   UNL A   1      31.696  22.749  25.981  1.00  0.00     0.113 C 
ATOM     16  C   UNL A   1      32.699  22.775  27.138  1.00  0.00     0.041 C 
ATOM     17  C   UNL A   1      32.624  22.478  24.788  1.00  0.00     0.041 C 
ATOM     18  C   UNL A   1      33.701  21.665  26.816  1.00  0.00     0.003 C 
ATOM     19  C   UNL A   1      33.613  21.438  25.307  1.00  0.00     0.003 C 
BRANCH  15  20
ATOM     20  O   UNL A   1      30.799  21.639  26.099  1.00  0.00    -0.384 OA
ATOM     21  H   UNL A   1      30.433  21.424  25.227  1.00  0.00     0.211 HD
ENDBRANCH  15  20
ENDBRANCH  14  15
ENDBRANCH  10  14
ENDBRANCH   4   7
ENDBRANCH   2   3
ENDBRANCH   1   2
BRANCH   1  22
ATOM     22  C   UNL A   1      31.666  32.005  26.752  1.00  0.00     0.023 C 
BRANCH  22  23
ATOM     23  C   UNL A   1      32.800  32.787  27.379  1.00  0.00     0.116 C 
BRANCH  23  24
ATOM     24  N   UNL A   1      32.455  34.175  27.669  1.00  0.00    -0.352 N 
ATOM     25  C   UNL A   1      33.018  35.016  28.598  1.00  0.00     0.251 C 
ATOM     26  H   UNL A   1      31.726  34.559  27.129  1.00  0.00     0.163 HD
ATOM     27  O   UNL A   1      32.560  36.133  28.806  1.00  0.00    -0.269 OA
BRANCH  25  28
ATOM     28  C   UNL A   1      34.165  34.516  29.374  1.00  0.00     0.039 A 
ATOM     29  C   UNL A   1      33.933  33.817  30.558  1.00  0.00     0.014 A 
ATOM     30  C   UNL A   1      35.452  34.625  28.842  1.00  0.00     0.014 A 
ATOM     31  C   UNL A   1      34.991  33.148  31.170  1.00  0.00     0.010 A 
ATOM     32  C   UNL A   1      36.474  33.867  29.388  1.00  0.00     0.010 A 
ATOM     33  C   UNL A   1      36.257  33.129  30.561  1.00  0.00    -0.014 A 
BRANCH  33  34
ATOM     34  C   UNL A   1      37.387  32.368  31.142  1.00  0.00     0.031 A 
ATOM     35  C   UNL A   1      37.883  32.725  32.516  1.00  0.00     0.074 A 
ATOM     36  C   UNL A   1      38.019  31.433  30.408  1.00  0.00     0.049 A 
ATOM     37  N   UNL A   1      38.926  32.276  33.163  1.00  0.00    -0.248 NA
ATOM     38  C   UNL A   1      37.130  33.766  33.237  1.00  0.00     0.031 C 
ATOM     39  C   UNL A   1      37.677  31.054  29.036  1.00  0.00     0.029 A 
ATOM     40  N   UNL A   1      39.095  30.637  30.713  1.00  0.00    -0.354 N 
ATOM     41  C   UNL A   1      38.974  33.005  34.344  1.00  0.00     0.074 A 
ATOM     42  C   UNL A   1      37.897  33.968  34.297  1.00  0.00     0.031 C 
ATOM     43  C   UNL A   1      38.504  30.076  28.629  1.00  0.00     0.029 A 
ATOM     44  C   UNL A   1      39.454  29.784  29.698  1.00  0.00     0.049 A 
ATOM     45  H   UNL A   1      39.565  30.676  31.576  1.00  0.00     0.167 HD
ATOM     46  C   UNL A   1      39.819  32.860  35.389  1.00  0.00     0.037 A 
ATOM     47  C   UNL A   1      40.437  28.866  29.646  1.00  0.00     0.037 A 
ATOM     48  C   UNL A   1      40.844  31.856  35.457  1.00  0.00     0.049 A 
ATOM     49  C   UNL A   1      41.326  28.682  30.847  1.00  0.00     0.074 A 
ATOM     50  C   UNL A   1      41.700  31.565  36.503  1.00  0.00     0.029 A 
ATOM     51  N   UNL A   1      41.138  30.966  34.435  1.00  0.00    -0.354 N 
ATOM     52  N   UNL A   1      41.318  29.329  31.987  1.00  0.00    -0.248 NA
ATOM     53  C   UNL A   1      42.353  27.635  30.756  1.00  0.00     0.031 C 
ATOM     54  C   UNL A   1      42.531  30.512  36.103  1.00  0.00     0.029 A 
ATOM     55  C   UNL A   1      42.169  30.128  34.822  1.00  0.00     0.049 A 
ATOM     56  H   UNL A   1      40.681  30.936  33.563  1.00  0.00     0.167 HD
ATOM     57  C   UNL A   1      42.319  28.754  32.758  1.00  0.00     0.074 A 
ATOM     58  C   UNL A   1      42.903  27.695  31.961  1.00  0.00     0.031 C 
ATOM     59  C   UNL A   1      42.721  29.073  34.012  1.00  0.00     0.037 A 
BRANCH  46  60
ATOM     60  C   UNL A   1      39.649  33.799  36.548  1.00  0.00     0.064 A 
ATOM     61  C   UNL A   1      40.272  35.056  36.573  1.00  0.00     0.173 A 
ATOM     62  C   UNL A   1      38.853  33.439  37.644  1.00  0.00     0.173 A 
ATOM     63  F   UNL A   1      41.059  35.439  35.556  1.00  0.00    -0.203 F 
ATOM     64  C   UNL A   1      40.130  35.904  37.667  1.00  0.00     0.198 A 
ATOM     65  C   UNL A   1      38.688  34.303  38.724  1.00  0.00     0.198 A 
ATOM     66  F   UNL A   1      38.235  32.248  37.671  1.00  0.00    -0.203 F 
ATOM     67  F   UNL A   1      40.783  37.075  37.693  1.00  0.00    -0.200 F 
ATOM     68  C   UNL A   1      39.335  35.530  38.738  1.00  0.00     0.200 A 
ATOM     69  F   UNL A   1      37.912  33.944  39.756  1.00  0.00    -0.200 F 
ATOM     70  F   UNL A   1      39.198  36.348  39.792  1.00  0.00    -0.200 F 
ENDBRANCH  46  60
BRANCH  47  71
ATOM     71  C   UNL A   1      40.603  28.020  28.437  1.00  0.00     0.064 A 
ATOM     72  C   UNL A   1      39.978  26.768  28.350  1.00  0.00     0.173 A 
ATOM     73  C   UNL A   1      41.382  28.437  27.349  1.00  0.00     0.173 A 
ATOM     74  F   UNL A   1      39.237  26.318  29.374  1.00  0.00    -0.203 F 
ATOM     75  C   UNL A   1      40.142  25.956  27.230  1.00  0.00     0.198 A 
ATOM     76  C   UNL A   1      41.527  27.636  26.218  1.00  0.00     0.198 A 
ATOM     77  F   UNL A   1      41.995  29.630  27.381  1.00  0.00    -0.203 F 
ATOM     78  F   UNL A   1      39.567  24.747  27.191  1.00  0.00    -0.200 F 
ATOM     79  C   UNL A   1      40.913  26.393  26.163  1.00  0.00     0.200 A 
ATOM     80  F   UNL A   1      42.262  28.065  25.184  1.00  0.00    -0.200 F 
ATOM     81  F   UNL A   1      41.070  25.613  25.084  1.00  0.00    -0.200 F 
ENDBRANCH  47  71
BRANCH  59  82
ATOM     82  C   UNL A   1      43.821  28.249  34.609  1.00  0.00     0.064 A 
ATOM     83  C   UNL A   1      45.162  28.651  34.530  1.00  0.00     0.173 A 
ATOM     84  C   UNL A   1      43.523  27.073  35.313  1.00  0.00     0.173 A 
ATOM     85  F   UNL A   1      45.494  29.762  33.855  1.00  0.00    -0.203 F 
ATOM     86  C   UNL A   1      46.168  27.892  35.118  1.00  0.00     0.198 A 
ATOM     87  C   UNL A   1      44.531  26.330  35.921  1.00  0.00     0.198 A 
ATOM     88  F   UNL A   1      42.254  26.652  35.420  1.00  0.00    -0.203 F 
ATOM     89  F   UNL A   1      47.448  28.273  34.998  1.00  0.00    -0.200 F 
ATOM     90  C   UNL A   1      45.852  26.738  35.819  1.00  0.00     0.200 A 
ATOM     91  F   UNL A   1      44.222  25.221  36.607  1.00  0.00    -0.200 F 
ATOM     92  F   UNL A   1      46.823  26.014  36.392  1.00  0.00    -0.200 F 
ENDBRANCH  59  82
ENDBRANCH  33  34
ENDBRANCH  25  28
ENDBRANCH  23  24
ENDBRANCH  22  23
ENDBRANCH   1  22
TORSDOF 14
ENDMDL
MODEL 2
REMARK VINA RESULT:     -12.1      0.203      1.632
REMARK SMILES C[C@H]1[C@@H](C(=O)NCCCCNC(=O)c2ccc(-c3c4nc(c(-c5c(F)c(F)c(F)c(F)c5F)c5ccc([nH]5)c(-c5c(F)c(F)c(F)c(F)c5F)c5nc(c(-c6c(F)c(F)c(F)c(F)c6F)c6ccc3[nH]6)C=C5)C=C4)cc2)CC[N@@H+]1CC1(O)CCCC1
REMARK SMILES IDX 8 1 7 2 6 3 4 4 5 5 3 7 1 8 2 9 79 10 77 11 78 12 80 14
REMARK SMILES IDX 81 15 83 16 86 17 84 18 85 19 82 20 9 22 10 23 11 24 12 25
REMARK SMILES IDX 13 27 14 28 15 29 76 30 16 31 75 32 17 33 18 34 19 35 69 36
REMARK SMILES IDX 20 37 74 38 68 39 70 40 21 41 73 42 67 43 66 44 22 46 54 47
REMARK SMILES IDX 34 48 53 49 35 50 38 51 52 52 71 53 36 54 37 55 51 57 72 58
REMARK SMILES IDX 39 59 23 60 24 61 32 62 25 63 26 64 30 65 33 66 27 67 28 68
REMARK SMILES IDX 31 69 29 70 55 71 56 72 64 73 57 74 58 75 62 76 65 77 59 78
REMARK SMILES IDX 60 79 63 80 61 81 40 82 41 83 49 84 42 85 43 86 47 87 50 88
REMARK SMILES IDX 44 89 45 90 48 91 46 92
REMARK H PARENT 6 6 79 13 82 21 11 26 70 45 38 56
REMARK Flexibility Score: inf
ROOT
ATOM      1  C   UNL A   1      31.905  30.435  26.920  1.00  0.00     0.023 C 
ENDROOT
BRANCH   1   2
ATOM      2  C   UNL A   1      32.927  29.861  25.936  1.00  0.00     0.116 C 
BRANCH   2   3
ATOM      3  N   UNL A   1      32.315  29.777  24.631  1.00  0.00    -0.356 N 
ATOM      4  C   UNL A   1      31.774  28.687  24.016  1.00  0.00     0.229 C 
ATOM      5  O   UNL A   1      31.724  28.723  22.786  1.00  0.00    -0.275 OA
ATOM      6  H   UNL A   1      32.283  30.617  24.119  1.00  0.00     0.163 HD
BRANCH   4   7
ATOM      7  C   UNL A   1      31.125  27.575  24.844  1.00  0.00     0.142 C 
ATOM      8  C   UNL A   1      33.414  26.240  25.030  1.00  0.00     0.076 C 
ATOM      9  C   UNL A   1      31.935  26.362  25.353  1.00  0.00     0.193 C 
ATOM     10  N   UNL A   1      31.327  25.167  24.766  1.00  0.00    -0.330 N 
ATOM     11  C   UNL A   1      29.961  26.941  24.060  1.00  0.00     0.081 C 
ATOM     12  C   UNL A   1      30.480  25.578  23.661  1.00  0.00     0.263 C 
ATOM     13  H   UNL A   1      32.067  24.582  24.378  1.00  0.00     0.348 HD
BRANCH  10  14
ATOM     14  C   UNL A   1      30.799  24.171  25.701  1.00  0.00     0.297 C 
BRANCH  14  15
ATOM     15  C   UNL A   1      31.437  22.763  25.820  1.00  0.00     0.113 C 
ATOM     16  C   UNL A   1      32.724  22.670  26.645  1.00  0.00     0.041 C 
ATOM     17  C   UNL A   1      31.927  22.278  24.449  1.00  0.00     0.041 C 
ATOM     18  C   UNL A   1      33.408  21.388  26.166  1.00  0.00     0.003 C 
ATOM     19  C   UNL A   1      32.853  21.108  24.770  1.00  0.00     0.003 C 
BRANCH  15  20
ATOM     20  O   UNL A   1      30.455  21.833  26.288  1.00  0.00    -0.384 OA
ATOM     21  H   UNL A   1      30.644  21.600  27.210  1.00  0.00     0.211 HD
ENDBRANCH  15  20
ENDBRANCH  14  15
ENDBRANCH  10  14
ENDBRANCH   4   7
ENDBRANCH   2   3
ENDBRANCH   1   2
BRANCH   1  22
ATOM     22  C   UNL A   1      31.687  31.935  26.819  1.00  0.00     0.023 C 
BRANCH  22  23
ATOM     23  C   UNL A   1      32.842  32.756  27.351  1.00  0.00     0.116 C 
BRANCH  23  24
ATOM     24  N   UNL A   1      32.478  34.134  27.661  1.00  0.00    -0.352 N 
ATOM     25  C   UNL A   1      33.015  34.962  28.617  1.00  0.00     0.251 C 
ATOM     26  H   UNL A   1      31.755  34.521  27.116  1.00  0.00     0.163 HD
ATOM     27  O   UNL A   1      32.542  36.071  28.837  1.00  0.00    -0.269 OA
BRANCH  25  28
ATOM     28  C   UNL A   1      34.152  34.459  29.404  1.00  0.00     0.039 A 
ATOM     29  C   UNL A   1      33.905  33.693  30.543  1.00  0.00     0.014 A 
ATOM     30  C   UNL A   1      35.451  34.635  28.923  1.00  0.00     0.014 A 
ATOM     31  C   UNL A   1      34.964  33.027  31.156  1.00  0.00     0.010 A 
ATOM     32  C   UNL A   1      36.479  33.882  29.463  1.00  0.00     0.010 A 
ATOM     33  C   UNL A   1      36.249  33.078  30.589  1.00  0.00    -0.014 A 
BRANCH  33  34
ATOM     34  C   UNL A   1      37.384  32.324  31.169  1.00  0.00     0.031 A 
ATOM     35  C   UNL A   1      37.875  32.680  32.544  1.00  0.00     0.074 A 
ATOM     36  C   UNL A   1      38.024  31.396  30.432  1.00  0.00     0.049 A 
ATOM     37  N   UNL A   1      38.921  32.236  33.192  1.00  0.00    -0.248 NA
ATOM     38  C   UNL A   1      37.115  33.712  33.269  1.00  0.00     0.031 C 
ATOM     39  C   UNL A   1      37.686  31.019  29.058  1.00  0.00     0.029 A 
ATOM     40  N   UNL A   1      39.105  30.608  30.735  1.00  0.00    -0.354 N 
ATOM     41  C   UNL A   1      38.963  32.961  34.375  1.00  0.00     0.074 A 
ATOM     42  C   UNL A   1      37.879  33.916  34.330  1.00  0.00     0.031 C 
ATOM     43  C   UNL A   1      38.521  30.050  28.649  1.00  0.00     0.029 A 
ATOM     44  C   UNL A   1      39.472  29.760  29.718  1.00  0.00     0.049 A 
ATOM     45  H   UNL A   1      39.574  30.646  31.599  1.00  0.00     0.167 HD
ATOM     46  C   UNL A   1      39.808  32.819  35.421  1.00  0.00     0.037 A 
ATOM     47  C   UNL A   1      40.462  28.850  29.664  1.00  0.00     0.037 A 
ATOM     48  C   UNL A   1      40.840  31.821  35.486  1.00  0.00     0.049 A 
ATOM     49  C   UNL A   1      41.351  28.668  30.865  1.00  0.00     0.074 A 
ATOM     50  C   UNL A   1      41.697  31.533  36.532  1.00  0.00     0.029 A 
ATOM     51  N   UNL A   1      41.142  30.938  34.461  1.00  0.00    -0.354 N 
ATOM     52  N   UNL A   1      41.337  29.311  32.007  1.00  0.00    -0.248 NA
ATOM     53  C   UNL A   1      42.386  27.630  30.771  1.00  0.00     0.031 C 
ATOM     54  C   UNL A   1      42.537  30.489  36.129  1.00  0.00     0.029 A 
ATOM     55  C   UNL A   1      42.178  30.106  34.846  1.00  0.00     0.049 A 
ATOM     56  H   UNL A   1      40.686  30.907  33.588  1.00  0.00     0.167 HD
ATOM     57  C   UNL A   1      42.341  28.740  32.777  1.00  0.00     0.074 A 
ATOM     58  C   UNL A   1      42.934  27.689  31.976  1.00  0.00     0.031 C 
ATOM     59  C   UNL A   1      42.739  29.058  34.033  1.00  0.00     0.037 A 
BRANCH  46  60
ATOM     60  C   UNL A   1      39.630  33.751  36.583  1.00  0.00     0.064 A 
ATOM     61  C   UNL A   1      40.250  35.009  36.617  1.00  0.00     0.173 A 
ATOM     62  C   UNL A   1      38.827  33.385  37.673  1.00  0.00     0.173 A 
ATOM     63  F   UNL A   1      41.043  35.399  35.607  1.00  0.00    -0.203 F 
ATOM     64  C   UNL A   1      40.100  35.852  37.714  1.00  0.00     0.198 A 
ATOM     65  C   UNL A   1      38.655  34.244  38.755  1.00  0.00     0.198 A 
ATOM     66  F   UNL A   1      38.211  32.193  37.690  1.00  0.00    -0.203 F 
ATOM     67  F   UNL A   1      40.751  37.024  37.749  1.00  0.00    -0.200 F 
ATOM     68  C   UNL A   1      39.299  35.473  38.779  1.00  0.00     0.200 A 
ATOM     69  F   UNL A   1      37.873  33.879  39.781  1.00  0.00    -0.200 F 
ATOM     70  F   UNL A   1      39.156  36.285  39.835  1.00  0.00    -0.200 F 
ENDBRANCH  46  60
BRANCH  47  71
ATOM     71  C   UNL A   1      40.635  28.010  28.452  1.00  0.00     0.064 A 
ATOM     72  C   UNL A   1      41.416  28.458  27.376  1.00  0.00     0.173 A 
ATOM     73  C   UNL A   1      40.032  26.750  28.339  1.00  0.00     0.173 A 
ATOM     74  F   UNL A   1      41.998  29.665  27.431  1.00  0.00    -0.203 F 
ATOM     75  C   UNL A   1      41.570  27.687  26.226  1.00  0.00     0.198 A 
ATOM     76  C   UNL A   1      40.205  25.968  27.198  1.00  0.00     0.198 A 
ATOM     77  F   UNL A   1      39.281  26.273  29.343  1.00  0.00    -0.203 F 
ATOM     78  F   UNL A   1      42.287  28.158  25.198  1.00  0.00    -0.200 F 
ATOM     79  C   UNL A   1      40.968  26.441  26.140  1.00  0.00     0.200 A 
ATOM     80  F   UNL A   1      39.632  24.760  27.122  1.00  0.00    -0.200 F 
ATOM     81  F   UNL A   1      41.117  25.698  25.034  1.00  0.00    -0.200 F 
ENDBRANCH  47  71
BRANCH  59  82
ATOM     82  C   UNL A   1      43.845  28.241  34.628  1.00  0.00     0.064 A 
ATOM     83  C   UNL A   1      43.585  27.045  35.312  1.00  0.00     0.173 A 
ATOM     84  C   UNL A   1      45.183  28.632  34.464  1.00  0.00     0.173 A 
ATOM     85  F   UNL A   1      42.320  26.639  35.503  1.00  0.00    -0.203 F 
ATOM     86  C   UNL A   1      44.625  26.279  35.829  1.00  0.00     0.198 A 
ATOM     87  C   UNL A   1      46.221  27.851  34.962  1.00  0.00     0.198 A 
ATOM     88  F   UNL A   1      45.480  29.765  33.811  1.00  0.00    -0.203 F 
ATOM     89  F   UNL A   1      44.353  25.160  36.514  1.00  0.00    -0.200 F 
ATOM     90  C   UNL A   1      45.941  26.678  35.648  1.00  0.00     0.200 A 
ATOM     91  F   UNL A   1      47.492  28.231  34.775  1.00  0.00    -0.200 F 
ATOM     92  F   UNL A   1      46.941  25.934  36.139  1.00  0.00    -0.200 F 
ENDBRANCH  59  82
ENDBRANCH  33  34
ENDBRANCH  25  28
ENDBRANCH  23  24
ENDBRANCH  22  23
ENDBRANCH   1  22
TORSDOF 14
ENDMDL
MODEL 3
REMARK VINA RESULT:     -12.1      2.064      3.308
REMARK SMILES C[C@H]1[C@@H](C(=O)NCCCCNC(=O)c2ccc(-c3c4nc(c(-c5c(F)c(F)c(F)c(F)c5F)c5ccc([nH]5)c(-c5c(F)c(F)c(F)c(F)c5F)c5nc(c(-c6c(F)c(F)c(F)c(F)c6F)c6ccc3[nH]6)C=C5)C=C4)cc2)CC[N@@H+]1CC1(O)CCCC1
REMARK SMILES IDX 8 1 7 2 6 3 4 4 5 5 3 7 1 8 2 9 79 10 77 11 78 12 80 14
REMARK SMILES IDX 81 15 83 16 86 17 84 18 85 19 82 20 9 22 10 23 11 24 12 25
REMARK SMILES IDX 13 27 14 28 15 29 76 30 16 31 75 32 17 33 18 34 19 35 69 36
REMARK SMILES IDX 20 37 74 38 68 39 70 40 21 41 73 42 67 43 66 44 22 46 54 47
REMARK SMILES IDX 34 48 53 49 35 50 38 51 52 52 71 53 36 54 37 55 51 57 72 58
REMARK SMILES IDX 39 59 23 60 24 61 32 62 25 63 26 64 30 65 33 66 27 67 28 68
REMARK SMILES IDX 31 69 29 70 55 71 56 72 64 73 57 74 58 75 62 76 65 77 59 78
REMARK SMILES IDX 60 79 63 80 61 81 40 82 41 83 49 84 42 85 43 86 47 87 50 88
REMARK SMILES IDX 44 89 45 90 48 91 46 92
REMARK H PARENT 6 6 79 13 82 21 11 26 70 45 38 56
REMARK Flexibility Score: inf
ROOT
ATOM      1  C   UNL A   1      34.037  28.328  25.371  1.00  0.00     0.023 C 
ENDROOT
BRANCH   1   2
ATOM      2  C   UNL A   1      33.620  26.859  25.256  1.00  0.00     0.116 C 
BRANCH   2   3
ATOM      3  N   UNL A   1      33.585  26.497  23.859  1.00  0.00    -0.356 N 
ATOM      4  C   UNL A   1      33.526  25.251  23.308  1.00  0.00     0.229 C 
ATOM      5  O   UNL A   1      33.950  25.143  22.156  1.00  0.00    -0.275 OA
ATOM      6  H   UNL A   1      33.607  27.247  23.222  1.00  0.00     0.163 HD
BRANCH   4   7
ATOM      7  C   UNL A   1      32.813  24.114  24.043  1.00  0.00     0.142 C 
ATOM      8  C   UNL A   1      35.098  22.827  24.472  1.00  0.00     0.076 C 
ATOM      9  C   UNL A   1      33.590  22.912  24.626  1.00  0.00     0.193 C 
ATOM     10  N   UNL A   1      33.081  21.712  23.959  1.00  0.00    -0.330 N 
ATOM     11  C   UNL A   1      31.762  23.465  23.123  1.00  0.00     0.081 C 
ATOM     12  C   UNL A   1      32.355  22.120  22.769  1.00  0.00     0.263 C 
ATOM     13  H   UNL A   1      33.875  21.149  23.650  1.00  0.00     0.348 HD
BRANCH  10  14
ATOM     14  C   UNL A   1      32.474  20.690  24.815  1.00  0.00     0.297 C 
BRANCH  14  15
ATOM     15  C   UNL A   1      33.037  19.247  24.867  1.00  0.00     0.113 C 
ATOM     16  C   UNL A   1      34.553  19.105  24.702  1.00  0.00     0.041 C 
ATOM     17  C   UNL A   1      32.531  18.430  23.670  1.00  0.00     0.041 C 
ATOM     18  C   UNL A   1      34.767  17.659  24.251  1.00  0.00     0.003 C 
ATOM     19  C   UNL A   1      33.445  17.208  23.633  1.00  0.00     0.003 C 
BRANCH  15  20
ATOM     20  O   UNL A   1      32.584  18.602  26.062  1.00  0.00    -0.384 OA
ATOM     21  H   UNL A   1      33.349  18.328  26.591  1.00  0.00     0.211 HD
ENDBRANCH  15  20
ENDBRANCH  14  15
ENDBRANCH  10  14
ENDBRANCH   4   7
ENDBRANCH   2   3
ENDBRANCH   1   2
BRANCH   1  22
ATOM     22  C   UNL A   1      32.888  29.319  25.446  1.00  0.00     0.023 C 
BRANCH  22  23
ATOM     23  C   UNL A   1      32.587  29.797  26.850  1.00  0.00     0.116 C 
BRANCH  23  24
ATOM     24  N   UNL A   1      32.549  31.251  26.970  1.00  0.00    -0.352 N 
ATOM     25  C   UNL A   1      33.507  32.087  27.491  1.00  0.00     0.251 C 
ATOM     26  H   UNL A   1      31.733  31.689  26.635  1.00  0.00     0.163 HD
ATOM     27  O   UNL A   1      33.300  33.288  27.622  1.00  0.00    -0.269 OA
BRANCH  25  28
ATOM     28  C   UNL A   1      34.778  31.489  27.930  1.00  0.00     0.039 A 
ATOM     29  C   UNL A   1      35.911  32.297  28.030  1.00  0.00     0.014 A 
ATOM     30  C   UNL A   1      34.797  30.164  28.371  1.00  0.00     0.014 A 
ATOM     31  C   UNL A   1      37.048  31.794  28.659  1.00  0.00     0.010 A 
ATOM     32  C   UNL A   1      35.885  29.709  29.096  1.00  0.00     0.010 A 
ATOM     33  C   UNL A   1      37.024  30.516  29.240  1.00  0.00    -0.014 A 
BRANCH  33  34
ATOM     34  C   UNL A   1      38.188  29.976  29.980  1.00  0.00     0.031 A 
ATOM     35  C   UNL A   1      38.423  30.415  31.399  1.00  0.00     0.074 A 
ATOM     36  C   UNL A   1      39.072  29.175  29.356  1.00  0.00     0.049 A 
ATOM     37  N   UNL A   1      39.435  30.165  32.187  1.00  0.00    -0.248 NA
ATOM     38  C   UNL A   1      37.404  31.298  31.992  1.00  0.00     0.031 C 
ATOM     39  C   UNL A   1      38.991  28.742  27.960  1.00  0.00     0.029 A 
ATOM     40  N   UNL A   1      40.226  28.591  29.817  1.00  0.00    -0.354 N 
ATOM     41  C   UNL A   1      39.192  30.887  33.347  1.00  0.00     0.074 A 
ATOM     42  C   UNL A   1      37.973  31.635  33.138  1.00  0.00     0.031 C 
ATOM     43  C   UNL A   1      40.029  27.935  27.687  1.00  0.00     0.029 A 
ATOM     44  C   UNL A   1      40.867  27.820  28.877  1.00  0.00     0.049 A 
ATOM     45  H   UNL A   1      40.562  28.713  30.733  1.00  0.00     0.167 HD
ATOM     46  C   UNL A   1      39.903  30.899  34.497  1.00  0.00     0.037 A 
ATOM     47  C   UNL A   1      41.999  27.100  28.975  1.00  0.00     0.037 A 
ATOM     48  C   UNL A   1      41.076  30.101  34.721  1.00  0.00     0.049 A 
ATOM     49  C   UNL A   1      42.739  27.081  30.285  1.00  0.00     0.074 A 
ATOM     50  C   UNL A   1      41.825  29.970  35.876  1.00  0.00     0.029 A 
ATOM     51  N   UNL A   1      41.662  29.283  33.766  1.00  0.00    -0.354 N 
ATOM     52  N   UNL A   1      42.462  27.712  31.400  1.00  0.00    -0.248 NA
ATOM     53  C   UNL A   1      43.944  26.242  30.353  1.00  0.00     0.031 C 
ATOM     54  C   UNL A   1      42.881  29.091  35.612  1.00  0.00     0.029 A 
ATOM     55  C   UNL A   1      42.768  28.648  34.303  1.00  0.00     0.049 A 
ATOM     56  H   UNL A   1      41.338  29.171  32.843  1.00  0.00     0.167 HD
ATOM     57  C   UNL A   1      43.440  27.330  32.307  1.00  0.00     0.074 A 
ATOM     58  C   UNL A   1      44.309  26.399  31.617  1.00  0.00     0.031 C 
ATOM     59  C   UNL A   1      43.607  27.716  33.596  1.00  0.00     0.037 A 
BRANCH  46  60
ATOM     60  C   UNL A   1      39.412  31.787  35.603  1.00  0.00     0.064 A 
ATOM     61  C   UNL A   1      38.478  31.335  36.548  1.00  0.00     0.173 A 
ATOM     62  C   UNL A   1      39.882  33.103  35.720  1.00  0.00     0.173 A 
ATOM     63  F   UNL A   1      37.985  30.091  36.467  1.00  0.00    -0.203 F 
ATOM     64  C   UNL A   1      38.009  32.179  37.550  1.00  0.00     0.198 A 
ATOM     65  C   UNL A   1      39.433  33.935  36.743  1.00  0.00     0.198 A 
ATOM     66  F   UNL A   1      40.775  33.584  34.842  1.00  0.00    -0.203 F 
ATOM     67  F   UNL A   1      37.073  31.743  38.405  1.00  0.00    -0.200 F 
ATOM     68  C   UNL A   1      38.490  33.475  37.651  1.00  0.00     0.200 A 
ATOM     69  F   UNL A   1      39.905  35.185  36.844  1.00  0.00    -0.200 F 
ATOM     70  F   UNL A   1      38.037  34.287  38.616  1.00  0.00    -0.200 F 
ENDBRANCH  46  60
BRANCH  47  71
ATOM     71  C   UNL A   1      42.476  26.302  27.817  1.00  0.00     0.064 A 
ATOM     72  C   UNL A   1      43.437  26.821  26.937  1.00  0.00     0.173 A 
ATOM     73  C   UNL A   1      41.989  25.012  27.563  1.00  0.00     0.173 A 
ATOM     74  F   UNL A   1      43.919  28.058  27.129  1.00  0.00    -0.203 F 
ATOM     75  C   UNL A   1      43.877  26.090  25.837  1.00  0.00     0.198 A 
ATOM     76  C   UNL A   1      42.447  24.271  26.476  1.00  0.00     0.198 A 
ATOM     77  F   UNL A   1      41.074  24.468  28.379  1.00  0.00    -0.203 F 
ATOM     78  F   UNL A   1      44.765  26.627  24.990  1.00  0.00    -0.200 F 
ATOM     79  C   UNL A   1      43.385  24.814  25.609  1.00  0.00     0.200 A 
ATOM     80  F   UNL A   1      41.979  23.034  26.265  1.00  0.00    -0.200 F 
ATOM     81  F   UNL A   1      43.810  24.108  24.551  1.00  0.00    -0.200 F 
ENDBRANCH  47  71
BRANCH  59  82
ATOM     82  C   UNL A   1      44.750  27.108  34.350  1.00  0.00     0.064 A 
ATOM     83  C   UNL A   1      45.996  27.745  34.429  1.00  0.00     0.173 A 
ATOM     84  C   UNL A   1      44.579  25.900  35.043  1.00  0.00     0.173 A 
ATOM     85  F   UNL A   1      46.208  28.895  33.770  1.00  0.00    -0.203 F 
ATOM     86  C   UNL A   1      47.038  27.185  35.161  1.00  0.00     0.198 A 
ATOM     87  C   UNL A   1      45.616  25.355  35.794  1.00  0.00     0.198 A 
ATOM     88  F   UNL A   1      43.403  25.257  35.002  1.00  0.00    -0.203 F 
ATOM     89  F   UNL A   1      48.233  27.790  35.192  1.00  0.00    -0.200 F 
ATOM     90  C   UNL A   1      46.845  25.995  35.848  1.00  0.00     0.200 A 
ATOM     91  F   UNL A   1      45.425  24.212  36.468  1.00  0.00    -0.200 F 
ATOM     92  F   UNL A   1      47.848  25.462  36.559  1.00  0.00    -0.200 F 
ENDBRANCH  59  82
ENDBRANCH  33  34
ENDBRANCH  25  28
ENDBRANCH  23  24
ENDBRANCH  22  23
ENDBRANCH   1  22
TORSDOF 14
ENDMDL
