MODEL 1
REMARK VINA RESULT:     -12.8      0.000      0.000
REMARK SMILES C=Cc1cncc(-c2ccc([C@@H](C)C(=O)NCCCCNC(=O)c3ccc(-c4c5nc(c(-c6c(F)c(F)c(F)c(F)c6F)c6ccc([nH]6)c(-c6c(F)c(F)c(F)c(F)c6F)c6nc(c(-c7c(F)c(F)c(F)c(F)c7F)c7ccc4[nH]7)C=C6)C=C5)cc3)cc2)c1
REMARK SMILES IDX 18 1 17 2 16 3 14 4 15 5 12 7 13 8 11 9 8 10 9 11 88 12
REMARK SMILES IDX 10 13 87 14 7 15 3 16 4 17 89 18 5 19 6 20 2 21 1 22 19 23
REMARK SMILES IDX 20 24 21 25 22 26 23 28 24 29 25 30 86 31 26 32 85 33 27 34
REMARK SMILES IDX 28 35 29 36 79 37 30 38 84 39 78 40 80 41 31 42 83 43 77 44
REMARK SMILES IDX 76 45 32 47 64 48 44 49 63 50 45 51 48 52 62 53 81 54 46 55
REMARK SMILES IDX 47 56 61 58 82 59 49 60 33 61 34 62 42 63 35 64 36 65 40 66
REMARK SMILES IDX 43 67 37 68 38 69 41 70 39 71 65 72 66 73 74 74 67 75 68 76
REMARK SMILES IDX 72 77 75 78 69 79 70 80 73 81 71 82 50 83 51 84 59 85 52 86
REMARK SMILES IDX 53 87 57 88 60 89 54 90 55 91 58 92 56 93
REMARK H PARENT 16 6 21 27 80 46 48 57
REMARK Flexibility Score: inf
ROOT
ATOM      1  C   UNL A   1      31.899  30.482  26.879  1.00  0.00     0.023 C 
ENDROOT
BRANCH   1   2
ATOM      2  C   UNL A   1      32.762  29.939  25.740  1.00  0.00     0.116 C 
BRANCH   2   3
ATOM      3  N   UNL A   1      31.964  29.495  24.616  1.00  0.00    -0.356 N 
ATOM      4  C   UNL A   1      32.277  28.712  23.547  1.00  0.00     0.227 C 
ATOM      5  O   UNL A   1      31.392  28.572  22.693  1.00  0.00    -0.274 OA
ATOM      6  H   UNL A   1      31.033  29.816  24.626  1.00  0.00     0.163 HD
BRANCH   4   7
ATOM      7  C   UNL A   1      33.632  28.007  23.371  1.00  0.00     0.105 C 
ATOM      8  C   UNL A   1      34.381  28.418  22.103  1.00  0.00     0.023 C 
BRANCH   7   9
ATOM      9  C   UNL A   1      33.585  26.517  23.671  1.00  0.00    -0.036 A 
ATOM     10  C   UNL A   1      33.341  23.739  24.332  1.00  0.00    -0.017 A 
ATOM     11  C   UNL A   1      33.405  24.183  23.000  1.00  0.00     0.009 A 
ATOM     12  C   UNL A   1      33.434  24.725  25.326  1.00  0.00     0.009 A 
ATOM     13  C   UNL A   1      33.558  25.538  22.676  1.00  0.00     0.005 A 
ATOM     14  C   UNL A   1      33.533  26.087  25.005  1.00  0.00     0.005 A 
BRANCH  10  15
ATOM     15  C   UNL A   1      33.186  22.302  24.657  1.00  0.00     0.001 A 
ATOM     16  C   UNL A   1      34.072  20.032  24.905  1.00  0.00    -0.007 A 
ATOM     17  C   UNL A   1      32.797  19.635  25.290  1.00  0.00     0.119 A 
ATOM     18  C   UNL A   1      34.253  21.386  24.585  1.00  0.00     0.020 A 
ATOM     19  N   UNL A   1      31.736  20.466  25.382  1.00  0.00    -0.263 NA
ATOM     20  C   UNL A   1      31.959  21.762  25.057  1.00  0.00     0.119 A 
BRANCH  16  21
ATOM     21  C   UNL A   1      35.138  19.033  24.782  1.00  0.00     0.002 C 
ATOM     22  C   UNL A   1      34.969  17.806  24.272  1.00  0.00     0.009 C 
ENDBRANCH  16  21
ENDBRANCH  10  15
ENDBRANCH   7   9
ENDBRANCH   4   7
ENDBRANCH   2   3
ENDBRANCH   1   2
BRANCH   1  23
ATOM     23  C   UNL A   1      31.639  31.985  26.834  1.00  0.00     0.023 C 
BRANCH  23  24
ATOM     24  C   UNL A   1      32.779  32.859  27.339  1.00  0.00     0.116 C 
BRANCH  24  25
ATOM     25  N   UNL A   1      32.385  34.216  27.687  1.00  0.00    -0.352 N 
ATOM     26  C   UNL A   1      32.951  35.052  28.627  1.00  0.00     0.251 C 
ATOM     27  H   UNL A   1      31.619  34.583  27.189  1.00  0.00     0.163 HD
ATOM     28  O   UNL A   1      32.476  36.150  28.861  1.00  0.00    -0.269 OA
BRANCH  26  29
ATOM     29  C   UNL A   1      34.118  34.563  29.393  1.00  0.00     0.039 A 
ATOM     30  C   UNL A   1      33.902  33.960  30.634  1.00  0.00     0.014 A 
ATOM     31  C   UNL A   1      35.401  34.624  28.845  1.00  0.00     0.014 A 
ATOM     32  C   UNL A   1      34.966  33.330  31.284  1.00  0.00     0.010 A 
ATOM     33  C   UNL A   1      36.440  33.933  29.456  1.00  0.00     0.010 A 
ATOM     34  C   UNL A   1      36.230  33.270  30.675  1.00  0.00    -0.014 A 
BRANCH  34  35
ATOM     35  C   UNL A   1      37.342  32.498  31.281  1.00  0.00     0.031 A 
ATOM     36  C   UNL A   1      37.846  32.855  32.649  1.00  0.00     0.074 A 
ATOM     37  C   UNL A   1      37.957  31.539  30.562  1.00  0.00     0.049 A 
ATOM     38  N   UNL A   1      38.865  32.367  33.310  1.00  0.00    -0.248 NA
ATOM     39  C   UNL A   1      37.130  33.929  33.355  1.00  0.00     0.031 C 
ATOM     40  C   UNL A   1      37.602  31.145  29.197  1.00  0.00     0.029 A 
ATOM     41  N   UNL A   1      39.021  30.730  30.873  1.00  0.00    -0.354 N 
ATOM     42  C   UNL A   1      38.925  33.088  34.495  1.00  0.00     0.074 A 
ATOM     43  C   UNL A   1      37.873  34.079  34.442  1.00  0.00     0.031 C 
ATOM     44  C   UNL A   1      38.418  30.155  28.798  1.00  0.00     0.029 A 
ATOM     45  C   UNL A   1      39.373  29.868  29.863  1.00  0.00     0.049 A 
ATOM     46  H   UNL A   1      39.489  30.764  31.739  1.00  0.00     0.167 HD
ATOM     47  C   UNL A   1      39.767  32.921  35.542  1.00  0.00     0.037 A 
ATOM     48  C   UNL A   1      40.357  28.950  29.804  1.00  0.00     0.037 A 
ATOM     49  C   UNL A   1      40.785  31.908  35.608  1.00  0.00     0.049 A 
ATOM     50  C   UNL A   1      41.259  28.765  30.994  1.00  0.00     0.074 A 
ATOM     51  C   UNL A   1      41.639  31.608  36.655  1.00  0.00     0.029 A 
ATOM     52  N   UNL A   1      41.082  31.022  34.583  1.00  0.00    -0.354 N 
ATOM     53  N   UNL A   1      41.259  29.403  32.138  1.00  0.00    -0.248 NA
ATOM     54  C   UNL A   1      42.294  27.726  30.885  1.00  0.00     0.031 C 
ATOM     55  C   UNL A   1      42.475  30.562  36.251  1.00  0.00     0.029 A 
ATOM     56  C   UNL A   1      42.117  30.185  34.967  1.00  0.00     0.049 A 
ATOM     57  H   UNL A   1      40.626  30.993  33.710  1.00  0.00     0.167 HD
ATOM     58  C   UNL A   1      42.271  28.827  32.895  1.00  0.00     0.074 A 
ATOM     59  C   UNL A   1      42.857  27.781  32.084  1.00  0.00     0.031 C 
ATOM     60  C   UNL A   1      42.676  29.138  34.150  1.00  0.00     0.037 A 
BRANCH  47  61
ATOM     61  C   UNL A   1      39.611  33.851  36.708  1.00  0.00     0.064 A 
ATOM     62  C   UNL A   1      40.220  35.116  36.724  1.00  0.00     0.173 A 
ATOM     63  C   UNL A   1      38.824  33.487  37.810  1.00  0.00     0.173 A 
ATOM     64  F   UNL A   1      40.995  35.504  35.699  1.00  0.00    -0.203 F 
ATOM     65  C   UNL A   1      40.070  35.969  37.813  1.00  0.00     0.198 A 
ATOM     66  C   UNL A   1      38.653  34.354  38.886  1.00  0.00     0.198 A 
ATOM     67  F   UNL A   1      38.218  32.291  37.843  1.00  0.00    -0.203 F 
ATOM     68  F   UNL A   1      40.702  37.151  37.828  1.00  0.00    -0.200 F 
ATOM     69  C   UNL A   1      39.281  35.591  38.889  1.00  0.00     0.200 A 
ATOM     70  F   UNL A   1      37.883  33.993  39.921  1.00  0.00    -0.200 F 
ATOM     71  F   UNL A   1      39.135  36.416  39.936  1.00  0.00    -0.200 F 
ENDBRANCH  47  61
BRANCH  48  72
ATOM     72  C   UNL A   1      40.516  28.110  28.591  1.00  0.00     0.064 A 
ATOM     73  C   UNL A   1      39.874  26.869  28.490  1.00  0.00     0.173 A 
ATOM     74  C   UNL A   1      41.308  28.526  27.510  1.00  0.00     0.173 A 
ATOM     75  F   UNL A   1      39.122  26.421  29.507  1.00  0.00    -0.203 F 
ATOM     76  C   UNL A   1      40.030  26.066  27.362  1.00  0.00     0.198 A 
ATOM     77  C   UNL A   1      41.445  27.733  26.373  1.00  0.00     0.198 A 
ATOM     78  F   UNL A   1      41.940  29.708  27.556  1.00  0.00    -0.203 F 
ATOM     79  F   UNL A   1      39.436  24.866  27.310  1.00  0.00    -0.200 F 
ATOM     80  C   UNL A   1      40.811  26.501  26.302  1.00  0.00     0.200 A 
ATOM     81  F   UNL A   1      42.191  28.161  25.346  1.00  0.00    -0.200 F 
ATOM     82  F   UNL A   1      40.960  25.729  25.216  1.00  0.00    -0.200 F 
ENDBRANCH  48  72
BRANCH  60  83
ATOM     83  C   UNL A   1      43.782  28.316  34.739  1.00  0.00     0.064 A 
ATOM     84  C   UNL A   1      45.124  28.711  34.638  1.00  0.00     0.173 A 
ATOM     85  C   UNL A   1      43.490  27.148  35.458  1.00  0.00     0.173 A 
ATOM     86  F   UNL A   1      45.452  29.813  33.948  1.00  0.00    -0.203 F 
ATOM     87  C   UNL A   1      46.135  27.955  35.222  1.00  0.00     0.198 A 
ATOM     88  C   UNL A   1      44.503  26.407  36.061  1.00  0.00     0.198 A 
ATOM     89  F   UNL A   1      42.221  26.732  35.587  1.00  0.00    -0.203 F 
ATOM     90  F   UNL A   1      47.415  28.330  35.083  1.00  0.00    -0.200 F 
ATOM     91  C   UNL A   1      45.824  26.809  35.939  1.00  0.00     0.200 A 
ATOM     92  F   UNL A   1      44.199  25.307  36.763  1.00  0.00    -0.200 F 
ATOM     93  F   UNL A   1      46.800  26.088  36.509  1.00  0.00    -0.200 F 
ENDBRANCH  60  83
ENDBRANCH  34  35
ENDBRANCH  26  29
ENDBRANCH  24  25
ENDBRANCH  23  24
ENDBRANCH   1  23
TORSDOF 14
ENDMDL
MODEL 2
REMARK VINA RESULT:     -12.6      5.694     10.411
REMARK SMILES C=Cc1cncc(-c2ccc([C@@H](C)C(=O)NCCCCNC(=O)c3ccc(-c4c5nc(c(-c6c(F)c(F)c(F)c(F)c6F)c6ccc([nH]6)c(-c6c(F)c(F)c(F)c(F)c6F)c6nc(c(-c7c(F)c(F)c(F)c(F)c7F)c7ccc4[nH]7)C=C6)C=C5)cc3)cc2)c1
REMARK SMILES IDX 18 1 17 2 16 3 14 4 15 5 12 7 13 8 11 9 8 10 9 11 88 12
REMARK SMILES IDX 10 13 87 14 7 15 3 16 4 17 89 18 5 19 6 20 2 21 1 22 19 23
REMARK SMILES IDX 20 24 21 25 22 26 23 28 24 29 25 30 86 31 26 32 85 33 27 34
REMARK SMILES IDX 28 35 29 36 79 37 30 38 84 39 78 40 80 41 31 42 83 43 77 44
REMARK SMILES IDX 76 45 32 47 64 48 44 49 63 50 45 51 48 52 62 53 81 54 46 55
REMARK SMILES IDX 47 56 61 58 82 59 49 60 33 61 34 62 42 63 35 64 36 65 40 66
REMARK SMILES IDX 43 67 37 68 38 69 41 70 39 71 65 72 66 73 74 74 67 75 68 76
REMARK SMILES IDX 72 77 75 78 69 79 70 80 73 81 71 82 50 83 51 84 59 85 52 86
REMARK SMILES IDX 53 87 57 88 60 89 54 90 55 91 58 92 56 93
REMARK H PARENT 16 6 21 27 80 46 48 57
REMARK Flexibility Score: inf
ROOT
ATOM      1  C   UNL A   1      38.860  22.860  26.167  1.00  0.00     0.023 C 
ENDROOT
BRANCH   1   2
ATOM      2  C   UNL A   1      37.507  23.429  25.741  1.00  0.00     0.116 C 
BRANCH   2   3
ATOM      3  N   UNL A   1      37.285  23.299  24.316  1.00  0.00    -0.356 N 
ATOM      4  C   UNL A   1      36.143  23.108  23.599  1.00  0.00     0.227 C 
ATOM      5  O   UNL A   1      36.282  22.953  22.379  1.00  0.00    -0.274 OA
ATOM      6  H   UNL A   1      38.102  23.359  23.770  1.00  0.00     0.163 HD
BRANCH   4   7
ATOM      7  C   UNL A   1      34.737  23.094  24.220  1.00  0.00     0.105 C 
ATOM      8  C   UNL A   1      33.752  22.174  23.496  1.00  0.00     0.023 C 
BRANCH   7   9
ATOM      9  C   UNL A   1      34.220  24.477  24.584  1.00  0.00    -0.036 A 
ATOM     10  C   UNL A   1      33.386  27.098  25.391  1.00  0.00    -0.017 A 
ATOM     11  C   UNL A   1      33.677  26.791  24.051  1.00  0.00     0.009 A 
ATOM     12  C   UNL A   1      33.496  26.046  26.313  1.00  0.00     0.009 A 
ATOM     13  C   UNL A   1      34.052  25.501  23.650  1.00  0.00     0.005 A 
ATOM     14  C   UNL A   1      33.923  24.768  25.924  1.00  0.00     0.005 A 
BRANCH  10  15
ATOM     15  C   UNL A   1      32.985  28.465  25.797  1.00  0.00     0.001 A 
ATOM     16  C   UNL A   1      33.316  30.526  27.077  1.00  0.00    -0.007 A 
ATOM     17  C   UNL A   1      32.155  31.014  26.489  1.00  0.00     0.119 A 
ATOM     18  C   UNL A   1      33.722  29.233  26.718  1.00  0.00     0.020 A 
ATOM     19  N   UNL A   1      31.408  30.328  25.598  1.00  0.00    -0.263 NA
ATOM     20  C   UNL A   1      31.837  29.082  25.287  1.00  0.00     0.119 A 
BRANCH  16  21
ATOM     21  C   UNL A   1      34.017  31.335  28.079  1.00  0.00     0.002 C 
ATOM     22  C   UNL A   1      34.715  32.445  27.803  1.00  0.00     0.009 C 
ENDBRANCH  16  21
ENDBRANCH  10  15
ENDBRANCH   7   9
ENDBRANCH   4   7
ENDBRANCH   2   3
ENDBRANCH   1   2
BRANCH   1  23
ATOM     23  C   UNL A   1      39.171  21.464  25.633  1.00  0.00     0.023 C 
BRANCH  23  24
ATOM     24  C   UNL A   1      39.568  20.438  26.687  1.00  0.00     0.116 C 
BRANCH  24  25
ATOM     25  N   UNL A   1      40.436  19.379  26.194  1.00  0.00    -0.352 N 
ATOM     26  C   UNL A   1      41.799  19.423  25.986  1.00  0.00     0.251 C 
ATOM     27  H   UNL A   1      39.996  18.524  25.984  1.00  0.00     0.163 HD
ATOM     28  O   UNL A   1      42.394  18.474  25.507  1.00  0.00    -0.269 OA
BRANCH  26  29
ATOM     29  C   UNL A   1      42.520  20.676  26.304  1.00  0.00     0.039 A 
ATOM     30  C   UNL A   1      42.960  21.482  25.253  1.00  0.00     0.014 A 
ATOM     31  C   UNL A   1      42.676  21.085  27.630  1.00  0.00     0.014 A 
ATOM     32  C   UNL A   1      43.475  22.750  25.531  1.00  0.00     0.010 A 
ATOM     33  C   UNL A   1      43.118  22.375  27.900  1.00  0.00     0.010 A 
ATOM     34  C   UNL A   1      43.511  23.224  26.853  1.00  0.00    -0.014 A 
BRANCH  34  35
ATOM     35  C   UNL A   1      43.931  24.611  27.164  1.00  0.00     0.031 A 
ATOM     36  C   UNL A   1      42.918  25.617  27.631  1.00  0.00     0.074 A 
ATOM     37  C   UNL A   1      45.204  24.989  26.938  1.00  0.00     0.049 A 
ATOM     38  N   UNL A   1      43.066  26.897  27.861  1.00  0.00    -0.248 NA
ATOM     39  C   UNL A   1      41.546  25.124  27.831  1.00  0.00     0.031 C 
ATOM     40  C   UNL A   1      46.266  24.121  26.424  1.00  0.00     0.029 A 
ATOM     41  N   UNL A   1      45.820  26.205  27.097  1.00  0.00    -0.354 N 
ATOM     42  C   UNL A   1      41.806  27.364  28.210  1.00  0.00     0.074 A 
ATOM     43  C   UNL A   1      40.896  26.244  28.114  1.00  0.00     0.031 C 
ATOM     44  C   UNL A   1      47.405  24.827  26.331  1.00  0.00     0.029 A 
ATOM     45  C   UNL A   1      47.148  26.202  26.747  1.00  0.00     0.049 A 
ATOM     46  H   UNL A   1      45.352  27.006  27.431  1.00  0.00     0.167 HD
ATOM     47  C   UNL A   1      41.447  28.610  28.600  1.00  0.00     0.037 A 
ATOM     48  C   UNL A   1      48.055  27.197  26.760  1.00  0.00     0.037 A 
ATOM     49  C   UNL A   1      42.363  29.711  28.734  1.00  0.00     0.049 A 
ATOM     50  C   UNL A   1      47.636  28.565  27.226  1.00  0.00     0.074 A 
ATOM     51  C   UNL A   1      42.111  30.992  29.193  1.00  0.00     0.029 A 
ATOM     52  N   UNL A   1      43.712  29.657  28.414  1.00  0.00    -0.354 N 
ATOM     53  N   UNL A   1      46.458  28.978  27.624  1.00  0.00    -0.248 NA
ATOM     54  C   UNL A   1      48.676  29.604  27.251  1.00  0.00     0.031 C 
ATOM     55  C   UNL A   1      43.302  31.723  29.120  1.00  0.00     0.029 A 
ATOM     56  C   UNL A   1      44.302  30.887  28.652  1.00  0.00     0.049 A 
ATOM     57  H   UNL A   1      44.179  28.863  28.068  1.00  0.00     0.167 HD
ATOM     58  C   UNL A   1      46.619  30.312  27.973  1.00  0.00     0.074 A 
ATOM     59  C   UNL A   1      48.012  30.638  27.749  1.00  0.00     0.031 C 
ATOM     60  C   UNL A   1      45.695  31.187  28.437  1.00  0.00     0.037 A 
BRANCH  47  61
ATOM     61  C   UNL A   1      40.001  28.843  28.921  1.00  0.00     0.064 A 
ATOM     62  C   UNL A   1      39.499  28.660  30.218  1.00  0.00     0.173 A 
ATOM     63  C   UNL A   1      39.112  29.282  27.928  1.00  0.00     0.173 A 
ATOM     64  F   UNL A   1      40.307  28.227  31.199  1.00  0.00    -0.203 F 
ATOM     65  C   UNL A   1      38.154  28.877  30.503  1.00  0.00     0.198 A 
ATOM     66  C   UNL A   1      37.774  29.525  28.223  1.00  0.00     0.198 A 
ATOM     67  F   UNL A   1      39.543  29.476  26.672  1.00  0.00    -0.203 F 
ATOM     68  F   UNL A   1      37.687  28.646  31.738  1.00  0.00    -0.200 F 
ATOM     69  C   UNL A   1      37.295  29.317  29.507  1.00  0.00     0.200 A 
ATOM     70  F   UNL A   1      36.945  29.960  27.264  1.00  0.00    -0.200 F 
ATOM     71  F   UNL A   1      36.001  29.529  29.785  1.00  0.00    -0.200 F 
ENDBRANCH  47  61
BRANCH  48  72
ATOM     72  C   UNL A   1      49.457  26.928  26.355  1.00  0.00     0.064 A 
ATOM     73  C   UNL A   1      49.848  27.037  25.013  1.00  0.00     0.173 A 
ATOM     74  C   UNL A   1      50.434  26.561  27.291  1.00  0.00     0.173 A 
ATOM     75  F   UNL A   1      48.944  27.366  24.078  1.00  0.00    -0.203 F 
ATOM     76  C   UNL A   1      51.158  26.771  24.620  1.00  0.00     0.198 A 
ATOM     77  C   UNL A   1      51.749  26.318  26.902  1.00  0.00     0.198 A 
ATOM     78  F   UNL A   1      50.111  26.448  28.589  1.00  0.00    -0.203 F 
ATOM     79  F   UNL A   1      51.494  26.844  23.325  1.00  0.00    -0.200 F 
ATOM     80  C   UNL A   1      52.109  26.417  25.565  1.00  0.00     0.200 A 
ATOM     81  F   UNL A   1      52.668  25.988  27.818  1.00  0.00    -0.200 F 
ATOM     82  F   UNL A   1      53.369  26.163  25.187  1.00  0.00    -0.200 F 
ENDBRANCH  48  72
BRANCH  60  83
ATOM     83  C   UNL A   1      46.164  32.571  28.769  1.00  0.00     0.064 A 
ATOM     84  C   UNL A   1      46.668  32.891  30.039  1.00  0.00     0.173 A 
ATOM     85  C   UNL A   1      46.158  33.575  27.790  1.00  0.00     0.173 A 
ATOM     86  F   UNL A   1      46.679  31.967  31.012  1.00  0.00    -0.203 F 
ATOM     87  C   UNL A   1      47.132  34.172  30.319  1.00  0.00     0.198 A 
ATOM     88  C   UNL A   1      46.647  34.848  28.067  1.00  0.00     0.198 A 
ATOM     89  F   UNL A   1      45.691  33.316  26.559  1.00  0.00    -0.203 F 
ATOM     90  F   UNL A   1      47.576  34.466  31.550  1.00  0.00    -0.200 F 
ATOM     91  C   UNL A   1      47.129  35.147  29.333  1.00  0.00     0.200 A 
ATOM     92  F   UNL A   1      46.654  35.785  27.110  1.00  0.00    -0.200 F 
ATOM     93  F   UNL A   1      47.587  36.377  29.603  1.00  0.00    -0.200 F 
ENDBRANCH  60  83
ENDBRANCH  34  35
ENDBRANCH  26  29
ENDBRANCH  24  25
ENDBRANCH  23  24
ENDBRANCH   1  23
TORSDOF 14
ENDMDL
MODEL 3
REMARK VINA RESULT:     -12.6      3.900      5.748
REMARK SMILES C=Cc1cncc(-c2ccc([C@@H](C)C(=O)NCCCCNC(=O)c3ccc(-c4c5nc(c(-c6c(F)c(F)c(F)c(F)c6F)c6ccc([nH]6)c(-c6c(F)c(F)c(F)c(F)c6F)c6nc(c(-c7c(F)c(F)c(F)c(F)c7F)c7ccc4[nH]7)C=C6)C=C5)cc3)cc2)c1
REMARK SMILES IDX 18 1 17 2 16 3 14 4 15 5 12 7 13 8 11 9 8 10 9 11 88 12
REMARK SMILES IDX 10 13 87 14 7 15 3 16 4 17 89 18 5 19 6 20 2 21 1 22 19 23
REMARK SMILES IDX 20 24 21 25 22 26 23 28 24 29 25 30 86 31 26 32 85 33 27 34
REMARK SMILES IDX 28 35 29 36 79 37 30 38 84 39 78 40 80 41 31 42 83 43 77 44
REMARK SMILES IDX 76 45 32 47 64 48 44 49 63 50 45 51 48 52 62 53 81 54 46 55
REMARK SMILES IDX 47 56 61 58 82 59 49 60 33 61 34 62 42 63 35 64 36 65 40 66
REMARK SMILES IDX 43 67 37 68 38 69 41 70 39 71 65 72 66 73 74 74 67 75 68 76
REMARK SMILES IDX 72 77 75 78 69 79 70 80 73 81 71 82 50 83 51 84 59 85 52 86
REMARK SMILES IDX 53 87 57 88 60 89 54 90 55 91 58 92 56 93
REMARK H PARENT 16 6 21 27 80 46 48 57
REMARK Flexibility Score: inf
ROOT
ATOM      1  C   UNL A   1      32.381  29.185  24.997  1.00  0.00     0.023 C 
ENDROOT
BRANCH   1   2
ATOM      2  C   UNL A   1      30.949  29.701  24.868  1.00  0.00     0.116 C 
BRANCH   2   3
ATOM      3  N   UNL A   1      30.625  30.078  23.509  1.00  0.00    -0.356 N 
ATOM      4  C   UNL A   1      29.936  29.423  22.534  1.00  0.00     0.227 C 
ATOM      5  O   UNL A   1      29.892  29.975  21.428  1.00  0.00    -0.274 OA
ATOM      6  H   UNL A   1      30.963  30.964  23.241  1.00  0.00     0.163 HD
BRANCH   4   7
ATOM      7  C   UNL A   1      29.222  28.079  22.750  1.00  0.00     0.105 C 
ATOM      8  C   UNL A   1      27.885  28.201  23.483  1.00  0.00     0.023 C 
BRANCH   7   9
ATOM      9  C   UNL A   1      30.147  26.967  23.220  1.00  0.00    -0.036 A 
ATOM     10  C   UNL A   1      32.028  24.996  24.108  1.00  0.00    -0.017 A 
ATOM     11  C   UNL A   1      30.861  25.289  24.834  1.00  0.00     0.009 A 
ATOM     12  C   UNL A   1      32.212  25.698  22.907  1.00  0.00     0.009 A 
ATOM     13  C   UNL A   1      29.923  26.228  24.383  1.00  0.00     0.005 A 
ATOM     14  C   UNL A   1      31.303  26.677  22.481  1.00  0.00     0.005 A 
BRANCH  10  15
ATOM     15  C   UNL A   1      33.006  23.995  24.595  1.00  0.00     0.001 A 
ATOM     16  C   UNL A   1      35.150  23.379  25.604  1.00  0.00    -0.007 A 
ATOM     17  C   UNL A   1      34.764  22.050  25.483  1.00  0.00     0.119 A 
ATOM     18  C   UNL A   1      34.249  24.353  25.148  1.00  0.00     0.020 A 
ATOM     19  N   UNL A   1      33.585  21.644  24.966  1.00  0.00    -0.263 NA
ATOM     20  C   UNL A   1      32.751  22.620  24.534  1.00  0.00     0.119 A 
BRANCH  16  21
ATOM     21  C   UNL A   1      36.482  23.703  26.126  1.00  0.00     0.002 C 
ATOM     22  C   UNL A   1      37.632  23.356  25.535  1.00  0.00     0.009 C 
ENDBRANCH  16  21
ENDBRANCH  10  15
ENDBRANCH   7   9
ENDBRANCH   4   7
ENDBRANCH   2   3
ENDBRANCH   1   2
BRANCH   1  23
ATOM     23  C   UNL A   1      32.633  28.266  26.191  1.00  0.00     0.023 C 
BRANCH  23  24
ATOM     24  C   UNL A   1      33.843  28.624  27.044  1.00  0.00     0.116 C 
BRANCH  24  25
ATOM     25  N   UNL A   1      33.798  29.962  27.615  1.00  0.00    -0.352 N 
ATOM     26  C   UNL A   1      34.804  30.643  28.268  1.00  0.00     0.251 C 
ATOM     27  H   UNL A   1      32.943  30.441  27.523  1.00  0.00     0.163 HD
ATOM     28  O   UNL A   1      34.608  31.743  28.754  1.00  0.00    -0.269 OA
BRANCH  26  29
ATOM     29  C   UNL A   1      36.120  29.982  28.418  1.00  0.00     0.039 A 
ATOM     30  C   UNL A   1      37.053  30.101  27.386  1.00  0.00     0.014 A 
ATOM     31  C   UNL A   1      36.453  29.330  29.607  1.00  0.00     0.014 A 
ATOM     32  C   UNL A   1      38.357  29.645  27.585  1.00  0.00     0.010 A 
ATOM     33  C   UNL A   1      37.769  28.944  29.831  1.00  0.00     0.010 A 
ATOM     34  C   UNL A   1      38.736  29.109  28.827  1.00  0.00    -0.014 A 
BRANCH  34  35
ATOM     35  C   UNL A   1      40.144  28.736  29.109  1.00  0.00     0.031 A 
ATOM     36  C   UNL A   1      41.049  29.701  29.818  1.00  0.00     0.074 A 
ATOM     37  C   UNL A   1      40.630  27.568  28.644  1.00  0.00     0.049 A 
ATOM     38  N   UNL A   1      42.329  29.602  30.072  1.00  0.00    -0.248 NA
ATOM     39  C   UNL A   1      40.441  30.961  30.273  1.00  0.00     0.031 C 
ATOM     40  C   UNL A   1      39.867  26.576  27.884  1.00  0.00     0.029 A 
ATOM     41  N   UNL A   1      41.887  27.024  28.729  1.00  0.00    -0.354 N 
ATOM     42  C   UNL A   1      42.683  30.793  30.692  1.00  0.00     0.074 A 
ATOM     43  C   UNL A   1      41.496  31.619  30.733  1.00  0.00     0.031 C 
ATOM     44  C   UNL A   1      40.665  25.535  27.593  1.00  0.00     0.029 A 
ATOM     45  C   UNL A   1      42.001  25.801  28.116  1.00  0.00     0.049 A 
ATOM     46  H   UNL A   1      42.637  27.470  29.188  1.00  0.00     0.167 HD
ATOM     47  C   UNL A   1      43.883  31.154  31.204  1.00  0.00     0.037 A 
ATOM     48  C   UNL A   1      43.067  24.987  27.988  1.00  0.00     0.037 A 
ATOM     49  C   UNL A   1      45.050  30.313  31.198  1.00  0.00     0.049 A 
ATOM     50  C   UNL A   1      44.382  25.399  28.592  1.00  0.00     0.074 A 
ATOM     51  C   UNL A   1      46.293  30.557  31.757  1.00  0.00     0.029 A 
ATOM     52  N   UNL A   1      45.116  29.060  30.607  1.00  0.00    -0.354 N 
ATOM     53  N   UNL A   1      44.685  26.496  29.241  1.00  0.00    -0.248 NA
ATOM     54  C   UNL A   1      45.500  24.456  28.451  1.00  0.00     0.031 C 
ATOM     55  C   UNL A   1      47.120  29.465  31.476  1.00  0.00     0.029 A 
ATOM     56  C   UNL A   1      46.382  28.525  30.775  1.00  0.00     0.049 A 
ATOM     57  H   UNL A   1      44.373  28.618  30.136  1.00  0.00     0.167 HD
ATOM     58  C   UNL A   1      46.017  26.364  29.610  1.00  0.00     0.074 A 
ATOM     59  C   UNL A   1      46.461  25.076  29.121  1.00  0.00     0.031 C 
ATOM     60  C   UNL A   1      46.800  27.233  30.293  1.00  0.00     0.037 A 
BRANCH  47  61
ATOM     61  C   UNL A   1      43.989  32.515  31.824  1.00  0.00     0.064 A 
ATOM     62  C   UNL A   1      43.723  32.722  33.187  1.00  0.00     0.173 A 
ATOM     63  C   UNL A   1      44.386  33.619  31.057  1.00  0.00     0.173 A 
ATOM     64  F   UNL A   1      43.326  31.700  33.960  1.00  0.00    -0.203 F 
ATOM     65  C   UNL A   1      43.822  33.991  33.750  1.00  0.00     0.198 A 
ATOM     66  C   UNL A   1      44.512  34.882  31.630  1.00  0.00     0.198 A 
ATOM     67  F   UNL A   1      44.655  33.474  29.750  1.00  0.00    -0.203 F 
ATOM     68  F   UNL A   1      43.515  34.174  35.042  1.00  0.00    -0.200 F 
ATOM     69  C   UNL A   1      44.223  35.068  32.974  1.00  0.00     0.200 A 
ATOM     70  F   UNL A   1      44.909  35.920  30.882  1.00  0.00    -0.200 F 
ATOM     71  F   UNL A   1      44.322  36.288  33.520  1.00  0.00    -0.200 F 
ENDBRANCH  47  61
BRANCH  48  72
ATOM     72  C   UNL A   1      42.925  23.683  27.292  1.00  0.00     0.064 A 
ATOM     73  C   UNL A   1      42.402  22.568  27.961  1.00  0.00     0.173 A 
ATOM     74  C   UNL A   1      43.304  23.523  25.952  1.00  0.00     0.173 A 
ATOM     75  F   UNL A   1      42.045  22.668  29.250  1.00  0.00    -0.203 F 
ATOM     76  C   UNL A   1      42.280  21.336  27.321  1.00  0.00     0.198 A 
ATOM     77  C   UNL A   1      43.159  22.297  25.305  1.00  0.00     0.198 A 
ATOM     78  F   UNL A   1      43.805  24.562  25.266  1.00  0.00    -0.203 F 
ATOM     79  F   UNL A   1      41.815  20.277  27.997  1.00  0.00    -0.200 F 
ATOM     80  C   UNL A   1      42.654  21.203  25.993  1.00  0.00     0.200 A 
ATOM     81  F   UNL A   1      43.510  22.174  24.019  1.00  0.00    -0.200 F 
ATOM     82  F   UNL A   1      42.535  20.018  25.377  1.00  0.00    -0.200 F 
ENDBRANCH  48  72
BRANCH  60  83
ATOM     83  C   UNL A   1      48.207  26.808  30.585  1.00  0.00     0.064 A 
ATOM     84  C   UNL A   1      48.513  25.981  31.677  1.00  0.00     0.173 A 
ATOM     85  C   UNL A   1      49.254  27.190  29.734  1.00  0.00     0.173 A 
ATOM     86  F   UNL A   1      47.547  25.602  32.527  1.00  0.00    -0.203 F 
ATOM     87  C   UNL A   1      49.820  25.566  31.912  1.00  0.00     0.198 A 
ATOM     88  C   UNL A   1      50.556  26.752  29.959  1.00  0.00     0.198 A 
ATOM     89  F   UNL A   1      49.011  27.976  28.674  1.00  0.00    -0.203 F 
ATOM     90  F   UNL A   1      50.096  24.805  32.981  1.00  0.00    -0.200 F 
ATOM     91  C   UNL A   1      50.838  25.945  31.050  1.00  0.00     0.200 A 
ATOM     92  F   UNL A   1      51.536  27.110  29.119  1.00  0.00    -0.200 F 
ATOM     93  F   UNL A   1      52.094  25.536  31.275  1.00  0.00    -0.200 F 
ENDBRANCH  60  83
ENDBRANCH  34  35
ENDBRANCH  26  29
ENDBRANCH  24  25
ENDBRANCH  23  24
ENDBRANCH   1  23
TORSDOF 14
ENDMDL
