MODEL 1
REMARK VINA RESULT:     -13.8      0.000      0.000
REMARK SMILES Cc1ccc(NC(=O)C[C@H]2SC[C@H](C(=O)NCCCCNC(=O)c3ccc(-c4c5nc(c(-c6c(F)c(F)c(F)c(F)c6F)c6ccc([nH]6)c(-c6c(F)c(F)c(F)c(F)c6F)c6nc(c(-c7c(F)c(F)c(F)c(F)c7F)c7ccc4[nH]7)C=C6)C=C5)cc3)NC2=O)cc1
REMARK SMILES IDX 18 1 17 2 16 3 14 4 15 5 13 7 10 8 11 9 88 10 12 11 87 12
REMARK SMILES IDX 89 13 9 15 7 16 6 17 8 19 5 20 1 21 2 22 3 23 91 24 4 25
REMARK SMILES IDX 90 26 19 27 20 28 21 29 22 30 23 32 24 33 25 34 86 35 26 36
REMARK SMILES IDX 85 37 27 38 28 39 29 40 79 41 30 42 84 43 78 44 80 45 31 46
REMARK SMILES IDX 83 47 77 48 76 49 32 51 64 52 44 53 63 54 45 55 48 56 62 57
REMARK SMILES IDX 81 58 46 59 47 60 61 62 82 63 49 64 33 65 34 66 42 67 35 68
REMARK SMILES IDX 36 69 40 70 43 71 37 72 38 73 41 74 39 75 65 76 66 77 74 78
REMARK SMILES IDX 67 79 68 80 72 81 75 82 69 83 70 84 73 85 71 86 50 87 51 88
REMARK SMILES IDX 59 89 52 90 53 91 57 92 60 93 54 94 55 95 58 96 56 97
REMARK H PARENT 16 6 87 14 6 18 21 31 80 50 48 61
REMARK Flexibility Score: inf
ROOT
ATOM      1  C   UNL A   1      36.945  21.566  24.780  1.00  0.00     0.023 C 
ENDROOT
BRANCH   1   2
ATOM      2  C   UNL A   1      35.767  21.655  25.762  1.00  0.00     0.116 C 
BRANCH   2   3
ATOM      3  N   UNL A   1      34.868  20.520  25.696  1.00  0.00    -0.354 N 
ATOM      4  C   UNL A   1      33.634  20.363  25.141  1.00  0.00     0.243 C 
ATOM      5  O   UNL A   1      33.181  19.213  25.133  1.00  0.00    -0.273 OA
ATOM      6  H   UNL A   1      35.214  19.708  26.134  1.00  0.00     0.163 HD
BRANCH   4   7
ATOM      7  C   UNL A   1      32.851  21.508  24.469  1.00  0.00     0.181 C 
ATOM      8  C   UNL A   1      32.580  24.392  23.568  1.00  0.00     0.145 C 
ATOM      9  S   UNL A   1      31.208  23.729  24.616  1.00  0.00    -0.145 SA
ATOM     10  C   UNL A   1      33.170  23.254  22.722  1.00  0.00     0.234 C 
ATOM     11  C   UNL A   1      32.171  22.439  25.465  1.00  0.00     0.105 C 
ATOM     12  N   UNL A   1      33.634  22.151  23.413  1.00  0.00    -0.343 N 
ATOM     13  O   UNL A   1      33.339  23.295  21.508  1.00  0.00    -0.274 OA
ATOM     14  H   UNL A   1      34.520  21.786  23.189  1.00  0.00     0.164 HD
BRANCH   8  15
ATOM     15  C   UNL A   1      32.135  25.701  22.897  1.00  0.00     0.124 C 
BRANCH  15  16
ATOM     16  C   UNL A   1      33.143  26.654  22.270  1.00  0.00     0.226 C 
ATOM     17  N   UNL A   1      33.562  27.809  22.866  1.00  0.00    -0.326 N 
ATOM     18  H   UNL A   1      34.106  28.407  22.304  1.00  0.00     0.169 HD
ATOM     19  O   UNL A   1      33.591  26.404  21.145  1.00  0.00    -0.275 OA
BRANCH  17  20
ATOM     20  C   UNL A   1      33.321  28.253  24.167  1.00  0.00     0.041 A 
ATOM     21  C   UNL A   1      33.344  30.819  27.532  1.00  0.00     0.044 C 
ATOM     22  C   UNL A   1      33.220  29.813  26.444  1.00  0.00    -0.051 A 
ATOM     23  C   UNL A   1      34.112  28.739  26.380  1.00  0.00     0.005 A 
ATOM     24  C   UNL A   1      32.237  29.959  25.464  1.00  0.00     0.005 A 
ATOM     25  C   UNL A   1      34.161  27.954  25.235  1.00  0.00     0.026 A 
ATOM     26  C   UNL A   1      32.272  29.158  24.330  1.00  0.00     0.026 A 
ENDBRANCH  17  20
ENDBRANCH  15  16
ENDBRANCH   8  15
ENDBRANCH   4   7
ENDBRANCH   2   3
ENDBRANCH   1   2
BRANCH   1  27
ATOM     27  C   UNL A   1      38.341  21.540  25.410  1.00  0.00     0.023 C 
BRANCH  27  28
ATOM     28  C   UNL A   1      38.765  22.840  26.081  1.00  0.00     0.116 C 
BRANCH  28  29
ATOM     29  N   UNL A   1      40.184  22.927  26.403  1.00  0.00    -0.352 N 
ATOM     30  C   UNL A   1      40.934  24.035  26.778  1.00  0.00     0.251 C 
ATOM     31  H   UNL A   1      40.682  22.081  26.345  1.00  0.00     0.163 HD
ATOM     32  O   UNL A   1      42.133  23.938  26.950  1.00  0.00    -0.269 OA
BRANCH  30  33
ATOM     33  C   UNL A   1      40.233  25.303  27.101  1.00  0.00     0.039 A 
ATOM     34  C   UNL A   1      40.602  26.452  26.392  1.00  0.00     0.014 A 
ATOM     35  C   UNL A   1      39.403  25.404  28.213  1.00  0.00     0.014 A 
ATOM     36  C   UNL A   1      40.361  27.705  26.948  1.00  0.00     0.010 A 
ATOM     37  C   UNL A   1      39.250  26.633  28.819  1.00  0.00     0.010 A 
ATOM     38  C   UNL A   1      39.790  27.773  28.219  1.00  0.00    -0.014 A 
BRANCH  38  39
ATOM     39  C   UNL A   1      39.845  28.967  29.048  1.00  0.00     0.031 A 
ATOM     40  C   UNL A   1      38.771  29.974  29.001  1.00  0.00     0.074 A 
ATOM     41  C   UNL A   1      40.861  29.107  29.927  1.00  0.00     0.049 A 
ATOM     42  N   UNL A   1      38.945  31.220  29.287  1.00  0.00    -0.248 NA
ATOM     43  C   UNL A   1      37.408  29.657  28.594  1.00  0.00     0.031 C 
ATOM     44  C   UNL A   1      40.954  30.071  31.018  1.00  0.00     0.029 A 
ATOM     45  N   UNL A   1      42.125  28.496  29.883  1.00  0.00    -0.354 N 
ATOM     46  C   UNL A   1      37.706  31.808  29.356  1.00  0.00     0.074 A 
ATOM     47  C   UNL A   1      36.785  30.811  28.857  1.00  0.00     0.031 C 
ATOM     48  C   UNL A   1      42.245  30.217  31.352  1.00  0.00     0.029 A 
ATOM     49  C   UNL A   1      43.026  29.448  30.398  1.00  0.00     0.049 A 
ATOM     50  H   UNL A   1      42.337  27.590  29.559  1.00  0.00     0.167 HD
ATOM     51  C   UNL A   1      37.569  33.024  29.959  1.00  0.00     0.037 A 
ATOM     52  C   UNL A   1      44.094  29.916  29.695  1.00  0.00     0.037 A 
ATOM     53  C   UNL A   1      38.847  33.510  30.472  1.00  0.00     0.049 A 
ATOM     54  C   UNL A   1      44.063  31.410  29.557  1.00  0.00     0.074 A 
ATOM     55  C   UNL A   1      39.417  33.441  31.734  1.00  0.00     0.029 A 
ATOM     56  N   UNL A   1      39.872  33.861  29.595  1.00  0.00    -0.354 N 
ATOM     57  N   UNL A   1      42.960  32.104  29.624  1.00  0.00    -0.248 NA
ATOM     58  C   UNL A   1      45.245  32.239  29.363  1.00  0.00     0.031 C 
ATOM     59  C   UNL A   1      40.799  33.717  31.610  1.00  0.00     0.029 A 
ATOM     60  C   UNL A   1      41.069  33.980  30.278  1.00  0.00     0.049 A 
ATOM     61  H   UNL A   1      39.760  34.003  28.628  1.00  0.00     0.167 HD
ATOM     62  C   UNL A   1      43.260  33.434  29.527  1.00  0.00     0.074 A 
ATOM     63  C   UNL A   1      44.701  33.468  29.353  1.00  0.00     0.031 C 
ATOM     64  C   UNL A   1      42.297  34.396  29.617  1.00  0.00     0.037 A 
BRANCH  51  65
ATOM     65  C   UNL A   1      36.223  33.582  30.361  1.00  0.00     0.064 A 
ATOM     66  C   UNL A   1      35.324  34.097  29.403  1.00  0.00     0.173 A 
ATOM     67  C   UNL A   1      35.790  33.684  31.696  1.00  0.00     0.173 A 
ATOM     68  F   UNL A   1      35.547  33.967  28.090  1.00  0.00    -0.203 F 
ATOM     69  C   UNL A   1      34.157  34.779  29.762  1.00  0.00     0.198 A 
ATOM     70  C   UNL A   1      34.653  34.416  32.059  1.00  0.00     0.198 A 
ATOM     71  F   UNL A   1      36.444  33.056  32.683  1.00  0.00    -0.203 F 
ATOM     72  F   UNL A   1      33.350  35.262  28.807  1.00  0.00    -0.200 F 
ATOM     73  C   UNL A   1      33.844  34.976  31.090  1.00  0.00     0.200 A 
ATOM     74  F   UNL A   1      34.354  34.581  33.355  1.00  0.00    -0.200 F 
ATOM     75  F   UNL A   1      32.759  35.681  31.435  1.00  0.00    -0.200 F 
ENDBRANCH  51  65
BRANCH  52  76
ATOM     76  C   UNL A   1      44.673  28.945  28.733  1.00  0.00     0.064 A 
ATOM     77  C   UNL A   1      45.485  27.921  29.251  1.00  0.00     0.173 A 
ATOM     78  C   UNL A   1      44.100  28.735  27.475  1.00  0.00     0.173 A 
ATOM     79  F   UNL A   1      46.136  28.104  30.410  1.00  0.00    -0.203 F 
ATOM     80  C   UNL A   1      45.546  26.667  28.647  1.00  0.00     0.198 A 
ATOM     81  C   UNL A   1      44.208  27.493  26.842  1.00  0.00     0.198 A 
ATOM     82  F   UNL A   1      43.335  29.682  26.915  1.00  0.00    -0.203 F 
ATOM     83  F   UNL A   1      46.177  25.658  29.265  1.00  0.00    -0.200 F 
ATOM     84  C   UNL A   1      44.878  26.445  27.457  1.00  0.00     0.200 A 
ATOM     85  F   UNL A   1      43.582  27.284  25.676  1.00  0.00    -0.200 F 
ATOM     86  F   UNL A   1      44.852  25.215  26.922  1.00  0.00    -0.200 F 
ENDBRANCH  52  76
BRANCH  64  87
ATOM     87  C   UNL A   1      42.464  35.843  29.233  1.00  0.00     0.064 A 
ATOM     88  C   UNL A   1      43.282  36.743  29.936  1.00  0.00     0.173 A 
ATOM     89  C   UNL A   1      41.920  36.335  28.021  1.00  0.00     0.173 A 
ATOM     90  F   UNL A   1      43.951  36.366  31.034  1.00  0.00    -0.203 F 
ATOM     91  C   UNL A   1      43.492  38.051  29.495  1.00  0.00     0.198 A 
ATOM     92  C   UNL A   1      42.181  37.622  27.554  1.00  0.00     0.198 A 
ATOM     93  F   UNL A   1      41.147  35.572  27.234  1.00  0.00    -0.203 F 
ATOM     94  F   UNL A   1      44.250  38.881  30.225  1.00  0.00    -0.200 F 
ATOM     95  C   UNL A   1      42.954  38.486  28.299  1.00  0.00     0.200 A 
ATOM     96  F   UNL A   1      41.695  38.008  26.366  1.00  0.00    -0.200 F 
ATOM     97  F   UNL A   1      43.203  39.724  27.855  1.00  0.00    -0.200 F 
ENDBRANCH  64  87
ENDBRANCH  38  39
ENDBRANCH  30  33
ENDBRANCH  28  29
ENDBRANCH  27  28
ENDBRANCH   1  27
TORSDOF 14
ENDMDL
MODEL 2
REMARK VINA RESULT:     -13.7      3.817     10.185
REMARK SMILES Cc1ccc(NC(=O)C[C@H]2SC[C@H](C(=O)NCCCCNC(=O)c3ccc(-c4c5nc(c(-c6c(F)c(F)c(F)c(F)c6F)c6ccc([nH]6)c(-c6c(F)c(F)c(F)c(F)c6F)c6nc(c(-c7c(F)c(F)c(F)c(F)c7F)c7ccc4[nH]7)C=C6)C=C5)cc3)NC2=O)cc1
REMARK SMILES IDX 18 1 17 2 16 3 14 4 15 5 13 7 10 8 11 9 88 10 12 11 87 12
REMARK SMILES IDX 89 13 9 15 7 16 6 17 8 19 5 20 1 21 2 22 3 23 91 24 4 25
REMARK SMILES IDX 90 26 19 27 20 28 21 29 22 30 23 32 24 33 25 34 86 35 26 36
REMARK SMILES IDX 85 37 27 38 28 39 29 40 79 41 30 42 84 43 78 44 80 45 31 46
REMARK SMILES IDX 83 47 77 48 76 49 32 51 64 52 44 53 63 54 45 55 48 56 62 57
REMARK SMILES IDX 81 58 46 59 47 60 61 62 82 63 49 64 33 65 34 66 42 67 35 68
REMARK SMILES IDX 36 69 40 70 43 71 37 72 38 73 41 74 39 75 65 76 66 77 74 78
REMARK SMILES IDX 67 79 68 80 72 81 75 82 69 83 70 84 73 85 71 86 50 87 51 88
REMARK SMILES IDX 59 89 52 90 53 91 57 92 60 93 54 94 55 95 58 96 56 97
REMARK H PARENT 16 6 87 14 6 18 21 31 80 50 48 61
REMARK Flexibility Score: inf
ROOT
ATOM      1  C   UNL A   1      31.940  29.838  26.079  1.00  0.00     0.023 C 
ENDROOT
BRANCH   1   2
ATOM      2  C   UNL A   1      32.576  29.340  24.772  1.00  0.00     0.116 C 
BRANCH   2   3
ATOM      3  N   UNL A   1      31.776  29.617  23.595  1.00  0.00    -0.354 N 
ATOM      4  C   UNL A   1      30.950  28.835  22.847  1.00  0.00     0.243 C 
ATOM      5  O   UNL A   1      30.295  29.412  21.972  1.00  0.00    -0.273 OA
ATOM      6  H   UNL A   1      31.843  30.547  23.275  1.00  0.00     0.163 HD
BRANCH   4   7
ATOM      7  C   UNL A   1      30.744  27.329  23.101  1.00  0.00     0.181 C 
ATOM      8  C   UNL A   1      31.322  24.771  24.626  1.00  0.00     0.145 C 
ATOM      9  S   UNL A   1      31.526  24.692  22.789  1.00  0.00    -0.145 SA
ATOM     10  C   UNL A   1      30.213  25.776  24.974  1.00  0.00     0.234 C 
ATOM     11  C   UNL A   1      31.855  26.462  22.519  1.00  0.00     0.105 C 
ATOM     12  N   UNL A   1      30.374  27.060  24.491  1.00  0.00    -0.343 N 
ATOM     13  O   UNL A   1      29.261  25.545  25.712  1.00  0.00    -0.274 OA
ATOM     14  H   UNL A   1      30.236  27.819  25.101  1.00  0.00     0.164 HD
BRANCH   8  15
ATOM     15  C   UNL A   1      31.283  23.348  25.206  1.00  0.00     0.124 C 
BRANCH  15  16
ATOM     16  C   UNL A   1      31.579  23.081  26.675  1.00  0.00     0.226 C 
ATOM     17  N   UNL A   1      32.785  22.634  27.134  1.00  0.00    -0.326 N 
ATOM     18  H   UNL A   1      32.809  22.368  28.081  1.00  0.00     0.169 HD
ATOM     19  O   UNL A   1      30.680  23.238  27.510  1.00  0.00    -0.275 OA
BRANCH  17  20
ATOM     20  C   UNL A   1      33.987  22.506  26.436  1.00  0.00     0.041 A 
ATOM     21  C   UNL A   1      36.729  22.718  23.221  1.00  0.00     0.044 C 
ATOM     22  C   UNL A   1      35.909  22.604  24.456  1.00  0.00    -0.051 A 
ATOM     23  C   UNL A   1      35.334  21.377  24.802  1.00  0.00     0.005 A 
ATOM     24  C   UNL A   1      35.682  23.728  25.252  1.00  0.00     0.005 A 
ATOM     25  C   UNL A   1      34.368  21.329  25.800  1.00  0.00     0.026 A 
ATOM     26  C   UNL A   1      34.732  23.672  26.264  1.00  0.00     0.026 A 
ENDBRANCH  17  20
ENDBRANCH  15  16
ENDBRANCH   8  15
ENDBRANCH   4   7
ENDBRANCH   2   3
ENDBRANCH   1   2
BRANCH   1  27
ATOM     27  C   UNL A   1      32.739  30.892  26.853  1.00  0.00     0.023 C 
BRANCH  27  28
ATOM     28  C   UNL A   1      33.950  30.354  27.603  1.00  0.00     0.116 C 
BRANCH  28  29
ATOM     29  N   UNL A   1      34.589  31.310  28.499  1.00  0.00    -0.352 N 
ATOM     30  C   UNL A   1      35.771  31.186  29.218  1.00  0.00     0.251 C 
ATOM     31  H   UNL A   1      34.115  32.165  28.609  1.00  0.00     0.163 HD
ATOM     32  O   UNL A   1      36.128  32.069  29.973  1.00  0.00    -0.269 OA
BRANCH  30  33
ATOM     33  C   UNL A   1      36.661  30.029  28.948  1.00  0.00     0.039 A 
ATOM     34  C   UNL A   1      36.947  29.164  30.011  1.00  0.00     0.014 A 
ATOM     35  C   UNL A   1      37.364  29.925  27.752  1.00  0.00     0.014 A 
ATOM     36  C   UNL A   1      38.102  28.387  29.967  1.00  0.00     0.010 A 
ATOM     37  C   UNL A   1      38.560  29.238  27.742  1.00  0.00     0.010 A 
ATOM     38  C   UNL A   1      38.959  28.526  28.876  1.00  0.00    -0.014 A 
BRANCH  38  39
ATOM     39  C   UNL A   1      40.343  28.079  28.895  1.00  0.00     0.031 A 
ATOM     40  C   UNL A   1      40.727  26.774  28.329  1.00  0.00     0.074 A 
ATOM     41  C   UNL A   1      41.293  28.913  29.372  1.00  0.00     0.049 A 
ATOM     42  N   UNL A   1      41.758  26.102  28.717  1.00  0.00    -0.248 NA
ATOM     43  C   UNL A   1      39.955  26.105  27.290  1.00  0.00     0.031 C 
ATOM     44  C   UNL A   1      42.739  28.772  29.231  1.00  0.00     0.029 A 
ATOM     45  N   UNL A   1      41.125  29.989  30.258  1.00  0.00    -0.354 N 
ATOM     46  C   UNL A   1      41.935  25.066  27.833  1.00  0.00     0.074 A 
ATOM     47  C   UNL A   1      40.754  25.073  26.999  1.00  0.00     0.031 C 
ATOM     48  C   UNL A   1      43.334  29.492  30.192  1.00  0.00     0.029 A 
ATOM     49  C   UNL A   1      42.286  30.012  31.054  1.00  0.00     0.049 A 
ATOM     50  H   UNL A   1      40.355  30.601  30.311  1.00  0.00     0.167 HD
ATOM     51  C   UNL A   1      43.125  24.399  27.806  1.00  0.00     0.037 A 
ATOM     52  C   UNL A   1      42.259  29.908  32.411  1.00  0.00     0.037 A 
ATOM     53  C   UNL A   1      44.067  24.952  28.775  1.00  0.00     0.049 A 
ATOM     54  C   UNL A   1      43.084  28.754  32.901  1.00  0.00     0.074 A 
ATOM     55  C   UNL A   1      45.088  25.879  28.639  1.00  0.00     0.029 A 
ATOM     56  N   UNL A   1      43.826  24.829  30.142  1.00  0.00    -0.354 N 
ATOM     57  N   UNL A   1      43.353  27.712  32.164  1.00  0.00    -0.248 NA
ATOM     58  C   UNL A   1      43.688  28.684  34.225  1.00  0.00     0.031 C 
ATOM     59  C   UNL A   1      45.438  26.344  29.928  1.00  0.00     0.029 A 
ATOM     60  C   UNL A   1      44.650  25.681  30.854  1.00  0.00     0.049 A 
ATOM     61  H   UNL A   1      43.163  24.222  30.544  1.00  0.00     0.167 HD
ATOM     62  C   UNL A   1      44.171  26.868  32.861  1.00  0.00     0.074 A 
ATOM     63  C   UNL A   1      44.344  27.513  34.149  1.00  0.00     0.031 C 
ATOM     64  C   UNL A   1      44.653  25.716  32.309  1.00  0.00     0.037 A 
BRANCH  51  65
ATOM     65  C   UNL A   1      43.514  23.482  26.668  1.00  0.00     0.064 A 
ATOM     66  C   UNL A   1      43.168  22.114  26.674  1.00  0.00     0.173 A 
ATOM     67  C   UNL A   1      44.283  23.895  25.564  1.00  0.00     0.173 A 
ATOM     68  F   UNL A   1      42.347  21.602  27.598  1.00  0.00    -0.203 F 
ATOM     69  C   UNL A   1      43.667  21.212  25.729  1.00  0.00     0.198 A 
ATOM     70  C   UNL A   1      44.829  22.985  24.652  1.00  0.00     0.198 A 
ATOM     71  F   UNL A   1      44.505  25.195  25.326  1.00  0.00    -0.203 F 
ATOM     72  F   UNL A   1      43.318  19.919  25.796  1.00  0.00    -0.200 F 
ATOM     73  C   UNL A   1      44.531  21.640  24.744  1.00  0.00     0.200 A 
ATOM     74  F   UNL A   1      45.653  23.421  23.689  1.00  0.00    -0.200 F 
ATOM     75  F   UNL A   1      45.058  20.765  23.876  1.00  0.00    -0.200 F 
ENDBRANCH  51  65
BRANCH  52  76
ATOM     76  C   UNL A   1      41.039  30.463  33.048  1.00  0.00     0.064 A 
ATOM     77  C   UNL A   1      40.888  31.860  33.059  1.00  0.00     0.173 A 
ATOM     78  C   UNL A   1      39.881  29.692  33.202  1.00  0.00     0.173 A 
ATOM     79  F   UNL A   1      41.972  32.651  33.007  1.00  0.00    -0.203 F 
ATOM     80  C   UNL A   1      39.631  32.456  33.007  1.00  0.00     0.198 A 
ATOM     81  C   UNL A   1      38.620  30.296  33.207  1.00  0.00     0.198 A 
ATOM     82  F   UNL A   1      39.959  28.355  33.224  1.00  0.00    -0.203 F 
ATOM     83  F   UNL A   1      39.526  33.782  32.829  1.00  0.00    -0.200 F 
ATOM     84  C   UNL A   1      38.495  31.669  33.048  1.00  0.00     0.200 A 
ATOM     85  F   UNL A   1      37.519  29.534  33.272  1.00  0.00    -0.200 F 
ATOM     86  F   UNL A   1      37.285  32.228  32.900  1.00  0.00    -0.200 F 
ENDBRANCH  52  76
BRANCH  64  87
ATOM     87  C   UNL A   1      45.302  24.586  33.065  1.00  0.00     0.064 A 
ATOM     88  C   UNL A   1      46.607  24.647  33.580  1.00  0.00     0.173 A 
ATOM     89  C   UNL A   1      44.551  23.446  33.442  1.00  0.00     0.173 A 
ATOM     90  F   UNL A   1      47.381  25.725  33.397  1.00  0.00    -0.203 F 
ATOM     91  C   UNL A   1      47.143  23.621  34.361  1.00  0.00     0.198 A 
ATOM     92  C   UNL A   1      45.069  22.452  34.271  1.00  0.00     0.198 A 
ATOM     93  F   UNL A   1      43.282  23.276  33.047  1.00  0.00    -0.203 F 
ATOM     94  F   UNL A   1      48.407  23.711  34.795  1.00  0.00    -0.200 F 
ATOM     95  C   UNL A   1      46.371  22.532  34.717  1.00  0.00     0.200 A 
ATOM     96  F   UNL A   1      44.288  21.431  34.650  1.00  0.00    -0.200 F 
ATOM     97  F   UNL A   1      46.872  21.576  35.511  1.00  0.00    -0.200 F 
ENDBRANCH  64  87
ENDBRANCH  38  39
ENDBRANCH  30  33
ENDBRANCH  28  29
ENDBRANCH  27  28
ENDBRANCH   1  27
TORSDOF 14
ENDMDL
MODEL 3
REMARK VINA RESULT:     -13.7      3.551     10.068
REMARK SMILES Cc1ccc(NC(=O)C[C@H]2SC[C@H](C(=O)NCCCCNC(=O)c3ccc(-c4c5nc(c(-c6c(F)c(F)c(F)c(F)c6F)c6ccc([nH]6)c(-c6c(F)c(F)c(F)c(F)c6F)c6nc(c(-c7c(F)c(F)c(F)c(F)c7F)c7ccc4[nH]7)C=C6)C=C5)cc3)NC2=O)cc1
REMARK SMILES IDX 18 1 17 2 16 3 14 4 15 5 13 7 10 8 11 9 88 10 12 11 87 12
REMARK SMILES IDX 89 13 9 15 7 16 6 17 8 19 5 20 1 21 2 22 3 23 91 24 4 25
REMARK SMILES IDX 90 26 19 27 20 28 21 29 22 30 23 32 24 33 25 34 86 35 26 36
REMARK SMILES IDX 85 37 27 38 28 39 29 40 79 41 30 42 84 43 78 44 80 45 31 46
REMARK SMILES IDX 83 47 77 48 76 49 32 51 64 52 44 53 63 54 45 55 48 56 62 57
REMARK SMILES IDX 81 58 46 59 47 60 61 62 82 63 49 64 33 65 34 66 42 67 35 68
REMARK SMILES IDX 36 69 40 70 43 71 37 72 38 73 41 74 39 75 65 76 66 77 74 78
REMARK SMILES IDX 67 79 68 80 72 81 75 82 69 83 70 84 73 85 71 86 50 87 51 88
REMARK SMILES IDX 59 89 52 90 53 91 57 92 60 93 54 94 55 95 58 96 56 97
REMARK H PARENT 16 6 87 14 6 18 21 31 80 50 48 61
REMARK Flexibility Score: inf
ROOT
ATOM      1  C   UNL A   1      31.583  30.662  25.857  1.00  0.00     0.023 C 
ENDROOT
BRANCH   1   2
ATOM      2  C   UNL A   1      31.415  29.401  24.996  1.00  0.00     0.116 C 
BRANCH   2   3
ATOM      3  N   UNL A   1      30.772  29.650  23.720  1.00  0.00    -0.354 N 
ATOM      4  C   UNL A   1      30.639  28.886  22.601  1.00  0.00     0.243 C 
ATOM      5  O   UNL A   1      29.903  29.338  21.716  1.00  0.00    -0.273 OA
ATOM      6  H   UNL A   1      30.351  30.538  23.650  1.00  0.00     0.163 HD
BRANCH   4   7
ATOM      7  C   UNL A   1      31.276  27.492  22.440  1.00  0.00     0.181 C 
ATOM      8  C   UNL A   1      32.467  24.949  23.587  1.00  0.00     0.145 C 
ATOM      9  S   UNL A   1      33.496  25.843  22.336  1.00  0.00    -0.145 SA
ATOM     10  C   UNL A   1      30.979  25.163  23.271  1.00  0.00     0.234 C 
ATOM     11  C   UNL A   1      32.791  27.500  22.602  1.00  0.00     0.105 C 
ATOM     12  N   UNL A   1      30.549  26.474  23.199  1.00  0.00    -0.343 N 
ATOM     13  O   UNL A   1      30.146  24.269  23.171  1.00  0.00    -0.274 OA
ATOM     14  H   UNL A   1      29.727  26.732  23.674  1.00  0.00     0.164 HD
BRANCH   8  15
ATOM     15  C   UNL A   1      33.016  23.528  23.790  1.00  0.00     0.124 C 
BRANCH  15  16
ATOM     16  C   UNL A   1      32.870  22.803  25.121  1.00  0.00     0.226 C 
ATOM     17  N   UNL A   1      33.914  22.229  25.787  1.00  0.00    -0.326 N 
ATOM     18  H   UNL A   1      33.672  21.673  26.563  1.00  0.00     0.169 HD
ATOM     19  O   UNL A   1      31.747  22.688  25.625  1.00  0.00    -0.275 OA
BRANCH  17  20
ATOM     20  C   UNL A   1      35.279  22.326  25.513  1.00  0.00     0.041 A 
ATOM     21  C   UNL A   1      39.451  21.817  26.001  1.00  0.00     0.044 C 
ATOM     22  C   UNL A   1      38.024  22.058  25.662  1.00  0.00    -0.051 A 
ATOM     23  C   UNL A   1      37.431  23.286  25.969  1.00  0.00     0.005 A 
ATOM     24  C   UNL A   1      37.264  21.047  25.071  1.00  0.00     0.005 A 
ATOM     25  C   UNL A   1      36.049  23.420  25.892  1.00  0.00     0.026 A 
ATOM     26  C   UNL A   1      35.886  21.191  24.973  1.00  0.00     0.026 A 
ENDBRANCH  17  20
ENDBRANCH  15  16
ENDBRANCH   8  15
ENDBRANCH   4   7
ENDBRANCH   2   3
ENDBRANCH   1   2
BRANCH   1  27
ATOM     27  C   UNL A   1      32.184  30.446  27.249  1.00  0.00     0.023 C 
BRANCH  27  28
ATOM     28  C   UNL A   1      33.706  30.458  27.298  1.00  0.00     0.116 C 
BRANCH  28  29
ATOM     29  N   UNL A   1      34.281  31.422  28.229  1.00  0.00    -0.352 N 
ATOM     30  C   UNL A   1      35.419  31.313  29.017  1.00  0.00     0.251 C 
ATOM     31  H   UNL A   1      33.791  32.272  28.310  1.00  0.00     0.163 HD
ATOM     32  O   UNL A   1      35.721  32.200  29.791  1.00  0.00    -0.269 OA
BRANCH  30  33
ATOM     33  C   UNL A   1      36.336  30.165  28.802  1.00  0.00     0.039 A 
ATOM     34  C   UNL A   1      36.643  29.360  29.905  1.00  0.00     0.014 A 
ATOM     35  C   UNL A   1      37.040  30.019  27.612  1.00  0.00     0.014 A 
ATOM     36  C   UNL A   1      37.816  28.610  29.897  1.00  0.00     0.010 A 
ATOM     37  C   UNL A   1      38.252  29.361  27.633  1.00  0.00     0.010 A 
ATOM     38  C   UNL A   1      38.669  28.715  28.799  1.00  0.00    -0.014 A 
BRANCH  38  39
ATOM     39  C   UNL A   1      40.064  28.302  28.838  1.00  0.00     0.031 A 
ATOM     40  C   UNL A   1      40.477  26.976  28.346  1.00  0.00     0.074 A 
ATOM     41  C   UNL A   1      40.995  29.184  29.261  1.00  0.00     0.049 A 
ATOM     42  N   UNL A   1      41.524  26.352  28.767  1.00  0.00    -0.248 NA
ATOM     43  C   UNL A   1      39.717  26.230  27.351  1.00  0.00     0.031 C 
ATOM     44  C   UNL A   1      42.443  29.069  29.122  1.00  0.00     0.029 A 
ATOM     45  N   UNL A   1      40.805  30.306  30.084  1.00  0.00    -0.354 N 
ATOM     46  C   UNL A   1      41.723  25.271  27.943  1.00  0.00     0.074 A 
ATOM     47  C   UNL A   1      40.539  25.202  27.116  1.00  0.00     0.031 C 
ATOM     48  C   UNL A   1      43.025  29.858  30.037  1.00  0.00     0.029 A 
ATOM     49  C   UNL A   1      41.968  30.402  30.872  1.00  0.00     0.049 A 
ATOM     50  H   UNL A   1      40.020  30.902  30.106  1.00  0.00     0.167 HD
ATOM     51  C   UNL A   1      42.928  24.632  27.949  1.00  0.00     0.037 A 
ATOM     52  C   UNL A   1      41.948  30.375  32.233  1.00  0.00     0.037 A 
ATOM     53  C   UNL A   1      43.860  25.261  28.881  1.00  0.00     0.049 A 
ATOM     54  C   UNL A   1      42.802  29.271  32.785  1.00  0.00     0.074 A 
ATOM     55  C   UNL A   1      44.858  26.203  28.686  1.00  0.00     0.029 A 
ATOM     56  N   UNL A   1      43.627  25.212  30.253  1.00  0.00    -0.354 N 
ATOM     57  N   UNL A   1      43.093  28.196  32.108  1.00  0.00    -0.248 NA
ATOM     58  C   UNL A   1      43.411  29.293  34.108  1.00  0.00     0.031 C 
ATOM     59  C   UNL A   1      45.201  26.750  29.945  1.00  0.00     0.029 A 
ATOM     60  C   UNL A   1      44.433  26.123  30.911  1.00  0.00     0.049 A 
ATOM     61  H   UNL A   1      42.980  24.614  30.692  1.00  0.00     0.167 HD
ATOM     62  C   UNL A   1      43.933  27.412  32.849  1.00  0.00     0.074 A 
ATOM     63  C   UNL A   1      44.094  28.135  34.097  1.00  0.00     0.031 C 
ATOM     64  C   UNL A   1      44.439  26.243  32.362  1.00  0.00     0.037 A 
BRANCH  51  65
ATOM     65  C   UNL A   1      43.335  23.660  26.864  1.00  0.00     0.064 A 
ATOM     66  C   UNL A   1      43.006  22.290  26.942  1.00  0.00     0.173 A 
ATOM     67  C   UNL A   1      44.105  24.023  25.744  1.00  0.00     0.173 A 
ATOM     68  F   UNL A   1      42.186  21.818  27.888  1.00  0.00    -0.203 F 
ATOM     69  C   UNL A   1      43.521  21.345  26.050  1.00  0.00     0.198 A 
ATOM     70  C   UNL A   1      44.667  23.072  24.884  1.00  0.00     0.198 A 
ATOM     71  F   UNL A   1      44.311  25.311  25.437  1.00  0.00    -0.203 F 
ATOM     72  F   UNL A   1      43.189  20.053  26.185  1.00  0.00    -0.200 F 
ATOM     73  C   UNL A   1      44.386  21.730  25.048  1.00  0.00     0.200 A 
ATOM     74  F   UNL A   1      45.491  23.467  23.903  1.00  0.00    -0.200 F 
ATOM     75  F   UNL A   1      44.928  20.817  24.230  1.00  0.00    -0.200 F 
ENDBRANCH  51  65
BRANCH  52  76
ATOM     76  C   UNL A   1      40.716  30.938  32.843  1.00  0.00     0.064 A 
ATOM     77  C   UNL A   1      40.567  32.335  32.837  1.00  0.00     0.173 A 
ATOM     78  C   UNL A   1      39.556  30.170  32.984  1.00  0.00     0.173 A 
ATOM     79  F   UNL A   1      41.652  33.124  32.798  1.00  0.00    -0.203 F 
ATOM     80  C   UNL A   1      39.311  32.932  32.758  1.00  0.00     0.198 A 
ATOM     81  C   UNL A   1      38.295  30.774  32.961  1.00  0.00     0.198 A 
ATOM     82  F   UNL A   1      39.632  28.833  33.021  1.00  0.00    -0.203 F 
ATOM     83  F   UNL A   1      39.211  34.256  32.565  1.00  0.00    -0.200 F 
ATOM     84  C   UNL A   1      38.174  32.145  32.786  1.00  0.00     0.200 A 
ATOM     85  F   UNL A   1      37.192  30.014  33.013  1.00  0.00    -0.200 F 
ATOM     86  F   UNL A   1      36.968  32.704  32.611  1.00  0.00    -0.200 F 
ENDBRANCH  52  76
BRANCH  64  87
ATOM     87  C   UNL A   1      45.118  25.173  33.179  1.00  0.00     0.064 A 
ATOM     88  C   UNL A   1      46.513  25.052  33.291  1.00  0.00     0.173 A 
ATOM     89  C   UNL A   1      44.362  24.323  34.022  1.00  0.00     0.173 A 
ATOM     90  F   UNL A   1      47.341  25.877  32.637  1.00  0.00    -0.203 F 
ATOM     91  C   UNL A   1      47.108  24.111  34.135  1.00  0.00     0.198 A 
ATOM     92  C   UNL A   1      44.960  23.427  34.907  1.00  0.00     0.198 A 
ATOM     93  F   UNL A   1      43.023  24.356  34.039  1.00  0.00    -0.203 F 
ATOM     94  F   UNL A   1      48.443  24.010  34.175  1.00  0.00    -0.200 F 
ATOM     95  C   UNL A   1      46.333  23.310  34.952  1.00  0.00     0.200 A 
ATOM     96  F   UNL A   1      44.195  22.697  35.730  1.00  0.00    -0.200 F 
ATOM     97  F   UNL A   1      46.909  22.448  35.799  1.00  0.00    -0.200 F 
ENDBRANCH  64  87
ENDBRANCH  38  39
ENDBRANCH  30  33
ENDBRANCH  28  29
ENDBRANCH  27  28
ENDBRANCH   1  27
TORSDOF 14
ENDMDL
