MODEL 1
REMARK VINA RESULT:     -12.3      0.000      0.000
REMARK SMILES C[C@]1(c2nnnn2CCC(=O)NCCCCNC(=O)c2ccc(-c3c4nc(c(-c5c(F)c(F)c(F)c(F)c5F)c5ccc([nH]5)c(-c5c(F)c(F)c(F)c(F)c5F)c5nc(c(-c6c(F)c(F)c(F)c(F)c6F)c6ccc3[nH]6)C=C5)C=C4)cc2)CCCO1
REMARK SMILES IDX 14 1 13 2 12 3 10 4 11 5 9 7 8 8 7 9 3 10 4 11 5 12 6 13
REMARK SMILES IDX 2 14 1 15 83 16 86 17 84 18 85 19 15 20 16 21 17 22 18 23
REMARK SMILES IDX 19 25 20 26 21 27 82 28 22 29 81 30 23 31 24 32 25 33 75 34
REMARK SMILES IDX 26 35 80 36 74 37 76 38 27 39 79 40 73 41 72 42 28 44 60 45
REMARK SMILES IDX 40 46 59 47 41 48 44 49 58 50 77 51 42 52 43 53 57 55 78 56
REMARK SMILES IDX 45 57 29 58 30 59 38 60 31 61 32 62 36 63 39 64 33 65 34 66
REMARK SMILES IDX 37 67 35 68 61 69 62 70 70 71 63 72 64 73 68 74 71 75 65 76
REMARK SMILES IDX 66 77 69 78 67 79 46 80 47 81 55 82 48 83 49 84 53 85 56 86
REMARK SMILES IDX 50 87 51 88 54 89 52 90
REMARK H PARENT 12 6 17 24 76 43 44 54
REMARK Flexibility Score: inf
ROOT
ATOM      1  C   UNL A   1      40.639  21.401  26.196  1.00  0.00     0.023 C 
ENDROOT
BRANCH   1   2
ATOM      2  C   UNL A   1      39.123  21.491  26.344  1.00  0.00     0.116 C 
BRANCH   2   3
ATOM      3  N   UNL A   1      38.553  22.383  25.347  1.00  0.00    -0.356 N 
ATOM      4  C   UNL A   1      37.264  22.525  24.925  1.00  0.00     0.221 C 
ATOM      5  O   UNL A   1      37.054  23.215  23.926  1.00  0.00    -0.275 OA
ATOM      6  H   UNL A   1      39.201  22.979  24.906  1.00  0.00     0.163 HD
BRANCH   4   7
ATOM      7  C   UNL A   1      36.104  21.901  25.680  1.00  0.00     0.124 C 
BRANCH   7   8
ATOM      8  C   UNL A   1      35.333  20.879  24.845  1.00  0.00     0.158 C 
BRANCH   8   9
ATOM      9  N   UNL A   1      33.925  20.823  25.162  1.00  0.00    -0.226 N 
ATOM     10  C   UNL A   1      32.901  20.025  24.710  1.00  0.00     0.183 A 
ATOM     11  N   UNL A   1      31.774  20.666  24.985  1.00  0.00    -0.111 NA
ATOM     12  N   UNL A   1      32.104  21.658  25.862  1.00  0.00    -0.024 NA
ATOM     13  N   UNL A   1      33.416  21.730  26.017  1.00  0.00    -0.045 NA
BRANCH  10  14
ATOM     14  C   UNL A   1      32.949  18.579  24.336  1.00  0.00     0.126 C 
ATOM     15  C   UNL A   1      32.365  18.461  22.913  1.00  0.00     0.051 C 
ATOM     16  C   UNL A   1      34.325  17.936  24.446  1.00  0.00     0.046 C 
ATOM     17  O   UNL A   1      32.121  17.808  25.222  1.00  0.00    -0.367 OA
ATOM     18  C   UNL A   1      33.972  16.465  24.543  1.00  0.00     0.032 C 
ATOM     19  C   UNL A   1      32.676  16.485  25.330  1.00  0.00     0.161 C 
ENDBRANCH  10  14
ENDBRANCH   8   9
ENDBRANCH   7   8
ENDBRANCH   4   7
ENDBRANCH   2   3
ENDBRANCH   1   2
BRANCH   1  20
ATOM     20  C   UNL A   1      41.283  20.019  26.113  1.00  0.00     0.023 C 
BRANCH  20  21
ATOM     21  C   UNL A   1      42.698  19.939  26.652  1.00  0.00     0.116 C 
BRANCH  21  22
ATOM     22  N   UNL A   1      43.661  19.385  25.700  1.00  0.00    -0.352 N 
ATOM     23  C   UNL A   1      44.445  20.085  24.806  1.00  0.00     0.251 C 
ATOM     24  H   UNL A   1      43.761  18.406  25.698  1.00  0.00     0.163 HD
ATOM     25  O   UNL A   1      44.987  19.550  23.845  1.00  0.00    -0.269 OA
BRANCH  23  26
ATOM     26  C   UNL A   1      44.596  21.528  25.042  1.00  0.00     0.039 A 
ATOM     27  C   UNL A   1      43.660  22.424  24.530  1.00  0.00     0.014 A 
ATOM     28  C   UNL A   1      45.551  21.926  25.973  1.00  0.00     0.014 A 
ATOM     29  C   UNL A   1      43.604  23.708  25.069  1.00  0.00     0.010 A 
ATOM     30  C   UNL A   1      45.408  23.156  26.586  1.00  0.00     0.010 A 
ATOM     31  C   UNL A   1      44.437  24.061  26.147  1.00  0.00    -0.014 A 
BRANCH  31  32
ATOM     32  C   UNL A   1      44.178  25.313  26.876  1.00  0.00     0.031 A 
ATOM     33  C   UNL A   1      45.089  26.471  26.595  1.00  0.00     0.074 A 
ATOM     34  C   UNL A   1      43.093  25.564  27.641  1.00  0.00     0.049 A 
ATOM     35  N   UNL A   1      45.855  27.093  27.435  1.00  0.00    -0.248 NA
ATOM     36  C   UNL A   1      45.182  26.984  25.220  1.00  0.00     0.031 C 
ATOM     37  C   UNL A   1      41.905  24.738  27.869  1.00  0.00     0.029 A 
ATOM     38  N   UNL A   1      42.795  26.714  28.316  1.00  0.00    -0.354 N 
ATOM     39  C   UNL A   1      46.428  28.160  26.744  1.00  0.00     0.074 A 
ATOM     40  C   UNL A   1      46.043  27.996  25.364  1.00  0.00     0.031 C 
ATOM     41  C   UNL A   1      40.931  25.492  28.422  1.00  0.00     0.029 A 
ATOM     42  C   UNL A   1      41.486  26.790  28.756  1.00  0.00     0.049 A 
ATOM     43  H   UNL A   1      43.456  27.426  28.477  1.00  0.00     0.167 HD
ATOM     44  C   UNL A   1      47.052  29.187  27.390  1.00  0.00     0.037 A 
ATOM     45  C   UNL A   1      40.881  27.841  29.354  1.00  0.00     0.037 A 
ATOM     46  C   UNL A   1      47.401  28.835  28.742  1.00  0.00     0.049 A 
ATOM     47  C   UNL A   1      41.939  28.676  29.968  1.00  0.00     0.074 A 
ATOM     48  C   UNL A   1      48.149  27.824  29.318  1.00  0.00     0.029 A 
ATOM     49  N   UNL A   1      46.686  29.378  29.781  1.00  0.00    -0.354 N 
ATOM     50  N   UNL A   1      42.652  28.310  30.996  1.00  0.00    -0.248 NA
ATOM     51  C   UNL A   1      42.484  29.778  29.190  1.00  0.00     0.031 C 
ATOM     52  C   UNL A   1      47.432  27.470  30.501  1.00  0.00     0.029 A 
ATOM     53  C   UNL A   1      46.333  28.324  30.585  1.00  0.00     0.049 A 
ATOM     54  H   UNL A   1      46.469  30.328  29.920  1.00  0.00     0.167 HD
ATOM     55  C   UNL A   1      43.916  28.816  30.742  1.00  0.00     0.074 A 
ATOM     56  C   UNL A   1      43.723  29.806  29.686  1.00  0.00     0.031 C 
ATOM     57  C   UNL A   1      45.039  28.194  31.209  1.00  0.00     0.037 A 
BRANCH  44  58
ATOM     58  C   UNL A   1      47.097  30.616  26.906  1.00  0.00     0.064 A 
ATOM     59  C   UNL A   1      48.307  31.340  26.970  1.00  0.00     0.173 A 
ATOM     60  C   UNL A   1      45.940  31.386  26.669  1.00  0.00     0.173 A 
ATOM     61  F   UNL A   1      49.467  30.713  27.217  1.00  0.00    -0.203 F 
ATOM     62  C   UNL A   1      48.341  32.734  26.877  1.00  0.00     0.198 A 
ATOM     63  C   UNL A   1      45.985  32.773  26.525  1.00  0.00     0.198 A 
ATOM     64  F   UNL A   1      44.717  30.841  26.680  1.00  0.00    -0.203 F 
ATOM     65  F   UNL A   1      49.496  33.387  27.069  1.00  0.00    -0.200 F 
ATOM     66  C   UNL A   1      47.179  33.450  26.660  1.00  0.00     0.200 A 
ATOM     67  F   UNL A   1      44.845  33.453  26.336  1.00  0.00    -0.200 F 
ATOM     68  F   UNL A   1      47.199  34.790  26.634  1.00  0.00    -0.200 F 
ENDBRANCH  44  58
BRANCH  45  69
ATOM     69  C   UNL A   1      39.462  28.245  29.275  1.00  0.00     0.064 A 
ATOM     70  C   UNL A   1      38.657  28.310  30.421  1.00  0.00     0.173 A 
ATOM     71  C   UNL A   1      38.934  28.818  28.100  1.00  0.00     0.173 A 
ATOM     72  F   UNL A   1      39.103  27.828  31.590  1.00  0.00    -0.203 F 
ATOM     73  C   UNL A   1      37.404  28.931  30.398  1.00  0.00     0.198 A 
ATOM     74  C   UNL A   1      37.680  29.426  28.075  1.00  0.00     0.198 A 
ATOM     75  F   UNL A   1      39.662  28.876  26.975  1.00  0.00    -0.203 F 
ATOM     76  F   UNL A   1      36.687  29.028  31.526  1.00  0.00    -0.200 F 
ATOM     77  C   UNL A   1      36.921  29.496  29.228  1.00  0.00     0.200 A 
ATOM     78  F   UNL A   1      37.240  29.995  26.945  1.00  0.00    -0.200 F 
ATOM     79  F   UNL A   1      35.746  30.138  29.221  1.00  0.00    -0.200 F 
ENDBRANCH  45  69
BRANCH  57  80
ATOM     80  C   UNL A   1      44.883  27.107  32.233  1.00  0.00     0.064 A 
ATOM     81  C   UNL A   1      44.774  27.338  33.616  1.00  0.00     0.173 A 
ATOM     82  C   UNL A   1      44.694  25.790  31.787  1.00  0.00     0.173 A 
ATOM     83  F   UNL A   1      44.826  28.577  34.117  1.00  0.00    -0.203 F 
ATOM     84  C   UNL A   1      44.547  26.292  34.509  1.00  0.00     0.198 A 
ATOM     85  C   UNL A   1      44.427  24.754  32.679  1.00  0.00     0.198 A 
ATOM     86  F   UNL A   1      44.724  25.514  30.474  1.00  0.00    -0.203 F 
ATOM     87  F   UNL A   1      44.469  26.539  35.826  1.00  0.00    -0.200 F 
ATOM     88  C   UNL A   1      44.367  25.002  34.040  1.00  0.00     0.200 A 
ATOM     89  F   UNL A   1      44.203  23.517  32.215  1.00  0.00    -0.200 F 
ATOM     90  F   UNL A   1      44.112  24.003  34.897  1.00  0.00    -0.200 F 
ENDBRANCH  57  80
ENDBRANCH  31  32
ENDBRANCH  23  26
ENDBRANCH  21  22
ENDBRANCH  20  21
ENDBRANCH   1  20
TORSDOF 14
ENDMDL
MODEL 2
REMARK VINA RESULT:     -12.3      1.363      2.247
REMARK SMILES C[C@]1(c2nnnn2CCC(=O)NCCCCNC(=O)c2ccc(-c3c4nc(c(-c5c(F)c(F)c(F)c(F)c5F)c5ccc([nH]5)c(-c5c(F)c(F)c(F)c(F)c5F)c5nc(c(-c6c(F)c(F)c(F)c(F)c6F)c6ccc3[nH]6)C=C5)C=C4)cc2)CCCO1
REMARK SMILES IDX 14 1 13 2 12 3 10 4 11 5 9 7 8 8 7 9 3 10 4 11 5 12 6 13
REMARK SMILES IDX 2 14 1 15 83 16 86 17 84 18 85 19 15 20 16 21 17 22 18 23
REMARK SMILES IDX 19 25 20 26 21 27 82 28 22 29 81 30 23 31 24 32 25 33 75 34
REMARK SMILES IDX 26 35 80 36 74 37 76 38 27 39 79 40 73 41 72 42 28 44 60 45
REMARK SMILES IDX 40 46 59 47 41 48 44 49 58 50 77 51 42 52 43 53 57 55 78 56
REMARK SMILES IDX 45 57 29 58 30 59 38 60 31 61 32 62 36 63 39 64 33 65 34 66
REMARK SMILES IDX 37 67 35 68 61 69 62 70 70 71 63 72 64 73 68 74 71 75 65 76
REMARK SMILES IDX 66 77 69 78 67 79 46 80 47 81 55 82 48 83 49 84 53 85 56 86
REMARK SMILES IDX 50 87 51 88 54 89 52 90
REMARK H PARENT 12 6 17 24 76 43 44 54
REMARK Flexibility Score: inf
ROOT
ATOM      1  C   UNL A   1      40.389  21.075  26.511  1.00  0.00     0.023 C 
ENDROOT
BRANCH   1   2
ATOM      2  C   UNL A   1      39.067  21.191  25.759  1.00  0.00     0.116 C 
BRANCH   2   3
ATOM      3  N   UNL A   1      38.374  22.421  26.107  1.00  0.00    -0.356 N 
ATOM      4  C   UNL A   1      37.130  22.860  25.762  1.00  0.00     0.221 C 
ATOM      5  O   UNL A   1      36.835  24.028  26.023  1.00  0.00    -0.275 OA
ATOM      6  H   UNL A   1      38.884  23.034  26.685  1.00  0.00     0.163 HD
BRANCH   4   7
ATOM      7  C   UNL A   1      36.107  21.939  25.122  1.00  0.00     0.124 C 
BRANCH   7   8
ATOM      8  C   UNL A   1      35.125  21.347  26.132  1.00  0.00     0.158 C 
BRANCH   8   9
ATOM      9  N   UNL A   1      33.809  21.114  25.585  1.00  0.00    -0.226 N 
ATOM     10  C   UNL A   1      32.705  21.921  25.441  1.00  0.00     0.183 A 
ATOM     11  N   UNL A   1      31.665  21.114  25.296  1.00  0.00    -0.111 NA
ATOM     12  N   UNL A   1      32.175  19.876  25.036  1.00  0.00    -0.024 NA
ATOM     13  N   UNL A   1      33.493  19.877  25.161  1.00  0.00    -0.045 NA
BRANCH  10  14
ATOM     14  C   UNL A   1      32.660  23.380  25.121  1.00  0.00     0.126 C 
ATOM     15  C   UNL A   1      31.187  23.732  24.826  1.00  0.00     0.051 C 
ATOM     16  C   UNL A   1      33.263  24.287  26.185  1.00  0.00     0.046 C 
ATOM     17  O   UNL A   1      33.429  23.654  23.938  1.00  0.00    -0.367 OA
ATOM     18  C   UNL A   1      33.558  25.543  25.390  1.00  0.00     0.032 C 
ATOM     19  C   UNL A   1      33.948  24.993  24.031  1.00  0.00     0.161 C 
ENDBRANCH  10  14
ENDBRANCH   8   9
ENDBRANCH   7   8
ENDBRANCH   4   7
ENDBRANCH   2   3
ENDBRANCH   1   2
BRANCH   1  20
ATOM     20  C   UNL A   1      41.160  19.759  26.433  1.00  0.00     0.023 C 
BRANCH  20  21
ATOM     21  C   UNL A   1      42.633  19.859  26.781  1.00  0.00     0.116 C 
BRANCH  21  22
ATOM     22  N   UNL A   1      43.519  19.318  25.750  1.00  0.00    -0.352 N 
ATOM     23  C   UNL A   1      44.223  20.028  24.799  1.00  0.00     0.251 C 
ATOM     24  H   UNL A   1      43.625  18.339  25.734  1.00  0.00     0.163 HD
ATOM     25  O   UNL A   1      44.688  19.503  23.795  1.00  0.00    -0.269 OA
BRANCH  23  26
ATOM     26  C   UNL A   1      44.383  21.472  25.030  1.00  0.00     0.039 A 
ATOM     27  C   UNL A   1      43.433  22.368  24.547  1.00  0.00     0.014 A 
ATOM     28  C   UNL A   1      45.365  21.868  25.933  1.00  0.00     0.014 A 
ATOM     29  C   UNL A   1      43.394  23.652  25.087  1.00  0.00     0.010 A 
ATOM     30  C   UNL A   1      45.242  23.098  26.550  1.00  0.00     0.010 A 
ATOM     31  C   UNL A   1      44.259  24.005  26.140  1.00  0.00    -0.014 A 
BRANCH  31  32
ATOM     32  C   UNL A   1      44.023  25.256  26.877  1.00  0.00     0.031 A 
ATOM     33  C   UNL A   1      44.962  26.396  26.610  1.00  0.00     0.074 A 
ATOM     34  C   UNL A   1      42.939  25.527  27.636  1.00  0.00     0.049 A 
ATOM     35  N   UNL A   1      45.735  26.994  27.460  1.00  0.00    -0.248 NA
ATOM     36  C   UNL A   1      45.076  26.917  25.240  1.00  0.00     0.031 C 
ATOM     37  C   UNL A   1      41.730  24.726  27.850  1.00  0.00     0.029 A 
ATOM     38  N   UNL A   1      42.662  26.678  28.317  1.00  0.00    -0.354 N 
ATOM     39  C   UNL A   1      46.337  28.053  26.781  1.00  0.00     0.074 A 
ATOM     40  C   UNL A   1      45.959  27.908  25.398  1.00  0.00     0.031 C 
ATOM     41  C   UNL A   1      40.769  25.498  28.401  1.00  0.00     0.029 A 
ATOM     42  C   UNL A   1      41.351  26.780  28.748  1.00  0.00     0.049 A 
ATOM     43  H   UNL A   1      43.337  27.374  28.488  1.00  0.00     0.167 HD
ATOM     44  C   UNL A   1      46.979  29.061  27.440  1.00  0.00     0.037 A 
ATOM     45  C   UNL A   1      40.766  27.841  29.351  1.00  0.00     0.037 A 
ATOM     46  C   UNL A   1      47.310  28.691  28.791  1.00  0.00     0.049 A 
ATOM     47  C   UNL A   1      41.838  28.647  29.978  1.00  0.00     0.074 A 
ATOM     48  C   UNL A   1      48.031  27.659  29.365  1.00  0.00     0.029 A 
ATOM     49  N   UNL A   1      46.600  29.242  29.830  1.00  0.00    -0.354 N 
ATOM     50  N   UNL A   1      42.536  28.257  31.008  1.00  0.00    -0.248 NA
ATOM     51  C   UNL A   1      42.414  29.741  29.212  1.00  0.00     0.031 C 
ATOM     52  C   UNL A   1      47.299  27.313  30.541  1.00  0.00     0.029 A 
ATOM     53  C   UNL A   1      46.218  28.191  30.623  1.00  0.00     0.049 A 
ATOM     54  H   UNL A   1      46.405  30.196  29.974  1.00  0.00     0.167 HD
ATOM     55  C   UNL A   1      43.812  28.737  30.767  1.00  0.00     0.074 A 
ATOM     56  C   UNL A   1      43.649  29.738  29.717  1.00  0.00     0.031 C 
ATOM     57  C   UNL A   1      44.918  28.086  31.237  1.00  0.00     0.037 A 
BRANCH  44  58
ATOM     58  C   UNL A   1      47.060  30.492  26.967  1.00  0.00     0.064 A 
ATOM     59  C   UNL A   1      48.285  31.188  27.045  1.00  0.00     0.173 A 
ATOM     60  C   UNL A   1      45.922  31.289  26.726  1.00  0.00     0.173 A 
ATOM     61  F   UNL A   1      49.429  30.533  27.297  1.00  0.00    -0.203 F 
ATOM     62  C   UNL A   1      48.352  32.582  26.963  1.00  0.00     0.198 A 
ATOM     63  C   UNL A   1      45.999  32.676  26.593  1.00  0.00     0.198 A 
ATOM     64  F   UNL A   1      44.688  30.771  26.724  1.00  0.00    -0.203 F 
ATOM     65  F   UNL A   1      49.519  33.208  27.169  1.00  0.00    -0.200 F 
ATOM     66  C   UNL A   1      47.207  33.325  26.742  1.00  0.00     0.200 A 
ATOM     67  F   UNL A   1      44.877  33.383  26.400  1.00  0.00    -0.200 F 
ATOM     68  F   UNL A   1      47.257  34.664  26.726  1.00  0.00    -0.200 F 
ENDBRANCH  44  58
BRANCH  45  69
ATOM     69  C   UNL A   1      39.357  28.277  29.264  1.00  0.00     0.064 A 
ATOM     70  C   UNL A   1      38.547  28.359  30.406  1.00  0.00     0.173 A 
ATOM     71  C   UNL A   1      38.848  28.863  28.088  1.00  0.00     0.173 A 
ATOM     72  F   UNL A   1      38.976  27.866  31.576  1.00  0.00    -0.203 F 
ATOM     73  C   UNL A   1      37.309  29.009  30.377  1.00  0.00     0.198 A 
ATOM     74  C   UNL A   1      37.609  29.500  28.057  1.00  0.00     0.198 A 
ATOM     75  F   UNL A   1      39.583  28.906  26.966  1.00  0.00    -0.203 F 
ATOM     76  F   UNL A   1      36.589  29.121  31.502  1.00  0.00    -0.200 F 
ATOM     77  C   UNL A   1      36.846  29.586  29.205  1.00  0.00     0.200 A 
ATOM     78  F   UNL A   1      37.188  30.080  26.924  1.00  0.00    -0.200 F 
ATOM     79  F   UNL A   1      35.686  30.255  29.193  1.00  0.00    -0.200 F 
ENDBRANCH  45  69
BRANCH  57  80
ATOM     80  C   UNL A   1      44.729  26.995  32.252  1.00  0.00     0.064 A 
ATOM     81  C   UNL A   1      44.497  25.647  31.925  1.00  0.00     0.173 A 
ATOM     82  C   UNL A   1      44.933  27.300  33.606  1.00  0.00     0.173 A 
ATOM     83  F   UNL A   1      44.406  25.249  30.651  1.00  0.00    -0.203 F 
ATOM     84  C   UNL A   1      44.413  24.667  32.912  1.00  0.00     0.198 A 
ATOM     85  C   UNL A   1      44.889  26.311  34.586  1.00  0.00     0.198 A 
ATOM     86  F   UNL A   1      45.220  28.557  33.977  1.00  0.00    -0.203 F 
ATOM     87  F   UNL A   1      44.169  23.391  32.573  1.00  0.00    -0.200 F 
ATOM     88  C   UNL A   1      44.615  24.998  34.241  1.00  0.00     0.200 A 
ATOM     89  F   UNL A   1      45.135  26.629  35.865  1.00  0.00    -0.200 F 
ATOM     90  F   UNL A   1      44.572  24.048  35.187  1.00  0.00    -0.200 F 
ENDBRANCH  57  80
ENDBRANCH  31  32
ENDBRANCH  23  26
ENDBRANCH  21  22
ENDBRANCH  20  21
ENDBRANCH   1  20
TORSDOF 14
ENDMDL
MODEL 3
REMARK VINA RESULT:     -11.8      5.305     10.379
REMARK SMILES C[C@]1(c2nnnn2CCC(=O)NCCCCNC(=O)c2ccc(-c3c4nc(c(-c5c(F)c(F)c(F)c(F)c5F)c5ccc([nH]5)c(-c5c(F)c(F)c(F)c(F)c5F)c5nc(c(-c6c(F)c(F)c(F)c(F)c6F)c6ccc3[nH]6)C=C5)C=C4)cc2)CCCO1
REMARK SMILES IDX 14 1 13 2 12 3 10 4 11 5 9 7 8 8 7 9 3 10 4 11 5 12 6 13
REMARK SMILES IDX 2 14 1 15 83 16 86 17 84 18 85 19 15 20 16 21 17 22 18 23
REMARK SMILES IDX 19 25 20 26 21 27 82 28 22 29 81 30 23 31 24 32 25 33 75 34
REMARK SMILES IDX 26 35 80 36 74 37 76 38 27 39 79 40 73 41 72 42 28 44 60 45
REMARK SMILES IDX 40 46 59 47 41 48 44 49 58 50 77 51 42 52 43 53 57 55 78 56
REMARK SMILES IDX 45 57 29 58 30 59 38 60 31 61 32 62 36 63 39 64 33 65 34 66
REMARK SMILES IDX 37 67 35 68 61 69 62 70 70 71 63 72 64 73 68 74 71 75 65 76
REMARK SMILES IDX 66 77 69 78 67 79 46 80 47 81 55 82 48 83 49 84 53 85 56 86
REMARK SMILES IDX 50 87 51 88 54 89 52 90
REMARK H PARENT 12 6 17 24 76 43 44 54
REMARK Flexibility Score: inf
ROOT
ATOM      1  C   UNL A   1      34.623  33.007  28.359  1.00  0.00     0.023 C 
ENDROOT
BRANCH   1   2
ATOM      2  C   UNL A   1      34.193  31.568  28.092  1.00  0.00     0.116 C 
BRANCH   2   3
ATOM      3  N   UNL A   1      33.039  31.523  27.210  1.00  0.00    -0.356 N 
ATOM      4  C   UNL A   1      32.289  30.464  26.792  1.00  0.00     0.221 C 
ATOM      5  O   UNL A   1      31.474  30.651  25.886  1.00  0.00    -0.275 OA
ATOM      6  H   UNL A   1      32.751  32.397  26.858  1.00  0.00     0.163 HD
BRANCH   4   7
ATOM      7  C   UNL A   1      32.405  29.097  27.443  1.00  0.00     0.124 C 
BRANCH   7   8
ATOM      8  C   UNL A   1      32.911  28.022  26.483  1.00  0.00     0.158 C 
BRANCH   8   9
ATOM      9  N   UNL A   1      31.871  27.134  26.016  1.00  0.00    -0.226 N 
ATOM     10  C   UNL A   1      31.265  26.974  24.792  1.00  0.00     0.183 A 
ATOM     11  N   UNL A   1      30.116  26.356  25.019  1.00  0.00    -0.111 NA
ATOM     12  N   UNL A   1      30.186  25.875  26.293  1.00  0.00    -0.024 NA
ATOM     13  N   UNL A   1      31.283  26.304  26.896  1.00  0.00    -0.045 NA
BRANCH  10  14
ATOM     14  C   UNL A   1      31.876  27.093  23.433  1.00  0.00     0.126 C 
ATOM     15  C   UNL A   1      31.873  28.592  23.067  1.00  0.00     0.051 C 
ATOM     16  C   UNL A   1      33.260  26.473  23.298  1.00  0.00     0.046 C 
ATOM     17  O   UNL A   1      31.074  26.397  22.464  1.00  0.00    -0.367 OA
ATOM     18  C   UNL A   1      33.362  26.268  21.799  1.00  0.00     0.032 C 
ATOM     19  C   UNL A   1      31.935  25.926  21.412  1.00  0.00     0.161 C 
ENDBRANCH  10  14
ENDBRANCH   8   9
ENDBRANCH   7   8
ENDBRANCH   4   7
ENDBRANCH   2   3
ENDBRANCH   1   2
BRANCH   1  20
ATOM     20  C   UNL A   1      33.544  34.051  28.639  1.00  0.00     0.023 C 
BRANCH  20  21
ATOM     21  C   UNL A   1      34.018  35.272  29.405  1.00  0.00     0.116 C 
BRANCH  21  22
ATOM     22  N   UNL A   1      33.123  35.668  30.492  1.00  0.00    -0.352 N 
ATOM     23  C   UNL A   1      33.090  35.157  31.773  1.00  0.00     0.251 C 
ATOM     24  H   UNL A   1      32.473  36.380  30.287  1.00  0.00     0.163 HD
ATOM     25  O   UNL A   1      32.132  35.312  32.520  1.00  0.00    -0.269 OA
BRANCH  23  26
ATOM     26  C   UNL A   1      34.264  34.387  32.212  1.00  0.00     0.039 A 
ATOM     27  C   UNL A   1      34.258  32.996  32.137  1.00  0.00     0.014 A 
ATOM     28  C   UNL A   1      35.433  35.097  32.468  1.00  0.00     0.014 A 
ATOM     29  C   UNL A   1      35.475  32.322  32.190  1.00  0.00     0.010 A 
ATOM     30  C   UNL A   1      36.642  34.433  32.395  1.00  0.00     0.010 A 
ATOM     31  C   UNL A   1      36.683  33.042  32.255  1.00  0.00    -0.014 A 
BRANCH  31  32
ATOM     32  C   UNL A   1      37.955  32.336  32.034  1.00  0.00     0.031 A 
ATOM     33  C   UNL A   1      38.793  32.040  33.243  1.00  0.00     0.074 A 
ATOM     34  C   UNL A   1      38.351  31.780  30.869  1.00  0.00     0.049 A 
ATOM     35  N   UNL A   1      39.999  32.448  33.485  1.00  0.00    -0.248 NA
ATOM     36  C   UNL A   1      38.221  31.218  34.320  1.00  0.00     0.031 C 
ATOM     37  C   UNL A   1      37.624  31.658  29.602  1.00  0.00     0.029 A 
ATOM     38  N   UNL A   1      39.506  31.095  30.620  1.00  0.00    -0.354 N 
ATOM     39  C   UNL A   1      40.401  31.836  34.671  1.00  0.00     0.074 A 
ATOM     40  C   UNL A   1      39.238  31.155  35.184  1.00  0.00     0.031 C 
ATOM     41  C   UNL A   1      38.243  30.756  28.812  1.00  0.00     0.029 A 
ATOM     42  C   UNL A   1      39.499  30.383  29.434  1.00  0.00     0.049 A 
ATOM     43  H   UNL A   1      40.279  31.109  31.231  1.00  0.00     0.167 HD
ATOM     44  C   UNL A   1      41.708  31.808  35.062  1.00  0.00     0.037 A 
ATOM     45  C   UNL A   1      40.452  29.537  28.978  1.00  0.00     0.037 A 
ATOM     46  C   UNL A   1      42.494  32.797  34.370  1.00  0.00     0.049 A 
ATOM     47  C   UNL A   1      41.726  29.901  29.639  1.00  0.00     0.074 A 
ATOM     48  C   UNL A   1      42.414  34.170  34.223  1.00  0.00     0.029 A 
ATOM     49  N   UNL A   1      43.376  32.391  33.399  1.00  0.00    -0.354 N 
ATOM     50  N   UNL A   1      42.380  31.004  29.403  1.00  0.00    -0.248 NA
ATOM     51  C   UNL A   1      42.084  29.214  30.870  1.00  0.00     0.031 C 
ATOM     52  C   UNL A   1      42.790  34.413  32.868  1.00  0.00     0.029 A 
ATOM     53  C   UNL A   1      43.120  33.181  32.306  1.00  0.00     0.049 A 
ATOM     54  H   UNL A   1      44.052  31.680  33.471  1.00  0.00     0.167 HD
ATOM     55  C   UNL A   1      42.895  31.375  30.634  1.00  0.00     0.074 A 
ATOM     56  C   UNL A   1      42.784  30.181  31.466  1.00  0.00     0.031 C 
ATOM     57  C   UNL A   1      43.105  32.687  30.952  1.00  0.00     0.037 A 
BRANCH  44  58
ATOM     58  C   UNL A   1      42.351  30.701  35.861  1.00  0.00     0.064 A 
ATOM     59  C   UNL A   1      43.218  31.019  36.929  1.00  0.00     0.173 A 
ATOM     60  C   UNL A   1      42.387  29.360  35.428  1.00  0.00     0.173 A 
ATOM     61  F   UNL A   1      43.286  32.272  37.404  1.00  0.00    -0.203 F 
ATOM     62  C   UNL A   1      44.103  30.082  37.469  1.00  0.00     0.198 A 
ATOM     63  C   UNL A   1      43.235  28.414  36.004  1.00  0.00     0.198 A 
ATOM     64  F   UNL A   1      41.689  28.945  34.363  1.00  0.00    -0.203 F 
ATOM     65  F   UNL A   1      44.994  30.462  38.395  1.00  0.00    -0.200 F 
ATOM     66  C   UNL A   1      44.115  28.781  37.002  1.00  0.00     0.200 A 
ATOM     67  F   UNL A   1      43.248  27.162  35.525  1.00  0.00    -0.200 F 
ATOM     68  F   UNL A   1      45.004  27.896  37.472  1.00  0.00    -0.200 F 
ENDBRANCH  44  58
BRANCH  45  69
ATOM     69  C   UNL A   1      40.279  28.334  28.139  1.00  0.00     0.064 A 
ATOM     70  C   UNL A   1      40.964  28.186  26.925  1.00  0.00     0.173 A 
ATOM     71  C   UNL A   1      39.625  27.188  28.636  1.00  0.00     0.173 A 
ATOM     72  F   UNL A   1      41.648  29.216  26.405  1.00  0.00    -0.203 F 
ATOM     73  C   UNL A   1      41.010  26.959  26.257  1.00  0.00     0.198 A 
ATOM     74  C   UNL A   1      39.662  25.968  27.965  1.00  0.00     0.198 A 
ATOM     75  F   UNL A   1      39.011  27.209  29.830  1.00  0.00    -0.203 F 
ATOM     76  F   UNL A   1      41.725  26.839  25.130  1.00  0.00    -0.200 F 
ATOM     77  C   UNL A   1      40.367  25.849  26.782  1.00  0.00     0.200 A 
ATOM     78  F   UNL A   1      39.061  24.896  28.500  1.00  0.00    -0.200 F 
ATOM     79  F   UNL A   1      40.458  24.661  26.171  1.00  0.00    -0.200 F 
ENDBRANCH  45  69
BRANCH  57  80
ATOM     80  C   UNL A   1      43.032  33.711  29.854  1.00  0.00     0.064 A 
ATOM     81  C   UNL A   1      44.102  34.024  28.997  1.00  0.00     0.173 A 
ATOM     82  C   UNL A   1      41.789  34.295  29.567  1.00  0.00     0.173 A 
ATOM     83  F   UNL A   1      45.291  33.425  29.128  1.00  0.00    -0.203 F 
ATOM     84  C   UNL A   1      43.947  34.924  27.945  1.00  0.00     0.198 A 
ATOM     85  C   UNL A   1      41.628  35.162  28.490  1.00  0.00     0.198 A 
ATOM     86  F   UNL A   1      40.714  33.989  30.310  1.00  0.00    -0.203 F 
ATOM     87  F   UNL A   1      44.992  35.220  27.156  1.00  0.00    -0.200 F 
ATOM     88  C   UNL A   1      42.709  35.488  27.687  1.00  0.00     0.200 A 
ATOM     89  F   UNL A   1      40.417  35.666  28.214  1.00  0.00    -0.200 F 
ATOM     90  F   UNL A   1      42.552  36.324  26.651  1.00  0.00    -0.200 F 
ENDBRANCH  57  80
ENDBRANCH  31  32
ENDBRANCH  23  26
ENDBRANCH  21  22
ENDBRANCH  20  21
ENDBRANCH   1  20
TORSDOF 14
ENDMDL
