MODEL 1
REMARK VINA RESULT:     -13.0      0.000      0.000
REMARK SMILES Cc1c([C@@H]2[C@H](C(=O)NCCCCNC(=O)c3ccc(-c4c5nc(c(-c6c(F)c(F)c(F)c(F)c6F)c6ccc([nH]6)c(-c6c(F)c(F)c(F)c(F)c6F)c6nc(c(-c7c(F)c(F)c(F)c(F)c7F)c7ccc4[nH]7)C=C6)C=C5)cc3)CC(=O)N2C(C)C)cnn1C
REMARK SMILES IDX 11 1 10 2 9 3 8 4 6 5 7 6 5 8 4 9 82 10 79 11 80 12 81 13
REMARK SMILES IDX 3 14 1 15 2 16 88 17 86 18 87 19 89 20 83 21 84 22 85 23
REMARK SMILES IDX 12 24 13 25 14 26 15 28 16 29 17 30 78 31 18 32 77 33 19 34
REMARK SMILES IDX 20 35 21 36 71 37 22 38 76 39 70 40 72 41 23 42 75 43 69 44
REMARK SMILES IDX 68 45 24 47 56 48 36 49 55 50 37 51 40 52 54 53 73 54 38 55
REMARK SMILES IDX 39 56 53 58 74 59 41 60 25 61 26 62 34 63 27 64 28 65 32 66
REMARK SMILES IDX 35 67 29 68 30 69 33 70 31 71 57 72 58 73 66 74 59 75 60 76
REMARK SMILES IDX 64 77 67 78 61 79 62 80 65 81 63 82 42 83 43 84 51 85 44 86
REMARK SMILES IDX 45 87 49 88 52 89 46 90 47 91 50 92 48 93
REMARK H PARENT 8 7 13 27 72 46 40 57
REMARK Flexibility Score: inf
ROOT
ATOM      1  C   UNL A   1      31.600  31.993  26.809  1.00  0.00     0.023 C 
ENDROOT
BRANCH   1   2
ATOM      2  C   UNL A   1      31.797  30.486  26.941  1.00  0.00     0.023 C 
BRANCH   2   3
ATOM      3  C   UNL A   1      32.544  29.832  25.785  1.00  0.00     0.116 C 
BRANCH   3   4
ATOM      4  N   UNL A   1      31.687  28.923  25.037  1.00  0.00    -0.356 N 
ATOM      5  C   UNL A   1      31.887  27.838  24.250  1.00  0.00     0.226 C 
ATOM      6  O   UNL A   1      30.856  27.352  23.766  1.00  0.00    -0.275 OA
ATOM      7  H   UNL A   1      30.734  29.151  25.124  1.00  0.00     0.163 HD
BRANCH   5   8
ATOM      8  C   UNL A   1      33.225  27.186  23.901  1.00  0.00     0.115 C 
ATOM      9  C   UNL A   1      33.361  25.682  24.097  1.00  0.00     0.132 C 
ATOM     10  N   UNL A   1      32.873  25.131  22.846  1.00  0.00    -0.332 N 
ATOM     11  C   UNL A   1      33.691  27.329  22.460  1.00  0.00     0.116 C 
ATOM     12  C   UNL A   1      33.207  26.036  21.827  1.00  0.00     0.224 C 
ATOM     13  O   UNL A   1      33.146  25.837  20.625  1.00  0.00    -0.275 OA
BRANCH   9  14
ATOM     14  C   UNL A   1      32.917  25.024  25.350  1.00  0.00     0.016 A 
ATOM     15  C   UNL A   1      35.072  23.656  25.940  1.00  0.00     0.067 C 
ATOM     16  C   UNL A   1      33.662  24.111  26.094  1.00  0.00     0.040 A 
ATOM     17  N   UNL A   1      32.812  23.634  27.059  1.00  0.00    -0.273 N 
ATOM     18  C   UNL A   1      31.708  25.137  26.071  1.00  0.00     0.141 A 
ATOM     19  N   UNL A   1      31.637  24.283  27.095  1.00  0.00    -0.181 NA
ATOM     20  C   UNL A   1      33.024  22.495  27.922  1.00  0.00     0.174 C 
ENDBRANCH   9  14
BRANCH  10  21
ATOM     21  C   UNL A   1      32.536  23.729  22.535  1.00  0.00     0.079 C 
ATOM     22  C   UNL A   1      33.727  22.793  22.715  1.00  0.00     0.031 C 
ATOM     23  C   UNL A   1      31.304  23.160  23.242  1.00  0.00     0.031 C 
ENDBRANCH  10  21
ENDBRANCH   5   8
ENDBRANCH   3   4
ENDBRANCH   2   3
ENDBRANCH   1   2
BRANCH   1  24
ATOM     24  C   UNL A   1      32.743  32.838  27.355  1.00  0.00     0.116 C 
BRANCH  24  25
ATOM     25  N   UNL A   1      32.371  34.204  27.691  1.00  0.00    -0.352 N 
ATOM     26  C   UNL A   1      32.956  35.032  28.626  1.00  0.00     0.251 C 
ATOM     27  H   UNL A   1      31.611  34.582  27.192  1.00  0.00     0.163 HD
ATOM     28  O   UNL A   1      32.506  36.140  28.864  1.00  0.00    -0.269 OA
BRANCH  26  29
ATOM     29  C   UNL A   1      34.121  34.523  29.381  1.00  0.00     0.039 A 
ATOM     30  C   UNL A   1      33.903  33.892  30.608  1.00  0.00     0.014 A 
ATOM     31  C   UNL A   1      35.404  34.589  28.833  1.00  0.00     0.014 A 
ATOM     32  C   UNL A   1      34.964  33.248  31.245  1.00  0.00     0.010 A 
ATOM     33  C   UNL A   1      36.441  33.881  29.429  1.00  0.00     0.010 A 
ATOM     34  C   UNL A   1      36.229  33.198  30.637  1.00  0.00    -0.014 A 
BRANCH  34  35
ATOM     35  C   UNL A   1      37.347  32.432  31.239  1.00  0.00     0.031 A 
ATOM     36  C   UNL A   1      37.850  32.795  32.608  1.00  0.00     0.074 A 
ATOM     37  C   UNL A   1      37.961  31.470  30.524  1.00  0.00     0.049 A 
ATOM     38  N   UNL A   1      38.873  32.317  33.268  1.00  0.00    -0.248 NA
ATOM     39  C   UNL A   1      37.124  33.861  33.314  1.00  0.00     0.031 C 
ATOM     40  C   UNL A   1      37.602  31.065  29.164  1.00  0.00     0.029 A 
ATOM     41  N   UNL A   1      39.028  30.665  30.838  1.00  0.00    -0.354 N 
ATOM     42  C   UNL A   1      38.927  33.038  34.453  1.00  0.00     0.074 A 
ATOM     43  C   UNL A   1      37.866  34.021  34.399  1.00  0.00     0.031 C 
ATOM     44  C   UNL A   1      38.418  30.073  28.770  1.00  0.00     0.029 A 
ATOM     45  C   UNL A   1      39.378  29.796  29.834  1.00  0.00     0.049 A 
ATOM     46  H   UNL A   1      39.499  30.707  31.702  1.00  0.00     0.167 HD
ATOM     47  C   UNL A   1      39.767  32.877  35.502  1.00  0.00     0.037 A 
ATOM     48  C   UNL A   1      40.365  28.882  29.777  1.00  0.00     0.037 A 
ATOM     49  C   UNL A   1      40.795  31.874  35.567  1.00  0.00     0.049 A 
ATOM     50  C   UNL A   1      41.275  28.713  30.964  1.00  0.00     0.074 A 
ATOM     51  C   UNL A   1      41.656  31.586  36.611  1.00  0.00     0.029 A 
ATOM     52  N   UNL A   1      41.098  30.989  34.542  1.00  0.00    -0.354 N 
ATOM     53  N   UNL A   1      41.275  29.356  32.106  1.00  0.00    -0.248 NA
ATOM     54  C   UNL A   1      42.322  27.687  30.854  1.00  0.00     0.031 C 
ATOM     55  C   UNL A   1      42.502  30.549  36.207  1.00  0.00     0.029 A 
ATOM     56  C   UNL A   1      42.142  30.163  34.925  1.00  0.00     0.049 A 
ATOM     57  H   UNL A   1      40.639  30.954  33.673  1.00  0.00     0.167 HD
ATOM     58  C   UNL A   1      42.298  28.797  32.859  1.00  0.00     0.074 A 
ATOM     59  C   UNL A   1      42.891  27.754  32.049  1.00  0.00     0.031 C 
ATOM     60  C   UNL A   1      42.710  29.121  34.109  1.00  0.00     0.037 A 
BRANCH  47  61
ATOM     61  C   UNL A   1      39.598  33.804  36.669  1.00  0.00     0.064 A 
ATOM     62  C   UNL A   1      38.822  33.446  37.782  1.00  0.00     0.173 A 
ATOM     63  C   UNL A   1      40.237  35.052  36.687  1.00  0.00     0.173 A 
ATOM     64  F   UNL A   1      38.180  32.268  37.807  1.00  0.00    -0.203 F 
ATOM     65  C   UNL A   1      38.667  34.317  38.857  1.00  0.00     0.198 A 
ATOM     66  C   UNL A   1      40.103  35.909  37.778  1.00  0.00     0.198 A 
ATOM     67  F   UNL A   1      40.993  35.442  35.650  1.00  0.00    -0.203 F 
ATOM     68  F   UNL A   1      37.879  33.974  39.886  1.00  0.00    -0.200 F 
ATOM     69  C   UNL A   1      39.312  35.544  38.857  1.00  0.00     0.200 A 
ATOM     70  F   UNL A   1      40.735  37.090  37.780  1.00  0.00    -0.200 F 
ATOM     71  F   UNL A   1      39.166  36.380  39.895  1.00  0.00    -0.200 F 
ENDBRANCH  47  61
BRANCH  48  72
ATOM     72  C   UNL A   1      40.523  28.031  28.571  1.00  0.00     0.064 A 
ATOM     73  C   UNL A   1      41.304  28.459  27.489  1.00  0.00     0.173 A 
ATOM     74  C   UNL A   1      39.898  26.779  28.471  1.00  0.00     0.173 A 
ATOM     75  F   UNL A   1      41.903  29.659  27.531  1.00  0.00    -0.203 F 
ATOM     76  C   UNL A   1      41.440  27.678  26.344  1.00  0.00     0.198 A 
ATOM     77  C   UNL A   1      40.055  25.987  27.335  1.00  0.00     0.198 A 
ATOM     78  F   UNL A   1      39.144  26.321  29.480  1.00  0.00    -0.203 F 
ATOM     79  F   UNL A   1      42.158  28.131  25.307  1.00  0.00    -0.200 F 
ATOM     80  C   UNL A   1      40.819  26.440  26.269  1.00  0.00     0.200 A 
ATOM     81  F   UNL A   1      39.464  24.787  27.271  1.00  0.00    -0.200 F 
ATOM     82  F   UNL A   1      40.951  25.688  25.168  1.00  0.00    -0.200 F 
ENDBRANCH  48  72
BRANCH  60  83
ATOM     83  C   UNL A   1      43.832  28.316  34.692  1.00  0.00     0.064 A 
ATOM     84  C   UNL A   1      45.165  28.738  34.596  1.00  0.00     0.173 A 
ATOM     85  C   UNL A   1      43.563  27.132  35.397  1.00  0.00     0.173 A 
ATOM     86  F   UNL A   1      45.472  29.854  33.919  1.00  0.00    -0.203 F 
ATOM     87  C   UNL A   1      46.192  27.993  35.169  1.00  0.00     0.198 A 
ATOM     88  C   UNL A   1      44.590  26.405  35.991  1.00  0.00     0.198 A 
ATOM     89  F   UNL A   1      42.302  26.691  35.521  1.00  0.00    -0.203 F 
ATOM     90  F   UNL A   1      47.464  28.394  35.032  1.00  0.00    -0.200 F 
ATOM     91  C   UNL A   1      45.904  26.834  35.873  1.00  0.00     0.200 A 
ATOM     92  F   UNL A   1      44.309  25.291  36.680  1.00  0.00    -0.200 F 
ATOM     93  F   UNL A   1      46.893  26.123  36.431  1.00  0.00    -0.200 F 
ENDBRANCH  60  83
ENDBRANCH  34  35
ENDBRANCH  26  29
ENDBRANCH  24  25
ENDBRANCH   1  24
TORSDOF 13
ENDMDL
MODEL 2
REMARK VINA RESULT:     -12.9      0.564      7.331
REMARK SMILES Cc1c([C@@H]2[C@H](C(=O)NCCCCNC(=O)c3ccc(-c4c5nc(c(-c6c(F)c(F)c(F)c(F)c6F)c6ccc([nH]6)c(-c6c(F)c(F)c(F)c(F)c6F)c6nc(c(-c7c(F)c(F)c(F)c(F)c7F)c7ccc4[nH]7)C=C6)C=C5)cc3)CC(=O)N2C(C)C)cnn1C
REMARK SMILES IDX 11 1 10 2 9 3 8 4 6 5 7 6 5 8 4 9 82 10 79 11 80 12 81 13
REMARK SMILES IDX 3 14 1 15 2 16 88 17 86 18 87 19 89 20 83 21 84 22 85 23
REMARK SMILES IDX 12 24 13 25 14 26 15 28 16 29 17 30 78 31 18 32 77 33 19 34
REMARK SMILES IDX 20 35 21 36 71 37 22 38 76 39 70 40 72 41 23 42 75 43 69 44
REMARK SMILES IDX 68 45 24 47 56 48 36 49 55 50 37 51 40 52 54 53 73 54 38 55
REMARK SMILES IDX 39 56 53 58 74 59 41 60 25 61 26 62 34 63 27 64 28 65 32 66
REMARK SMILES IDX 35 67 29 68 30 69 33 70 31 71 57 72 58 73 66 74 59 75 60 76
REMARK SMILES IDX 64 77 67 78 61 79 62 80 65 81 63 82 42 83 43 84 51 85 44 86
REMARK SMILES IDX 45 87 49 88 52 89 46 90 47 91 50 92 48 93
REMARK H PARENT 8 7 13 27 72 46 40 57
REMARK Flexibility Score: inf
ROOT
ATOM      1  C   UNL A   1      31.925  31.698  26.905  1.00  0.00     0.023 C 
ENDROOT
BRANCH   1   2
ATOM      2  C   UNL A   1      32.464  30.468  26.180  1.00  0.00     0.023 C 
BRANCH   2   3
ATOM      3  C   UNL A   1      31.860  29.143  26.626  1.00  0.00     0.116 C 
BRANCH   3   4
ATOM      4  N   UNL A   1      31.201  28.456  25.524  1.00  0.00    -0.356 N 
ATOM      5  C   UNL A   1      31.603  27.651  24.510  1.00  0.00     0.226 C 
ATOM      6  O   UNL A   1      30.698  27.286  23.748  1.00  0.00    -0.275 OA
ATOM      7  H   UNL A   1      30.229  28.613  25.513  1.00  0.00     0.163 HD
BRANCH   5   8
ATOM      8  C   UNL A   1      33.027  27.179  24.219  1.00  0.00     0.115 C 
ATOM      9  C   UNL A   1      33.328  25.691  24.345  1.00  0.00     0.132 C 
ATOM     10  N   UNL A   1      32.985  25.164  23.036  1.00  0.00    -0.332 N 
ATOM     11  C   UNL A   1      33.560  27.460  22.822  1.00  0.00     0.116 C 
ATOM     12  C   UNL A   1      33.271  26.160  22.090  1.00  0.00     0.224 C 
ATOM     13  O   UNL A   1      33.307  26.028  20.878  1.00  0.00    -0.275 OA
BRANCH   9  14
ATOM     14  C   UNL A   1      32.889  24.913  25.528  1.00  0.00     0.016 A 
ATOM     15  C   UNL A   1      35.128  23.696  26.135  1.00  0.00     0.067 C 
ATOM     16  C   UNL A   1      33.678  24.017  26.248  1.00  0.00     0.040 A 
ATOM     17  N   UNL A   1      32.832  23.405  27.136  1.00  0.00    -0.273 N 
ATOM     18  C   UNL A   1      31.644  24.873  26.193  1.00  0.00     0.141 A 
ATOM     19  N   UNL A   1      31.603  23.947  27.155  1.00  0.00    -0.181 NA
ATOM     20  C   UNL A   1      33.105  22.231  27.933  1.00  0.00     0.174 C 
ENDBRANCH   9  14
BRANCH  10  21
ATOM     21  C   UNL A   1      32.835  23.753  22.630  1.00  0.00     0.079 C 
ATOM     22  C   UNL A   1      34.126  22.959  22.805  1.00  0.00     0.031 C 
ATOM     23  C   UNL A   1      31.659  22.996  23.251  1.00  0.00     0.031 C 
ENDBRANCH  10  21
ENDBRANCH   5   8
ENDBRANCH   3   4
ENDBRANCH   2   3
ENDBRANCH   1   2
BRANCH   1  24
ATOM     24  C   UNL A   1      32.989  32.664  27.405  1.00  0.00     0.116 C 
BRANCH  24  25
ATOM     25  N   UNL A   1      32.501  34.008  27.671  1.00  0.00    -0.352 N 
ATOM     26  C   UNL A   1      32.989  34.918  28.586  1.00  0.00     0.251 C 
ATOM     27  H   UNL A   1      31.731  34.305  27.134  1.00  0.00     0.163 HD
ATOM     28  O   UNL A   1      32.445  35.995  28.763  1.00  0.00    -0.269 OA
BRANCH  26  29
ATOM     29  C   UNL A   1      34.164  34.534  29.397  1.00  0.00     0.039 A 
ATOM     30  C   UNL A   1      33.956  33.990  30.667  1.00  0.00     0.014 A 
ATOM     31  C   UNL A   1      35.452  34.627  28.865  1.00  0.00     0.014 A 
ATOM     32  C   UNL A   1      35.037  33.457  31.369  1.00  0.00     0.010 A 
ATOM     33  C   UNL A   1      36.513  34.025  29.531  1.00  0.00     0.010 A 
ATOM     34  C   UNL A   1      36.315  33.429  30.786  1.00  0.00    -0.014 A 
BRANCH  34  35
ATOM     35  C   UNL A   1      37.460  32.774  31.463  1.00  0.00     0.031 A 
ATOM     36  C   UNL A   1      38.161  31.621  30.801  1.00  0.00     0.074 A 
ATOM     37  C   UNL A   1      37.814  33.161  32.704  1.00  0.00     0.049 A 
ATOM     38  N   UNL A   1      39.113  30.854  31.265  1.00  0.00    -0.248 NA
ATOM     39  C   UNL A   1      37.705  31.264  29.449  1.00  0.00     0.031 C 
ATOM     40  C   UNL A   1      37.175  34.229  33.474  1.00  0.00     0.029 A 
ATOM     41  N   UNL A   1      38.794  32.688  33.543  1.00  0.00    -0.354 N 
ATOM     42  C   UNL A   1      39.353  29.912  30.274  1.00  0.00     0.074 A 
ATOM     43  C   UNL A   1      38.412  30.171  29.206  1.00  0.00     0.031 C 
ATOM     44  C   UNL A   1      37.793  34.346  34.661  1.00  0.00     0.029 A 
ATOM     45  C   UNL A   1      38.847  33.340  34.750  1.00  0.00     0.049 A 
ATOM     46  H   UNL A   1      39.400  31.951  33.302  1.00  0.00     0.167 HD
ATOM     47  C   UNL A   1      40.292  28.937  30.245  1.00  0.00     0.037 A 
ATOM     48  C   UNL A   1      39.654  33.145  35.810  1.00  0.00     0.037 A 
ATOM     49  C   UNL A   1      41.251  28.708  31.292  1.00  0.00     0.049 A 
ATOM     50  C   UNL A   1      40.699  32.065  35.746  1.00  0.00     0.074 A 
ATOM     51  C   UNL A   1      42.283  27.788  31.331  1.00  0.00     0.029 A 
ATOM     52  N   UNL A   1      41.295  29.411  32.487  1.00  0.00    -0.354 N 
ATOM     53  N   UNL A   1      40.961  31.222  34.777  1.00  0.00    -0.248 NA
ATOM     54  C   UNL A   1      41.565  31.911  36.924  1.00  0.00     0.031 C 
ATOM     55  C   UNL A   1      42.933  27.913  32.563  1.00  0.00     0.029 A 
ATOM     56  C   UNL A   1      42.331  28.937  33.275  1.00  0.00     0.049 A 
ATOM     57  H   UNL A   1      40.682  30.140  32.737  1.00  0.00     0.167 HD
ATOM     58  C   UNL A   1      42.034  30.458  35.213  1.00  0.00     0.074 A 
ATOM     59  C   UNL A   1      42.384  30.945  36.531  1.00  0.00     0.031 C 
ATOM     60  C   UNL A   1      42.671  29.444  34.580  1.00  0.00     0.037 A 
BRANCH  47  61
ATOM     61  C   UNL A   1      40.330  28.052  29.034  1.00  0.00     0.064 A 
ATOM     62  C   UNL A   1      41.091  28.391  27.904  1.00  0.00     0.173 A 
ATOM     63  C   UNL A   1      39.621  26.843  29.011  1.00  0.00     0.173 A 
ATOM     64  F   UNL A   1      41.776  29.543  27.872  1.00  0.00    -0.203 F 
ATOM     65  C   UNL A   1      41.114  27.565  26.784  1.00  0.00     0.198 A 
ATOM     66  C   UNL A   1      39.670  26.005  27.899  1.00  0.00     0.198 A 
ATOM     67  F   UNL A   1      38.882  26.471  30.067  1.00  0.00    -0.203 F 
ATOM     68  F   UNL A   1      41.806  27.934  25.697  1.00  0.00    -0.200 F 
ATOM     69  C   UNL A   1      40.409  26.371  26.785  1.00  0.00     0.200 A 
ATOM     70  F   UNL A   1      38.996  24.847  27.906  1.00  0.00    -0.200 F 
ATOM     71  F   UNL A   1      40.437  25.574  25.706  1.00  0.00    -0.200 F 
ENDBRANCH  47  61
BRANCH  48  72
ATOM     72  C   UNL A   1      39.532  34.015  37.008  1.00  0.00     0.064 A 
ATOM     73  C   UNL A   1      40.174  35.260  37.058  1.00  0.00     0.173 A 
ATOM     74  C   UNL A   1      38.779  33.622  38.125  1.00  0.00     0.173 A 
ATOM     75  F   UNL A   1      40.923  35.668  36.023  1.00  0.00    -0.203 F 
ATOM     76  C   UNL A   1      40.084  36.071  38.187  1.00  0.00     0.198 A 
ATOM     77  C   UNL A   1      38.669  34.446  39.243  1.00  0.00     0.198 A 
ATOM     78  F   UNL A   1      38.142  32.442  38.125  1.00  0.00    -0.203 F 
ATOM     79  F   UNL A   1      40.743  37.238  38.225  1.00  0.00    -0.200 F 
ATOM     80  C   UNL A   1      39.328  35.666  39.277  1.00  0.00     0.200 A 
ATOM     81  F   UNL A   1      37.929  34.057  40.289  1.00  0.00    -0.200 F 
ATOM     82  F   UNL A   1      39.241  36.449  40.361  1.00  0.00    -0.200 F 
ENDBRANCH  48  72
BRANCH  60  83
ATOM     83  C   UNL A   1      43.833  28.815  35.288  1.00  0.00     0.064 A 
ATOM     84  C   UNL A   1      45.144  29.275  35.097  1.00  0.00     0.173 A 
ATOM     85  C   UNL A   1      43.626  27.773  36.204  1.00  0.00     0.173 A 
ATOM     86  F   UNL A   1      45.393  30.258  34.220  1.00  0.00    -0.203 F 
ATOM     87  C   UNL A   1      46.209  28.700  35.785  1.00  0.00     0.198 A 
ATOM     88  C   UNL A   1      44.690  27.219  36.909  1.00  0.00     0.198 A 
ATOM     89  F   UNL A   1      42.389  27.302  36.424  1.00  0.00    -0.203 F 
ATOM     90  F   UNL A   1      47.459  29.128  35.560  1.00  0.00    -0.200 F 
ATOM     91  C   UNL A   1      45.980  27.679  36.696  1.00  0.00     0.200 A 
ATOM     92  F   UNL A   1      44.466  26.240  37.797  1.00  0.00    -0.200 F 
ATOM     93  F   UNL A   1      47.006  27.133  37.364  1.00  0.00    -0.200 F 
ENDBRANCH  60  83
ENDBRANCH  34  35
ENDBRANCH  26  29
ENDBRANCH  24  25
ENDBRANCH   1  24
TORSDOF 13
ENDMDL
MODEL 3
REMARK VINA RESULT:     -12.9      0.556      7.331
REMARK SMILES Cc1c([C@@H]2[C@H](C(=O)NCCCCNC(=O)c3ccc(-c4c5nc(c(-c6c(F)c(F)c(F)c(F)c6F)c6ccc([nH]6)c(-c6c(F)c(F)c(F)c(F)c6F)c6nc(c(-c7c(F)c(F)c(F)c(F)c7F)c7ccc4[nH]7)C=C6)C=C5)cc3)CC(=O)N2C(C)C)cnn1C
REMARK SMILES IDX 11 1 10 2 9 3 8 4 6 5 7 6 5 8 4 9 82 10 79 11 80 12 81 13
REMARK SMILES IDX 3 14 1 15 2 16 88 17 86 18 87 19 89 20 83 21 84 22 85 23
REMARK SMILES IDX 12 24 13 25 14 26 15 28 16 29 17 30 78 31 18 32 77 33 19 34
REMARK SMILES IDX 20 35 21 36 71 37 22 38 76 39 70 40 72 41 23 42 75 43 69 44
REMARK SMILES IDX 68 45 24 47 56 48 36 49 55 50 37 51 40 52 54 53 73 54 38 55
REMARK SMILES IDX 39 56 53 58 74 59 41 60 25 61 26 62 34 63 27 64 28 65 32 66
REMARK SMILES IDX 35 67 29 68 30 69 33 70 31 71 57 72 58 73 66 74 59 75 60 76
REMARK SMILES IDX 64 77 67 78 61 79 62 80 65 81 63 82 42 83 43 84 51 85 44 86
REMARK SMILES IDX 45 87 49 88 52 89 46 90 47 91 50 92 48 93
REMARK H PARENT 8 7 13 27 72 46 40 57
REMARK Flexibility Score: inf
ROOT
ATOM      1  C   UNL A   1      31.918  31.652  26.842  1.00  0.00     0.023 C 
ENDROOT
BRANCH   1   2
ATOM      2  C   UNL A   1      32.481  30.388  26.199  1.00  0.00     0.023 C 
BRANCH   2   3
ATOM      3  C   UNL A   1      31.807  29.092  26.631  1.00  0.00     0.116 C 
BRANCH   3   4
ATOM      4  N   UNL A   1      31.159  28.424  25.512  1.00  0.00    -0.356 N 
ATOM      5  C   UNL A   1      31.573  27.639  24.487  1.00  0.00     0.226 C 
ATOM      6  O   UNL A   1      30.675  27.286  23.710  1.00  0.00    -0.275 OA
ATOM      7  H   UNL A   1      30.188  28.579  25.495  1.00  0.00     0.163 HD
BRANCH   5   8
ATOM      8  C   UNL A   1      33.000  27.176  24.199  1.00  0.00     0.115 C 
ATOM      9  C   UNL A   1      33.311  25.690  24.331  1.00  0.00     0.132 C 
ATOM     10  N   UNL A   1      32.974  25.156  23.024  1.00  0.00    -0.332 N 
ATOM     11  C   UNL A   1      33.534  27.456  22.803  1.00  0.00     0.116 C 
ATOM     12  C   UNL A   1      33.256  26.151  22.075  1.00  0.00     0.224 C 
ATOM     13  O   UNL A   1      33.295  26.015  20.864  1.00  0.00    -0.275 OA
BRANCH   9  14
ATOM     14  C   UNL A   1      32.876  24.913  25.517  1.00  0.00     0.016 A 
ATOM     15  C   UNL A   1      35.118  23.704  26.124  1.00  0.00     0.067 C 
ATOM     16  C   UNL A   1      33.667  24.021  26.238  1.00  0.00     0.040 A 
ATOM     17  N   UNL A   1      32.824  23.408  27.128  1.00  0.00    -0.273 N 
ATOM     18  C   UNL A   1      31.631  24.871  26.183  1.00  0.00     0.141 A 
ATOM     19  N   UNL A   1      31.594  23.947  27.147  1.00  0.00    -0.181 NA
ATOM     20  C   UNL A   1      33.101  22.236  27.926  1.00  0.00     0.174 C 
ENDBRANCH   9  14
BRANCH  10  21
ATOM     21  C   UNL A   1      32.835  23.743  22.623  1.00  0.00     0.079 C 
ATOM     22  C   UNL A   1      34.128  22.956  22.811  1.00  0.00     0.031 C 
ATOM     23  C   UNL A   1      31.658  22.982  23.236  1.00  0.00     0.031 C 
ENDBRANCH  10  21
ENDBRANCH   5   8
ENDBRANCH   3   4
ENDBRANCH   2   3
ENDBRANCH   1   2
BRANCH   1  24
ATOM     24  C   UNL A   1      32.962  32.584  27.442  1.00  0.00     0.116 C 
BRANCH  24  25
ATOM     25  N   UNL A   1      32.490  33.939  27.679  1.00  0.00    -0.352 N 
ATOM     26  C   UNL A   1      32.990  34.863  28.573  1.00  0.00     0.251 C 
ATOM     27  H   UNL A   1      31.722  34.233  27.136  1.00  0.00     0.163 HD
ATOM     28  O   UNL A   1      32.459  35.951  28.727  1.00  0.00    -0.269 OA
BRANCH  26  29
ATOM     29  C   UNL A   1      34.162  34.483  29.390  1.00  0.00     0.039 A 
ATOM     30  C   UNL A   1      33.949  33.900  30.641  1.00  0.00     0.014 A 
ATOM     31  C   UNL A   1      35.455  34.621  28.880  1.00  0.00     0.014 A 
ATOM     32  C   UNL A   1      35.032  33.372  31.344  1.00  0.00     0.010 A 
ATOM     33  C   UNL A   1      36.520  34.025  29.545  1.00  0.00     0.010 A 
ATOM     34  C   UNL A   1      36.318  33.389  30.780  1.00  0.00    -0.014 A 
BRANCH  34  35
ATOM     35  C   UNL A   1      37.469  32.742  31.456  1.00  0.00     0.031 A 
ATOM     36  C   UNL A   1      38.173  31.591  30.794  1.00  0.00     0.074 A 
ATOM     37  C   UNL A   1      37.825  33.134  32.694  1.00  0.00     0.049 A 
ATOM     38  N   UNL A   1      39.131  30.830  31.257  1.00  0.00    -0.248 NA
ATOM     39  C   UNL A   1      37.715  31.228  29.445  1.00  0.00     0.031 C 
ATOM     40  C   UNL A   1      37.182  34.201  33.463  1.00  0.00     0.029 A 
ATOM     41  N   UNL A   1      38.809  32.669  33.531  1.00  0.00    -0.354 N 
ATOM     42  C   UNL A   1      39.373  29.887  30.268  1.00  0.00     0.074 A 
ATOM     43  C   UNL A   1      38.427  30.137  29.202  1.00  0.00     0.031 C 
ATOM     44  C   UNL A   1      37.803  34.325  34.648  1.00  0.00     0.029 A 
ATOM     45  C   UNL A   1      38.862  33.324  34.737  1.00  0.00     0.049 A 
ATOM     46  H   UNL A   1      39.418  31.934  33.291  1.00  0.00     0.167 HD
ATOM     47  C   UNL A   1      40.316  28.916  30.240  1.00  0.00     0.037 A 
ATOM     48  C   UNL A   1      39.673  33.137  35.795  1.00  0.00     0.037 A 
ATOM     49  C   UNL A   1      41.279  28.694  31.284  1.00  0.00     0.049 A 
ATOM     50  C   UNL A   1      40.724  32.061  35.731  1.00  0.00     0.074 A 
ATOM     51  C   UNL A   1      42.316  27.780  31.323  1.00  0.00     0.029 A 
ATOM     52  N   UNL A   1      41.323  29.402  32.477  1.00  0.00    -0.354 N 
ATOM     53  N   UNL A   1      40.986  31.217  34.763  1.00  0.00    -0.248 NA
ATOM     54  C   UNL A   1      41.593  31.915  36.907  1.00  0.00     0.031 C 
ATOM     55  C   UNL A   1      42.969  27.912  32.553  1.00  0.00     0.029 A 
ATOM     56  C   UNL A   1      42.363  28.934  33.264  1.00  0.00     0.049 A 
ATOM     57  H   UNL A   1      40.707  30.127  32.727  1.00  0.00     0.167 HD
ATOM     58  C   UNL A   1      42.065  30.460  35.199  1.00  0.00     0.074 A 
ATOM     59  C   UNL A   1      42.416  30.952  36.514  1.00  0.00     0.031 C 
ATOM     60  C   UNL A   1      42.705  29.447  34.566  1.00  0.00     0.037 A 
BRANCH  47  61
ATOM     61  C   UNL A   1      40.355  28.028  29.031  1.00  0.00     0.064 A 
ATOM     62  C   UNL A   1      39.626  26.830  28.978  1.00  0.00     0.173 A 
ATOM     63  C   UNL A   1      41.109  28.390  27.905  1.00  0.00     0.173 A 
ATOM     64  F   UNL A   1      38.901  26.434  30.035  1.00  0.00    -0.203 F 
ATOM     65  C   UNL A   1      39.675  26.011  27.853  1.00  0.00     0.198 A 
ATOM     66  C   UNL A   1      41.132  27.582  26.770  1.00  0.00     0.198 A 
ATOM     67  F   UNL A   1      41.820  29.527  27.902  1.00  0.00    -0.203 F 
ATOM     68  F   UNL A   1      39.012  24.847  27.846  1.00  0.00    -0.200 F 
ATOM     69  C   UNL A   1      40.422  26.391  26.749  1.00  0.00     0.200 A 
ATOM     70  F   UNL A   1      41.846  27.956  25.700  1.00  0.00    -0.200 F 
ATOM     71  F   UNL A   1      40.465  25.604  25.664  1.00  0.00    -0.200 F 
ENDBRANCH  47  61
BRANCH  48  72
ATOM     72  C   UNL A   1      39.550  34.009  36.991  1.00  0.00     0.064 A 
ATOM     73  C   UNL A   1      38.792  33.603  38.098  1.00  0.00     0.173 A 
ATOM     74  C   UNL A   1      40.181  35.260  37.053  1.00  0.00     0.173 A 
ATOM     75  F   UNL A   1      38.153  32.424  38.075  1.00  0.00    -0.203 F 
ATOM     76  C   UNL A   1      38.652  34.424  39.214  1.00  0.00     0.198 A 
ATOM     77  C   UNL A   1      40.061  36.069  38.182  1.00  0.00     0.198 A 
ATOM     78  F   UNL A   1      40.922  35.691  36.023  1.00  0.00    -0.203 F 
ATOM     79  F   UNL A   1      37.886  34.031  40.241  1.00  0.00    -0.200 F 
ATOM     80  C   UNL A   1      39.290  35.654  39.258  1.00  0.00     0.200 A 
ATOM     81  F   UNL A   1      40.688  37.252  38.225  1.00  0.00    -0.200 F 
ATOM     82  F   UNL A   1      39.157  36.443  40.334  1.00  0.00    -0.200 F 
ENDBRANCH  48  72
BRANCH  60  83
ATOM     83  C   UNL A   1      43.873  28.826  35.272  1.00  0.00     0.064 A 
ATOM     84  C   UNL A   1      45.176  29.314  35.103  1.00  0.00     0.173 A 
ATOM     85  C   UNL A   1      43.676  27.762  36.166  1.00  0.00     0.173 A 
ATOM     86  F   UNL A   1      45.414  30.319  34.248  1.00  0.00    -0.203 F 
ATOM     87  C   UNL A   1      46.245  28.745  35.790  1.00  0.00     0.198 A 
ATOM     88  C   UNL A   1      44.744  27.214  36.870  1.00  0.00     0.198 A 
ATOM     89  F   UNL A   1      42.447  27.264  36.366  1.00  0.00    -0.203 F 
ATOM     90  F   UNL A   1      47.489  29.201  35.584  1.00  0.00    -0.200 F 
ATOM     91  C   UNL A   1      46.028  27.702  36.678  1.00  0.00     0.200 A 
ATOM     92  F   UNL A   1      44.531  26.213  37.737  1.00  0.00    -0.200 F 
ATOM     93  F   UNL A   1      47.057  27.162  37.345  1.00  0.00    -0.200 F 
ENDBRANCH  60  83
ENDBRANCH  34  35
ENDBRANCH  26  29
ENDBRANCH  24  25
ENDBRANCH   1  24
TORSDOF 13
ENDMDL
