MODEL 1
REMARK VINA RESULT:     -12.4      0.000      0.000
REMARK SMILES C[C@H](Nc1cccc(F)c1C(=O)NCCCCNC(=O)c1ccc(-c2c3nc(c(-c4c(F)c(F)c(F)c(F)c4F)c4ccc([nH]4)c(-c4c(F)c(F)c(F)c(F)c4F)c4nc(c(-c5c(F)c(F)c(F)c(F)c5F)c5ccc2[nH]5)C=C4)C=C3)cc1)c1nccs1
REMARK SMILES IDX 15 1 14 2 13 3 11 4 12 5 10 7 4 8 5 9 6 10 8 11 7 12 9 13
REMARK SMILES IDX 3 14 2 16 1 17 84 18 85 19 88 20 86 21 87 22 16 23 17 24
REMARK SMILES IDX 18 25 19 26 20 28 21 29 22 30 83 31 23 32 82 33 24 34 25 35
REMARK SMILES IDX 26 36 76 37 27 38 81 39 75 40 77 41 28 42 80 43 74 44 73 45
REMARK SMILES IDX 29 47 61 48 41 49 60 50 42 51 45 52 59 53 78 54 43 55 44 56
REMARK SMILES IDX 58 58 79 59 46 60 30 61 31 62 39 63 32 64 33 65 37 66 40 67
REMARK SMILES IDX 34 68 35 69 38 70 36 71 62 72 63 73 71 74 64 75 65 76 69 77
REMARK SMILES IDX 72 78 66 79 67 80 70 81 68 82 47 83 48 84 56 85 49 86 50 87
REMARK SMILES IDX 54 88 57 89 51 90 52 91 55 92 53 93
REMARK H PARENT 13 6 3 15 18 27 77 46 45 57
REMARK Flexibility Score: inf
ROOT
ATOM      1  C   UNL A   1      31.851  30.165  26.625  1.00  0.00     0.023 C 
ENDROOT
BRANCH   1   2
ATOM      2  C   UNL A   1      33.173  29.702  26.020  1.00  0.00     0.116 C 
BRANCH   2   3
ATOM      3  N   UNL A   1      33.203  29.706  24.568  1.00  0.00    -0.352 N 
ATOM      4  C   UNL A   1      32.616  28.866  23.646  1.00  0.00     0.256 C 
ATOM      5  O   UNL A   1      32.798  29.131  22.455  1.00  0.00    -0.269 OA
ATOM      6  H   UNL A   1      33.735  30.434  24.175  1.00  0.00     0.163 HD
BRANCH   4   7
ATOM      7  C   UNL A   1      31.865  27.634  24.019  1.00  0.00     0.098 A 
ATOM      8  C   UNL A   1      30.446  27.632  23.985  1.00  0.00     0.050 A 
ATOM      9  C   UNL A   1      29.767  26.418  24.204  1.00  0.00     0.027 A 
ATOM     10  C   UNL A   1      30.453  25.249  24.531  1.00  0.00     0.005 A 
ATOM     11  C   UNL A   1      32.519  26.482  24.465  1.00  0.00     0.138 A 
ATOM     12  C   UNL A   1      31.830  25.292  24.698  1.00  0.00     0.040 A 
ATOM     13  F   UNL A   1      33.833  26.487  24.734  1.00  0.00    -0.206 F 
BRANCH   8  14
ATOM     14  N   UNL A   1      29.700  28.814  23.841  1.00  0.00    -0.375 N 
ATOM     15  H   UNL A   1      29.850  29.578  24.442  1.00  0.00     0.161 HD
BRANCH  14  16
ATOM     16  C   UNL A   1      28.683  28.886  22.766  1.00  0.00     0.135 C 
ATOM     17  C   UNL A   1      27.327  28.384  23.291  1.00  0.00     0.039 C 
BRANCH  16  18
ATOM     18  C   UNL A   1      28.498  30.256  22.131  1.00  0.00     0.115 A 
ATOM     19  N   UNL A   1      28.159  30.442  20.868  1.00  0.00    -0.247 NA
ATOM     20  S   UNL A   1      28.664  31.700  23.063  1.00  0.00    -0.125 S 
ATOM     21  C   UNL A   1      28.025  31.792  20.611  1.00  0.00     0.123 A 
ATOM     22  C   UNL A   1      28.253  32.626  21.682  1.00  0.00     0.087 A 
ENDBRANCH  16  18
ENDBRANCH  14  16
ENDBRANCH   8  14
ENDBRANCH   4   7
ENDBRANCH   2   3
ENDBRANCH   1   2
BRANCH   1  23
ATOM     23  C   UNL A   1      31.631  31.671  26.735  1.00  0.00     0.023 C 
BRANCH  23  24
ATOM     24  C   UNL A   1      32.816  32.500  27.219  1.00  0.00     0.116 C 
BRANCH  24  25
ATOM     25  N   UNL A   1      32.474  33.870  27.571  1.00  0.00    -0.352 N 
ATOM     26  C   UNL A   1      33.043  34.722  28.490  1.00  0.00     0.251 C 
ATOM     27  H   UNL A   1      31.714  34.248  27.072  1.00  0.00     0.163 HD
ATOM     28  O   UNL A   1      32.552  35.827  28.687  1.00  0.00    -0.269 OA
BRANCH  26  29
ATOM     29  C   UNL A   1      34.220  34.295  29.282  1.00  0.00     0.039 A 
ATOM     30  C   UNL A   1      34.006  33.605  30.480  1.00  0.00     0.014 A 
ATOM     31  C   UNL A   1      35.522  34.561  28.854  1.00  0.00     0.014 A 
ATOM     32  C   UNL A   1      35.095  33.096  31.193  1.00  0.00     0.010 A 
ATOM     33  C   UNL A   1      36.602  33.988  29.524  1.00  0.00     0.010 A 
ATOM     34  C   UNL A   1      36.399  33.239  30.693  1.00  0.00    -0.014 A 
BRANCH  34  35
ATOM     35  C   UNL A   1      37.560  32.600  31.365  1.00  0.00     0.031 A 
ATOM     36  C   UNL A   1      38.298  31.475  30.695  1.00  0.00     0.074 A 
ATOM     37  C   UNL A   1      37.914  32.992  32.606  1.00  0.00     0.049 A 
ATOM     38  N   UNL A   1      39.266  30.726  31.160  1.00  0.00    -0.248 NA
ATOM     39  C   UNL A   1      37.878  31.130  29.326  1.00  0.00     0.031 C 
ATOM     40  C   UNL A   1      37.262  34.053  33.376  1.00  0.00     0.029 A 
ATOM     41  N   UNL A   1      38.906  32.538  33.441  1.00  0.00    -0.354 N 
ATOM     42  C   UNL A   1      39.561  29.820  30.152  1.00  0.00     0.074 A 
ATOM     43  C   UNL A   1      38.639  30.076  29.067  1.00  0.00     0.031 C 
ATOM     44  C   UNL A   1      37.893  34.192  34.554  1.00  0.00     0.029 A 
ATOM     45  C   UNL A   1      38.962  33.203  34.643  1.00  0.00     0.049 A 
ATOM     46  H   UNL A   1      39.519  31.806  33.202  1.00  0.00     0.167 HD
ATOM     47  C   UNL A   1      40.532  28.876  30.123  1.00  0.00     0.037 A 
ATOM     48  C   UNL A   1      39.780  33.031  35.699  1.00  0.00     0.037 A 
ATOM     49  C   UNL A   1      41.469  28.640  31.188  1.00  0.00     0.049 A 
ATOM     50  C   UNL A   1      40.834  31.958  35.649  1.00  0.00     0.074 A 
ATOM     51  C   UNL A   1      42.502  27.721  31.238  1.00  0.00     0.029 A 
ATOM     52  N   UNL A   1      41.491  29.335  32.388  1.00  0.00    -0.354 N 
ATOM     53  N   UNL A   1      41.117  31.123  34.679  1.00  0.00    -0.248 NA
ATOM     54  C   UNL A   1      41.681  31.801  36.841  1.00  0.00     0.031 C 
ATOM     55  C   UNL A   1      43.133  27.840  32.480  1.00  0.00     0.029 A 
ATOM     56  C   UNL A   1      42.519  28.861  33.186  1.00  0.00     0.049 A 
ATOM     57  H   UNL A   1      40.870  30.058  32.634  1.00  0.00     0.167 HD
ATOM     58  C   UNL A   1      42.189  30.365  35.129  1.00  0.00     0.074 A 
ATOM     59  C   UNL A   1      42.514  30.844  36.456  1.00  0.00     0.031 C 
ATOM     60  C   UNL A   1      42.845  29.363  34.496  1.00  0.00     0.037 A 
BRANCH  47  61
ATOM     61  C   UNL A   1      40.655  28.039  28.885  1.00  0.00     0.064 A 
ATOM     62  C   UNL A   1      41.442  28.466  27.805  1.00  0.00     0.173 A 
ATOM     63  C   UNL A   1      39.930  26.847  28.738  1.00  0.00     0.173 A 
ATOM     64  F   UNL A   1      42.149  29.603  27.892  1.00  0.00    -0.203 F 
ATOM     65  C   UNL A   1      41.487  27.739  26.620  1.00  0.00     0.198 A 
ATOM     66  C   UNL A   1      39.998  26.108  27.562  1.00  0.00     0.198 A 
ATOM     67  F   UNL A   1      39.172  26.390  29.747  1.00  0.00    -0.203 F 
ATOM     68  F   UNL A   1      42.220  28.182  25.589  1.00  0.00    -0.200 F 
ATOM     69  C   UNL A   1      40.768  26.559  26.499  1.00  0.00     0.200 A 
ATOM     70  F   UNL A   1      39.320  24.957  27.456  1.00  0.00    -0.200 F 
ATOM     71  F   UNL A   1      40.817  25.855  25.360  1.00  0.00    -0.200 F 
ENDBRANCH  47  61
BRANCH  48  72
ATOM     72  C   UNL A   1      39.664  33.923  36.882  1.00  0.00     0.064 A 
ATOM     73  C   UNL A   1      40.328  35.157  36.943  1.00  0.00     0.173 A 
ATOM     74  C   UNL A   1      38.881  33.548  37.983  1.00  0.00     0.173 A 
ATOM     75  F   UNL A   1      41.091  35.561  35.917  1.00  0.00    -0.203 F 
ATOM     76  C   UNL A   1      40.220  35.977  38.065  1.00  0.00     0.198 A 
ATOM     77  C   UNL A   1      38.753  34.380  39.093  1.00  0.00     0.198 A 
ATOM     78  F   UNL A   1      38.209  32.388  37.961  1.00  0.00    -0.203 F 
ATOM     79  F   UNL A   1      40.883  37.140  38.108  1.00  0.00    -0.200 F 
ATOM     80  C   UNL A   1      39.428  35.591  39.136  1.00  0.00     0.200 A 
ATOM     81  F   UNL A   1      37.966  34.014  40.115  1.00  0.00    -0.200 F 
ATOM     82  F   UNL A   1      39.310  36.387  40.206  1.00  0.00    -0.200 F 
ENDBRANCH  48  72
BRANCH  60  83
ATOM     83  C   UNL A   1      44.007  28.734  35.203  1.00  0.00     0.064 A 
ATOM     84  C   UNL A   1      45.310  29.203  34.979  1.00  0.00     0.173 A 
ATOM     85  C   UNL A   1      43.842  27.616  36.032  1.00  0.00     0.173 A 
ATOM     86  F   UNL A   1      45.519  30.265  34.187  1.00  0.00    -0.203 F 
ATOM     87  C   UNL A   1      46.408  28.564  35.547  1.00  0.00     0.198 A 
ATOM     88  C   UNL A   1      44.941  26.994  36.619  1.00  0.00     0.198 A 
ATOM     89  F   UNL A   1      42.615  27.138  36.286  1.00  0.00    -0.203 F 
ATOM     90  F   UNL A   1      47.647  29.008  35.291  1.00  0.00    -0.200 F 
ATOM     91  C   UNL A   1      46.224  27.462  36.368  1.00  0.00     0.200 A 
ATOM     92  F   UNL A   1      44.761  25.942  37.429  1.00  0.00    -0.200 F 
ATOM     93  F   UNL A   1      47.282  26.850  36.917  1.00  0.00    -0.200 F 
ENDBRANCH  60  83
ENDBRANCH  34  35
ENDBRANCH  26  29
ENDBRANCH  24  25
ENDBRANCH  23  24
ENDBRANCH   1  23
TORSDOF 14
ENDMDL
MODEL 2
REMARK VINA RESULT:     -12.3      0.959      7.510
REMARK SMILES C[C@H](Nc1cccc(F)c1C(=O)NCCCCNC(=O)c1ccc(-c2c3nc(c(-c4c(F)c(F)c(F)c(F)c4F)c4ccc([nH]4)c(-c4c(F)c(F)c(F)c(F)c4F)c4nc(c(-c5c(F)c(F)c(F)c(F)c5F)c5ccc2[nH]5)C=C4)C=C3)cc1)c1nccs1
REMARK SMILES IDX 15 1 14 2 13 3 11 4 12 5 10 7 4 8 5 9 6 10 8 11 7 12 9 13
REMARK SMILES IDX 3 14 2 16 1 17 84 18 85 19 88 20 86 21 87 22 16 23 17 24
REMARK SMILES IDX 18 25 19 26 20 28 21 29 22 30 83 31 23 32 82 33 24 34 25 35
REMARK SMILES IDX 26 36 76 37 27 38 81 39 75 40 77 41 28 42 80 43 74 44 73 45
REMARK SMILES IDX 29 47 61 48 41 49 60 50 42 51 45 52 59 53 78 54 43 55 44 56
REMARK SMILES IDX 58 58 79 59 46 60 30 61 31 62 39 63 32 64 33 65 37 66 40 67
REMARK SMILES IDX 34 68 35 69 38 70 36 71 62 72 63 73 71 74 64 75 65 76 69 77
REMARK SMILES IDX 72 78 66 79 67 80 70 81 68 82 47 83 48 84 56 85 49 86 50 87
REMARK SMILES IDX 54 88 57 89 51 90 52 91 55 92 53 93
REMARK H PARENT 13 6 3 15 18 27 77 46 45 57
REMARK Flexibility Score: inf
ROOT
ATOM      1  C   UNL A   1      31.638  30.962  26.124  1.00  0.00     0.023 C 
ENDROOT
BRANCH   1   2
ATOM      2  C   UNL A   1      32.477  29.942  26.888  1.00  0.00     0.116 C 
BRANCH   2   3
ATOM      3  N   UNL A   1      31.784  28.702  27.191  1.00  0.00    -0.352 N 
ATOM      4  C   UNL A   1      31.620  27.550  26.452  1.00  0.00     0.256 C 
ATOM      5  O   UNL A   1      30.991  26.631  26.982  1.00  0.00    -0.269 OA
ATOM      6  H   UNL A   1      31.355  28.682  28.077  1.00  0.00     0.163 HD
BRANCH   4   7
ATOM      7  C   UNL A   1      32.084  27.405  25.042  1.00  0.00     0.098 A 
ATOM      8  C   UNL A   1      31.300  27.930  23.982  1.00  0.00     0.050 A 
ATOM      9  C   UNL A   1      31.829  27.906  22.677  1.00  0.00     0.027 A 
ATOM     10  C   UNL A   1      33.056  27.307  22.399  1.00  0.00     0.005 A 
ATOM     11  C   UNL A   1      33.252  26.707  24.721  1.00  0.00     0.138 A 
ATOM     12  C   UNL A   1      33.751  26.674  23.420  1.00  0.00     0.040 A 
ATOM     13  F   UNL A   1      33.916  25.999  25.646  1.00  0.00    -0.206 F 
BRANCH   8  14
ATOM     14  N   UNL A   1      29.983  28.379  24.177  1.00  0.00    -0.375 N 
ATOM     15  H   UNL A   1      29.669  28.636  25.073  1.00  0.00     0.161 HD
BRANCH  14  16
ATOM     16  C   UNL A   1      29.078  28.456  23.007  1.00  0.00     0.135 C 
ATOM     17  C   UNL A   1      27.731  27.794  23.340  1.00  0.00     0.039 C 
BRANCH  16  18
ATOM     18  C   UNL A   1      28.828  29.855  22.464  1.00  0.00     0.115 A 
ATOM     19  N   UNL A   1      28.613  30.123  21.189  1.00  0.00    -0.247 NA
ATOM     20  S   UNL A   1      28.745  31.219  23.520  1.00  0.00    -0.125 S 
ATOM     21  C   UNL A   1      28.374  31.472  21.024  1.00  0.00     0.123 A 
ATOM     22  C   UNL A   1      28.398  32.224  22.178  1.00  0.00     0.087 A 
ENDBRANCH  16  18
ENDBRANCH  14  16
ENDBRANCH   8  14
ENDBRANCH   4   7
ENDBRANCH   2   3
ENDBRANCH   1   2
BRANCH   1  23
ATOM     23  C   UNL A   1      31.408  32.312  26.798  1.00  0.00     0.023 C 
BRANCH  23  24
ATOM     24  C   UNL A   1      32.652  33.070  27.250  1.00  0.00     0.116 C 
BRANCH  24  25
ATOM     25  N   UNL A   1      32.379  34.406  27.757  1.00  0.00    -0.352 N 
ATOM     26  C   UNL A   1      33.007  35.129  28.745  1.00  0.00     0.251 C 
ATOM     27  H   UNL A   1      31.624  34.866  27.324  1.00  0.00     0.163 HD
ATOM     28  O   UNL A   1      32.569  36.225  29.074  1.00  0.00    -0.269 OA
BRANCH  26  29
ATOM     29  C   UNL A   1      34.184  34.572  29.452  1.00  0.00     0.039 A 
ATOM     30  C   UNL A   1      33.989  33.952  30.689  1.00  0.00     0.014 A 
ATOM     31  C   UNL A   1      35.466  34.650  28.905  1.00  0.00     0.014 A 
ATOM     32  C   UNL A   1      35.062  33.323  31.328  1.00  0.00     0.010 A 
ATOM     33  C   UNL A   1      36.517  33.958  29.503  1.00  0.00     0.010 A 
ATOM     34  C   UNL A   1      36.323  33.276  30.714  1.00  0.00    -0.014 A 
BRANCH  34  35
ATOM     35  C   UNL A   1      37.447  32.508  31.311  1.00  0.00     0.031 A 
ATOM     36  C   UNL A   1      37.966  32.863  32.676  1.00  0.00     0.074 A 
ATOM     37  C   UNL A   1      38.043  31.530  30.598  1.00  0.00     0.049 A 
ATOM     38  N   UNL A   1      39.000  32.381  33.320  1.00  0.00    -0.248 NA
ATOM     39  C   UNL A   1      37.241  33.915  33.407  1.00  0.00     0.031 C 
ATOM     40  C   UNL A   1      37.652  31.107  29.252  1.00  0.00     0.029 A 
ATOM     41  N   UNL A   1      39.107  30.718  30.904  1.00  0.00    -0.354 N 
ATOM     42  C   UNL A   1      39.053  33.076  34.520  1.00  0.00     0.074 A 
ATOM     43  C   UNL A   1      37.982  34.047  34.498  1.00  0.00     0.031 C 
ATOM     44  C   UNL A   1      38.442  30.093  28.863  1.00  0.00     0.029 A 
ATOM     45  C   UNL A   1      39.422  29.823  29.910  1.00  0.00     0.049 A 
ATOM     46  H   UNL A   1      39.599  30.772  31.755  1.00  0.00     0.167 HD
ATOM     47  C   UNL A   1      39.905  32.900  35.560  1.00  0.00     0.037 A 
ATOM     48  C   UNL A   1      40.394  28.892  29.848  1.00  0.00     0.037 A 
ATOM     49  C   UNL A   1      40.951  31.915  35.595  1.00  0.00     0.049 A 
ATOM     50  C   UNL A   1      41.341  28.736  31.007  1.00  0.00     0.074 A 
ATOM     51  C   UNL A   1      41.848  31.648  36.615  1.00  0.00     0.029 A 
ATOM     52  N   UNL A   1      41.236  31.028  34.568  1.00  0.00    -0.354 N 
ATOM     53  N   UNL A   1      41.366  29.384  32.146  1.00  0.00    -0.248 NA
ATOM     54  C   UNL A   1      42.396  27.722  30.872  1.00  0.00     0.031 C 
ATOM     55  C   UNL A   1      42.694  30.618  36.195  1.00  0.00     0.029 A 
ATOM     56  C   UNL A   1      42.298  30.216  34.930  1.00  0.00     0.049 A 
ATOM     57  H   UNL A   1      40.755  30.982  33.711  1.00  0.00     0.167 HD
ATOM     58  C   UNL A   1      42.415  28.838  32.873  1.00  0.00     0.074 A 
ATOM     59  C   UNL A   1      42.998  27.799  32.051  1.00  0.00     0.031 C 
ATOM     60  C   UNL A   1      42.853  29.170  34.111  1.00  0.00     0.037 A 
BRANCH  47  61
ATOM     61  C   UNL A   1      39.725  33.775  36.764  1.00  0.00     0.064 A 
ATOM     62  C   UNL A   1      38.897  33.377  37.823  1.00  0.00     0.173 A 
ATOM     63  C   UNL A   1      40.317  35.046  36.834  1.00  0.00     0.173 A 
ATOM     64  F   UNL A   1      38.302  32.175  37.801  1.00  0.00    -0.203 F 
ATOM     65  C   UNL A   1      38.655  34.224  38.901  1.00  0.00     0.198 A 
ATOM     66  C   UNL A   1      40.094  35.880  37.925  1.00  0.00     0.198 A 
ATOM     67  F   UNL A   1      41.127  35.468  35.852  1.00  0.00    -0.203 F 
ATOM     68  F   UNL A   1      37.833  33.836  39.886  1.00  0.00    -0.200 F 
ATOM     69  C   UNL A   1      39.256  35.473  38.953  1.00  0.00     0.200 A 
ATOM     70  F   UNL A   1      40.693  37.077  37.984  1.00  0.00    -0.200 F 
ATOM     71  F   UNL A   1      39.028  36.285  39.994  1.00  0.00    -0.200 F 
ENDBRANCH  47  61
BRANCH  48  72
ATOM     72  C   UNL A   1      40.498  28.004  28.661  1.00  0.00     0.064 A 
ATOM     73  C   UNL A   1      39.848  26.762  28.610  1.00  0.00     0.173 A 
ATOM     74  C   UNL A   1      41.260  28.389  27.549  1.00  0.00     0.173 A 
ATOM     75  F   UNL A   1      39.109  26.347  29.649  1.00  0.00    -0.203 F 
ATOM     76  C   UNL A   1      39.967  25.934  27.495  1.00  0.00     0.198 A 
ATOM     77  C   UNL A   1      41.356  27.572  26.424  1.00  0.00     0.198 A 
ATOM     78  F   UNL A   1      41.881  29.578  27.542  1.00  0.00    -0.203 F 
ATOM     79  F   UNL A   1      39.355  24.743  27.480  1.00  0.00    -0.200 F 
ATOM     80  C   UNL A   1      40.715  26.342  26.400  1.00  0.00     0.200 A 
ATOM     81  F   UNL A   1      42.059  27.982  25.359  1.00  0.00    -0.200 F 
ATOM     82  F   UNL A   1      40.813  25.555  25.322  1.00  0.00    -0.200 F 
ENDBRANCH  48  72
BRANCH  60  83
ATOM     83  C   UNL A   1      43.994  28.383  34.681  1.00  0.00     0.064 A 
ATOM     84  C   UNL A   1      45.318  28.787  34.452  1.00  0.00     0.173 A 
ATOM     85  C   UNL A   1      43.782  27.185  35.377  1.00  0.00     0.173 A 
ATOM     86  F   UNL A   1      45.572  29.922  33.783  1.00  0.00    -0.203 F 
ATOM     87  C   UNL A   1      46.388  28.011  34.885  1.00  0.00     0.198 A 
ATOM     88  C   UNL A   1      44.855  26.423  35.832  1.00  0.00     0.198 A 
ATOM     89  F   UNL A   1      42.534  26.763  35.631  1.00  0.00    -0.203 F 
ATOM     90  F   UNL A   1      47.645  28.399  34.624  1.00  0.00    -0.200 F 
ATOM     91  C   UNL A   1      46.157  26.831  35.576  1.00  0.00     0.200 A 
ATOM     92  F   UNL A   1      44.631  25.294  36.517  1.00  0.00    -0.200 F 
ATOM     93  F   UNL A   1      47.189  26.087  35.996  1.00  0.00    -0.200 F 
ENDBRANCH  60  83
ENDBRANCH  34  35
ENDBRANCH  26  29
ENDBRANCH  24  25
ENDBRANCH  23  24
ENDBRANCH   1  23
TORSDOF 14
ENDMDL
MODEL 3
REMARK VINA RESULT:     -12.1      1.755      7.904
REMARK SMILES C[C@H](Nc1cccc(F)c1C(=O)NCCCCNC(=O)c1ccc(-c2c3nc(c(-c4c(F)c(F)c(F)c(F)c4F)c4ccc([nH]4)c(-c4c(F)c(F)c(F)c(F)c4F)c4nc(c(-c5c(F)c(F)c(F)c(F)c5F)c5ccc2[nH]5)C=C4)C=C3)cc1)c1nccs1
REMARK SMILES IDX 15 1 14 2 13 3 11 4 12 5 10 7 4 8 5 9 6 10 8 11 7 12 9 13
REMARK SMILES IDX 3 14 2 16 1 17 84 18 85 19 88 20 86 21 87 22 16 23 17 24
REMARK SMILES IDX 18 25 19 26 20 28 21 29 22 30 83 31 23 32 82 33 24 34 25 35
REMARK SMILES IDX 26 36 76 37 27 38 81 39 75 40 77 41 28 42 80 43 74 44 73 45
REMARK SMILES IDX 29 47 61 48 41 49 60 50 42 51 45 52 59 53 78 54 43 55 44 56
REMARK SMILES IDX 58 58 79 59 46 60 30 61 31 62 39 63 32 64 33 65 37 66 40 67
REMARK SMILES IDX 34 68 35 69 38 70 36 71 62 72 63 73 71 74 64 75 65 76 69 77
REMARK SMILES IDX 72 78 66 79 67 80 70 81 68 82 47 83 48 84 56 85 49 86 50 87
REMARK SMILES IDX 54 88 57 89 51 90 52 91 55 92 53 93
REMARK H PARENT 13 6 3 15 18 27 77 46 45 57
REMARK Flexibility Score: inf
ROOT
ATOM      1  C   UNL A   1      31.398  31.081  25.749  1.00  0.00     0.023 C 
ENDROOT
BRANCH   1   2
ATOM      2  C   UNL A   1      32.478  30.009  25.868  1.00  0.00     0.116 C 
BRANCH   2   3
ATOM      3  N   UNL A   1      33.126  29.669  24.614  1.00  0.00    -0.352 N 
ATOM      4  C   UNL A   1      32.687  28.931  23.536  1.00  0.00     0.256 C 
ATOM      5  O   UNL A   1      33.459  28.824  22.580  1.00  0.00    -0.269 OA
ATOM      6  H   UNL A   1      34.038  30.027  24.517  1.00  0.00     0.163 HD
BRANCH   4   7
ATOM      7  C   UNL A   1      31.387  28.200  23.516  1.00  0.00     0.098 A 
ATOM      8  C   UNL A   1      31.329  26.846  23.939  1.00  0.00     0.050 A 
ATOM      9  C   UNL A   1      30.069  26.227  24.045  1.00  0.00     0.027 A 
ATOM     10  C   UNL A   1      28.900  26.884  23.667  1.00  0.00     0.005 A 
ATOM     11  C   UNL A   1      30.218  28.795  23.031  1.00  0.00     0.138 A 
ATOM     12  C   UNL A   1      28.981  28.159  23.124  1.00  0.00     0.040 A 
ATOM     13  F   UNL A   1      30.247  29.984  22.413  1.00  0.00    -0.206 F 
BRANCH   8  14
ATOM     14  N   UNL A   1      32.486  26.081  24.157  1.00  0.00    -0.375 N 
ATOM     15  H   UNL A   1      33.107  26.307  24.887  1.00  0.00     0.161 HD
BRANCH  14  16
ATOM     16  C   UNL A   1      32.755  24.928  23.267  1.00  0.00     0.135 C 
ATOM     17  C   UNL A   1      32.912  25.410  21.815  1.00  0.00     0.039 C 
BRANCH  16  18
ATOM     18  C   UNL A   1      33.958  24.077  23.644  1.00  0.00     0.115 A 
ATOM     19  N   UNL A   1      34.862  23.655  22.778  1.00  0.00    -0.247 NA
ATOM     20  S   UNL A   1      34.264  23.643  25.287  1.00  0.00    -0.125 S 
ATOM     21  C   UNL A   1      35.849  22.947  23.434  1.00  0.00     0.123 A 
ATOM     22  C   UNL A   1      35.697  22.843  24.799  1.00  0.00     0.087 A 
ENDBRANCH  16  18
ENDBRANCH  14  16
ENDBRANCH   8  14
ENDBRANCH   4   7
ENDBRANCH   2   3
ENDBRANCH   1   2
BRANCH   1  23
ATOM     23  C   UNL A   1      31.309  32.102  26.880  1.00  0.00     0.023 C 
BRANCH  23  24
ATOM     24  C   UNL A   1      32.570  32.908  27.173  1.00  0.00     0.116 C 
BRANCH  24  25
ATOM     25  N   UNL A   1      32.312  34.269  27.618  1.00  0.00    -0.352 N 
ATOM     26  C   UNL A   1      32.951  35.032  28.568  1.00  0.00     0.251 C 
ATOM     27  H   UNL A   1      31.558  34.715  27.169  1.00  0.00     0.163 HD
ATOM     28  O   UNL A   1      32.525  36.146  28.848  1.00  0.00    -0.269 OA
BRANCH  26  29
ATOM     29  C   UNL A   1      34.128  34.498  29.294  1.00  0.00     0.039 A 
ATOM     30  C   UNL A   1      33.926  33.881  30.532  1.00  0.00     0.014 A 
ATOM     31  C   UNL A   1      35.416  34.593  28.763  1.00  0.00     0.014 A 
ATOM     32  C   UNL A   1      35.000  33.273  31.189  1.00  0.00     0.010 A 
ATOM     33  C   UNL A   1      36.470  33.921  29.380  1.00  0.00     0.010 A 
ATOM     34  C   UNL A   1      36.270  33.243  30.592  1.00  0.00    -0.014 A 
BRANCH  34  35
ATOM     35  C   UNL A   1      37.398  32.496  31.208  1.00  0.00     0.031 A 
ATOM     36  C   UNL A   1      37.894  32.868  32.577  1.00  0.00     0.074 A 
ATOM     37  C   UNL A   1      38.018  31.523  30.510  1.00  0.00     0.049 A 
ATOM     38  N   UNL A   1      38.927  32.407  33.238  1.00  0.00    -0.248 NA
ATOM     39  C   UNL A   1      37.144  33.914  33.292  1.00  0.00     0.031 C 
ATOM     40  C   UNL A   1      37.651  31.086  29.161  1.00  0.00     0.029 A 
ATOM     41  N   UNL A   1      39.091  30.730  30.834  1.00  0.00    -0.354 N 
ATOM     42  C   UNL A   1      38.955  33.110  34.434  1.00  0.00     0.074 A 
ATOM     43  C   UNL A   1      37.868  34.064  34.391  1.00  0.00     0.031 C 
ATOM     44  C   UNL A   1      38.461  30.081  28.789  1.00  0.00     0.029 A 
ATOM     45  C   UNL A   1      39.432  29.833  29.850  1.00  0.00     0.049 A 
ATOM     46  H   UNL A   1      39.571  30.797  31.691  1.00  0.00     0.167 HD
ATOM     47  C   UNL A   1      39.795  32.954  35.485  1.00  0.00     0.037 A 
ATOM     48  C   UNL A   1      40.419  28.917  29.807  1.00  0.00     0.037 A 
ATOM     49  C   UNL A   1      40.856  31.985  35.540  1.00  0.00     0.049 A 
ATOM     50  C   UNL A   1      41.354  28.784  30.979  1.00  0.00     0.074 A 
ATOM     51  C   UNL A   1      41.744  31.739  36.573  1.00  0.00     0.029 A 
ATOM     52  N   UNL A   1      41.168  31.097  34.523  1.00  0.00    -0.354 N 
ATOM     53  N   UNL A   1      41.354  29.439  32.113  1.00  0.00    -0.248 NA
ATOM     54  C   UNL A   1      42.426  27.785  30.864  1.00  0.00     0.031 C 
ATOM     55  C   UNL A   1      42.611  30.720  36.171  1.00  0.00     0.029 A 
ATOM     56  C   UNL A   1      42.238  30.304  34.903  1.00  0.00     0.049 A 
ATOM     57  H   UNL A   1      40.698  31.038  33.660  1.00  0.00     0.167 HD
ATOM     58  C   UNL A   1      42.402  28.914  32.857  1.00  0.00     0.074 A 
ATOM     59  C   UNL A   1      43.011  27.879  32.050  1.00  0.00     0.031 C 
ATOM     60  C   UNL A   1      42.819  29.261  34.098  1.00  0.00     0.037 A 
BRANCH  47  61
ATOM     61  C   UNL A   1      39.587  33.834  36.681  1.00  0.00     0.064 A 
ATOM     62  C   UNL A   1      40.215  35.085  36.770  1.00  0.00     0.173 A 
ATOM     63  C   UNL A   1      38.822  33.403  37.776  1.00  0.00     0.173 A 
ATOM     64  F   UNL A   1      40.963  35.540  35.753  1.00  0.00    -0.203 F 
ATOM     65  C   UNL A   1      40.099  35.865  37.916  1.00  0.00     0.198 A 
ATOM     66  C   UNL A   1      38.685  34.197  38.910  1.00  0.00     0.198 A 
ATOM     67  F   UNL A   1      38.191  32.220  37.734  1.00  0.00    -0.203 F 
ATOM     68  F   UNL A   1      40.734  37.042  37.993  1.00  0.00    -0.200 F 
ATOM     69  C   UNL A   1      39.332  35.422  38.984  1.00  0.00     0.200 A 
ATOM     70  F   UNL A   1      37.926  33.778  39.931  1.00  0.00    -0.200 F 
ATOM     71  F   UNL A   1      39.214  36.177  40.085  1.00  0.00    -0.200 F 
ENDBRANCH  47  61
BRANCH  48  72
ATOM     72  C   UNL A   1      40.552  28.023  28.627  1.00  0.00     0.064 A 
ATOM     73  C   UNL A   1      39.920  26.773  28.575  1.00  0.00     0.173 A 
ATOM     74  C   UNL A   1      41.325  28.411  27.523  1.00  0.00     0.173 A 
ATOM     75  F   UNL A   1      39.171  26.354  29.606  1.00  0.00    -0.203 F 
ATOM     76  C   UNL A   1      40.065  25.939  27.467  1.00  0.00     0.198 A 
ATOM     77  C   UNL A   1      41.448  27.589  26.406  1.00  0.00     0.198 A 
ATOM     78  F   UNL A   1      41.929  29.608  27.518  1.00  0.00    -0.203 F 
ATOM     79  F   UNL A   1      39.470  24.740  27.451  1.00  0.00    -0.200 F 
ATOM     80  C   UNL A   1      40.823  26.350  26.381  1.00  0.00     0.200 A 
ATOM     81  F   UNL A   1      42.161  28.001  25.348  1.00  0.00    -0.200 F 
ATOM     82  F   UNL A   1      40.948  25.557  25.309  1.00  0.00    -0.200 F 
ENDBRANCH  48  72
BRANCH  60  83
ATOM     83  C   UNL A   1      43.964  28.495  34.688  1.00  0.00     0.064 A 
ATOM     84  C   UNL A   1      45.285  28.918  34.473  1.00  0.00     0.173 A 
ATOM     85  C   UNL A   1      43.762  27.299  35.390  1.00  0.00     0.173 A 
ATOM     86  F   UNL A   1      45.530  30.052  33.799  1.00  0.00    -0.203 F 
ATOM     87  C   UNL A   1      46.361  28.162  34.924  1.00  0.00     0.198 A 
ATOM     88  C   UNL A   1      44.841  26.557  35.863  1.00  0.00     0.198 A 
ATOM     89  F   UNL A   1      42.518  26.860  35.632  1.00  0.00    -0.203 F 
ATOM     90  F   UNL A   1      47.616  28.567  34.676  1.00  0.00    -0.200 F 
ATOM     91  C   UNL A   1      46.140  26.983  35.621  1.00  0.00     0.200 A 
ATOM     92  F   UNL A   1      44.626  25.429  36.554  1.00  0.00    -0.200 F 
ATOM     93  F   UNL A   1      47.178  26.258  36.059  1.00  0.00    -0.200 F 
ENDBRANCH  60  83
ENDBRANCH  34  35
ENDBRANCH  26  29
ENDBRANCH  24  25
ENDBRANCH  23  24
ENDBRANCH   1  23
TORSDOF 14
ENDMDL
