MODEL 1
REMARK VINA RESULT:     -11.4      0.000      0.000
REMARK SMILES CCNC(=O)NC(=O)[C@@H](C)[NH2+][C@](C)(CC)C(=O)NCCCCNC(=O)c1ccc(-c2c3nc(c(-c4c(F)c(F)c(F)c(F)c4F)c4ccc([nH]4)c(-c4c(F)c(F)c(F)c(F)c4F)c4nc(c(-c5c(F)c(F)c(F)c(F)c5F)c5ccc2[nH]5)C=C4)C=C3)cc1
REMARK SMILES IDX 19 1 18 2 16 3 17 4 12 6 13 7 11 8 9 11 10 12 7 13 3 14 4 15
REMARK SMILES IDX 5 17 6 18 8 20 2 21 1 22 14 23 15 24 20 25 21 26 22 27 23 28
REMARK SMILES IDX 24 29 25 31 26 32 27 33 88 34 28 35 87 36 29 37 30 38 31 39
REMARK SMILES IDX 81 40 32 41 86 42 80 43 82 44 33 45 85 46 79 47 78 48 34 50
REMARK SMILES IDX 66 51 46 52 65 53 47 54 50 55 64 56 83 57 48 58 49 59 63 61
REMARK SMILES IDX 84 62 51 63 35 64 36 65 44 66 37 67 38 68 42 69 45 70 39 71
REMARK SMILES IDX 40 72 43 73 41 74 67 75 68 76 76 77 69 78 70 79 74 80 77 81
REMARK SMILES IDX 71 82 72 83 75 84 73 85 52 86 53 87 61 88 54 89 55 90 59 91
REMARK SMILES IDX 62 92 56 93 57 94 60 95 58 96
REMARK H PARENT 18 5 11 9 11 10 3 16 6 19 23 30 82 49 50 60
REMARK Flexibility Score: inf
ROOT
ATOM      1  C   UNL A   1      37.421  22.933  25.856  1.00  0.00     0.116 C 
ENDROOT
BRANCH   1   2
ATOM      2  N   UNL A   1      37.288  22.816  24.415  1.00  0.00    -0.351 N 
ATOM      3  C   UNL A   1      36.236  23.063  23.573  1.00  0.00     0.281 C 
ATOM      4  O   UNL A   1      36.505  23.008  22.366  1.00  0.00    -0.268 OA
ATOM      5  H   UNL A   1      38.102  22.501  23.959  1.00  0.00     0.163 HD
BRANCH   3   6
ATOM      6  C   UNL A   1      34.777  23.429  24.059  1.00  0.00     0.173 C 
ATOM      7  C   UNL A   1      34.865  24.643  25.024  1.00  0.00     0.090 C 
BRANCH   6   8
ATOM      8  N   UNL A   1      34.170  22.202  24.667  1.00  0.00    -0.324 N 
ATOM      9  H   UNL A   1      33.592  21.771  23.946  1.00  0.00     0.347 HD
ATOM     10  H   UNL A   1      34.980  21.674  24.993  1.00  0.00     0.347 HD
BRANCH   8  11
ATOM     11  C   UNL A   1      33.327  22.320  25.879  1.00  0.00     0.270 C 
ATOM     12  C   UNL A   1      33.867  21.902  27.256  1.00  0.00     0.086 C 
BRANCH  11  13
ATOM     13  C   UNL A   1      31.971  21.603  25.668  1.00  0.00     0.285 C 
ATOM     14  N   UNL A   1      30.437  24.373  26.489  1.00  0.00    -0.338 N 
ATOM     15  C   UNL A   1      30.245  23.102  26.904  1.00  0.00     0.321 C 
ATOM     16  H   UNL A   1      29.984  25.066  27.021  1.00  0.00     0.165 HD
ATOM     17  O   UNL A   1      29.484  22.900  27.851  1.00  0.00    -0.248 OA
ATOM     18  N   UNL A   1      30.779  22.034  26.230  1.00  0.00    -0.273 N 
ATOM     19  H   UNL A   1      30.087  21.346  26.104  1.00  0.00     0.175 HD
ATOM     20  O   UNL A   1      31.924  20.576  24.977  1.00  0.00    -0.268 OA
BRANCH  14  21
ATOM     21  C   UNL A   1      31.214  24.849  25.377  1.00  0.00     0.114 C 
ATOM     22  C   UNL A   1      30.926  26.258  24.907  1.00  0.00     0.027 C 
ENDBRANCH  14  21
ENDBRANCH  11  13
ENDBRANCH   8  11
ENDBRANCH   6   8
BRANCH   6  23
ATOM     23  C   UNL A   1      33.844  23.889  22.897  1.00  0.00     0.075 C 
ATOM     24  C   UNL A   1      32.944  22.808  22.306  1.00  0.00     0.011 C 
ENDBRANCH   6  23
ENDBRANCH   3   6
ENDBRANCH   1   2
BRANCH   1  25
ATOM     25  C   UNL A   1      38.812  22.584  26.401  1.00  0.00     0.023 C 
BRANCH  25  26
ATOM     26  C   UNL A   1      39.588  21.463  25.708  1.00  0.00     0.023 C 
BRANCH  26  27
ATOM     27  C   UNL A   1      39.505  20.084  26.345  1.00  0.00     0.116 C 
BRANCH  27  28
ATOM     28  N   UNL A   1      40.527  19.137  25.946  1.00  0.00    -0.352 N 
ATOM     29  C   UNL A   1      41.896  19.221  26.062  1.00  0.00     0.251 C 
ATOM     30  H   UNL A   1      40.191  18.310  25.530  1.00  0.00     0.163 HD
ATOM     31  O   UNL A   1      42.603  18.279  25.713  1.00  0.00    -0.269 OA
BRANCH  29  32
ATOM     32  C   UNL A   1      42.537  20.470  26.531  1.00  0.00     0.039 A 
ATOM     33  C   UNL A   1      43.176  21.270  25.580  1.00  0.00     0.014 A 
ATOM     34  C   UNL A   1      42.494  20.877  27.868  1.00  0.00     0.014 A 
ATOM     35  C   UNL A   1      43.674  22.523  25.942  1.00  0.00     0.010 A 
ATOM     36  C   UNL A   1      42.932  22.158  28.215  1.00  0.00     0.010 A 
ATOM     37  C   UNL A   1      43.505  23.004  27.250  1.00  0.00    -0.014 A 
BRANCH  37  38
ATOM     38  C   UNL A   1      43.878  24.400  27.607  1.00  0.00     0.031 A 
ATOM     39  C   UNL A   1      42.820  25.405  27.971  1.00  0.00     0.074 A 
ATOM     40  C   UNL A   1      45.169  24.784  27.534  1.00  0.00     0.049 A 
ATOM     41  N   UNL A   1      42.945  26.685  28.221  1.00  0.00    -0.248 NA
ATOM     42  C   UNL A   1      41.436  24.913  28.045  1.00  0.00     0.031 C 
ATOM     43  C   UNL A   1      46.289  23.919  27.158  1.00  0.00     0.029 A 
ATOM     44  N   UNL A   1      45.758  26.006  27.757  1.00  0.00    -0.354 N 
ATOM     45  C   UNL A   1      41.660  27.153  28.454  1.00  0.00     0.074 A 
ATOM     46  C   UNL A   1      40.764  26.029  28.288  1.00  0.00     0.031 C 
ATOM     47  C   UNL A   1      47.428  24.631  27.187  1.00  0.00     0.029 A 
ATOM     48  C   UNL A   1      47.117  26.013  27.540  1.00  0.00     0.049 A 
ATOM     49  H   UNL A   1      45.256  26.801  28.046  1.00  0.00     0.167 HD
ATOM     50  C   UNL A   1      41.265  28.405  28.790  1.00  0.00     0.037 A 
ATOM     51  C   UNL A   1      48.009  27.021  27.600  1.00  0.00     0.037 A 
ATOM     52  C   UNL A   1      42.162  29.512  29.001  1.00  0.00     0.049 A 
ATOM     53  C   UNL A   1      47.536  28.402  27.973  1.00  0.00     0.074 A 
ATOM     54  C   UNL A   1      41.859  30.792  29.432  1.00  0.00     0.029 A 
ATOM     55  N   UNL A   1      43.531  29.473  28.794  1.00  0.00    -0.354 N 
ATOM     56  N   UNL A   1      46.328  28.811  28.273  1.00  0.00    -0.248 NA
ATOM     57  C   UNL A   1      48.553  29.464  28.016  1.00  0.00     0.031 C 
ATOM     58  C   UNL A   1      43.038  31.544  29.435  1.00  0.00     0.029 A 
ATOM     59  C   UNL A   1      44.083  30.717  29.060  1.00  0.00     0.049 A 
ATOM     60  H   UNL A   1      44.037  28.680  28.503  1.00  0.00     0.167 HD
ATOM     61  C   UNL A   1      46.446  30.161  28.577  1.00  0.00     0.074 A 
ATOM     62  C   UNL A   1      47.845  30.502  28.434  1.00  0.00     0.031 C 
ATOM     63  C   UNL A   1      45.481  31.039  28.942  1.00  0.00     0.037 A 
BRANCH  50  64
ATOM     64  C   UNL A   1      39.797  28.662  28.952  1.00  0.00     0.064 A 
ATOM     65  C   UNL A   1      39.150  28.489  30.184  1.00  0.00     0.173 A 
ATOM     66  C   UNL A   1      39.046  29.170  27.880  1.00  0.00     0.173 A 
ATOM     67  F   UNL A   1      39.821  28.000  31.237  1.00  0.00    -0.203 F 
ATOM     68  C   UNL A   1      37.801  28.801  30.332  1.00  0.00     0.198 A 
ATOM     69  C   UNL A   1      37.705  29.506  28.040  1.00  0.00     0.198 A 
ATOM     70  F   UNL A   1      39.621  29.362  26.683  1.00  0.00    -0.203 F 
ATOM     71  F   UNL A   1      37.194  28.600  31.510  1.00  0.00    -0.200 F 
ATOM     72  C   UNL A   1      37.083  29.319  29.264  1.00  0.00     0.200 A 
ATOM     73  F   UNL A   1      37.018  30.020  27.011  1.00  0.00    -0.200 F 
ATOM     74  F   UNL A   1      35.789  29.636  29.415  1.00  0.00    -0.200 F 
ENDBRANCH  50  64
BRANCH  51  75
ATOM     75  C   UNL A   1      49.446  26.776  27.300  1.00  0.00     0.064 A 
ATOM     76  C   UNL A   1      50.355  26.474  28.323  1.00  0.00     0.173 A 
ATOM     77  C   UNL A   1      49.948  26.890  25.995  1.00  0.00     0.173 A 
ATOM     78  F   UNL A   1      49.929  26.378  29.592  1.00  0.00    -0.203 F 
ATOM     79  C   UNL A   1      51.716  26.328  28.059  1.00  0.00     0.198 A 
ATOM     80  C   UNL A   1      51.304  26.712  25.727  1.00  0.00     0.198 A 
ATOM     81  F   UNL A   1      49.121  27.176  24.979  1.00  0.00    -0.203 F 
ATOM     82  F   UNL A   1      52.571  26.103  29.066  1.00  0.00    -0.200 F 
ATOM     83  C   UNL A   1      52.189  26.444  26.761  1.00  0.00     0.200 A 
ATOM     84  F   UNL A   1      51.755  26.813  24.469  1.00  0.00    -0.200 F 
ATOM     85  F   UNL A   1      53.498  26.313  26.508  1.00  0.00    -0.200 F 
ENDBRANCH  51  75
BRANCH  63  86
ATOM     86  C   UNL A   1      45.903  32.441  29.267  1.00  0.00     0.064 A 
ATOM     87  C   UNL A   1      45.911  33.455  28.298  1.00  0.00     0.173 A 
ATOM     88  C   UNL A   1      46.250  32.787  30.582  1.00  0.00     0.173 A 
ATOM     89  F   UNL A   1      45.603  33.170  27.023  1.00  0.00    -0.203 F 
ATOM     90  C   UNL A   1      46.271  34.758  28.629  1.00  0.00     0.198 A 
ATOM     91  C   UNL A   1      46.580  34.098  30.917  1.00  0.00     0.198 A 
ATOM     92  F   UNL A   1      46.252  31.856  31.548  1.00  0.00    -0.203 F 
ATOM     93  F   UNL A   1      46.311  35.701  27.678  1.00  0.00    -0.200 F 
ATOM     94  C   UNL A   1      46.595  35.081  29.938  1.00  0.00     0.200 A 
ATOM     95  F   UNL A   1      46.878  34.410  32.184  1.00  0.00    -0.200 F 
ATOM     96  F   UNL A   1      46.927  36.339  30.258  1.00  0.00    -0.200 F 
ENDBRANCH  63  86
ENDBRANCH  37  38
ENDBRANCH  29  32
ENDBRANCH  27  28
ENDBRANCH  26  27
ENDBRANCH  25  26
ENDBRANCH   1  25
TORSDOF 16
ENDMDL
MODEL 2
REMARK VINA RESULT:     -11.2      5.187      9.922
REMARK SMILES CCNC(=O)NC(=O)[C@@H](C)[NH2+][C@](C)(CC)C(=O)NCCCCNC(=O)c1ccc(-c2c3nc(c(-c4c(F)c(F)c(F)c(F)c4F)c4ccc([nH]4)c(-c4c(F)c(F)c(F)c(F)c4F)c4nc(c(-c5c(F)c(F)c(F)c(F)c5F)c5ccc2[nH]5)C=C4)C=C3)cc1
REMARK SMILES IDX 19 1 18 2 16 3 17 4 12 6 13 7 11 8 9 11 10 12 7 13 3 14 4 15
REMARK SMILES IDX 5 17 6 18 8 20 2 21 1 22 14 23 15 24 20 25 21 26 22 27 23 28
REMARK SMILES IDX 24 29 25 31 26 32 27 33 88 34 28 35 87 36 29 37 30 38 31 39
REMARK SMILES IDX 81 40 32 41 86 42 80 43 82 44 33 45 85 46 79 47 78 48 34 50
REMARK SMILES IDX 66 51 46 52 65 53 47 54 50 55 64 56 83 57 48 58 49 59 63 61
REMARK SMILES IDX 84 62 51 63 35 64 36 65 44 66 37 67 38 68 42 69 45 70 39 71
REMARK SMILES IDX 40 72 43 73 41 74 67 75 68 76 76 77 69 78 70 79 74 80 77 81
REMARK SMILES IDX 71 82 72 83 75 84 73 85 52 86 53 87 61 88 54 89 55 90 59 91
REMARK SMILES IDX 62 92 56 93 57 94 60 95 58 96
REMARK H PARENT 18 5 11 9 11 10 3 16 6 19 23 30 82 49 50 60
REMARK Flexibility Score: inf
ROOT
ATOM      1  C   UNL A   1      37.429  33.005  29.659  1.00  0.00     0.116 C 
ENDROOT
BRANCH   1   2
ATOM      2  N   UNL A   1      38.092  33.745  30.718  1.00  0.00    -0.351 N 
ATOM      3  C   UNL A   1      38.009  33.655  32.083  1.00  0.00     0.281 C 
ATOM      4  O   UNL A   1      38.834  34.339  32.704  1.00  0.00    -0.268 OA
ATOM      5  H   UNL A   1      38.714  34.437  30.396  1.00  0.00     0.163 HD
BRANCH   3   6
ATOM      6  C   UNL A   1      36.978  32.737  32.851  1.00  0.00     0.173 C 
ATOM      7  C   UNL A   1      37.517  31.280  32.854  1.00  0.00     0.090 C 
BRANCH   6   8
ATOM      8  N   UNL A   1      35.640  32.897  32.198  1.00  0.00    -0.324 N 
ATOM      9  H   UNL A   1      35.768  32.688  31.209  1.00  0.00     0.347 HD
ATOM     10  H   UNL A   1      35.040  32.269  32.734  1.00  0.00     0.347 HD
BRANCH   8  11
ATOM     11  C   UNL A   1      34.933  34.196  32.276  1.00  0.00     0.270 C 
ATOM     12  C   UNL A   1      35.555  35.386  33.023  1.00  0.00     0.086 C 
BRANCH  11  13
ATOM     13  C   UNL A   1      33.495  33.999  32.818  1.00  0.00     0.285 C 
ATOM     14  N   UNL A   1      32.505  36.497  30.953  1.00  0.00    -0.338 N 
ATOM     15  C   UNL A   1      32.279  36.226  32.257  1.00  0.00     0.321 C 
ATOM     16  H   UNL A   1      32.266  37.406  30.660  1.00  0.00     0.165 HD
ATOM     17  O   UNL A   1      31.744  37.090  32.953  1.00  0.00    -0.248 OA
ATOM     18  N   UNL A   1      32.522  34.986  32.790  1.00  0.00    -0.273 N 
ATOM     19  H   UNL A   1      31.749  34.704  33.330  1.00  0.00     0.175 HD
ATOM     20  O   UNL A   1      33.177  32.916  33.327  1.00  0.00    -0.268 OA
BRANCH  14  21
ATOM     21  C   UNL A   1      33.046  35.636  29.935  1.00  0.00     0.114 C 
ATOM     22  C   UNL A   1      33.558  36.313  28.683  1.00  0.00     0.027 C 
ENDBRANCH  14  21
ENDBRANCH  11  13
ENDBRANCH   8  11
ENDBRANCH   6   8
BRANCH   6  23
ATOM     23  C   UNL A   1      36.819  33.124  34.354  1.00  0.00     0.075 C 
ATOM     24  C   UNL A   1      37.651  32.306  35.337  1.00  0.00     0.011 C 
ENDBRANCH   6  23
ENDBRANCH   3   6
ENDBRANCH   1   2
BRANCH   1  25
ATOM     25  C   UNL A   1      36.437  33.829  28.827  1.00  0.00     0.023 C 
BRANCH  25  26
ATOM     26  C   UNL A   1      35.402  33.071  27.995  1.00  0.00     0.023 C 
BRANCH  26  27
ATOM     27  C   UNL A   1      34.393  32.234  28.766  1.00  0.00     0.116 C 
BRANCH  27  28
ATOM     28  N   UNL A   1      33.979  30.996  28.135  1.00  0.00    -0.352 N 
ATOM     29  C   UNL A   1      34.676  29.821  27.967  1.00  0.00     0.251 C 
ATOM     30  H   UNL A   1      33.064  30.997  27.773  1.00  0.00     0.163 HD
ATOM     31  O   UNL A   1      34.130  28.849  27.450  1.00  0.00    -0.269 OA
BRANCH  29  32
ATOM     32  C   UNL A   1      36.108  29.735  28.330  1.00  0.00     0.039 A 
ATOM     33  C   UNL A   1      36.427  29.326  29.628  1.00  0.00     0.014 A 
ATOM     34  C   UNL A   1      37.129  30.018  27.418  1.00  0.00     0.014 A 
ATOM     35  C   UNL A   1      37.759  29.094  29.979  1.00  0.00     0.010 A 
ATOM     36  C   UNL A   1      38.454  29.722  27.750  1.00  0.00     0.010 A 
ATOM     37  C   UNL A   1      38.780  29.233  29.026  1.00  0.00    -0.014 A 
BRANCH  37  38
ATOM     38  C   UNL A   1      40.178  28.829  29.338  1.00  0.00     0.031 A 
ATOM     39  C   UNL A   1      41.088  29.749  30.105  1.00  0.00     0.074 A 
ATOM     40  C   UNL A   1      40.653  27.658  28.867  1.00  0.00     0.049 A 
ATOM     41  N   UNL A   1      42.358  29.607  30.390  1.00  0.00    -0.248 NA
ATOM     42  C   UNL A   1      40.498  31.001  30.600  1.00  0.00     0.031 C 
ATOM     43  C   UNL A   1      39.888  26.690  28.078  1.00  0.00     0.029 A 
ATOM     44  N   UNL A   1      41.900  27.086  28.967  1.00  0.00    -0.354 N 
ATOM     45  C   UNL A   1      42.724  30.760  31.071  1.00  0.00     0.074 A 
ATOM     46  C   UNL A   1      41.551  31.605  31.133  1.00  0.00     0.031 C 
ATOM     47  C   UNL A   1      40.675  25.643  27.776  1.00  0.00     0.029 A 
ATOM     48  C   UNL A   1      42.011  25.882  28.311  1.00  0.00     0.049 A 
ATOM     49  H   UNL A   1      42.642  27.500  29.463  1.00  0.00     0.167 HD
ATOM     50  C   UNL A   1      43.927  31.077  31.607  1.00  0.00     0.037 A 
ATOM     51  C   UNL A   1      43.074  25.071  28.143  1.00  0.00     0.037 A 
ATOM     52  C   UNL A   1      45.081  30.216  31.587  1.00  0.00     0.049 A 
ATOM     53  C   UNL A   1      44.399  25.457  28.749  1.00  0.00     0.074 A 
ATOM     54  C   UNL A   1      46.313  30.416  32.185  1.00  0.00     0.029 A 
ATOM     55  N   UNL A   1      45.147  28.996  30.933  1.00  0.00    -0.354 N 
ATOM     56  N   UNL A   1      44.707  26.510  29.464  1.00  0.00    -0.248 NA
ATOM     57  C   UNL A   1      45.524  24.536  28.527  1.00  0.00     0.031 C 
ATOM     58  C   UNL A   1      47.143  29.343  31.849  1.00  0.00     0.029 A 
ATOM     59  C   UNL A   1      46.410  28.447  31.088  1.00  0.00     0.049 A 
ATOM     60  H   UNL A   1      44.407  28.581  30.434  1.00  0.00     0.167 HD
ATOM     61  C   UNL A   1      46.044  26.361  29.807  1.00  0.00     0.074 A 
ATOM     62  C   UNL A   1      46.489  25.110  29.231  1.00  0.00     0.031 C 
ATOM     63  C   UNL A   1      46.834  27.188  30.534  1.00  0.00     0.037 A 
BRANCH  50  64
ATOM     64  C   UNL A   1      44.073  32.416  32.268  1.00  0.00     0.064 A 
ATOM     65  C   UNL A   1      43.867  32.585  33.645  1.00  0.00     0.173 A 
ATOM     66  C   UNL A   1      44.510  33.525  31.526  1.00  0.00     0.173 A 
ATOM     67  F   UNL A   1      43.444  31.558  34.396  1.00  0.00    -0.203 F 
ATOM     68  C   UNL A   1      44.078  33.821  34.251  1.00  0.00     0.198 A 
ATOM     69  C   UNL A   1      44.744  34.751  32.142  1.00  0.00     0.198 A 
ATOM     70  F   UNL A   1      44.729  33.412  30.208  1.00  0.00    -0.203 F 
ATOM     71  F   UNL A   1      43.846  33.969  35.563  1.00  0.00    -0.200 F 
ATOM     72  C   UNL A   1      44.525  34.899  33.502  1.00  0.00     0.200 A 
ATOM     73  F   UNL A   1      45.192  35.787  31.419  1.00  0.00    -0.200 F 
ATOM     74  F   UNL A   1      44.745  36.082  34.093  1.00  0.00    -0.200 F 
ENDBRANCH  50  64
BRANCH  51  75
ATOM     75  C   UNL A   1      42.945  23.810  27.364  1.00  0.00     0.064 A 
ATOM     76  C   UNL A   1      42.501  22.628  27.973  1.00  0.00     0.173 A 
ATOM     77  C   UNL A   1      43.310  23.747  26.011  1.00  0.00     0.173 A 
ATOM     78  F   UNL A   1      42.163  22.630  29.272  1.00  0.00    -0.203 F 
ATOM     79  C   UNL A   1      42.460  21.425  27.270  1.00  0.00     0.198 A 
ATOM     80  C   UNL A   1      43.238  22.551  25.300  1.00  0.00     0.198 A 
ATOM     81  F   UNL A   1      43.740  24.848  25.378  1.00  0.00    -0.203 F 
ATOM     82  F   UNL A   1      42.093  20.299  27.896  1.00  0.00    -0.200 F 
ATOM     83  C   UNL A   1      42.825  21.388  25.933  1.00  0.00     0.200 A 
ATOM     84  F   UNL A   1      43.580  22.522  24.004  1.00  0.00    -0.200 F 
ATOM     85  F   UNL A   1      42.793  20.230  25.260  1.00  0.00    -0.200 F 
ENDBRANCH  51  75
BRANCH  63  86
ATOM     86  C   UNL A   1      48.243  26.748  30.800  1.00  0.00     0.064 A 
ATOM     87  C   UNL A   1      48.566  25.915  31.881  1.00  0.00     0.173 A 
ATOM     88  C   UNL A   1      49.277  27.119  29.926  1.00  0.00     0.173 A 
ATOM     89  F   UNL A   1      47.616  25.545  32.754  1.00  0.00    -0.203 F 
ATOM     90  C   UNL A   1      49.874  25.487  32.089  1.00  0.00     0.198 A 
ATOM     91  C   UNL A   1      50.578  26.666  30.118  1.00  0.00     0.198 A 
ATOM     92  F   UNL A   1      49.019  27.910  28.872  1.00  0.00    -0.203 F 
ATOM     93  F   UNL A   1      50.167  24.726  33.151  1.00  0.00    -0.200 F 
ATOM     94  C   UNL A   1      50.877  25.854  31.203  1.00  0.00     0.200 A 
ATOM     95  F   UNL A   1      51.541  27.010  29.253  1.00  0.00    -0.200 F 
ATOM     96  F   UNL A   1      52.133  25.430  31.396  1.00  0.00    -0.200 F 
ENDBRANCH  63  86
ENDBRANCH  37  38
ENDBRANCH  29  32
ENDBRANCH  27  28
ENDBRANCH  26  27
ENDBRANCH  25  26
ENDBRANCH   1  25
TORSDOF 16
ENDMDL
MODEL 3
REMARK VINA RESULT:     -11.1      1.395      2.681
REMARK SMILES CCNC(=O)NC(=O)[C@@H](C)[NH2+][C@](C)(CC)C(=O)NCCCCNC(=O)c1ccc(-c2c3nc(c(-c4c(F)c(F)c(F)c(F)c4F)c4ccc([nH]4)c(-c4c(F)c(F)c(F)c(F)c4F)c4nc(c(-c5c(F)c(F)c(F)c(F)c5F)c5ccc2[nH]5)C=C4)C=C3)cc1
REMARK SMILES IDX 19 1 18 2 16 3 17 4 12 6 13 7 11 8 9 11 10 12 7 13 3 14 4 15
REMARK SMILES IDX 5 17 6 18 8 20 2 21 1 22 14 23 15 24 20 25 21 26 22 27 23 28
REMARK SMILES IDX 24 29 25 31 26 32 27 33 88 34 28 35 87 36 29 37 30 38 31 39
REMARK SMILES IDX 81 40 32 41 86 42 80 43 82 44 33 45 85 46 79 47 78 48 34 50
REMARK SMILES IDX 66 51 46 52 65 53 47 54 50 55 64 56 83 57 48 58 49 59 63 61
REMARK SMILES IDX 84 62 51 63 35 64 36 65 44 66 37 67 38 68 42 69 45 70 39 71
REMARK SMILES IDX 40 72 43 73 41 74 67 75 68 76 76 77 69 78 70 79 74 80 77 81
REMARK SMILES IDX 71 82 72 83 75 84 73 85 52 86 53 87 61 88 54 89 55 90 59 91
REMARK SMILES IDX 62 92 56 93 57 94 60 95 58 96
REMARK H PARENT 18 5 11 9 11 10 3 16 6 19 23 30 82 49 50 60
REMARK Flexibility Score: inf
ROOT
ATOM      1  C   UNL A   1      35.867  22.382  24.460  1.00  0.00     0.116 C 
ENDROOT
BRANCH   1   2
ATOM      2  N   UNL A   1      35.246  22.929  23.267  1.00  0.00    -0.351 N 
ATOM      3  C   UNL A   1      33.935  23.176  22.954  1.00  0.00     0.281 C 
ATOM      4  O   UNL A   1      33.757  23.797  21.897  1.00  0.00    -0.268 OA
ATOM      5  H   UNL A   1      35.882  23.164  22.553  1.00  0.00     0.163 HD
BRANCH   3   6
ATOM      6  C   UNL A   1      32.711  22.751  23.857  1.00  0.00     0.173 C 
ATOM      7  C   UNL A   1      31.400  23.229  23.175  1.00  0.00     0.090 C 
BRANCH   6   8
ATOM      8  N   UNL A   1      32.930  23.311  25.229  1.00  0.00    -0.324 N 
ATOM      9  H   UNL A   1      32.255  22.857  25.844  1.00  0.00     0.347 HD
ATOM     10  H   UNL A   1      33.919  23.128  25.403  1.00  0.00     0.347 HD
BRANCH   8  11
ATOM     11  C   UNL A   1      32.806  24.769  25.457  1.00  0.00     0.270 C 
ATOM     12  C   UNL A   1      34.047  25.628  25.750  1.00  0.00     0.086 C 
BRANCH  11  13
ATOM     13  C   UNL A   1      31.763  25.057  26.566  1.00  0.00     0.285 C 
ATOM     14  N   UNL A   1      31.169  27.960  25.181  1.00  0.00    -0.338 N 
ATOM     15  C   UNL A   1      31.406  27.629  26.469  1.00  0.00     0.321 C 
ATOM     16  H   UNL A   1      31.210  28.922  24.974  1.00  0.00     0.165 HD
ATOM     17  O   UNL A   1      31.586  28.533  27.285  1.00  0.00    -0.248 OA
ATOM     18  N   UNL A   1      31.336  26.331  26.906  1.00  0.00    -0.273 N 
ATOM     19  H   UNL A   1      30.806  26.292  27.735  1.00  0.00     0.175 HD
ATOM     20  O   UNL A   1      31.281  24.116  27.210  1.00  0.00    -0.268 OA
BRANCH  14  21
ATOM     21  C   UNL A   1      30.865  27.097  24.071  1.00  0.00     0.114 C 
ATOM     22  C   UNL A   1      29.910  27.645  23.033  1.00  0.00     0.027 C 
ENDBRANCH  14  21
ENDBRANCH  11  13
ENDBRANCH   8  11
ENDBRANCH   6   8
BRANCH   6  23
ATOM     23  C   UNL A   1      32.565  21.204  23.998  1.00  0.00     0.075 C 
ATOM     24  C   UNL A   1      32.153  20.463  22.730  1.00  0.00     0.011 C 
ENDBRANCH   6  23
ENDBRANCH   3   6
ENDBRANCH   1   2
BRANCH   1  25
ATOM     25  C   UNL A   1      37.273  21.807  24.243  1.00  0.00     0.023 C 
BRANCH  25  26
ATOM     26  C   UNL A   1      37.665  20.562  25.040  1.00  0.00     0.023 C 
BRANCH  26  27
ATOM     27  C   UNL A   1      38.917  20.671  25.899  1.00  0.00     0.116 C 
BRANCH  27  28
ATOM     28  N   UNL A   1      39.833  19.551  25.831  1.00  0.00    -0.352 N 
ATOM     29  C   UNL A   1      41.179  19.498  26.119  1.00  0.00     0.251 C 
ATOM     30  H   UNL A   1      39.434  18.701  25.535  1.00  0.00     0.163 HD
ATOM     31  O   UNL A   1      41.781  18.430  26.055  1.00  0.00    -0.269 OA
BRANCH  29  32
ATOM     32  C   UNL A   1      41.932  20.734  26.429  1.00  0.00     0.039 A 
ATOM     33  C   UNL A   1      42.209  21.609  25.374  1.00  0.00     0.014 A 
ATOM     34  C   UNL A   1      42.338  21.057  27.727  1.00  0.00     0.014 A 
ATOM     35  C   UNL A   1      42.791  22.851  25.633  1.00  0.00     0.010 A 
ATOM     36  C   UNL A   1      42.858  22.327  27.992  1.00  0.00     0.010 A 
ATOM     37  C   UNL A   1      43.067  23.246  26.951  1.00  0.00    -0.014 A 
BRANCH  37  38
ATOM     38  C   UNL A   1      43.530  24.628  27.255  1.00  0.00     0.031 A 
ATOM     39  C   UNL A   1      42.569  25.655  27.790  1.00  0.00     0.074 A 
ATOM     40  C   UNL A   1      44.803  24.980  26.983  1.00  0.00     0.049 A 
ATOM     41  N   UNL A   1      42.767  26.928  28.027  1.00  0.00    -0.248 NA
ATOM     42  C   UNL A   1      41.202  25.197  28.077  1.00  0.00     0.031 C 
ATOM     43  C   UNL A   1      45.826  24.092  26.428  1.00  0.00     0.029 A 
ATOM     44  N   UNL A   1      45.453  26.184  27.120  1.00  0.00    -0.354 N 
ATOM     45  C   UNL A   1      41.547  27.426  28.463  1.00  0.00     0.074 A 
ATOM     46  C   UNL A   1      40.606  26.327  28.432  1.00  0.00     0.031 C 
ATOM     47  C   UNL A   1      46.974  24.775  26.282  1.00  0.00     0.029 A 
ATOM     48  C   UNL A   1      46.760  26.159  26.691  1.00  0.00     0.049 A 
ATOM     49  H   UNL A   1      45.023  26.988  27.490  1.00  0.00     0.167 HD
ATOM     50  C   UNL A   1      41.244  28.683  28.867  1.00  0.00     0.037 A 
ATOM     51  C   UNL A   1      47.677  27.144  26.618  1.00  0.00     0.037 A 
ATOM     52  C   UNL A   1      42.192  29.765  28.943  1.00  0.00     0.049 A 
ATOM     53  C   UNL A   1      47.305  28.532  27.070  1.00  0.00     0.074 A 
ATOM     54  C   UNL A   1      41.996  31.047  29.426  1.00  0.00     0.029 A 
ATOM     55  N   UNL A   1      43.510  29.694  28.522  1.00  0.00    -0.354 N 
ATOM     56  N   UNL A   1      46.171  28.968  27.561  1.00  0.00    -0.248 NA
ATOM     57  C   UNL A   1      48.345  29.567  26.961  1.00  0.00     0.031 C 
ATOM     58  C   UNL A   1      43.180  31.769  29.249  1.00  0.00     0.029 A 
ATOM     59  C   UNL A   1      44.130  30.920  28.707  1.00  0.00     0.049 A 
ATOM     60  H   UNL A   1      43.943  28.892  28.149  1.00  0.00     0.167 HD
ATOM     61  C   UNL A   1      46.372  30.310  27.853  1.00  0.00     0.074 A 
ATOM     62  C   UNL A   1      47.740  30.618  27.494  1.00  0.00     0.031 C 
ATOM     63  C   UNL A   1      45.500  31.208  28.372  1.00  0.00     0.037 A 
BRANCH  50  64
ATOM     64  C   UNL A   1      39.827  28.975  29.261  1.00  0.00     0.064 A 
ATOM     65  C   UNL A   1      38.875  29.402  28.323  1.00  0.00     0.173 A 
ATOM     66  C   UNL A   1      39.397  28.742  30.576  1.00  0.00     0.173 A 
ATOM     67  F   UNL A   1      39.236  29.645  27.055  1.00  0.00    -0.203 F 
ATOM     68  C   UNL A   1      37.547  29.600  28.694  1.00  0.00     0.198 A 
ATOM     69  C   UNL A   1      38.064  28.915  30.935  1.00  0.00     0.198 A 
ATOM     70  F   UNL A   1      40.267  28.325  31.507  1.00  0.00    -0.203 F 
ATOM     71  F   UNL A   1      36.659  30.037  27.790  1.00  0.00    -0.200 F 
ATOM     72  C   UNL A   1      37.141  29.347  29.996  1.00  0.00     0.200 A 
ATOM     73  F   UNL A   1      37.670  28.655  32.190  1.00  0.00    -0.200 F 
ATOM     74  F   UNL A   1      35.858  29.520  30.345  1.00  0.00    -0.200 F 
ENDBRANCH  50  64
BRANCH  51  75
ATOM     75  C   UNL A   1      49.041  26.867  26.092  1.00  0.00     0.064 A 
ATOM     76  C   UNL A   1      49.340  27.043  24.734  1.00  0.00     0.173 A 
ATOM     77  C   UNL A   1      50.057  26.372  26.923  1.00  0.00     0.173 A 
ATOM     78  F   UNL A   1      48.396  27.491  23.893  1.00  0.00    -0.203 F 
ATOM     79  C   UNL A   1      50.591  26.704  24.220  1.00  0.00     0.198 A 
ATOM     80  C   UNL A   1      51.317  26.064  26.415  1.00  0.00     0.198 A 
ATOM     81  F   UNL A   1      49.825  26.186  28.231  1.00  0.00    -0.203 F 
ATOM     82  F   UNL A   1      50.828  26.823  22.907  1.00  0.00    -0.200 F 
ATOM     83  C   UNL A   1      51.580  26.218  25.062  1.00  0.00     0.200 A 
ATOM     84  F   UNL A   1      52.274  25.605  27.235  1.00  0.00    -0.200 F 
ATOM     85  F   UNL A   1      52.779  25.884  24.567  1.00  0.00    -0.200 F 
ENDBRANCH  51  75
BRANCH  63  86
ATOM     86  C   UNL A   1      46.006  32.595  28.638  1.00  0.00     0.064 A 
ATOM     87  C   UNL A   1      46.616  32.940  29.853  1.00  0.00     0.173 A 
ATOM     88  C   UNL A   1      45.930  33.579  27.640  1.00  0.00     0.173 A 
ATOM     89  F   UNL A   1      46.698  32.039  30.845  1.00  0.00    -0.203 F 
ATOM     90  C   UNL A   1      47.112  34.222  30.066  1.00  0.00     0.198 A 
ATOM     91  C   UNL A   1      46.455  34.851  27.844  1.00  0.00     0.198 A 
ATOM     92  F   UNL A   1      45.362  33.298  26.456  1.00  0.00    -0.203 F 
ATOM     93  F   UNL A   1      47.653  34.541  31.249  1.00  0.00    -0.200 F 
ATOM     94  C   UNL A   1      47.040  35.174  29.059  1.00  0.00     0.200 A 
ATOM     95  F   UNL A   1      46.397  35.763  26.865  1.00  0.00    -0.200 F 
ATOM     96  F   UNL A   1      47.531  36.404  29.261  1.00  0.00    -0.200 F 
ENDBRANCH  63  86
ENDBRANCH  37  38
ENDBRANCH  29  32
ENDBRANCH  27  28
ENDBRANCH  26  27
ENDBRANCH  25  26
ENDBRANCH   1  25
TORSDOF 16
ENDMDL
