MODEL 1
REMARK VINA RESULT:     -12.3      0.000      0.000
REMARK SMILES CC(C)(O)C#Cc1ccc(C(=O)N[C@@H](CCC(N)=O)C(=O)NCCCCNC(=O)c2ccc(-c3c4nc(c(-c5c(F)c(F)c(F)c(F)c5F)c5ccc([nH]5)c(-c5c(F)c(F)c(F)c(F)c5F)c5nc(c(-c6c(F)c(F)c(F)c(F)c6F)c6ccc3[nH]6)C=C5)C=C4)cc2)s1
REMARK SMILES IDX 23 1 22 2 20 3 21 4 14 6 13 7 11 8 12 9 10 11 7 12 8 13
REMARK SMILES IDX 93 14 9 15 6 16 5 17 2 18 1 19 3 20 4 21 15 23 16 24 17 25
REMARK SMILES IDX 18 26 19 27 24 30 25 31 26 32 27 33 28 34 29 36 30 37 31 38
REMARK SMILES IDX 92 39 32 40 91 41 33 42 34 43 35 44 85 45 36 46 90 47 84 48
REMARK SMILES IDX 86 49 37 50 89 51 83 52 82 53 38 55 70 56 50 57 69 58 51 59
REMARK SMILES IDX 54 60 68 61 87 62 52 63 53 64 67 66 88 67 55 68 39 69 40 70
REMARK SMILES IDX 48 71 41 72 42 73 46 74 49 75 43 76 44 77 47 78 45 79 71 80
REMARK SMILES IDX 72 81 80 82 73 83 74 84 78 85 81 86 75 87 76 88 79 89 77 90
REMARK SMILES IDX 56 91 57 92 65 93 58 94 59 95 63 96 66 97 60 98 61 99 64 100
REMARK SMILES IDX 62 101
REMARK H PARENT 22 5 13 10 4 22 18 28 18 29 27 35 86 54 54 65
REMARK Flexibility Score: inf
ROOT
ATOM      1  C   UNL A   1      32.393  29.226  25.224  1.00  0.00     0.116 C 
ENDROOT
BRANCH   1   2
ATOM      2  N   UNL A   1      33.188  28.140  24.701  1.00  0.00    -0.354 N 
ATOM      3  C   UNL A   1      32.856  26.892  24.278  1.00  0.00     0.242 C 
ATOM      4  O   UNL A   1      33.766  26.216  23.784  1.00  0.00    -0.273 OA
ATOM      5  H   UNL A   1      34.149  28.342  24.638  1.00  0.00     0.163 HD
BRANCH   3   6
ATOM      6  C   UNL A   1      31.422  26.333  24.356  1.00  0.00     0.172 C 
BRANCH   6   7
ATOM      7  N   UNL A   1      31.146  25.609  25.613  1.00  0.00    -0.340 N 
ATOM      8  C   UNL A   1      31.504  24.342  26.021  1.00  0.00     0.262 C 
ATOM      9  O   UNL A   1      31.398  24.118  27.229  1.00  0.00    -0.268 OA
ATOM     10  H   UNL A   1      30.617  26.116  26.269  1.00  0.00     0.164 HD
BRANCH   8  11
ATOM     11  C   UNL A   1      32.052  23.373  25.101  1.00  0.00     0.093 A 
ATOM     12  C   UNL A   1      32.952  21.279  24.328  1.00  0.00     0.078 A 
ATOM     13  C   UNL A   1      32.147  21.838  23.362  1.00  0.00     0.030 A 
ATOM     14  S   UNL A   1      33.469  22.466  25.428  1.00  0.00    -0.121 S 
ATOM     15  C   UNL A   1      31.631  23.093  23.810  1.00  0.00     0.027 A 
BRANCH  12  16
ATOM     16  C   UNL A   1      33.397  19.940  24.386  1.00  0.00    -0.053 C 
ATOM     17  C   UNL A   1      33.632  18.660  24.473  1.00  0.00    -0.063 C 
BRANCH  17  18
ATOM     18  C   UNL A   1      33.906  17.169  24.574  1.00  0.00     0.120 C 
ATOM     19  C   UNL A   1      34.035  16.571  23.175  1.00  0.00     0.056 C 
ATOM     20  C   UNL A   1      32.790  16.492  25.365  1.00  0.00     0.056 C 
BRANCH  18  21
ATOM     21  O   UNL A   1      35.136  16.992  25.272  1.00  0.00    -0.378 OA
ATOM     22  H   UNL A   1      35.078  17.419  26.141  1.00  0.00     0.212 HD
ENDBRANCH  18  21
ENDBRANCH  17  18
ENDBRANCH  12  16
ENDBRANCH   8  11
ENDBRANCH   6   7
BRANCH   6  23
ATOM     23  C   UNL A   1      30.252  27.249  23.934  1.00  0.00     0.045 C 
BRANCH  23  24
ATOM     24  C   UNL A   1      30.258  27.907  22.559  1.00  0.00     0.102 C 
BRANCH  24  25
ATOM     25  C   UNL A   1      29.966  29.388  22.596  1.00  0.00     0.217 C 
ATOM     26  N   UNL A   1      30.485  30.092  21.555  1.00  0.00    -0.370 N 
ATOM     27  O   UNL A   1      29.326  29.958  23.467  1.00  0.00    -0.275 OA
ATOM     28  H   UNL A   1      30.999  29.629  20.857  1.00  0.00     0.159 HD
ATOM     29  H   UNL A   1      30.345  31.065  21.501  1.00  0.00     0.159 HD
ENDBRANCH  24  25
ENDBRANCH  23  24
ENDBRANCH   6  23
ENDBRANCH   3   6
ENDBRANCH   1   2
BRANCH   1  30
ATOM     30  C   UNL A   1      32.112  29.074  26.716  1.00  0.00     0.023 C 
BRANCH  30  31
ATOM     31  C   UNL A   1      33.317  29.301  27.638  1.00  0.00     0.023 C 
BRANCH  31  32
ATOM     32  C   UNL A   1      34.127  30.548  27.323  1.00  0.00     0.116 C 
BRANCH  32  33
ATOM     33  N   UNL A   1      34.073  31.560  28.384  1.00  0.00    -0.352 N 
ATOM     34  C   UNL A   1      34.926  31.696  29.464  1.00  0.00     0.251 C 
ATOM     35  H   UNL A   1      33.347  32.221  28.319  1.00  0.00     0.163 HD
ATOM     36  O   UNL A   1      34.588  32.321  30.471  1.00  0.00    -0.269 OA
BRANCH  34  37
ATOM     37  C   UNL A   1      36.272  31.112  29.375  1.00  0.00     0.039 A 
ATOM     38  C   UNL A   1      37.421  31.871  29.146  1.00  0.00     0.014 A 
ATOM     39  C   UNL A   1      36.358  29.739  29.567  1.00  0.00     0.014 A 
ATOM     40  C   UNL A   1      38.659  31.228  29.162  1.00  0.00     0.010 A 
ATOM     41  C   UNL A   1      37.570  29.162  29.809  1.00  0.00     0.010 A 
ATOM     42  C   UNL A   1      38.718  29.867  29.498  1.00  0.00    -0.014 A 
BRANCH  42  43
ATOM     43  C   UNL A   1      39.972  29.150  29.655  1.00  0.00     0.031 A 
ATOM     44  C   UNL A   1      40.387  28.981  31.067  1.00  0.00     0.074 A 
ATOM     45  C   UNL A   1      40.563  28.488  28.632  1.00  0.00     0.049 A 
ATOM     46  N   UNL A   1      41.401  29.527  31.645  1.00  0.00    -0.248 NA
ATOM     47  C   UNL A   1      39.489  28.264  31.988  1.00  0.00     0.031 C 
ATOM     48  C   UNL A   1      40.089  28.319  27.253  1.00  0.00     0.029 A 
ATOM     49  N   UNL A   1      41.689  27.728  28.643  1.00  0.00    -0.354 N 
ATOM     50  C   UNL A   1      41.397  29.051  32.951  1.00  0.00     0.074 A 
ATOM     51  C   UNL A   1      40.103  28.456  33.158  1.00  0.00     0.031 C 
ATOM     52  C   UNL A   1      40.778  27.324  26.648  1.00  0.00     0.029 A 
ATOM     53  C   UNL A   1      41.859  26.915  27.525  1.00  0.00     0.049 A 
ATOM     54  H   UNL A   1      42.337  27.751  29.384  1.00  0.00     0.167 HD
ATOM     55  C   UNL A   1      42.562  28.956  33.651  1.00  0.00     0.037 A 
ATOM     56  C   UNL A   1      42.817  25.967  27.352  1.00  0.00     0.037 A 
ATOM     57  C   UNL A   1      43.602  29.732  33.016  1.00  0.00     0.049 A 
ATOM     58  C   UNL A   1      43.906  26.275  28.315  1.00  0.00     0.074 A 
ATOM     59  C   UNL A   1      43.755  31.067  32.698  1.00  0.00     0.029 A 
ATOM     60  N   UNL A   1      44.516  29.059  32.240  1.00  0.00    -0.354 N 
ATOM     61  N   UNL A   1      44.663  27.334  28.230  1.00  0.00    -0.248 NA
ATOM     62  C   UNL A   1      43.815  25.674  29.638  1.00  0.00     0.031 C 
ATOM     63  C   UNL A   1      44.380  31.071  31.415  1.00  0.00     0.029 A 
ATOM     64  C   UNL A   1      44.654  29.749  31.065  1.00  0.00     0.049 A 
ATOM     65  H   UNL A   1      44.986  28.229  32.486  1.00  0.00     0.167 HD
ATOM     66  C   UNL A   1      44.773  27.790  29.535  1.00  0.00     0.074 A 
ATOM     67  C   UNL A   1      44.292  26.688  30.367  1.00  0.00     0.031 C 
ATOM     68  C   UNL A   1      44.954  29.117  29.800  1.00  0.00     0.037 A 
BRANCH  55  69
ATOM     69  C   UNL A   1      42.878  27.863  34.646  1.00  0.00     0.064 A 
ATOM     70  C   UNL A   1      43.244  28.232  35.956  1.00  0.00     0.173 A 
ATOM     71  C   UNL A   1      43.142  26.521  34.297  1.00  0.00     0.173 A 
ATOM     72  F   UNL A   1      43.046  29.483  36.396  1.00  0.00    -0.203 F 
ATOM     73  C   UNL A   1      43.918  27.354  36.810  1.00  0.00     0.198 A 
ATOM     74  C   UNL A   1      43.765  25.633  35.172  1.00  0.00     0.198 A 
ATOM     75  F   UNL A   1      42.919  26.039  33.070  1.00  0.00    -0.203 F 
ATOM     76  F   UNL A   1      44.372  27.794  37.990  1.00  0.00    -0.200 F 
ATOM     77  C   UNL A   1      44.186  26.058  36.412  1.00  0.00     0.200 A 
ATOM     78  F   UNL A   1      44.031  24.385  34.760  1.00  0.00    -0.200 F 
ATOM     79  F   UNL A   1      44.893  25.236  37.198  1.00  0.00    -0.200 F 
ENDBRANCH  55  69
BRANCH  56  80
ATOM     80  C   UNL A   1      42.728  24.660  26.652  1.00  0.00     0.064 A 
ATOM     81  C   UNL A   1      43.465  24.409  25.482  1.00  0.00     0.173 A 
ATOM     82  C   UNL A   1      42.151  23.538  27.276  1.00  0.00     0.173 A 
ATOM     83  F   UNL A   1      44.084  25.415  24.845  1.00  0.00    -0.203 F 
ATOM     84  C   UNL A   1      43.641  23.112  24.985  1.00  0.00     0.198 A 
ATOM     85  C   UNL A   1      42.324  22.244  26.780  1.00  0.00     0.198 A 
ATOM     86  F   UNL A   1      41.489  23.665  28.436  1.00  0.00    -0.203 F 
ATOM     87  F   UNL A   1      44.403  22.906  23.902  1.00  0.00    -0.200 F 
ATOM     88  C   UNL A   1      43.081  22.029  25.643  1.00  0.00     0.200 A 
ATOM     89  F   UNL A   1      41.809  21.200  27.444  1.00  0.00    -0.200 F 
ATOM     90  F   UNL A   1      43.303  20.781  25.206  1.00  0.00    -0.200 F 
ENDBRANCH  56  80
BRANCH  68  91
ATOM     91  C   UNL A   1      45.284  30.028  28.649  1.00  0.00     0.064 A 
ATOM     92  C   UNL A   1      44.326  30.687  27.857  1.00  0.00     0.173 A 
ATOM     93  C   UNL A   1      46.628  30.361  28.437  1.00  0.00     0.173 A 
ATOM     94  F   UNL A   1      43.017  30.503  28.058  1.00  0.00    -0.203 F 
ATOM     95  C   UNL A   1      44.704  31.601  26.872  1.00  0.00     0.198 A 
ATOM     96  C   UNL A   1      47.000  31.301  27.480  1.00  0.00     0.198 A 
ATOM     97  F   UNL A   1      47.583  29.807  29.199  1.00  0.00    -0.203 F 
ATOM     98  F   UNL A   1      43.770  32.207  26.124  1.00  0.00    -0.200 F 
ATOM     99  C   UNL A   1      46.040  31.912  26.692  1.00  0.00     0.200 A 
ATOM    100  F   UNL A   1      48.290  31.636  27.345  1.00  0.00    -0.200 F 
ATOM    101  F   UNL A   1      46.401  32.822  25.775  1.00  0.00    -0.200 F 
ENDBRANCH  68  91
ENDBRANCH  42  43
ENDBRANCH  34  37
ENDBRANCH  32  33
ENDBRANCH  31  32
ENDBRANCH  30  31
ENDBRANCH   1  30
TORSDOF 19
ENDMDL
MODEL 2
REMARK VINA RESULT:     -12.2      2.917      7.904
REMARK SMILES CC(C)(O)C#Cc1ccc(C(=O)N[C@@H](CCC(N)=O)C(=O)NCCCCNC(=O)c2ccc(-c3c4nc(c(-c5c(F)c(F)c(F)c(F)c5F)c5ccc([nH]5)c(-c5c(F)c(F)c(F)c(F)c5F)c5nc(c(-c6c(F)c(F)c(F)c(F)c6F)c6ccc3[nH]6)C=C5)C=C4)cc2)s1
REMARK SMILES IDX 23 1 22 2 20 3 21 4 14 6 13 7 11 8 12 9 10 11 7 12 8 13
REMARK SMILES IDX 93 14 9 15 6 16 5 17 2 18 1 19 3 20 4 21 15 23 16 24 17 25
REMARK SMILES IDX 18 26 19 27 24 30 25 31 26 32 27 33 28 34 29 36 30 37 31 38
REMARK SMILES IDX 92 39 32 40 91 41 33 42 34 43 35 44 85 45 36 46 90 47 84 48
REMARK SMILES IDX 86 49 37 50 89 51 83 52 82 53 38 55 70 56 50 57 69 58 51 59
REMARK SMILES IDX 54 60 68 61 87 62 52 63 53 64 67 66 88 67 55 68 39 69 40 70
REMARK SMILES IDX 48 71 41 72 42 73 46 74 49 75 43 76 44 77 47 78 45 79 71 80
REMARK SMILES IDX 72 81 80 82 73 83 74 84 78 85 81 86 75 87 76 88 79 89 77 90
REMARK SMILES IDX 56 91 57 92 65 93 58 94 59 95 63 96 66 97 60 98 61 99 64 100
REMARK SMILES IDX 62 101
REMARK H PARENT 22 5 13 10 4 22 18 28 18 29 27 35 86 54 54 65
REMARK Flexibility Score: inf
ROOT
ATOM      1  C   UNL A   1      34.991  23.395  23.423  1.00  0.00     0.116 C 
ENDROOT
BRANCH   1   2
ATOM      2  N   UNL A   1      34.979  24.624  24.182  1.00  0.00    -0.354 N 
ATOM      3  C   UNL A   1      34.026  25.578  24.352  1.00  0.00     0.242 C 
ATOM      4  O   UNL A   1      34.285  26.481  25.155  1.00  0.00    -0.273 OA
ATOM      5  H   UNL A   1      35.816  24.803  24.666  1.00  0.00     0.163 HD
BRANCH   3   6
ATOM      6  C   UNL A   1      32.665  25.542  23.630  1.00  0.00     0.172 C 
BRANCH   6   7
ATOM      7  N   UNL A   1      31.524  25.835  24.520  1.00  0.00    -0.340 N 
ATOM      8  C   UNL A   1      31.103  25.219  25.679  1.00  0.00     0.262 C 
ATOM      9  O   UNL A   1      30.308  25.861  26.368  1.00  0.00    -0.268 OA
ATOM     10  H   UNL A   1      30.972  26.599  24.239  1.00  0.00     0.164 HD
BRANCH   8  11
ATOM     11  C   UNL A   1      31.631  23.941  26.096  1.00  0.00     0.093 A 
ATOM     12  C   UNL A   1      32.306  21.637  25.934  1.00  0.00     0.078 A 
ATOM     13  C   UNL A   1      33.177  22.334  26.740  1.00  0.00     0.030 A 
ATOM     14  S   UNL A   1      30.823  22.456  25.818  1.00  0.00    -0.121 S 
ATOM     15  C   UNL A   1      32.764  23.697  26.856  1.00  0.00     0.027 A 
BRANCH  12  16
ATOM     16  C   UNL A   1      32.528  20.372  25.347  1.00  0.00    -0.053 C 
ATOM     17  C   UNL A   1      32.681  19.282  24.647  1.00  0.00    -0.063 C 
BRANCH  17  18
ATOM     18  C   UNL A   1      32.861  18.013  23.831  1.00  0.00     0.120 C 
ATOM     19  C   UNL A   1      34.327  17.587  23.854  1.00  0.00     0.056 C 
ATOM     20  C   UNL A   1      32.373  18.244  22.403  1.00  0.00     0.056 C 
BRANCH  18  21
ATOM     21  O   UNL A   1      32.068  16.989  24.426  1.00  0.00    -0.378 OA
ATOM     22  H   UNL A   1      31.312  17.391  24.882  1.00  0.00     0.212 HD
ENDBRANCH  18  21
ENDBRANCH  17  18
ENDBRANCH  12  16
ENDBRANCH   8  11
ENDBRANCH   6   7
BRANCH   6  23
ATOM     23  C   UNL A   1      32.540  26.245  22.260  1.00  0.00     0.045 C 
BRANCH  23  24
ATOM     24  C   UNL A   1      33.293  27.546  22.001  1.00  0.00     0.102 C 
BRANCH  24  25
ATOM     25  C   UNL A   1      32.738  28.727  22.761  1.00  0.00     0.217 C 
ATOM     26  N   UNL A   1      33.639  29.356  23.561  1.00  0.00    -0.370 N 
ATOM     27  O   UNL A   1      31.584  29.124  22.703  1.00  0.00    -0.275 OA
ATOM     28  H   UNL A   1      34.567  29.033  23.606  1.00  0.00     0.159 HD
ATOM     29  H   UNL A   1      33.362  30.135  24.096  1.00  0.00     0.159 HD
ENDBRANCH  24  25
ENDBRANCH  23  24
ENDBRANCH   6  23
ENDBRANCH   3   6
ENDBRANCH   1   2
BRANCH   1  30
ATOM     30  C   UNL A   1      36.373  22.749  23.385  1.00  0.00     0.023 C 
BRANCH  30  31
ATOM     31  C   UNL A   1      36.782  21.996  24.658  1.00  0.00     0.023 C 
BRANCH  31  32
ATOM     32  C   UNL A   1      37.722  22.767  25.572  1.00  0.00     0.116 C 
BRANCH  32  33
ATOM     33  N   UNL A   1      38.615  21.901  26.351  1.00  0.00    -0.352 N 
ATOM     34  C   UNL A   1      39.801  22.251  26.967  1.00  0.00     0.251 C 
ATOM     35  H   UNL A   1      38.336  20.962  26.447  1.00  0.00     0.163 HD
ATOM     36  O   UNL A   1      40.642  21.400  27.266  1.00  0.00    -0.269 OA
BRANCH  34  37
ATOM     37  C   UNL A   1      40.031  23.663  27.302  1.00  0.00     0.039 A 
ATOM     38  C   UNL A   1      39.064  24.656  27.131  1.00  0.00     0.014 A 
ATOM     39  C   UNL A   1      41.273  23.972  27.841  1.00  0.00     0.014 A 
ATOM     40  C   UNL A   1      39.356  25.952  27.558  1.00  0.00     0.010 A 
ATOM     41  C   UNL A   1      41.466  25.172  28.460  1.00  0.00     0.010 A 
ATOM     42  C   UNL A   1      40.566  26.195  28.224  1.00  0.00    -0.014 A 
BRANCH  42  43
ATOM     43  C   UNL A   1      40.898  27.486  28.806  1.00  0.00     0.031 A 
ATOM     44  C   UNL A   1      42.100  28.114  28.209  1.00  0.00     0.074 A 
ATOM     45  C   UNL A   1      40.051  28.152  29.624  1.00  0.00     0.049 A 
ATOM     46  N   UNL A   1      43.234  28.316  28.786  1.00  0.00    -0.248 NA
ATOM     47  C   UNL A   1      42.105  28.401  26.764  1.00  0.00     0.031 C 
ATOM     48  C   UNL A   1      38.695  27.777  30.045  1.00  0.00     0.029 A 
ATOM     49  N   UNL A   1      40.194  29.382  30.185  1.00  0.00    -0.354 N 
ATOM     50  C   UNL A   1      44.033  28.953  27.844  1.00  0.00     0.074 A 
ATOM     51  C   UNL A   1      43.368  28.792  26.578  1.00  0.00     0.031 C 
ATOM     52  C   UNL A   1      38.064  28.850  30.576  1.00  0.00     0.029 A 
ATOM     53  C   UNL A   1      39.024  29.930  30.704  1.00  0.00     0.049 A 
ATOM     54  H   UNL A   1      41.060  29.850  30.223  1.00  0.00     0.167 HD
ATOM     55  C   UNL A   1      45.034  29.786  28.244  1.00  0.00     0.037 A 
ATOM     56  C   UNL A   1      38.867  31.190  31.188  1.00  0.00     0.037 A 
ATOM     57  C   UNL A   1      45.339  29.581  29.641  1.00  0.00     0.049 A 
ATOM     58  C   UNL A   1      40.224  31.700  31.510  1.00  0.00     0.074 A 
ATOM     59  C   UNL A   1      45.767  28.502  30.390  1.00  0.00     0.029 A 
ATOM     60  N   UNL A   1      44.818  30.477  30.545  1.00  0.00    -0.354 N 
ATOM     61  N   UNL A   1      40.965  31.215  32.468  1.00  0.00    -0.248 NA
ATOM     62  C   UNL A   1      40.942  32.398  30.453  1.00  0.00     0.031 C 
ATOM     63  C   UNL A   1      45.036  28.589  31.612  1.00  0.00     0.029 A 
ATOM     64  C   UNL A   1      44.276  29.759  31.579  1.00  0.00     0.049 A 
ATOM     65  H   UNL A   1      44.831  31.457  30.464  1.00  0.00     0.167 HD
ATOM     66  C   UNL A   1      42.240  31.146  31.922  1.00  0.00     0.074 A 
ATOM     67  C   UNL A   1      42.178  31.955  30.706  1.00  0.00     0.031 C 
ATOM     68  C   UNL A   1      43.130  30.199  32.340  1.00  0.00     0.037 A 
BRANCH  55  69
ATOM     69  C   UNL A   1      45.446  31.044  27.515  1.00  0.00     0.064 A 
ATOM     70  C   UNL A   1      46.797  31.193  27.141  1.00  0.00     0.173 A 
ATOM     71  C   UNL A   1      44.666  32.219  27.451  1.00  0.00     0.173 A 
ATOM     72  F   UNL A   1      47.635  30.146  27.170  1.00  0.00    -0.203 F 
ATOM     73  C   UNL A   1      47.344  32.441  26.831  1.00  0.00     0.198 A 
ATOM     74  C   UNL A   1      45.204  33.451  27.088  1.00  0.00     0.198 A 
ATOM     75  F   UNL A   1      43.387  32.256  27.841  1.00  0.00    -0.203 F 
ATOM     76  F   UNL A   1      48.662  32.555  26.623  1.00  0.00    -0.200 F 
ATOM     77  C   UNL A   1      46.548  33.571  26.815  1.00  0.00     0.200 A 
ATOM     78  F   UNL A   1      44.417  34.538  27.094  1.00  0.00    -0.200 F 
ATOM     79  F   UNL A   1      47.082  34.778  26.587  1.00  0.00    -0.200 F 
ENDBRANCH  55  69
BRANCH  56  80
ATOM     80  C   UNL A   1      37.685  32.086  31.103  1.00  0.00     0.064 A 
ATOM     81  C   UNL A   1      37.339  32.723  29.899  1.00  0.00     0.173 A 
ATOM     82  C   UNL A   1      36.709  32.102  32.118  1.00  0.00     0.173 A 
ATOM     83  F   UNL A   1      38.192  32.719  28.864  1.00  0.00    -0.203 F 
ATOM     84  C   UNL A   1      36.081  33.310  29.711  1.00  0.00     0.198 A 
ATOM     85  C   UNL A   1      35.456  32.690  31.931  1.00  0.00     0.198 A 
ATOM     86  F   UNL A   1      36.918  31.461  33.277  1.00  0.00    -0.203 F 
ATOM     87  F   UNL A   1      35.766  33.852  28.526  1.00  0.00    -0.200 F 
ATOM     88  C   UNL A   1      35.137  33.282  30.723  1.00  0.00     0.200 A 
ATOM     89  F   UNL A   1      34.537  32.624  32.904  1.00  0.00    -0.200 F 
ATOM     90  F   UNL A   1      33.911  33.785  30.522  1.00  0.00    -0.200 F 
ENDBRANCH  56  80
BRANCH  68  91
ATOM     91  C   UNL A   1      42.789  29.406  33.573  1.00  0.00     0.064 A 
ATOM     92  C   UNL A   1      42.065  28.200  33.568  1.00  0.00     0.173 A 
ATOM     93  C   UNL A   1      43.349  29.811  34.792  1.00  0.00     0.173 A 
ATOM     94  F   UNL A   1      41.581  27.689  32.431  1.00  0.00    -0.203 F 
ATOM     95  C   UNL A   1      41.877  27.462  34.736  1.00  0.00     0.198 A 
ATOM     96  C   UNL A   1      43.192  29.054  35.949  1.00  0.00     0.198 A 
ATOM     97  F   UNL A   1      44.096  30.924  34.848  1.00  0.00    -0.203 F 
ATOM     98  F   UNL A   1      41.174  26.320  34.705  1.00  0.00    -0.200 F 
ATOM     99  C   UNL A   1      42.448  27.886  35.924  1.00  0.00     0.200 A 
ATOM    100  F   UNL A   1      43.789  29.443  37.083  1.00  0.00    -0.200 F 
ATOM    101  F   UNL A   1      42.303  27.156  37.039  1.00  0.00    -0.200 F 
ENDBRANCH  68  91
ENDBRANCH  42  43
ENDBRANCH  34  37
ENDBRANCH  32  33
ENDBRANCH  31  32
ENDBRANCH  30  31
ENDBRANCH   1  30
TORSDOF 19
ENDMDL
MODEL 3
REMARK VINA RESULT:     -12.1      1.822      4.358
REMARK SMILES CC(C)(O)C#Cc1ccc(C(=O)N[C@@H](CCC(N)=O)C(=O)NCCCCNC(=O)c2ccc(-c3c4nc(c(-c5c(F)c(F)c(F)c(F)c5F)c5ccc([nH]5)c(-c5c(F)c(F)c(F)c(F)c5F)c5nc(c(-c6c(F)c(F)c(F)c(F)c6F)c6ccc3[nH]6)C=C5)C=C4)cc2)s1
REMARK SMILES IDX 23 1 22 2 20 3 21 4 14 6 13 7 11 8 12 9 10 11 7 12 8 13
REMARK SMILES IDX 93 14 9 15 6 16 5 17 2 18 1 19 3 20 4 21 15 23 16 24 17 25
REMARK SMILES IDX 18 26 19 27 24 30 25 31 26 32 27 33 28 34 29 36 30 37 31 38
REMARK SMILES IDX 92 39 32 40 91 41 33 42 34 43 35 44 85 45 36 46 90 47 84 48
REMARK SMILES IDX 86 49 37 50 89 51 83 52 82 53 38 55 70 56 50 57 69 58 51 59
REMARK SMILES IDX 54 60 68 61 87 62 52 63 53 64 67 66 88 67 55 68 39 69 40 70
REMARK SMILES IDX 48 71 41 72 42 73 46 74 49 75 43 76 44 77 47 78 45 79 71 80
REMARK SMILES IDX 72 81 80 82 73 83 74 84 78 85 81 86 75 87 76 88 79 89 77 90
REMARK SMILES IDX 56 91 57 92 65 93 58 94 59 95 63 96 66 97 60 98 61 99 64 100
REMARK SMILES IDX 62 101
REMARK H PARENT 22 5 13 10 4 22 18 28 18 29 27 35 86 54 54 65
REMARK Flexibility Score: inf
ROOT
ATOM      1  C   UNL A   1      32.686  27.582  26.300  1.00  0.00     0.116 C 
ENDROOT
BRANCH   1   2
ATOM      2  N   UNL A   1      33.854  26.742  26.171  1.00  0.00    -0.354 N 
ATOM      3  C   UNL A   1      34.011  25.463  25.739  1.00  0.00     0.242 C 
ATOM      4  O   UNL A   1      35.171  25.048  25.653  1.00  0.00    -0.273 OA
ATOM      5  H   UNL A   1      34.692  27.178  26.448  1.00  0.00     0.163 HD
BRANCH   3   6
ATOM      6  C   UNL A   1      32.827  24.566  25.329  1.00  0.00     0.172 C 
BRANCH   6   7
ATOM      7  N   UNL A   1      33.044  23.865  24.047  1.00  0.00    -0.340 N 
ATOM      8  C   UNL A   1      33.165  24.350  22.763  1.00  0.00     0.262 C 
ATOM      9  O   UNL A   1      33.642  23.567  21.938  1.00  0.00    -0.268 OA
ATOM     10  H   UNL A   1      33.113  22.886  24.123  1.00  0.00     0.164 HD
BRANCH   8  11
ATOM     11  C   UNL A   1      32.837  25.716  22.432  1.00  0.00     0.093 A 
ATOM     12  C   UNL A   1      31.533  27.734  22.289  1.00  0.00     0.078 A 
ATOM     13  C   UNL A   1      32.858  28.036  22.509  1.00  0.00     0.030 A 
ATOM     14  S   UNL A   1      31.382  26.168  21.649  1.00  0.00    -0.121 S 
ATOM     15  C   UNL A   1      33.637  26.840  22.570  1.00  0.00     0.027 A 
BRANCH  12  16
ATOM     16  C   UNL A   1      30.431  28.599  22.459  1.00  0.00    -0.053 C 
ATOM     17  C   UNL A   1      29.348  29.328  22.458  1.00  0.00    -0.063 C 
BRANCH  17  18
ATOM     18  C   UNL A   1      28.088  30.175  22.458  1.00  0.00     0.120 C 
ATOM     19  C   UNL A   1      27.948  30.894  21.118  1.00  0.00     0.056 C 
ATOM     20  C   UNL A   1      28.133  31.168  23.617  1.00  0.00     0.056 C 
BRANCH  18  21
ATOM     21  O   UNL A   1      26.972  29.308  22.641  1.00  0.00    -0.378 OA
ATOM     22  H   UNL A   1      26.521  29.178  21.792  1.00  0.00     0.212 HD
ENDBRANCH  18  21
ENDBRANCH  17  18
ENDBRANCH  12  16
ENDBRANCH   8  11
ENDBRANCH   6   7
BRANCH   6  23
ATOM     23  C   UNL A   1      32.189  23.653  26.400  1.00  0.00     0.045 C 
BRANCH  23  24
ATOM     24  C   UNL A   1      32.612  22.192  26.503  1.00  0.00     0.102 C 
BRANCH  24  25
ATOM     25  C   UNL A   1      34.104  21.986  26.402  1.00  0.00     0.217 C 
ATOM     26  N   UNL A   1      34.800  22.347  27.513  1.00  0.00    -0.370 N 
ATOM     27  O   UNL A   1      34.690  21.539  25.427  1.00  0.00    -0.275 OA
ATOM     28  H   UNL A   1      34.325  22.706  28.295  1.00  0.00     0.159 HD
ATOM     29  H   UNL A   1      35.780  22.249  27.533  1.00  0.00     0.159 HD
ENDBRANCH  24  25
ENDBRANCH  23  24
ENDBRANCH   6  23
ENDBRANCH   3   6
ENDBRANCH   1   2
BRANCH   1  30
ATOM     30  C   UNL A   1      32.982  29.043  25.974  1.00  0.00     0.023 C 
BRANCH  30  31
ATOM     31  C   UNL A   1      32.910  30.009  27.163  1.00  0.00     0.023 C 
BRANCH  31  32
ATOM     32  C   UNL A   1      34.185  30.800  27.412  1.00  0.00     0.116 C 
BRANCH  32  33
ATOM     33  N   UNL A   1      34.080  31.733  28.539  1.00  0.00    -0.352 N 
ATOM     34  C   UNL A   1      34.906  31.817  29.645  1.00  0.00     0.251 C 
ATOM     35  H   UNL A   1      33.336  32.376  28.504  1.00  0.00     0.163 HD
ATOM     36  O   UNL A   1      34.529  32.360  30.686  1.00  0.00    -0.269 OA
BRANCH  34  37
ATOM     37  C   UNL A   1      36.270  31.277  29.547  1.00  0.00     0.039 A 
ATOM     38  C   UNL A   1      37.408  32.083  29.483  1.00  0.00     0.014 A 
ATOM     39  C   UNL A   1      36.383  29.893  29.553  1.00  0.00     0.014 A 
ATOM     40  C   UNL A   1      38.660  31.469  29.475  1.00  0.00     0.010 A 
ATOM     41  C   UNL A   1      37.597  29.312  29.775  1.00  0.00     0.010 A 
ATOM     42  C   UNL A   1      38.739  30.076  29.624  1.00  0.00    -0.014 A 
BRANCH  42  43
ATOM     43  C   UNL A   1      40.004  29.369  29.745  1.00  0.00     0.031 A 
ATOM     44  C   UNL A   1      40.455  29.196  31.146  1.00  0.00     0.074 A 
ATOM     45  C   UNL A   1      40.575  28.719  28.704  1.00  0.00     0.049 A 
ATOM     46  N   UNL A   1      41.478  29.747  31.702  1.00  0.00    -0.248 NA
ATOM     47  C   UNL A   1      39.586  28.465  32.083  1.00  0.00     0.031 C 
ATOM     48  C   UNL A   1      40.068  28.554  27.336  1.00  0.00     0.029 A 
ATOM     49  N   UNL A   1      41.707  27.969  28.682  1.00  0.00    -0.354 N 
ATOM     50  C   UNL A   1      41.510  29.263  33.005  1.00  0.00     0.074 A 
ATOM     51  C   UNL A   1      40.227  28.655  33.239  1.00  0.00     0.031 C 
ATOM     52  C   UNL A   1      40.751  27.569  26.708  1.00  0.00     0.029 A 
ATOM     53  C   UNL A   1      41.857  27.165  27.555  1.00  0.00     0.049 A 
ATOM     54  H   UNL A   1      42.373  27.993  29.407  1.00  0.00     0.167 HD
ATOM     55  C   UNL A   1      42.693  29.174  33.675  1.00  0.00     0.037 A 
ATOM     56  C   UNL A   1      42.819  26.227  27.353  1.00  0.00     0.037 A 
ATOM     57  C   UNL A   1      43.710  29.963  33.020  1.00  0.00     0.049 A 
ATOM     58  C   UNL A   1      43.928  26.538  28.291  1.00  0.00     0.074 A 
ATOM     59  C   UNL A   1      43.843  31.302  32.706  1.00  0.00     0.029 A 
ATOM     60  N   UNL A   1      44.610  29.303  32.217  1.00  0.00    -0.354 N 
ATOM     61  N   UNL A   1      44.673  27.604  28.193  1.00  0.00    -0.248 NA
ATOM     62  C   UNL A   1      43.875  25.928  29.612  1.00  0.00     0.031 C 
ATOM     63  C   UNL A   1      44.437  31.319  31.409  1.00  0.00     0.029 A 
ATOM     64  C   UNL A   1      44.714  30.002  31.043  1.00  0.00     0.049 A 
ATOM     65  H   UNL A   1      45.094  28.477  32.446  1.00  0.00     0.167 HD
ATOM     66  C   UNL A   1      44.812  28.054  29.499  1.00  0.00     0.074 A 
ATOM     67  C   UNL A   1      44.361  26.942  30.335  1.00  0.00     0.031 C 
ATOM     68  C   UNL A   1      44.987  29.381  29.768  1.00  0.00     0.037 A 
BRANCH  55  69
ATOM     69  C   UNL A   1      43.043  28.079  34.655  1.00  0.00     0.064 A 
ATOM     70  C   UNL A   1      43.418  28.442  35.964  1.00  0.00     0.173 A 
ATOM     71  C   UNL A   1      43.329  26.745  34.290  1.00  0.00     0.173 A 
ATOM     72  F   UNL A   1      43.202  29.685  36.419  1.00  0.00    -0.203 F 
ATOM     73  C   UNL A   1      44.120  27.569  36.800  1.00  0.00     0.198 A 
ATOM     74  C   UNL A   1      43.980  25.861  35.147  1.00  0.00     0.198 A 
ATOM     75  F   UNL A   1      43.099  26.270  33.061  1.00  0.00    -0.203 F 
ATOM     76  F   UNL A   1      44.581  28.006  37.979  1.00  0.00    -0.200 F 
ATOM     77  C   UNL A   1      44.409  26.282  36.386  1.00  0.00     0.200 A 
ATOM     78  F   UNL A   1      44.265  24.623  34.719  1.00  0.00    -0.200 F 
ATOM     79  F   UNL A   1      45.142  25.467  37.155  1.00  0.00    -0.200 F 
ENDBRANCH  55  69
BRANCH  56  80
ATOM     80  C   UNL A   1      42.724  24.923  26.647  1.00  0.00     0.064 A 
ATOM     81  C   UNL A   1      43.444  24.681  25.464  1.00  0.00     0.173 A 
ATOM     82  C   UNL A   1      42.160  23.795  27.273  1.00  0.00     0.173 A 
ATOM     83  F   UNL A   1      44.051  25.692  24.825  1.00  0.00    -0.203 F 
ATOM     84  C   UNL A   1      43.618  23.387  24.958  1.00  0.00     0.198 A 
ATOM     85  C   UNL A   1      42.331  22.504  26.767  1.00  0.00     0.198 A 
ATOM     86  F   UNL A   1      41.515  23.914  28.443  1.00  0.00    -0.203 F 
ATOM     87  F   UNL A   1      44.365  23.190  23.863  1.00  0.00    -0.200 F 
ATOM     88  C   UNL A   1      43.072  22.299  25.618  1.00  0.00     0.200 A 
ATOM     89  F   UNL A   1      41.830  21.455  27.433  1.00  0.00    -0.200 F 
ATOM     90  F   UNL A   1      43.291  21.054  25.171  1.00  0.00    -0.200 F 
ENDBRANCH  56  80
BRANCH  68  91
ATOM     91  C   UNL A   1      45.280  30.302  28.614  1.00  0.00     0.064 A 
ATOM     92  C   UNL A   1      44.298  30.952  27.846  1.00  0.00     0.173 A 
ATOM     93  C   UNL A   1      46.616  30.653  28.375  1.00  0.00     0.173 A 
ATOM     94  F   UNL A   1      42.996  30.751  28.075  1.00  0.00    -0.203 F 
ATOM     95  C   UNL A   1      44.642  31.875  26.859  1.00  0.00     0.198 A 
ATOM     96  C   UNL A   1      46.955  31.602  27.416  1.00  0.00     0.198 A 
ATOM     97  F   UNL A   1      47.594  30.107  29.114  1.00  0.00    -0.203 F 
ATOM     98  F   UNL A   1      43.685  32.474  26.134  1.00  0.00    -0.200 F 
ATOM     99  C   UNL A   1      45.971  32.205  26.651  1.00  0.00     0.200 A 
ATOM    100  F   UNL A   1      48.237  31.954  27.254  1.00  0.00    -0.200 F 
ATOM    101  F   UNL A   1      46.300  33.124  25.731  1.00  0.00    -0.200 F 
ENDBRANCH  68  91
ENDBRANCH  42  43
ENDBRANCH  34  37
ENDBRANCH  32  33
ENDBRANCH  31  32
ENDBRANCH  30  31
ENDBRANCH   1  30
TORSDOF 19
ENDMDL
