MODEL 1
REMARK VINA RESULT:     -12.2      0.000      0.000
REMARK SMILES O=C(C[C@@H]1C(=O)NC(=S)N1c1ccccc1)NCCCCNC(=O)c1ccc(-c2c3nc(c(-c4c(F)c(F)c(F)c(F)c4F)c4ccc([nH]4)c(-c4c(F)c(F)c(F)c(F)c4F)c4nc(c(-c5c(F)c(F)c(F)c(F)c5F)c5ccc2[nH]5)C=C4)C=C3)cc1
REMARK SMILES IDX 19 1 18 2 17 3 1 4 2 5 3 7 4 8 5 9 10 10 6 11 7 12 8 13 9 15
REMARK SMILES IDX 11 16 12 17 16 18 13 19 15 20 14 21 20 22 21 23 22 24 23 25
REMARK SMILES IDX 24 27 25 28 26 29 87 30 27 31 86 32 28 33 29 34 30 35 80 36
REMARK SMILES IDX 31 37 85 38 79 39 81 40 32 41 84 42 78 43 77 44 33 46 65 47
REMARK SMILES IDX 45 48 64 49 46 50 49 51 63 52 82 53 47 54 48 55 62 57 83 58
REMARK SMILES IDX 50 59 34 60 35 61 43 62 36 63 37 64 41 65 44 66 38 67 39 68
REMARK SMILES IDX 42 69 40 70 66 71 67 72 75 73 68 74 69 75 73 76 76 77 70 78
REMARK SMILES IDX 71 79 74 80 72 81 51 82 52 83 60 84 53 85 54 86 58 87 61 88
REMARK SMILES IDX 55 89 56 90 59 91 57 92
REMARK H PARENT 17 6 7 14 22 26 81 45 49 56
REMARK Flexibility Score: inf
ROOT
ATOM      1  C   UNL A   1      31.561  30.699  26.158  1.00  0.00     0.023 C 
ENDROOT
BRANCH   1   2
ATOM      2  C   UNL A   1      32.991  30.168  26.210  1.00  0.00     0.116 C 
BRANCH   2   3
ATOM      3  N   UNL A   1      33.357  29.431  25.013  1.00  0.00    -0.356 N 
ATOM      4  O   UNL A   1      33.683  27.455  26.123  1.00  0.00    -0.275 OA
ATOM      5  C   UNL A   1      33.644  28.088  25.071  1.00  0.00     0.222 C 
ATOM      6  H   UNL A   1      33.398  29.899  24.148  1.00  0.00     0.163 HD
BRANCH   5   7
ATOM      7  C   UNL A   1      34.027  27.421  23.769  1.00  0.00     0.135 C 
BRANCH   7   8
ATOM      8  C   UNL A   1      33.242  26.198  23.326  1.00  0.00     0.188 C 
ATOM      9  C   UNL A   1      31.720  26.361  23.345  1.00  0.00     0.249 C 
ATOM     10  N   UNL A   1      33.382  25.022  24.194  1.00  0.00    -0.306 N 
ATOM     11  O   UNL A   1      31.074  27.157  22.682  1.00  0.00    -0.272 OA
ATOM     12  N   UNL A   1      31.181  25.419  24.161  1.00  0.00    -0.301 N 
ATOM     13  C   UNL A   1      32.134  24.580  24.652  1.00  0.00     0.180 C 
ATOM     14  H   UNL A   1      30.221  25.351  24.371  1.00  0.00     0.172 HD
ATOM     15  S   UNL A   1      31.746  23.313  25.653  1.00  0.00    -0.040 S 
BRANCH  10  16
ATOM     16  C   UNL A   1      34.598  24.304  24.282  1.00  0.00     0.044 A 
ATOM     17  C   UNL A   1      35.400  24.406  25.424  1.00  0.00     0.026 A 
ATOM     18  C   UNL A   1      35.024  23.494  23.225  1.00  0.00     0.026 A 
ATOM     19  C   UNL A   1      36.607  23.704  25.506  1.00  0.00     0.002 A 
ATOM     20  C   UNL A   1      36.237  22.806  23.301  1.00  0.00     0.002 A 
ATOM     21  C   UNL A   1      37.026  22.908  24.444  1.00  0.00     0.000 A 
ENDBRANCH  10  16
ENDBRANCH   7   8
ENDBRANCH   5   7
ENDBRANCH   2   3
ENDBRANCH   1   2
BRANCH   1  22
ATOM     22  C   UNL A   1      31.402  32.182  26.501  1.00  0.00     0.023 C 
BRANCH  22  23
ATOM     23  C   UNL A   1      32.571  32.814  27.252  1.00  0.00     0.116 C 
BRANCH  23  24
ATOM     24  N   UNL A   1      32.330  34.198  27.626  1.00  0.00    -0.352 N 
ATOM     25  C   UNL A   1      32.961  34.976  28.568  1.00  0.00     0.251 C 
ATOM     26  H   UNL A   1      31.606  34.646  27.132  1.00  0.00     0.163 HD
ATOM     27  O   UNL A   1      32.531  36.097  28.825  1.00  0.00    -0.269 OA
BRANCH  25  28
ATOM     28  C   UNL A   1      34.137  34.458  29.304  1.00  0.00     0.039 A 
ATOM     29  C   UNL A   1      33.936  33.853  30.548  1.00  0.00     0.014 A 
ATOM     30  C   UNL A   1      35.430  34.572  28.786  1.00  0.00     0.014 A 
ATOM     31  C   UNL A   1      35.017  33.297  31.237  1.00  0.00     0.010 A 
ATOM     32  C   UNL A   1      36.497  33.959  29.440  1.00  0.00     0.010 A 
ATOM     33  C   UNL A   1      36.301  33.311  30.669  1.00  0.00    -0.014 A 
BRANCH  33  34
ATOM     34  C   UNL A   1      37.446  32.642  31.339  1.00  0.00     0.031 A 
ATOM     35  C   UNL A   1      38.151  31.493  30.676  1.00  0.00     0.074 A 
ATOM     36  C   UNL A   1      37.808  33.025  32.579  1.00  0.00     0.049 A 
ATOM     37  N   UNL A   1      39.110  30.730  31.137  1.00  0.00    -0.248 NA
ATOM     38  C   UNL A   1      37.699  31.136  29.322  1.00  0.00     0.031 C 
ATOM     39  C   UNL A   1      37.178  34.097  33.352  1.00  0.00     0.029 A 
ATOM     40  N   UNL A   1      38.786  32.545  33.415  1.00  0.00    -0.354 N 
ATOM     41  C   UNL A   1      39.364  29.797  30.141  1.00  0.00     0.074 A 
ATOM     42  C   UNL A   1      38.429  30.059  29.068  1.00  0.00     0.031 C 
ATOM     43  C   UNL A   1      37.794  34.204  34.540  1.00  0.00     0.029 A 
ATOM     44  C   UNL A   1      38.837  33.187  34.629  1.00  0.00     0.049 A 
ATOM     45  H   UNL A   1      39.393  31.810  33.169  1.00  0.00     0.167 HD
ATOM     46  C   UNL A   1      40.305  28.823  30.115  1.00  0.00     0.037 A 
ATOM     47  C   UNL A   1      39.630  32.974  35.697  1.00  0.00     0.037 A 
ATOM     48  C   UNL A   1      41.256  28.581  31.169  1.00  0.00     0.049 A 
ATOM     49  C   UNL A   1      40.670  31.888  35.640  1.00  0.00     0.074 A 
ATOM     50  C   UNL A   1      42.286  27.657  31.207  1.00  0.00     0.029 A 
ATOM     51  N   UNL A   1      41.292  29.269  32.372  1.00  0.00    -0.354 N 
ATOM     52  N   UNL A   1      40.940  31.051  34.669  1.00  0.00    -0.248 NA
ATOM     53  C   UNL A   1      41.519  31.721  36.829  1.00  0.00     0.031 C 
ATOM     54  C   UNL A   1      42.922  27.760  32.449  1.00  0.00     0.029 A 
ATOM     55  C   UNL A   1      42.316  28.777  33.167  1.00  0.00     0.049 A 
ATOM     56  H   UNL A   1      40.681  29.999  32.625  1.00  0.00     0.167 HD
ATOM     57  C   UNL A   1      42.003  30.279  35.115  1.00  0.00     0.074 A 
ATOM     58  C   UNL A   1      42.338  30.754  36.442  1.00  0.00     0.031 C 
ATOM     59  C   UNL A   1      42.643  29.266  34.482  1.00  0.00     0.037 A 
BRANCH  46  60
ATOM     60  C   UNL A   1      40.359  27.944  28.899  1.00  0.00     0.064 A 
ATOM     61  C   UNL A   1      39.633  26.746  28.827  1.00  0.00     0.173 A 
ATOM     62  C   UNL A   1      41.115  28.322  27.780  1.00  0.00     0.173 A 
ATOM     63  F   UNL A   1      38.903  26.335  29.875  1.00  0.00    -0.203 F 
ATOM     64  C   UNL A   1      39.683  25.945  27.690  1.00  0.00     0.198 A 
ATOM     65  C   UNL A   1      41.142  27.532  26.634  1.00  0.00     0.198 A 
ATOM     66  F   UNL A   1      41.824  29.461  27.795  1.00  0.00    -0.203 F 
ATOM     67  F   UNL A   1      39.018  24.781  27.662  1.00  0.00    -0.200 F 
ATOM     68  C   UNL A   1      40.432  26.342  26.592  1.00  0.00     0.200 A 
ATOM     69  F   UNL A   1      41.856  27.922  25.568  1.00  0.00    -0.200 F 
ATOM     70  F   UNL A   1      40.476  25.572  25.495  1.00  0.00    -0.200 F 
ENDBRANCH  46  60
BRANCH  47  71
ATOM     71  C   UNL A   1      39.486  33.824  36.906  1.00  0.00     0.064 A 
ATOM     72  C   UNL A   1      40.144  35.058  36.998  1.00  0.00     0.173 A 
ATOM     73  C   UNL A   1      38.695  33.422  37.992  1.00  0.00     0.173 A 
ATOM     74  F   UNL A   1      40.929  35.474  35.993  1.00  0.00    -0.203 F 
ATOM     75  C   UNL A   1      40.028  35.852  38.137  1.00  0.00     0.198 A 
ATOM     76  C   UNL A   1      38.560  34.228  39.120  1.00  0.00     0.198 A 
ATOM     77  F   UNL A   1      38.042  32.251  37.951  1.00  0.00    -0.203 F 
ATOM     78  F   UNL A   1      40.701  37.008  38.216  1.00  0.00    -0.200 F 
ATOM     79  C   UNL A   1      39.232  35.439  39.195  1.00  0.00     0.200 A 
ATOM     80  F   UNL A   1      37.780  33.832  40.136  1.00  0.00    -0.200 F 
ATOM     81  F   UNL A   1      39.119  36.204  40.290  1.00  0.00    -0.200 F 
ENDBRANCH  47  71
BRANCH  59  82
ATOM     82  C   UNL A   1      43.792  28.624  35.201  1.00  0.00     0.064 A 
ATOM     83  C   UNL A   1      43.606  27.522  36.048  1.00  0.00     0.173 A 
ATOM     84  C   UNL A   1      45.101  29.092  35.009  1.00  0.00     0.173 A 
ATOM     85  F   UNL A   1      42.372  27.048  36.277  1.00  0.00    -0.203 F 
ATOM     86  C   UNL A   1      44.686  26.927  36.695  1.00  0.00     0.198 A 
ATOM     87  C   UNL A   1      46.182  28.478  35.635  1.00  0.00     0.198 A 
ATOM     88  F   UNL A   1      45.332  30.141  34.203  1.00  0.00    -0.203 F 
ATOM     89  F   UNL A   1      44.480  25.902  37.534  1.00  0.00    -0.200 F 
ATOM     90  C   UNL A   1      45.972  27.400  36.482  1.00  0.00     0.200 A 
ATOM     91  F   UNL A   1      47.425  28.930  35.420  1.00  0.00    -0.200 F 
ATOM     92  F   UNL A   1      47.011  26.821  37.101  1.00  0.00    -0.200 F 
ENDBRANCH  59  82
ENDBRANCH  33  34
ENDBRANCH  25  28
ENDBRANCH  23  24
ENDBRANCH  22  23
ENDBRANCH   1  22
TORSDOF 13
ENDMDL
MODEL 2
REMARK VINA RESULT:     -12.2      0.201      2.049
REMARK SMILES O=C(C[C@@H]1C(=O)NC(=S)N1c1ccccc1)NCCCCNC(=O)c1ccc(-c2c3nc(c(-c4c(F)c(F)c(F)c(F)c4F)c4ccc([nH]4)c(-c4c(F)c(F)c(F)c(F)c4F)c4nc(c(-c5c(F)c(F)c(F)c(F)c5F)c5ccc2[nH]5)C=C4)C=C3)cc1
REMARK SMILES IDX 19 1 18 2 17 3 1 4 2 5 3 7 4 8 5 9 10 10 6 11 7 12 8 13 9 15
REMARK SMILES IDX 11 16 12 17 16 18 13 19 15 20 14 21 20 22 21 23 22 24 23 25
REMARK SMILES IDX 24 27 25 28 26 29 87 30 27 31 86 32 28 33 29 34 30 35 80 36
REMARK SMILES IDX 31 37 85 38 79 39 81 40 32 41 84 42 78 43 77 44 33 46 65 47
REMARK SMILES IDX 45 48 64 49 46 50 49 51 63 52 82 53 47 54 48 55 62 57 83 58
REMARK SMILES IDX 50 59 34 60 35 61 43 62 36 63 37 64 41 65 44 66 38 67 39 68
REMARK SMILES IDX 42 69 40 70 66 71 67 72 75 73 68 74 69 75 73 76 76 77 70 78
REMARK SMILES IDX 71 79 74 80 72 81 51 82 52 83 60 84 53 85 54 86 58 87 61 88
REMARK SMILES IDX 55 89 56 90 59 91 57 92
REMARK H PARENT 17 6 7 14 22 26 81 45 49 56
REMARK Flexibility Score: inf
ROOT
ATOM      1  C   UNL A   1      31.594  30.676  26.245  1.00  0.00     0.023 C 
ENDROOT
BRANCH   1   2
ATOM      2  C   UNL A   1      33.046  30.215  26.154  1.00  0.00     0.116 C 
BRANCH   2   3
ATOM      3  N   UNL A   1      33.298  29.394  24.983  1.00  0.00    -0.356 N 
ATOM      4  O   UNL A   1      33.856  27.534  26.195  1.00  0.00    -0.275 OA
ATOM      5  C   UNL A   1      33.657  28.074  25.110  1.00  0.00     0.222 C 
ATOM      6  H   UNL A   1      33.211  29.789  24.085  1.00  0.00     0.163 HD
BRANCH   5   7
ATOM      7  C   UNL A   1      33.910  27.315  23.827  1.00  0.00     0.135 C 
BRANCH   7   8
ATOM      8  C   UNL A   1      33.111  26.048  23.567  1.00  0.00     0.188 C 
ATOM      9  C   UNL A   1      31.601  26.177  23.781  1.00  0.00     0.249 C 
ATOM     10  N   UNL A   1      33.402  24.933  24.477  1.00  0.00    -0.306 N 
ATOM     11  O   UNL A   1      30.849  26.915  23.165  1.00  0.00    -0.272 OA
ATOM     12  N   UNL A   1      31.205  25.277  24.717  1.00  0.00    -0.301 N 
ATOM     13  C   UNL A   1      32.241  24.493  25.125  1.00  0.00     0.180 C 
ATOM     14  H   UNL A   1      30.285  25.200  25.059  1.00  0.00     0.172 HD
ATOM     15  S   UNL A   1      32.029  23.283  26.242  1.00  0.00    -0.040 S 
BRANCH  10  16
ATOM     16  C   UNL A   1      34.641  24.250  24.443  1.00  0.00     0.044 A 
ATOM     17  C   UNL A   1      34.967  23.426  23.361  1.00  0.00     0.026 A 
ATOM     18  C   UNL A   1      35.550  24.374  25.499  1.00  0.00     0.026 A 
ATOM     19  C   UNL A   1      36.188  22.744  23.334  1.00  0.00     0.002 A 
ATOM     20  C   UNL A   1      36.762  23.679  25.479  1.00  0.00     0.002 A 
ATOM     21  C   UNL A   1      37.082  22.867  24.394  1.00  0.00     0.000 A 
ENDBRANCH  10  16
ENDBRANCH   7   8
ENDBRANCH   5   7
ENDBRANCH   2   3
ENDBRANCH   1   2
BRANCH   1  22
ATOM     22  C   UNL A   1      31.397  32.147  26.618  1.00  0.00     0.023 C 
BRANCH  22  23
ATOM     23  C   UNL A   1      32.611  32.840  27.230  1.00  0.00     0.116 C 
BRANCH  23  24
ATOM     24  N   UNL A   1      32.346  34.214  27.627  1.00  0.00    -0.352 N 
ATOM     25  C   UNL A   1      32.967  34.987  28.580  1.00  0.00     0.251 C 
ATOM     26  H   UNL A   1      31.612  34.656  27.143  1.00  0.00     0.163 HD
ATOM     27  O   UNL A   1      32.518  36.096  28.856  1.00  0.00    -0.269 OA
BRANCH  25  28
ATOM     28  C   UNL A   1      34.156  34.480  29.303  1.00  0.00     0.039 A 
ATOM     29  C   UNL A   1      33.972  33.867  30.546  1.00  0.00     0.014 A 
ATOM     30  C   UNL A   1      35.442  34.609  28.773  1.00  0.00     0.014 A 
ATOM     31  C   UNL A   1      35.065  33.320  31.222  1.00  0.00     0.010 A 
ATOM     32  C   UNL A   1      36.521  34.006  29.415  1.00  0.00     0.010 A 
ATOM     33  C   UNL A   1      36.344  33.350  30.643  1.00  0.00    -0.014 A 
BRANCH  33  34
ATOM     34  C   UNL A   1      37.503  32.691  31.299  1.00  0.00     0.031 A 
ATOM     35  C   UNL A   1      38.199  31.538  30.635  1.00  0.00     0.074 A 
ATOM     36  C   UNL A   1      37.885  33.087  32.530  1.00  0.00     0.049 A 
ATOM     37  N   UNL A   1      39.168  30.782  31.087  1.00  0.00    -0.248 NA
ATOM     38  C   UNL A   1      37.726  31.167  29.293  1.00  0.00     0.031 C 
ATOM     39  C   UNL A   1      37.264  34.164  33.303  1.00  0.00     0.029 A 
ATOM     40  N   UNL A   1      38.878  32.617  33.353  1.00  0.00    -0.354 N 
ATOM     41  C   UNL A   1      39.408  29.841  30.096  1.00  0.00     0.074 A 
ATOM     42  C   UNL A   1      38.455  30.090  29.036  1.00  0.00     0.031 C 
ATOM     43  C   UNL A   1      37.900  34.284  34.479  1.00  0.00     0.029 A 
ATOM     44  C   UNL A   1      38.947  33.271  34.560  1.00  0.00     0.049 A 
ATOM     45  H   UNL A   1      39.483  31.882  33.104  1.00  0.00     0.167 HD
ATOM     46  C   UNL A   1      40.352  28.869  30.062  1.00  0.00     0.037 A 
ATOM     47  C   UNL A   1      39.759  33.070  35.616  1.00  0.00     0.037 A 
ATOM     48  C   UNL A   1      41.321  28.640  31.103  1.00  0.00     0.049 A 
ATOM     49  C   UNL A   1      40.801  31.987  35.552  1.00  0.00     0.074 A 
ATOM     50  C   UNL A   1      42.355  27.719  31.132  1.00  0.00     0.029 A 
ATOM     51  N   UNL A   1      41.376  29.339  32.298  1.00  0.00    -0.354 N 
ATOM     52  N   UNL A   1      41.057  31.142  34.584  1.00  0.00    -0.248 NA
ATOM     53  C   UNL A   1      41.671  31.834  36.728  1.00  0.00     0.031 C 
ATOM     54  C   UNL A   1      43.012  27.836  32.362  1.00  0.00     0.029 A 
ATOM     55  C   UNL A   1      42.415  28.858  33.081  1.00  0.00     0.049 A 
ATOM     56  H   UNL A   1      40.767  30.070  32.555  1.00  0.00     0.167 HD
ATOM     57  C   UNL A   1      42.130  30.377  35.020  1.00  0.00     0.074 A 
ATOM     58  C   UNL A   1      42.486  30.865  36.335  1.00  0.00     0.031 C 
ATOM     59  C   UNL A   1      42.762  29.360  34.385  1.00  0.00     0.037 A 
BRANCH  46  60
ATOM     60  C   UNL A   1      40.388  27.979  28.854  1.00  0.00     0.064 A 
ATOM     61  C   UNL A   1      41.143  28.311  27.720  1.00  0.00     0.173 A 
ATOM     62  C   UNL A   1      39.689  26.763  28.845  1.00  0.00     0.173 A 
ATOM     63  F   UNL A   1      41.821  29.468  27.675  1.00  0.00    -0.203 F 
ATOM     64  C   UNL A   1      41.176  27.472  26.610  1.00  0.00     0.198 A 
ATOM     65  C   UNL A   1      39.746  25.913  27.744  1.00  0.00     0.198 A 
ATOM     66  F   UNL A   1      38.955  26.396  29.907  1.00  0.00    -0.203 F 
ATOM     67  F   UNL A   1      41.868  27.831  25.520  1.00  0.00    -0.200 F 
ATOM     68  C   UNL A   1      40.483  26.270  26.626  1.00  0.00     0.200 A 
ATOM     69  F   UNL A   1      39.085  24.746  27.765  1.00  0.00    -0.200 F 
ATOM     70  F   UNL A   1      40.520  25.460  25.558  1.00  0.00    -0.200 F 
ENDBRANCH  46  60
BRANCH  47  71
ATOM     71  C   UNL A   1      39.633  33.931  36.820  1.00  0.00     0.064 A 
ATOM     72  C   UNL A   1      38.848  33.531  37.910  1.00  0.00     0.173 A 
ATOM     73  C   UNL A   1      40.290  35.167  36.905  1.00  0.00     0.173 A 
ATOM     74  F   UNL A   1      38.184  32.367  37.865  1.00  0.00    -0.203 F 
ATOM     75  C   UNL A   1      38.711  34.343  39.034  1.00  0.00     0.198 A 
ATOM     76  C   UNL A   1      40.172  35.967  38.040  1.00  0.00     0.198 A 
ATOM     77  F   UNL A   1      41.056  35.593  35.890  1.00  0.00    -0.203 F 
ATOM     78  F   UNL A   1      37.921  33.957  40.044  1.00  0.00    -0.200 F 
ATOM     79  C   UNL A   1      39.378  35.557  39.101  1.00  0.00     0.200 A 
ATOM     80  F   UNL A   1      40.828  37.134  38.106  1.00  0.00    -0.200 F 
ATOM     81  F   UNL A   1      39.249  36.337  40.183  1.00  0.00    -0.200 F 
ENDBRANCH  47  71
BRANCH  59  82
ATOM     82  C   UNL A   1      43.926  28.728  35.090  1.00  0.00     0.064 A 
ATOM     83  C   UNL A   1      45.232  29.217  34.937  1.00  0.00     0.173 A 
ATOM     84  C   UNL A   1      43.727  27.646  35.960  1.00  0.00     0.173 A 
ATOM     85  F   UNL A   1      45.475  30.240  34.104  1.00  0.00    -0.203 F 
ATOM     86  C   UNL A   1      46.299  28.630  35.612  1.00  0.00     0.198 A 
ATOM     87  C   UNL A   1      44.791  27.079  36.655  1.00  0.00     0.198 A 
ATOM     88  F   UNL A   1      42.495  27.145  36.145  1.00  0.00    -0.203 F 
ATOM     89  F   UNL A   1      47.544  29.086  35.417  1.00  0.00    -0.200 F 
ATOM     90  C   UNL A   1      46.076  27.567  36.475  1.00  0.00     0.200 A 
ATOM     91  F   UNL A   1      44.573  26.059  37.496  1.00  0.00    -0.200 F 
ATOM     92  F   UNL A   1      47.105  27.008  37.129  1.00  0.00    -0.200 F 
ENDBRANCH  59  82
ENDBRANCH  33  34
ENDBRANCH  25  28
ENDBRANCH  23  24
ENDBRANCH  22  23
ENDBRANCH   1  22
TORSDOF 13
ENDMDL
MODEL 3
REMARK VINA RESULT:     -12.1      5.720     11.259
REMARK SMILES O=C(C[C@@H]1C(=O)NC(=S)N1c1ccccc1)NCCCCNC(=O)c1ccc(-c2c3nc(c(-c4c(F)c(F)c(F)c(F)c4F)c4ccc([nH]4)c(-c4c(F)c(F)c(F)c(F)c4F)c4nc(c(-c5c(F)c(F)c(F)c(F)c5F)c5ccc2[nH]5)C=C4)C=C3)cc1
REMARK SMILES IDX 19 1 18 2 17 3 1 4 2 5 3 7 4 8 5 9 10 10 6 11 7 12 8 13 9 15
REMARK SMILES IDX 11 16 12 17 16 18 13 19 15 20 14 21 20 22 21 23 22 24 23 25
REMARK SMILES IDX 24 27 25 28 26 29 87 30 27 31 86 32 28 33 29 34 30 35 80 36
REMARK SMILES IDX 31 37 85 38 79 39 81 40 32 41 84 42 78 43 77 44 33 46 65 47
REMARK SMILES IDX 45 48 64 49 46 50 49 51 63 52 82 53 47 54 48 55 62 57 83 58
REMARK SMILES IDX 50 59 34 60 35 61 43 62 36 63 37 64 41 65 44 66 38 67 39 68
REMARK SMILES IDX 42 69 40 70 66 71 67 72 75 73 68 74 69 75 73 76 76 77 70 78
REMARK SMILES IDX 71 79 74 80 72 81 51 82 52 83 60 84 53 85 54 86 58 87 61 88
REMARK SMILES IDX 55 89 56 90 59 91 57 92
REMARK H PARENT 17 6 7 14 22 26 81 45 49 56
REMARK Flexibility Score: inf
ROOT
ATOM      1  C   UNL A   1      37.042  20.623  24.789  1.00  0.00     0.023 C 
ENDROOT
BRANCH   1   2
ATOM      2  C   UNL A   1      37.108  21.801  25.758  1.00  0.00     0.116 C 
BRANCH   2   3
ATOM      3  N   UNL A   1      35.807  22.146  26.305  1.00  0.00    -0.356 N 
ATOM      4  O   UNL A   1      35.810  24.262  25.431  1.00  0.00    -0.275 OA
ATOM      5  C   UNL A   1      35.239  23.372  26.055  1.00  0.00     0.222 C 
ATOM      6  H   UNL A   1      35.326  21.493  26.863  1.00  0.00     0.163 HD
BRANCH   5   7
ATOM      7  C   UNL A   1      33.889  23.634  26.685  1.00  0.00     0.135 C 
BRANCH   7   8
ATOM      8  C   UNL A   1      32.736  24.037  25.781  1.00  0.00     0.188 C 
ATOM      9  C   UNL A   1      32.564  23.177  24.526  1.00  0.00     0.249 C 
ATOM     10  N   UNL A   1      32.863  25.363  25.166  1.00  0.00    -0.306 N 
ATOM     11  O   UNL A   1      32.317  21.982  24.501  1.00  0.00    -0.272 OA
ATOM     12  N   UNL A   1      32.650  23.972  23.427  1.00  0.00    -0.301 N 
ATOM     13  C   UNL A   1      32.787  25.282  23.769  1.00  0.00     0.180 C 
ATOM     14  H   UNL A   1      32.616  23.642  22.500  1.00  0.00     0.172 HD
ATOM     15  S   UNL A   1      32.881  26.477  22.619  1.00  0.00    -0.040 S 
BRANCH  10  16
ATOM     16  C   UNL A   1      32.776  26.550  25.932  1.00  0.00     0.044 A 
ATOM     17  C   UNL A   1      31.572  26.912  26.544  1.00  0.00     0.026 A 
ATOM     18  C   UNL A   1      33.888  27.385  26.076  1.00  0.00     0.026 A 
ATOM     19  C   UNL A   1      31.485  28.091  27.293  1.00  0.00     0.002 A 
ATOM     20  C   UNL A   1      33.796  28.570  26.810  1.00  0.00     0.002 A 
ATOM     21  C   UNL A   1      32.595  28.920  27.422  1.00  0.00     0.000 A 
ENDBRANCH  10  16
ENDBRANCH   7   8
ENDBRANCH   5   7
ENDBRANCH   2   3
ENDBRANCH   1   2
BRANCH   1  22
ATOM     22  C   UNL A   1      38.133  19.566  24.972  1.00  0.00     0.023 C 
BRANCH  22  23
ATOM     23  C   UNL A   1      39.366  20.018  25.749  1.00  0.00     0.116 C 
BRANCH  23  24
ATOM     24  N   UNL A   1      40.390  18.990  25.848  1.00  0.00    -0.352 N 
ATOM     25  C   UNL A   1      41.736  19.112  26.099  1.00  0.00     0.251 C 
ATOM     26  H   UNL A   1      40.071  18.068  25.714  1.00  0.00     0.163 HD
ATOM     27  O   UNL A   1      42.465  18.128  26.023  1.00  0.00    -0.269 OA
BRANCH  25  28
ATOM     28  C   UNL A   1      42.322  20.432  26.426  1.00  0.00     0.039 A 
ATOM     29  C   UNL A   1      42.860  21.201  25.389  1.00  0.00     0.014 A 
ATOM     30  C   UNL A   1      42.354  20.911  27.738  1.00  0.00     0.014 A 
ATOM     31  C   UNL A   1      43.362  22.478  25.656  1.00  0.00     0.010 A 
ATOM     32  C   UNL A   1      42.793  22.209  27.992  1.00  0.00     0.010 A 
ATOM     33  C   UNL A   1      43.295  23.008  26.954  1.00  0.00    -0.014 A 
BRANCH  33  34
ATOM     34  C   UNL A   1      43.735  24.398  27.242  1.00  0.00     0.031 A 
ATOM     35  C   UNL A   1      42.750  25.420  27.734  1.00  0.00     0.074 A 
ATOM     36  C   UNL A   1      45.009  24.759  26.992  1.00  0.00     0.049 A 
ATOM     37  N   UNL A   1      42.924  26.699  27.957  1.00  0.00    -0.248 NA
ATOM     38  C   UNL A   1      41.380  24.949  27.984  1.00  0.00     0.031 C 
ATOM     39  C   UNL A   1      46.052  23.874  26.471  1.00  0.00     0.029 A 
ATOM     40  N   UNL A   1      45.639  25.971  27.128  1.00  0.00    -0.354 N 
ATOM     41  C   UNL A   1      41.687  27.186  28.356  1.00  0.00     0.074 A 
ATOM     42  C   UNL A   1      40.759  26.076  28.303  1.00  0.00     0.031 C 
ATOM     43  C   UNL A   1      47.195  24.568  26.348  1.00  0.00     0.029 A 
ATOM     44  C   UNL A   1      46.958  25.952  26.744  1.00  0.00     0.049 A 
ATOM     45  H   UNL A   1      45.190  26.778  27.468  1.00  0.00     0.167 HD
ATOM     46  C   UNL A   1      41.358  28.439  28.751  1.00  0.00     0.037 A 
ATOM     47  C   UNL A   1      47.872  26.941  26.708  1.00  0.00     0.037 A 
ATOM     48  C   UNL A   1      42.287  29.536  28.834  1.00  0.00     0.049 A 
ATOM     49  C   UNL A   1      47.482  28.323  27.157  1.00  0.00     0.074 A 
ATOM     50  C   UNL A   1      42.061  30.828  29.281  1.00  0.00     0.029 A 
ATOM     51  N   UNL A   1      43.621  29.471  28.461  1.00  0.00    -0.354 N 
ATOM     52  N   UNL A   1      46.323  28.757  27.589  1.00  0.00    -0.248 NA
ATOM     53  C   UNL A   1      48.531  29.353  27.116  1.00  0.00     0.031 C 
ATOM     54  C   UNL A   1      43.249  31.554  29.142  1.00  0.00     0.029 A 
ATOM     55  C   UNL A   1      44.226  30.704  28.650  1.00  0.00     0.049 A 
ATOM     56  H   UNL A   1      44.072  28.668  28.113  1.00  0.00     0.167 HD
ATOM     57  C   UNL A   1      46.509  30.097  27.896  1.00  0.00     0.074 A 
ATOM     58  C   UNL A   1      47.895  30.405  27.613  1.00  0.00     0.031 C 
ATOM     59  C   UNL A   1      45.609  30.993  28.371  1.00  0.00     0.037 A 
BRANCH  46  60
ATOM     60  C   UNL A   1      39.929  28.693  29.133  1.00  0.00     0.064 A 
ATOM     61  C   UNL A   1      38.992  29.163  28.201  1.00  0.00     0.173 A 
ATOM     62  C   UNL A   1      39.482  28.430  30.436  1.00  0.00     0.173 A 
ATOM     63  F   UNL A   1      39.372  29.441  26.944  1.00  0.00    -0.203 F 
ATOM     64  C   UNL A   1      37.667  29.385  28.564  1.00  0.00     0.198 A 
ATOM     65  C   UNL A   1      38.150  28.626  30.790  1.00  0.00     0.198 A 
ATOM     66  F   UNL A   1      40.336  27.974  31.365  1.00  0.00    -0.203 F 
ATOM     67  F   UNL A   1      36.801  29.878  27.669  1.00  0.00    -0.200 F 
ATOM     68  C   UNL A   1      37.246  29.110  29.857  1.00  0.00     0.200 A 
ATOM     69  F   UNL A   1      37.741  28.348  32.036  1.00  0.00    -0.200 F 
ATOM     70  F   UNL A   1      35.968  29.319  30.205  1.00  0.00    -0.200 F 
ENDBRANCH  46  60
BRANCH  47  71
ATOM     71  C   UNL A   1      49.255  26.654  26.251  1.00  0.00     0.064 A 
ATOM     72  C   UNL A   1      49.632  26.879  24.920  1.00  0.00     0.173 A 
ATOM     73  C   UNL A   1      50.225  26.150  27.129  1.00  0.00     0.173 A 
ATOM     74  F   UNL A   1      48.733  27.340  24.039  1.00  0.00    -0.203 F 
ATOM     75  C   UNL A   1      50.923  26.594  24.480  1.00  0.00     0.198 A 
ATOM     76  C   UNL A   1      51.523  25.888  26.694  1.00  0.00     0.198 A 
ATOM     77  F   UNL A   1      49.915  25.921  28.414  1.00  0.00    -0.203 F 
ATOM     78  F   UNL A   1      51.246  26.778  23.193  1.00  0.00    -0.200 F 
ATOM     79  C   UNL A   1      51.869  26.105  25.369  1.00  0.00     0.200 A 
ATOM     80  F   UNL A   1      52.437  25.428  27.559  1.00  0.00    -0.200 F 
ATOM     81  F   UNL A   1      53.112  25.833  24.946  1.00  0.00    -0.200 F 
ENDBRANCH  47  71
BRANCH  59  82
ATOM     82  C   UNL A   1      46.102  32.383  28.645  1.00  0.00     0.064 A 
ATOM     83  C   UNL A   1      46.030  33.393  27.674  1.00  0.00     0.173 A 
ATOM     84  C   UNL A   1      46.617  32.718  29.906  1.00  0.00     0.173 A 
ATOM     85  F   UNL A   1      45.560  33.118  26.448  1.00  0.00    -0.203 F 
ATOM     86  C   UNL A   1      46.476  34.683  27.950  1.00  0.00     0.198 A 
ATOM     87  C   UNL A   1      47.037  34.015  30.188  1.00  0.00     0.198 A 
ATOM     88  F   UNL A   1      46.702  31.788  30.870  1.00  0.00    -0.203 F 
ATOM     89  F   UNL A   1      46.437  35.621  26.994  1.00  0.00    -0.200 F 
ATOM     90  C   UNL A   1      46.973  34.994  29.208  1.00  0.00     0.200 A 
ATOM     91  F   UNL A   1      47.506  34.316  31.406  1.00  0.00    -0.200 F 
ATOM     92  F   UNL A   1      47.396  36.238  29.473  1.00  0.00    -0.200 F 
ENDBRANCH  59  82
ENDBRANCH  33  34
ENDBRANCH  25  28
ENDBRANCH  23  24
ENDBRANCH  22  23
ENDBRANCH   1  22
TORSDOF 13
ENDMDL
