MODEL 1
REMARK VINA RESULT:     -12.9      0.000      0.000
REMARK SMILES C[C@H](CCC(=O)NCCCCNC(=O)c1ccc(-c2c3nc(c(-c4c(F)c(F)c(F)c(F)c4F)c4ccc([nH]4)c(-c4c(F)c(F)c(F)c(F)c4F)c4nc(c(-c5c(F)c(F)c(F)c(F)c5F)c5ccc2[nH]5)C=C4)C=C3)cc1)[C@H]1CC[C@@H]2[C@@H]3C[C@H](O)[C@@H]4C[C@H](O)CC[C@]4(C)[C@H]3CC[C@]21C
REMARK SMILES IDX 8 1 7 2 5 3 6 4 4 6 3 7 2 8 1 9 78 10 79 11 97 12 80 13
REMARK SMILES IDX 81 14 96 15 98 16 82 17 95 18 83 19 94 20 84 21 92 22 86 23
REMARK SMILES IDX 91 24 93 25 87 26 90 27 88 28 85 29 89 31 9 33 10 34 11 35
REMARK SMILES IDX 12 36 13 37 14 39 15 40 16 41 77 42 17 43 76 44 18 45 19 46
REMARK SMILES IDX 20 47 70 48 21 49 75 50 69 51 71 52 22 53 74 54 68 55 67 56
REMARK SMILES IDX 23 58 55 59 35 60 54 61 36 62 39 63 53 64 72 65 37 66 38 67
REMARK SMILES IDX 52 69 73 70 40 71 24 72 25 73 33 74 26 75 27 76 31 77 34 78
REMARK SMILES IDX 28 79 29 80 32 81 30 82 56 83 57 84 65 85 58 86 59 87 63 88
REMARK SMILES IDX 66 89 60 90 61 91 64 92 62 93 41 94 42 95 50 96 43 97 44 98
REMARK SMILES IDX 48 99 51 100 45 101 46 102 49 103 47 104
REMARK H PARENT 7 5 85 30 89 32 12 38 71 57 39 68
REMARK Flexibility Score: inf
ROOT
ATOM      1  C   UNL A   1      34.254  32.838  28.017  1.00  0.00     0.116 C 
ENDROOT
BRANCH   1   2
ATOM      2  N   UNL A   1      35.397  31.952  28.125  1.00  0.00    -0.356 N 
ATOM      3  C   UNL A   1      35.547  30.659  27.712  1.00  0.00     0.220 C 
ATOM      4  O   UNL A   1      36.689  30.268  27.466  1.00  0.00    -0.275 OA
ATOM      5  H   UNL A   1      36.186  32.343  28.564  1.00  0.00     0.163 HD
BRANCH   3   6
ATOM      6  C   UNL A   1      34.362  29.730  27.562  1.00  0.00     0.100 C 
BRANCH   6   7
ATOM      7  C   UNL A   1      33.962  29.249  26.149  1.00  0.00     0.013 C 
BRANCH   7   8
ATOM      8  C   UNL A   1      32.454  29.148  25.773  1.00  0.00    -0.010 C 
ATOM      9  C   UNL A   1      31.837  30.541  26.003  1.00  0.00     0.008 C 
BRANCH   8  10
ATOM     10  C   UNL A   1      32.147  28.641  24.285  1.00  0.00    -0.002 C 
ATOM     11  C   UNL A   1      33.464  28.456  23.385  1.00  0.00     0.005 C 
ATOM     12  C   UNL A   1      31.530  27.172  24.148  1.00  0.00    -0.026 C 
ATOM     13  C   UNL A   1      33.762  26.927  23.303  1.00  0.00     0.005 C 
ATOM     14  C   UNL A   1      32.861  26.442  24.413  1.00  0.00    -0.001 C 
ATOM     15  C   UNL A   1      30.380  26.617  25.016  1.00  0.00     0.007 C 
ATOM     16  C   UNL A   1      30.980  27.091  22.677  1.00  0.00     0.012 C 
ATOM     17  C   UNL A   1      32.884  25.123  25.153  1.00  0.00    -0.001 C 
ATOM     18  C   UNL A   1      30.464  25.133  25.495  1.00  0.00     0.005 C 
ATOM     19  C   UNL A   1      34.225  24.419  25.169  1.00  0.00     0.036 C 
ATOM     20  C   UNL A   1      31.658  24.244  25.017  1.00  0.00    -0.001 C 
ATOM     21  C   UNL A   1      34.273  23.662  26.481  1.00  0.00     0.118 C 
ATOM     22  C   UNL A   1      31.819  22.822  25.782  1.00  0.00    -0.024 C 
ATOM     23  C   UNL A   1      33.171  22.597  26.602  1.00  0.00     0.026 C 
ATOM     24  C   UNL A   1      31.664  21.656  24.742  1.00  0.00     0.010 C 
ATOM     25  C   UNL A   1      30.653  22.596  26.791  1.00  0.00     0.012 C 
ATOM     26  C   UNL A   1      33.724  21.166  26.459  1.00  0.00     0.038 C 
ATOM     27  C   UNL A   1      32.968  21.267  24.049  1.00  0.00     0.032 C 
ATOM     28  C   UNL A   1      34.020  20.751  25.029  1.00  0.00     0.114 C 
BRANCH  21  29
ATOM     29  O   UNL A   1      35.573  23.175  26.790  1.00  0.00    -0.393 OA
ATOM     30  H   UNL A   1      35.564  22.766  27.669  1.00  0.00     0.210 HD
ENDBRANCH  21  29
BRANCH  28  31
ATOM     31  O   UNL A   1      35.305  21.204  24.617  1.00  0.00    -0.393 OA
ATOM     32  H   UNL A   1      35.599  20.687  23.850  1.00  0.00     0.210 HD
ENDBRANCH  28  31
ENDBRANCH   8  10
ENDBRANCH   7   8
ENDBRANCH   6   7
ENDBRANCH   3   6
ENDBRANCH   1   2
BRANCH   1  33
ATOM     33  C   UNL A   1      34.220  34.035  28.972  1.00  0.00     0.023 C 
BRANCH  33  34
ATOM     34  C   UNL A   1      32.977  34.946  29.004  1.00  0.00     0.023 C 
BRANCH  34  35
ATOM     35  C   UNL A   1      33.048  36.316  29.707  1.00  0.00     0.116 C 
BRANCH  35  36
ATOM     36  N   UNL A   1      32.306  36.401  30.952  1.00  0.00    -0.352 N 
ATOM     37  C   UNL A   1      32.554  35.848  32.194  1.00  0.00     0.251 C 
ATOM     38  H   UNL A   1      31.487  36.944  30.902  1.00  0.00     0.163 HD
ATOM     39  O   UNL A   1      31.702  35.989  33.071  1.00  0.00    -0.269 OA
BRANCH  37  40
ATOM     40  C   UNL A   1      33.781  35.066  32.542  1.00  0.00     0.039 A 
ATOM     41  C   UNL A   1      35.034  35.646  32.294  1.00  0.00     0.014 A 
ATOM     42  C   UNL A   1      33.758  33.726  32.921  1.00  0.00     0.014 A 
ATOM     43  C   UNL A   1      36.235  34.923  32.481  1.00  0.00     0.010 A 
ATOM     44  C   UNL A   1      34.972  33.016  33.129  1.00  0.00     0.010 A 
ATOM     45  C   UNL A   1      36.245  33.597  32.951  1.00  0.00    -0.014 A 
BRANCH  45  46
ATOM     46  C   UNL A   1      37.555  32.882  33.270  1.00  0.00     0.031 A 
ATOM     47  C   UNL A   1      38.358  33.130  34.543  1.00  0.00     0.074 A 
ATOM     48  C   UNL A   1      38.105  32.000  32.397  1.00  0.00     0.049 A 
ATOM     49  N   UNL A   1      39.475  32.558  34.947  1.00  0.00    -0.248 NA
ATOM     50  C   UNL A   1      37.873  34.166  35.462  1.00  0.00     0.031 C 
ATOM     51  C   UNL A   1      37.583  31.674  31.071  1.00  0.00     0.029 A 
ATOM     52  N   UNL A   1      39.236  31.205  32.494  1.00  0.00    -0.354 N 
ATOM     53  C   UNL A   1      39.839  33.189  36.134  1.00  0.00     0.074 A 
ATOM     54  C   UNL A   1      38.849  34.225  36.357  1.00  0.00     0.031 C 
ATOM     55  C   UNL A   1      38.345  30.724  30.507  1.00  0.00     0.029 A 
ATOM     56  C   UNL A   1      39.436  30.374  31.413  1.00  0.00     0.049 A 
ATOM     57  H   UNL A   1      39.843  31.231  33.268  1.00  0.00     0.167 HD
ATOM     58  C   UNL A   1      40.864  32.927  36.989  1.00  0.00     0.037 A 
ATOM     59  C   UNL A   1      40.363  29.424  31.160  1.00  0.00     0.037 A 
ATOM     60  C   UNL A   1      41.825  31.858  36.863  1.00  0.00     0.049 A 
ATOM     61  C   UNL A   1      41.449  29.098  32.153  1.00  0.00     0.074 A 
ATOM     62  C   UNL A   1      42.794  31.462  37.775  1.00  0.00     0.029 A 
ATOM     63  N   UNL A   1      41.948  31.016  35.774  1.00  0.00    -0.354 N 
ATOM     64  N   UNL A   1      41.679  29.618  33.329  1.00  0.00    -0.248 NA
ATOM     65  C   UNL A   1      42.399  28.032  31.780  1.00  0.00     0.031 C 
ATOM     66  C   UNL A   1      43.529  30.407  37.221  1.00  0.00     0.029 A 
ATOM     67  C   UNL A   1      42.989  30.119  35.982  1.00  0.00     0.049 A 
ATOM     68  H   UNL A   1      41.384  31.049  34.968  1.00  0.00     0.167 HD
ATOM     69  C   UNL A   1      42.768  28.926  33.847  1.00  0.00     0.074 A 
ATOM     70  C   UNL A   1      43.152  27.938  32.867  1.00  0.00     0.031 C 
ATOM     71  C   UNL A   1      43.384  29.106  35.039  1.00  0.00     0.037 A 
BRANCH  58  72
ATOM     72  C   UNL A   1      40.998  33.803  38.206  1.00  0.00     0.064 A 
ATOM     73  C   UNL A   1      41.836  34.927  38.209  1.00  0.00     0.173 A 
ATOM     74  C   UNL A   1      40.209  33.570  39.345  1.00  0.00     0.173 A 
ATOM     75  F   UNL A   1      42.602  35.199  37.142  1.00  0.00    -0.203 F 
ATOM     76  C   UNL A   1      41.909  35.764  39.318  1.00  0.00     0.198 A 
ATOM     77  C   UNL A   1      40.261  34.429  40.441  1.00  0.00     0.198 A 
ATOM     78  F   UNL A   1      39.367  32.526  39.384  1.00  0.00    -0.203 F 
ATOM     79  F   UNL A   1      42.750  36.808  39.313  1.00  0.00    -0.200 F 
ATOM     80  C   UNL A   1      41.117  35.520  40.430  1.00  0.00     0.200 A 
ATOM     81  F   UNL A   1      39.476  34.205  41.503  1.00  0.00    -0.200 F 
ATOM     82  F   UNL A   1      41.179  36.336  41.492  1.00  0.00    -0.200 F 
ENDBRANCH  58  72
BRANCH  59  83
ATOM     83  C   UNL A   1      40.287  28.632  29.901  1.00  0.00     0.064 A 
ATOM     84  C   UNL A   1      39.580  27.421  29.863  1.00  0.00     0.173 A 
ATOM     85  C   UNL A   1      40.956  29.037  28.739  1.00  0.00     0.173 A 
ATOM     86  F   UNL A   1      38.954  26.976  30.963  1.00  0.00    -0.203 F 
ATOM     87  C   UNL A   1      39.565  26.632  28.715  1.00  0.00     0.198 A 
ATOM     88  C   UNL A   1      40.919  28.259  27.583  1.00  0.00     0.198 A 
ATOM     89  F   UNL A   1      41.651  30.184  28.728  1.00  0.00    -0.203 F 
ATOM     90  F   UNL A   1      38.930  25.452  28.722  1.00  0.00    -0.200 F 
ATOM     91  C   UNL A   1      40.231  27.054  27.575  1.00  0.00     0.200 A 
ATOM     92  F   UNL A   1      41.559  28.671  26.480  1.00  0.00    -0.200 F 
ATOM     93  F   UNL A   1      40.222  26.293  26.472  1.00  0.00    -0.200 F 
ENDBRANCH  59  83
BRANCH  71  94
ATOM     94  C   UNL A   1      44.519  28.188  35.400  1.00  0.00     0.064 A 
ATOM     95  C   UNL A   1      45.853  28.505  35.103  1.00  0.00     0.173 A 
ATOM     96  C   UNL A   1      44.274  26.988  36.086  1.00  0.00     0.173 A 
ATOM     97  F   UNL A   1      46.146  29.631  34.434  1.00  0.00    -0.203 F 
ATOM     98  C   UNL A   1      46.894  27.651  35.462  1.00  0.00     0.198 A 
ATOM     99  C   UNL A   1      45.318  26.146  36.466  1.00  0.00     0.198 A 
ATOM    100  F   UNL A   1      43.019  26.633  36.399  1.00  0.00    -0.203 F 
ATOM    101  F   UNL A   1      48.157  27.958  35.132  1.00  0.00    -0.200 F 
ATOM    102  C   UNL A   1      46.627  26.475  36.149  1.00  0.00     0.200 A 
ATOM    103  F   UNL A   1      45.058  25.016  37.138  1.00  0.00    -0.200 F 
ATOM    104  F   UNL A   1      47.630  25.658  36.499  1.00  0.00    -0.200 F 
ENDBRANCH  71  94
ENDBRANCH  45  46
ENDBRANCH  37  40
ENDBRANCH  35  36
ENDBRANCH  34  35
ENDBRANCH  33  34
ENDBRANCH   1  33
TORSDOF 16
ENDMDL
MODEL 2
REMARK VINA RESULT:     -12.6      3.321      9.754
REMARK SMILES C[C@H](CCC(=O)NCCCCNC(=O)c1ccc(-c2c3nc(c(-c4c(F)c(F)c(F)c(F)c4F)c4ccc([nH]4)c(-c4c(F)c(F)c(F)c(F)c4F)c4nc(c(-c5c(F)c(F)c(F)c(F)c5F)c5ccc2[nH]5)C=C4)C=C3)cc1)[C@H]1CC[C@@H]2[C@@H]3C[C@H](O)[C@@H]4C[C@H](O)CC[C@]4(C)[C@H]3CC[C@]21C
REMARK SMILES IDX 8 1 7 2 5 3 6 4 4 6 3 7 2 8 1 9 78 10 79 11 97 12 80 13
REMARK SMILES IDX 81 14 96 15 98 16 82 17 95 18 83 19 94 20 84 21 92 22 86 23
REMARK SMILES IDX 91 24 93 25 87 26 90 27 88 28 85 29 89 31 9 33 10 34 11 35
REMARK SMILES IDX 12 36 13 37 14 39 15 40 16 41 77 42 17 43 76 44 18 45 19 46
REMARK SMILES IDX 20 47 70 48 21 49 75 50 69 51 71 52 22 53 74 54 68 55 67 56
REMARK SMILES IDX 23 58 55 59 35 60 54 61 36 62 39 63 53 64 72 65 37 66 38 67
REMARK SMILES IDX 52 69 73 70 40 71 24 72 25 73 33 74 26 75 27 76 31 77 34 78
REMARK SMILES IDX 28 79 29 80 32 81 30 82 56 83 57 84 65 85 58 86 59 87 63 88
REMARK SMILES IDX 66 89 60 90 61 91 64 92 62 93 41 94 42 95 50 96 43 97 44 98
REMARK SMILES IDX 48 99 51 100 45 101 46 102 49 103 47 104
REMARK H PARENT 7 5 85 30 89 32 12 38 71 57 39 68
REMARK Flexibility Score: inf
ROOT
ATOM      1  C   UNL A   1      40.608  21.776  27.513  1.00  0.00     0.116 C 
ENDROOT
BRANCH   1   2
ATOM      2  N   UNL A   1      40.546  23.213  27.702  1.00  0.00    -0.356 N 
ATOM      3  C   UNL A   1      39.630  24.119  27.249  1.00  0.00     0.220 C 
ATOM      4  O   UNL A   1      39.490  25.160  27.893  1.00  0.00    -0.275 OA
ATOM      5  H   UNL A   1      41.277  23.594  28.240  1.00  0.00     0.163 HD
BRANCH   3   6
ATOM      6  C   UNL A   1      38.814  23.866  25.999  1.00  0.00     0.100 C 
BRANCH   6   7
ATOM      7  C   UNL A   1      37.294  23.628  26.134  1.00  0.00     0.013 C 
BRANCH   7   8
ATOM      8  C   UNL A   1      36.583  22.645  25.157  1.00  0.00    -0.010 C 
ATOM      9  C   UNL A   1      37.505  21.422  24.999  1.00  0.00     0.008 C 
BRANCH   8  10
ATOM     10  C   UNL A   1      35.113  22.183  25.594  1.00  0.00    -0.002 C 
ATOM     11  C   UNL A   1      34.644  22.784  27.007  1.00  0.00     0.005 C 
ATOM     12  C   UNL A   1      33.905  22.697  24.679  1.00  0.00    -0.026 C 
ATOM     13  C   UNL A   1      33.642  23.943  26.712  1.00  0.00     0.005 C 
ATOM     14  C   UNL A   1      33.914  24.133  25.239  1.00  0.00    -0.001 C 
ATOM     15  C   UNL A   1      33.901  22.676  23.135  1.00  0.00     0.007 C 
ATOM     16  C   UNL A   1      32.673  21.807  25.083  1.00  0.00     0.012 C 
ATOM     17  C   UNL A   1      33.579  25.310  24.351  1.00  0.00    -0.001 C 
ATOM     18  C   UNL A   1      33.284  23.895  22.380  1.00  0.00     0.005 C 
ATOM     19  C   UNL A   1      33.430  26.635  25.070  1.00  0.00     0.036 C 
ATOM     20  C   UNL A   1      32.625  25.049  23.205  1.00  0.00    -0.001 C 
ATOM     21  C   UNL A   1      33.881  27.690  24.080  1.00  0.00     0.118 C 
ATOM     22  C   UNL A   1      32.270  26.392  22.366  1.00  0.00    -0.024 C 
ATOM     23  C   UNL A   1      33.015  27.733  22.810  1.00  0.00     0.026 C 
ATOM     24  C   UNL A   1      30.721  26.639  22.417  1.00  0.00     0.010 C 
ATOM     25  C   UNL A   1      32.581  26.201  20.850  1.00  0.00     0.012 C 
ATOM     26  C   UNL A   1      32.094  28.968  22.774  1.00  0.00     0.038 C 
ATOM     27  C   UNL A   1      30.262  27.448  23.628  1.00  0.00     0.032 C 
ATOM     28  C   UNL A   1      30.863  28.853  23.654  1.00  0.00     0.114 C 
BRANCH  21  29
ATOM     29  O   UNL A   1      34.074  28.964  24.682  1.00  0.00    -0.393 OA
ATOM     30  H   UNL A   1      34.656  29.501  24.121  1.00  0.00     0.210 HD
ENDBRANCH  21  29
BRANCH  28  31
ATOM     31  O   UNL A   1      31.156  29.210  25.000  1.00  0.00    -0.393 OA
ATOM     32  H   UNL A   1      31.395  30.150  25.040  1.00  0.00     0.210 HD
ENDBRANCH  28  31
ENDBRANCH   8  10
ENDBRANCH   7   8
ENDBRANCH   6   7
ENDBRANCH   3   6
ENDBRANCH   1   2
BRANCH   1  33
ATOM     33  C   UNL A   1      41.408  21.277  26.305  1.00  0.00     0.023 C 
BRANCH  33  34
ATOM     34  C   UNL A   1      42.743  21.957  25.946  1.00  0.00     0.023 C 
BRANCH  34  35
ATOM     35  C   UNL A   1      42.751  23.188  25.018  1.00  0.00     0.116 C 
BRANCH  35  36
ATOM     36  N   UNL A   1      44.070  23.708  24.709  1.00  0.00    -0.352 N 
ATOM     37  C   UNL A   1      44.737  24.825  25.178  1.00  0.00     0.251 C 
ATOM     38  H   UNL A   1      44.575  23.177  24.053  1.00  0.00     0.163 HD
ATOM     39  O   UNL A   1      45.822  25.106  24.672  1.00  0.00    -0.269 OA
BRANCH  37  40
ATOM     40  C   UNL A   1      44.216  25.733  26.247  1.00  0.00     0.039 A 
ATOM     41  C   UNL A   1      43.582  25.160  27.359  1.00  0.00     0.014 A 
ATOM     42  C   UNL A   1      44.156  27.118  26.118  1.00  0.00     0.014 A 
ATOM     43  C   UNL A   1      42.957  25.955  28.347  1.00  0.00     0.010 A 
ATOM     44  C   UNL A   1      43.547  27.910  27.129  1.00  0.00     0.010 A 
ATOM     45  C   UNL A   1      42.961  27.360  28.289  1.00  0.00    -0.014 A 
BRANCH  45  46
ATOM     46  C   UNL A   1      42.397  28.199  29.433  1.00  0.00     0.031 A 
ATOM     47  C   UNL A   1      41.044  28.900  29.371  1.00  0.00     0.074 A 
ATOM     48  C   UNL A   1      43.106  28.401  30.573  1.00  0.00     0.049 A 
ATOM     49  N   UNL A   1      40.435  29.619  30.294  1.00  0.00    -0.248 NA
ATOM     50  C   UNL A   1      40.293  28.819  28.114  1.00  0.00     0.031 C 
ATOM     51  C   UNL A   1      44.465  27.924  30.828  1.00  0.00     0.029 A 
ATOM     52  N   UNL A   1      42.781  29.066  31.744  1.00  0.00    -0.354 N 
ATOM     53  C   UNL A   1      39.263  30.099  29.717  1.00  0.00     0.074 A 
ATOM     54  C   UNL A   1      39.271  29.632  28.345  1.00  0.00     0.031 C 
ATOM     55  C   UNL A   1      44.832  28.256  32.076  1.00  0.00     0.029 A 
ATOM     56  C   UNL A   1      43.750  28.997  32.721  1.00  0.00     0.049 A 
ATOM     57  H   UNL A   1      41.930  29.546  31.868  1.00  0.00     0.167 HD
ATOM     58  C   UNL A   1      38.249  30.823  30.263  1.00  0.00     0.037 A 
ATOM     59  C   UNL A   1      43.787  29.446  33.995  1.00  0.00     0.037 A 
ATOM     60  C   UNL A   1      38.145  31.240  31.640  1.00  0.00     0.049 A 
ATOM     61  C   UNL A   1      42.623  30.184  34.604  1.00  0.00     0.074 A 
ATOM     62  C   UNL A   1      37.072  31.850  32.276  1.00  0.00     0.029 A 
ATOM     63  N   UNL A   1      39.134  31.097  32.596  1.00  0.00    -0.354 N 
ATOM     64  N   UNL A   1      41.471  30.498  34.072  1.00  0.00    -0.248 NA
ATOM     65  C   UNL A   1      42.765  30.617  36.007  1.00  0.00     0.031 C 
ATOM     66  C   UNL A   1      37.426  32.112  33.604  1.00  0.00     0.029 A 
ATOM     67  C   UNL A   1      38.703  31.627  33.807  1.00  0.00     0.049 A 
ATOM     68  H   UNL A   1      40.014  30.684  32.442  1.00  0.00     0.167 HD
ATOM     69  C   UNL A   1      40.745  31.127  35.077  1.00  0.00     0.074 A 
ATOM     70  C   UNL A   1      41.576  31.146  36.257  1.00  0.00     0.031 C 
ATOM     71  C   UNL A   1      39.494  31.640  35.010  1.00  0.00     0.037 A 
BRANCH  58  72
ATOM     72  C   UNL A   1      37.099  31.198  29.366  1.00  0.00     0.064 A 
ATOM     73  C   UNL A   1      36.095  30.274  29.040  1.00  0.00     0.173 A 
ATOM     74  C   UNL A   1      36.949  32.518  28.910  1.00  0.00     0.173 A 
ATOM     75  F   UNL A   1      36.186  29.004  29.461  1.00  0.00    -0.203 F 
ATOM     76  C   UNL A   1      35.005  30.646  28.259  1.00  0.00     0.198 A 
ATOM     77  C   UNL A   1      35.840  32.894  28.155  1.00  0.00     0.198 A 
ATOM     78  F   UNL A   1      37.864  33.449  29.218  1.00  0.00    -0.203 F 
ATOM     79  F   UNL A   1      34.081  29.734  27.924  1.00  0.00    -0.200 F 
ATOM     80  C   UNL A   1      34.873  31.956  27.824  1.00  0.00     0.200 A 
ATOM     81  F   UNL A   1      35.702  34.166  27.757  1.00  0.00    -0.200 F 
ATOM     82  F   UNL A   1      33.815  32.314  27.082  1.00  0.00    -0.200 F 
ENDBRANCH  58  72
BRANCH  59  83
ATOM     83  C   UNL A   1      44.976  29.164  34.845  1.00  0.00     0.064 A 
ATOM     84  C   UNL A   1      45.052  27.979  35.592  1.00  0.00     0.173 A 
ATOM     85  C   UNL A   1      46.024  30.084  34.971  1.00  0.00     0.173 A 
ATOM     86  F   UNL A   1      44.053  27.084  35.531  1.00  0.00    -0.203 F 
ATOM     87  C   UNL A   1      46.121  27.736  36.451  1.00  0.00     0.198 A 
ATOM     88  C   UNL A   1      47.107  29.829  35.811  1.00  0.00     0.198 A 
ATOM     89  F   UNL A   1      45.995  31.234  34.282  1.00  0.00    -0.203 F 
ATOM     90  F   UNL A   1      46.141  26.622  37.197  1.00  0.00    -0.200 F 
ATOM     91  C   UNL A   1      47.149  28.659  36.557  1.00  0.00     0.200 A 
ATOM     92  F   UNL A   1      48.102  30.720  35.908  1.00  0.00    -0.200 F 
ATOM     93  F   UNL A   1      48.175  28.430  37.388  1.00  0.00    -0.200 F 
ENDBRANCH  59  83
BRANCH  71  94
ATOM     94  C   UNL A   1      38.898  32.230  36.258  1.00  0.00     0.064 A 
ATOM     95  C   UNL A   1      38.090  31.476  37.122  1.00  0.00     0.173 A 
ATOM     96  C   UNL A   1      39.170  33.560  36.617  1.00  0.00     0.173 A 
ATOM     97  F   UNL A   1      37.785  30.204  36.823  1.00  0.00    -0.203 F 
ATOM     98  C   UNL A   1      37.563  32.034  38.286  1.00  0.00     0.198 A 
ATOM     99  C   UNL A   1      38.661  34.109  37.793  1.00  0.00     0.198 A 
ATOM    100  F   UNL A   1      39.938  34.328  35.830  1.00  0.00    -0.203 F 
ATOM    101  F   UNL A   1      36.762  31.305  39.075  1.00  0.00    -0.200 F 
ATOM    102  C   UNL A   1      37.854  33.348  38.624  1.00  0.00     0.200 A 
ATOM    103  F   UNL A   1      38.952  35.376  38.121  1.00  0.00    -0.200 F 
ATOM    104  F   UNL A   1      37.351  33.881  39.746  1.00  0.00    -0.200 F 
ENDBRANCH  71  94
ENDBRANCH  45  46
ENDBRANCH  37  40
ENDBRANCH  35  36
ENDBRANCH  34  35
ENDBRANCH  33  34
ENDBRANCH   1  33
TORSDOF 16
ENDMDL
MODEL 3
REMARK VINA RESULT:     -12.6      3.333      9.802
REMARK SMILES C[C@H](CCC(=O)NCCCCNC(=O)c1ccc(-c2c3nc(c(-c4c(F)c(F)c(F)c(F)c4F)c4ccc([nH]4)c(-c4c(F)c(F)c(F)c(F)c4F)c4nc(c(-c5c(F)c(F)c(F)c(F)c5F)c5ccc2[nH]5)C=C4)C=C3)cc1)[C@H]1CC[C@@H]2[C@@H]3C[C@H](O)[C@@H]4C[C@H](O)CC[C@]4(C)[C@H]3CC[C@]21C
REMARK SMILES IDX 8 1 7 2 5 3 6 4 4 6 3 7 2 8 1 9 78 10 79 11 97 12 80 13
REMARK SMILES IDX 81 14 96 15 98 16 82 17 95 18 83 19 94 20 84 21 92 22 86 23
REMARK SMILES IDX 91 24 93 25 87 26 90 27 88 28 85 29 89 31 9 33 10 34 11 35
REMARK SMILES IDX 12 36 13 37 14 39 15 40 16 41 77 42 17 43 76 44 18 45 19 46
REMARK SMILES IDX 20 47 70 48 21 49 75 50 69 51 71 52 22 53 74 54 68 55 67 56
REMARK SMILES IDX 23 58 55 59 35 60 54 61 36 62 39 63 53 64 72 65 37 66 38 67
REMARK SMILES IDX 52 69 73 70 40 71 24 72 25 73 33 74 26 75 27 76 31 77 34 78
REMARK SMILES IDX 28 79 29 80 32 81 30 82 56 83 57 84 65 85 58 86 59 87 63 88
REMARK SMILES IDX 66 89 60 90 61 91 64 92 62 93 41 94 42 95 50 96 43 97 44 98
REMARK SMILES IDX 48 99 51 100 45 101 46 102 49 103 47 104
REMARK H PARENT 7 5 85 30 89 32 12 38 71 57 39 68
REMARK Flexibility Score: inf
ROOT
ATOM      1  C   UNL A   1      40.782  21.607  27.400  1.00  0.00     0.116 C 
ENDROOT
BRANCH   1   2
ATOM      2  N   UNL A   1      40.612  23.015  27.707  1.00  0.00    -0.356 N 
ATOM      3  C   UNL A   1      39.634  23.886  27.318  1.00  0.00     0.220 C 
ATOM      4  O   UNL A   1      39.413  24.856  28.045  1.00  0.00    -0.275 OA
ATOM      5  H   UNL A   1      41.309  23.402  28.285  1.00  0.00     0.163 HD
BRANCH   3   6
ATOM      6  C   UNL A   1      38.849  23.680  26.042  1.00  0.00     0.100 C 
BRANCH   6   7
ATOM      7  C   UNL A   1      37.312  23.543  26.123  1.00  0.00     0.013 C 
BRANCH   7   8
ATOM      8  C   UNL A   1      36.574  22.592  25.134  1.00  0.00    -0.010 C 
ATOM      9  C   UNL A   1      37.479  21.363  24.929  1.00  0.00     0.008 C 
BRANCH   8  10
ATOM     10  C   UNL A   1      35.106  22.136  25.582  1.00  0.00    -0.002 C 
ATOM     11  C   UNL A   1      34.654  22.731  27.004  1.00  0.00     0.005 C 
ATOM     12  C   UNL A   1      33.892  22.661  24.683  1.00  0.00    -0.026 C 
ATOM     13  C   UNL A   1      33.656  23.897  26.726  1.00  0.00     0.005 C 
ATOM     14  C   UNL A   1      33.914  24.093  25.251  1.00  0.00    -0.001 C 
ATOM     15  C   UNL A   1      33.872  22.649  23.139  1.00  0.00     0.007 C 
ATOM     16  C   UNL A   1      32.660  21.776  25.094  1.00  0.00     0.012 C 
ATOM     17  C   UNL A   1      33.577  25.278  24.372  1.00  0.00    -0.001 C 
ATOM     18  C   UNL A   1      33.254  23.875  22.397  1.00  0.00     0.005 C 
ATOM     19  C   UNL A   1      33.442  26.599  25.101  1.00  0.00     0.036 C 
ATOM     20  C   UNL A   1      32.609  25.028  23.235  1.00  0.00    -0.001 C 
ATOM     21  C   UNL A   1      33.888  27.657  24.112  1.00  0.00     0.118 C 
ATOM     22  C   UNL A   1      32.254  26.378  22.407  1.00  0.00    -0.024 C 
ATOM     23  C   UNL A   1      33.010  27.712  22.852  1.00  0.00     0.026 C 
ATOM     24  C   UNL A   1      30.706  26.633  22.475  1.00  0.00     0.010 C 
ATOM     25  C   UNL A   1      32.548  26.194  20.887  1.00  0.00     0.012 C 
ATOM     26  C   UNL A   1      32.095  28.952  22.831  1.00  0.00     0.038 C 
ATOM     27  C   UNL A   1      30.264  27.437  23.696  1.00  0.00     0.032 C 
ATOM     28  C   UNL A   1      30.872  28.838  23.723  1.00  0.00     0.114 C 
BRANCH  21  29
ATOM     29  O   UNL A   1      34.094  28.927  24.719  1.00  0.00    -0.393 OA
ATOM     30  H   UNL A   1      34.805  29.395  24.254  1.00  0.00     0.210 HD
ENDBRANCH  21  29
BRANCH  28  31
ATOM     31  O   UNL A   1      31.181  29.187  25.069  1.00  0.00    -0.393 OA
ATOM     32  H   UNL A   1      31.662  30.030  25.082  1.00  0.00     0.210 HD
ENDBRANCH  28  31
ENDBRANCH   8  10
ENDBRANCH   7   8
ENDBRANCH   6   7
ENDBRANCH   3   6
ENDBRANCH   1   2
BRANCH   1  33
ATOM     33  C   UNL A   1      41.623  21.271  26.165  1.00  0.00     0.023 C 
BRANCH  33  34
ATOM     34  C   UNL A   1      42.934  22.038  25.908  1.00  0.00     0.023 C 
BRANCH  34  35
ATOM     35  C   UNL A   1      42.920  23.313  25.042  1.00  0.00     0.116 C 
BRANCH  35  36
ATOM     36  N   UNL A   1      44.231  23.858  24.737  1.00  0.00    -0.352 N 
ATOM     37  C   UNL A   1      44.878  24.983  25.214  1.00  0.00     0.251 C 
ATOM     38  H   UNL A   1      44.745  23.338  24.079  1.00  0.00     0.163 HD
ATOM     39  O   UNL A   1      45.959  25.285  24.710  1.00  0.00    -0.269 OA
BRANCH  37  40
ATOM     40  C   UNL A   1      44.340  25.876  26.287  1.00  0.00     0.039 A 
ATOM     41  C   UNL A   1      43.640  25.292  27.353  1.00  0.00     0.014 A 
ATOM     42  C   UNL A   1      44.330  27.266  26.198  1.00  0.00     0.014 A 
ATOM     43  C   UNL A   1      42.998  26.078  28.337  1.00  0.00     0.010 A 
ATOM     44  C   UNL A   1      43.703  28.047  27.206  1.00  0.00     0.010 A 
ATOM     45  C   UNL A   1      43.050  27.484  28.323  1.00  0.00    -0.014 A 
BRANCH  45  46
ATOM     46  C   UNL A   1      42.464  28.307  29.466  1.00  0.00     0.031 A 
ATOM     47  C   UNL A   1      41.075  28.936  29.422  1.00  0.00     0.074 A 
ATOM     48  C   UNL A   1      43.182  28.560  30.590  1.00  0.00     0.049 A 
ATOM     49  N   UNL A   1      40.447  29.634  30.347  1.00  0.00    -0.248 NA
ATOM     50  C   UNL A   1      40.306  28.799  28.180  1.00  0.00     0.031 C 
ATOM     51  C   UNL A   1      44.568  28.157  30.826  1.00  0.00     0.029 A 
ATOM     52  N   UNL A   1      42.844  29.223  31.759  1.00  0.00    -0.354 N 
ATOM     53  C   UNL A   1      39.240  30.045  29.787  1.00  0.00     0.074 A 
ATOM     54  C   UNL A   1      39.248  29.561  28.420  1.00  0.00     0.031 C 
ATOM     55  C   UNL A   1      44.940  28.525  32.062  1.00  0.00     0.029 A 
ATOM     56  C   UNL A   1      43.833  29.217  32.718  1.00  0.00     0.049 A 
ATOM     57  H   UNL A   1      41.972  29.659  31.893  1.00  0.00     0.167 HD
ATOM     58  C   UNL A   1      38.200  30.722  30.342  1.00  0.00     0.037 A 
ATOM     59  C   UNL A   1      43.870  29.684  33.985  1.00  0.00     0.037 A 
ATOM     60  C   UNL A   1      38.100  31.151  31.716  1.00  0.00     0.049 A 
ATOM     61  C   UNL A   1      42.680  30.368  34.608  1.00  0.00     0.074 A 
ATOM     62  C   UNL A   1      37.008  31.713  32.364  1.00  0.00     0.029 A 
ATOM     63  N   UNL A   1      39.112  31.073  32.655  1.00  0.00    -0.354 N 
ATOM     64  N   UNL A   1      41.504  30.615  34.094  1.00  0.00    -0.248 NA
ATOM     65  C   UNL A   1      42.825  30.827  36.003  1.00  0.00     0.031 C 
ATOM     66  C   UNL A   1      37.372  32.011  33.683  1.00  0.00     0.029 A 
ATOM     67  C   UNL A   1      38.676  31.595  33.867  1.00  0.00     0.049 A 
ATOM     68  H   UNL A   1      40.009  30.704  32.489  1.00  0.00     0.167 HD
ATOM     69  C   UNL A   1      40.764  31.219  35.104  1.00  0.00     0.074 A 
ATOM     70  C   UNL A   1      41.614  31.296  36.269  1.00  0.00     0.031 C 
ATOM     71  C   UNL A   1      39.487  31.665  35.054  1.00  0.00     0.037 A 
BRANCH  58  72
ATOM     72  C   UNL A   1      37.016  31.025  29.463  1.00  0.00     0.064 A 
ATOM     73  C   UNL A   1      36.839  32.292  28.887  1.00  0.00     0.173 A 
ATOM     74  C   UNL A   1      36.105  30.014  29.116  1.00  0.00     0.173 A 
ATOM     75  F   UNL A   1      37.687  33.288  29.178  1.00  0.00    -0.203 F 
ATOM     76  C   UNL A   1      35.773  32.546  28.028  1.00  0.00     0.198 A 
ATOM     77  C   UNL A   1      35.059  30.264  28.230  1.00  0.00     0.198 A 
ATOM     78  F   UNL A   1      36.245  28.776  29.614  1.00  0.00    -0.203 F 
ATOM     79  F   UNL A   1      35.601  33.777  27.525  1.00  0.00    -0.200 F 
ATOM     80  C   UNL A   1      34.889  31.532  27.694  1.00  0.00     0.200 A 
ATOM     81  F   UNL A   1      34.220  29.276  27.890  1.00  0.00    -0.200 F 
ATOM     82  F   UNL A   1      33.872  31.776  26.857  1.00  0.00    -0.200 F 
ENDBRANCH  58  72
BRANCH  59  83
ATOM     83  C   UNL A   1      45.087  29.475  34.817  1.00  0.00     0.064 A 
ATOM     84  C   UNL A   1      46.103  30.443  34.849  1.00  0.00     0.173 A 
ATOM     85  C   UNL A   1      45.284  28.296  35.546  1.00  0.00     0.173 A 
ATOM     86  F   UNL A   1      45.973  31.573  34.136  1.00  0.00    -0.203 F 
ATOM     87  C   UNL A   1      47.280  30.228  35.561  1.00  0.00     0.198 A 
ATOM     88  C   UNL A   1      46.452  28.092  36.279  1.00  0.00     0.198 A 
ATOM     89  F   UNL A   1      44.345  27.339  35.542  1.00  0.00    -0.203 F 
ATOM     90  F   UNL A   1      48.258  31.143  35.528  1.00  0.00    -0.200 F 
ATOM     91  C   UNL A   1      47.453  29.055  36.277  1.00  0.00     0.200 A 
ATOM     92  F   UNL A   1      46.614  26.960  36.976  1.00  0.00    -0.200 F 
ATOM     93  F   UNL A   1      48.588  28.843  36.958  1.00  0.00    -0.200 F 
ENDBRANCH  59  83
BRANCH  71  94
ATOM     94  C   UNL A   1      38.884  32.240  36.307  1.00  0.00     0.064 A 
ATOM     95  C   UNL A   1      38.086  31.470  37.167  1.00  0.00     0.173 A 
ATOM     96  C   UNL A   1      39.138  33.571  36.674  1.00  0.00     0.173 A 
ATOM     97  F   UNL A   1      37.797  30.196  36.859  1.00  0.00    -0.203 F 
ATOM     98  C   UNL A   1      37.552  32.014  38.334  1.00  0.00     0.198 A 
ATOM     99  C   UNL A   1      38.623  34.106  37.853  1.00  0.00     0.198 A 
ATOM    100  F   UNL A   1      39.895  34.354  35.891  1.00  0.00    -0.203 F 
ATOM    101  F   UNL A   1      36.761  31.269  39.119  1.00  0.00    -0.200 F 
ATOM    102  C   UNL A   1      37.826  33.330  38.679  1.00  0.00     0.200 A 
ATOM    103  F   UNL A   1      38.897  35.374  38.189  1.00  0.00    -0.200 F 
ATOM    104  F   UNL A   1      37.316  33.849  39.805  1.00  0.00    -0.200 F 
ENDBRANCH  71  94
ENDBRANCH  45  46
ENDBRANCH  37  40
ENDBRANCH  35  36
ENDBRANCH  34  35
ENDBRANCH  33  34
ENDBRANCH   1  33
TORSDOF 16
ENDMDL
