MODEL 1
REMARK VINA RESULT:     -11.3      0.000      0.000
REMARK SMILES CCOc1cc(CO)cc(Br)c1OCC(C)(C)C(=O)NCCCCNC(=O)c1ccc(-c2c3nc(c(-c4c(F)c(F)c(F)c(F)c4F)c4ccc([nH]4)c(-c4c(F)c(F)c(F)c(F)c4F)c4nc(c(-c5c(F)c(F)c(F)c(F)c5F)c5ccc2[nH]5)C=C4)C=C3)cc1
REMARK SMILES IDX 21 1 20 2 18 3 19 4 15 6 16 7 17 8 14 9 13 10 12 11 4 12
REMARK SMILES IDX 5 13 6 14 10 15 9 16 11 17 3 18 2 19 1 20 7 21 8 22 22 24
REMARK SMILES IDX 23 25 24 26 25 27 26 28 27 30 28 31 29 32 90 33 30 34 89 35
REMARK SMILES IDX 31 36 32 37 33 38 83 39 34 40 88 41 82 42 84 43 35 44 87 45
REMARK SMILES IDX 81 46 80 47 36 49 68 50 48 51 67 52 49 53 52 54 66 55 85 56
REMARK SMILES IDX 50 57 51 58 65 60 86 61 53 62 37 63 38 64 46 65 39 66 40 67
REMARK SMILES IDX 44 68 47 69 41 70 42 71 45 72 43 73 69 74 70 75 78 76 71 77
REMARK SMILES IDX 72 78 76 79 79 80 73 81 74 82 77 83 75 84 54 85 55 86 63 87
REMARK SMILES IDX 56 88 57 89 61 90 64 91 58 92 59 93 62 94 60 95
REMARK H PARENT 20 5 8 23 25 29 84 48 52 59
REMARK Flexibility Score: inf
ROOT
ATOM      1  C   UNL A   1      35.730  21.010  25.136  1.00  0.00     0.116 C 
ENDROOT
BRANCH   1   2
ATOM      2  N   UNL A   1      35.108  21.906  26.101  1.00  0.00    -0.356 N 
ATOM      3  C   UNL A   1      34.190  22.913  25.969  1.00  0.00     0.229 C 
ATOM      4  O   UNL A   1      33.812  23.436  27.020  1.00  0.00    -0.274 OA
ATOM      5  H   UNL A   1      35.406  21.759  27.028  1.00  0.00     0.163 HD
BRANCH   3   6
ATOM      6  C   UNL A   1      33.669  23.373  24.590  1.00  0.00     0.077 C 
ATOM      7  C   UNL A   1      33.040  22.170  23.875  1.00  0.00     0.025 C 
ATOM      8  C   UNL A   1      34.858  23.954  23.787  1.00  0.00     0.025 C 
BRANCH   6   9
ATOM      9  C   UNL A   1      32.682  24.597  24.742  1.00  0.00     0.246 C 
BRANCH   9  10
ATOM     10  O   UNL A   1      33.130  25.949  24.624  1.00  0.00    -0.487 OA
BRANCH  10  11
ATOM     11  C   UNL A   1      32.464  26.903  23.909  1.00  0.00     0.175 A 
ATOM     12  C   UNL A   1      32.196  28.074  24.651  1.00  0.00     0.162 A 
ATOM     13  C   UNL A   1      31.250  28.993  24.196  1.00  0.00     0.056 A 
ATOM     14  C   UNL A   1      30.574  28.782  22.989  1.00  0.00    -0.018 A 
ATOM     15  C   UNL A   1      31.980  26.829  22.599  1.00  0.00     0.064 A 
ATOM     16  C   UNL A   1      31.003  27.739  22.164  1.00  0.00     0.026 A 
ATOM     17  Br  UNL A   1      32.619  25.621  21.275  1.00  0.00    -0.047 Br
BRANCH  12  18
ATOM     18  O   UNL A   1      32.994  28.301  25.742  1.00  0.00    -0.490 OA
BRANCH  18  19
ATOM     19  C   UNL A   1      32.446  28.987  26.863  1.00  0.00     0.226 C 
ATOM     20  C   UNL A   1      31.534  28.106  27.703  1.00  0.00     0.049 C 
ENDBRANCH  18  19
ENDBRANCH  12  18
BRANCH  14  21
ATOM     21  C   UNL A   1      29.483  29.718  22.544  1.00  0.00     0.191 C 
BRANCH  21  22
ATOM     22  O   UNL A   1      29.768  30.262  21.260  1.00  0.00    -0.392 OA
ATOM     23  H   UNL A   1      29.834  31.228  21.326  1.00  0.00     0.211 HD
ENDBRANCH  21  22
ENDBRANCH  14  21
ENDBRANCH  10  11
ENDBRANCH   9  10
ENDBRANCH   6   9
ENDBRANCH   3   6
ENDBRANCH   1   2
BRANCH   1  24
ATOM     24  C   UNL A   1      37.195  21.339  24.877  1.00  0.00     0.023 C 
BRANCH  24  25
ATOM     25  C   UNL A   1      38.147  20.152  24.974  1.00  0.00     0.023 C 
BRANCH  25  26
ATOM     26  C   UNL A   1      39.359  20.361  25.875  1.00  0.00     0.116 C 
BRANCH  26  27
ATOM     27  N   UNL A   1      40.271  19.225  25.899  1.00  0.00    -0.352 N 
ATOM     28  C   UNL A   1      41.630  19.220  26.106  1.00  0.00     0.251 C 
ATOM     29  H   UNL A   1      39.859  18.344  25.746  1.00  0.00     0.163 HD
ATOM     30  O   UNL A   1      42.277  18.183  26.001  1.00  0.00    -0.269 OA
BRANCH  28  31
ATOM     31  C   UNL A   1      42.311  20.491  26.417  1.00  0.00     0.039 A 
ATOM     32  C   UNL A   1      42.856  21.240  25.372  1.00  0.00     0.014 A 
ATOM     33  C   UNL A   1      42.347  20.968  27.730  1.00  0.00     0.014 A 
ATOM     34  C   UNL A   1      43.365  22.513  25.633  1.00  0.00     0.010 A 
ATOM     35  C   UNL A   1      42.782  22.265  27.975  1.00  0.00     0.010 A 
ATOM     36  C   UNL A   1      43.291  23.051  26.928  1.00  0.00    -0.014 A 
BRANCH  36  37
ATOM     37  C   UNL A   1      43.733  24.437  27.214  1.00  0.00     0.031 A 
ATOM     38  C   UNL A   1      42.747  25.451  27.716  1.00  0.00     0.074 A 
ATOM     39  C   UNL A   1      45.001  24.803  26.940  1.00  0.00     0.049 A 
ATOM     40  N   UNL A   1      42.915  26.729  27.943  1.00  0.00    -0.248 NA
ATOM     41  C   UNL A   1      41.378  24.971  27.962  1.00  0.00     0.031 C 
ATOM     42  C   UNL A   1      46.036  23.925  26.391  1.00  0.00     0.029 A 
ATOM     43  N   UNL A   1      45.630  26.015  27.073  1.00  0.00    -0.354 N 
ATOM     44  C   UNL A   1      41.672  27.207  28.336  1.00  0.00     0.074 A 
ATOM     45  C   UNL A   1      40.748  26.096  28.265  1.00  0.00     0.031 C 
ATOM     46  C   UNL A   1      47.175  24.622  26.253  1.00  0.00     0.029 A 
ATOM     47  C   UNL A   1      46.943  26.001  26.671  1.00  0.00     0.049 A 
ATOM     48  H   UNL A   1      45.183  26.819  27.423  1.00  0.00     0.167 HD
ATOM     49  C   UNL A   1      41.337  28.454  28.744  1.00  0.00     0.037 A 
ATOM     50  C   UNL A   1      47.856  26.990  26.640  1.00  0.00     0.037 A 
ATOM     51  C   UNL A   1      42.267  29.547  28.845  1.00  0.00     0.049 A 
ATOM     52  C   UNL A   1      47.466  28.363  27.117  1.00  0.00     0.074 A 
ATOM     53  C   UNL A   1      42.046  30.828  29.319  1.00  0.00     0.029 A 
ATOM     54  N   UNL A   1      43.600  29.485  28.463  1.00  0.00    -0.354 N 
ATOM     55  N   UNL A   1      46.308  28.786  27.561  1.00  0.00    -0.248 NA
ATOM     56  C   UNL A   1      48.513  29.394  27.097  1.00  0.00     0.031 C 
ATOM     57  C   UNL A   1      43.234  31.554  29.186  1.00  0.00     0.029 A 
ATOM     58  C   UNL A   1      44.208  30.712  28.672  1.00  0.00     0.049 A 
ATOM     59  H   UNL A   1      44.047  28.688  28.098  1.00  0.00     0.167 HD
ATOM     60  C   UNL A   1      46.491  30.120  27.896  1.00  0.00     0.074 A 
ATOM     61  C   UNL A   1      47.876  30.434  27.616  1.00  0.00     0.031 C 
ATOM     62  C   UNL A   1      45.591  31.005  28.393  1.00  0.00     0.037 A 
BRANCH  49  63
ATOM     63  C   UNL A   1      39.902  28.697  29.112  1.00  0.00     0.064 A 
ATOM     64  C   UNL A   1      39.430  28.475  30.415  1.00  0.00     0.173 A 
ATOM     65  C   UNL A   1      38.992  29.171  28.157  1.00  0.00     0.173 A 
ATOM     66  F   UNL A   1      40.256  28.008  31.363  1.00  0.00    -0.203 F 
ATOM     67  C   UNL A   1      38.091  28.683  30.737  1.00  0.00     0.198 A 
ATOM     68  C   UNL A   1      37.662  29.410  28.490  1.00  0.00     0.198 A 
ATOM     69  F   UNL A   1      39.393  29.406  26.898  1.00  0.00    -0.203 F 
ATOM     70  F   UNL A   1      37.651  28.407  31.973  1.00  0.00    -0.200 F 
ATOM     71  C   UNL A   1      37.210  29.156  29.777  1.00  0.00     0.200 A 
ATOM     72  F   UNL A   1      36.813  29.877  27.564  1.00  0.00    -0.200 F 
ATOM     73  F   UNL A   1      35.923  29.357  30.089  1.00  0.00    -0.200 F 
ENDBRANCH  49  63
BRANCH  50  74
ATOM     74  C   UNL A   1      49.236  26.706  26.172  1.00  0.00     0.064 A 
ATOM     75  C   UNL A   1      50.200  26.193  27.052  1.00  0.00     0.173 A 
ATOM     76  C   UNL A   1      49.618  26.927  24.841  1.00  0.00     0.173 A 
ATOM     77  F   UNL A   1      49.887  25.984  28.339  1.00  0.00    -0.203 F 
ATOM     78  C   UNL A   1      51.497  25.923  26.620  1.00  0.00     0.198 A 
ATOM     79  C   UNL A   1      50.908  26.632  24.405  1.00  0.00     0.198 A 
ATOM     80  F   UNL A   1      48.731  27.410  23.960  1.00  0.00    -0.203 F 
ATOM     81  F   UNL A   1      52.408  25.466  27.490  1.00  0.00    -0.200 F 
ATOM     82  C   UNL A   1      51.847  26.136  25.296  1.00  0.00     0.200 A 
ATOM     83  F   UNL A   1      51.240  26.826  23.121  1.00  0.00    -0.200 F 
ATOM     84  F   UNL A   1      53.093  25.867  24.880  1.00  0.00    -0.200 F 
ENDBRANCH  50  74
BRANCH  62  85
ATOM     85  C   UNL A   1      46.084  32.389  28.694  1.00  0.00     0.064 A 
ATOM     86  C   UNL A   1      46.012  33.418  27.745  1.00  0.00     0.173 A 
ATOM     87  C   UNL A   1      46.592  32.699  29.966  1.00  0.00     0.173 A 
ATOM     88  F   UNL A   1      45.550  33.168  26.512  1.00  0.00    -0.203 F 
ATOM     89  C   UNL A   1      46.452  34.704  28.051  1.00  0.00     0.198 A 
ATOM     90  C   UNL A   1      47.003  33.992  30.276  1.00  0.00     0.198 A 
ATOM     91  F   UNL A   1      46.675  31.751  30.910  1.00  0.00    -0.203 F 
ATOM     92  F   UNL A   1      46.413  35.663  27.115  1.00  0.00    -0.200 F 
ATOM     93  C   UNL A   1      46.938  34.991  29.317  1.00  0.00     0.200 A 
ATOM     94  F   UNL A   1      47.461  34.270  31.505  1.00  0.00    -0.200 F 
ATOM     95  F   UNL A   1      47.352  36.232  29.612  1.00  0.00    -0.200 F 
ENDBRANCH  62  85
ENDBRANCH  36  37
ENDBRANCH  28  31
ENDBRANCH  26  27
ENDBRANCH  25  26
ENDBRANCH  24  25
ENDBRANCH   1  24
TORSDOF 18
ENDMDL
MODEL 2
REMARK VINA RESULT:     -11.3      5.538     11.195
REMARK SMILES CCOc1cc(CO)cc(Br)c1OCC(C)(C)C(=O)NCCCCNC(=O)c1ccc(-c2c3nc(c(-c4c(F)c(F)c(F)c(F)c4F)c4ccc([nH]4)c(-c4c(F)c(F)c(F)c(F)c4F)c4nc(c(-c5c(F)c(F)c(F)c(F)c5F)c5ccc2[nH]5)C=C4)C=C3)cc1
REMARK SMILES IDX 21 1 20 2 18 3 19 4 15 6 16 7 17 8 14 9 13 10 12 11 4 12
REMARK SMILES IDX 5 13 6 14 10 15 9 16 11 17 3 18 2 19 1 20 7 21 8 22 22 24
REMARK SMILES IDX 23 25 24 26 25 27 26 28 27 30 28 31 29 32 90 33 30 34 89 35
REMARK SMILES IDX 31 36 32 37 33 38 83 39 34 40 88 41 82 42 84 43 35 44 87 45
REMARK SMILES IDX 81 46 80 47 36 49 68 50 48 51 67 52 49 53 52 54 66 55 85 56
REMARK SMILES IDX 50 57 51 58 65 60 86 61 53 62 37 63 38 64 46 65 39 66 40 67
REMARK SMILES IDX 44 68 47 69 41 70 42 71 45 72 43 73 69 74 70 75 78 76 71 77
REMARK SMILES IDX 72 78 76 79 79 80 73 81 74 82 77 83 75 84 54 85 55 86 63 87
REMARK SMILES IDX 56 88 57 89 61 90 64 91 58 92 59 93 62 94 60 95
REMARK H PARENT 20 5 8 23 25 29 84 48 52 59
REMARK Flexibility Score: inf
ROOT
ATOM      1  C   UNL A   1      33.266  29.661  25.860  1.00  0.00     0.116 C 
ENDROOT
BRANCH   1   2
ATOM      2  N   UNL A   1      33.704  29.095  24.592  1.00  0.00    -0.356 N 
ATOM      3  C   UNL A   1      33.494  27.878  24.001  1.00  0.00     0.229 C 
ATOM      4  O   UNL A   1      33.956  27.745  22.865  1.00  0.00    -0.274 OA
ATOM      5  H   UNL A   1      34.260  29.706  24.056  1.00  0.00     0.163 HD
BRANCH   3   6
ATOM      6  C   UNL A   1      32.736  26.739  24.716  1.00  0.00     0.077 C 
ATOM      7  C   UNL A   1      31.228  26.960  24.533  1.00  0.00     0.025 C 
ATOM      8  C   UNL A   1      33.134  26.749  26.212  1.00  0.00     0.025 C 
BRANCH   6   9
ATOM      9  C   UNL A   1      33.228  25.328  24.204  1.00  0.00     0.246 C 
BRANCH   9  10
ATOM     10  O   UNL A   1      33.924  24.415  25.056  1.00  0.00    -0.487 OA
BRANCH  10  11
ATOM     11  C   UNL A   1      33.538  23.119  25.246  1.00  0.00     0.175 A 
ATOM     12  C   UNL A   1      34.579  22.188  25.043  1.00  0.00     0.162 A 
ATOM     13  C   UNL A   1      34.289  20.836  24.866  1.00  0.00     0.056 A 
ATOM     14  C   UNL A   1      32.967  20.378  24.913  1.00  0.00    -0.018 A 
ATOM     15  C   UNL A   1      32.264  22.626  25.544  1.00  0.00     0.064 A 
ATOM     16  C   UNL A   1      31.974  21.269  25.330  1.00  0.00     0.026 A 
ATOM     17  Br  UNL A   1      30.864  23.646  26.333  1.00  0.00    -0.047 Br
BRANCH  12  18
ATOM     18  O   UNL A   1      35.858  22.669  25.157  1.00  0.00    -0.490 OA
BRANCH  18  19
ATOM     19  C   UNL A   1      36.882  22.100  24.347  1.00  0.00     0.226 C 
ATOM     20  C   UNL A   1      37.989  21.453  25.166  1.00  0.00     0.049 C 
ENDBRANCH  18  19
ENDBRANCH  12  18
BRANCH  14  21
ATOM     21  C   UNL A   1      32.640  18.938  24.625  1.00  0.00     0.191 C 
BRANCH  21  22
ATOM     22  O   UNL A   1      32.170  18.276  25.795  1.00  0.00    -0.392 OA
ATOM     23  H   UNL A   1      31.873  18.936  26.441  1.00  0.00     0.211 HD
ENDBRANCH  21  22
ENDBRANCH  14  21
ENDBRANCH  10  11
ENDBRANCH   9  10
ENDBRANCH   6   9
ENDBRANCH   3   6
ENDBRANCH   1   2
BRANCH   1  24
ATOM     24  C   UNL A   1      31.980  30.469  25.738  1.00  0.00     0.023 C 
BRANCH  24  25
ATOM     25  C   UNL A   1      31.725  31.446  26.880  1.00  0.00     0.023 C 
BRANCH  25  26
ATOM     26  C   UNL A   1      32.897  32.355  27.234  1.00  0.00     0.116 C 
BRANCH  26  27
ATOM     27  N   UNL A   1      32.509  33.735  27.490  1.00  0.00    -0.352 N 
ATOM     28  C   UNL A   1      33.032  34.618  28.405  1.00  0.00     0.251 C 
ATOM     29  H   UNL A   1      31.775  34.082  26.934  1.00  0.00     0.163 HD
ATOM     30  O   UNL A   1      32.529  35.725  28.567  1.00  0.00    -0.269 OA
BRANCH  28  31
ATOM     31  C   UNL A   1      34.185  34.200  29.225  1.00  0.00     0.039 A 
ATOM     32  C   UNL A   1      33.954  33.501  30.411  1.00  0.00     0.014 A 
ATOM     33  C   UNL A   1      35.488  34.439  28.781  1.00  0.00     0.014 A 
ATOM     34  C   UNL A   1      35.035  32.967  31.115  1.00  0.00     0.010 A 
ATOM     35  C   UNL A   1      36.556  33.841  29.440  1.00  0.00     0.010 A 
ATOM     36  C   UNL A   1      36.339  33.096  30.610  1.00  0.00    -0.014 A 
BRANCH  36  37
ATOM     37  C   UNL A   1      37.494  32.455  31.284  1.00  0.00     0.031 A 
ATOM     38  C   UNL A   1      38.198  31.301  30.630  1.00  0.00     0.074 A 
ATOM     39  C   UNL A   1      37.852  32.855  32.520  1.00  0.00     0.049 A 
ATOM     40  N   UNL A   1      39.169  30.554  31.091  1.00  0.00    -0.248 NA
ATOM     41  C   UNL A   1      37.724  30.914  29.293  1.00  0.00     0.031 C 
ATOM     42  C   UNL A   1      37.205  33.922  33.284  1.00  0.00     0.029 A 
ATOM     43  N   UNL A   1      38.840  32.399  33.356  1.00  0.00    -0.354 N 
ATOM     44  C   UNL A   1      39.404  29.599  30.112  1.00  0.00     0.074 A 
ATOM     45  C   UNL A   1      38.441  29.826  29.056  1.00  0.00     0.031 C 
ATOM     46  C   UNL A   1      37.825  34.052  34.468  1.00  0.00     0.029 A 
ATOM     47  C   UNL A   1      38.889  33.058  34.560  1.00  0.00     0.049 A 
ATOM     48  H   UNL A   1      39.454  31.669  33.116  1.00  0.00     0.167 HD
ATOM     49  C   UNL A   1      40.355  28.635  30.084  1.00  0.00     0.037 A 
ATOM     50  C   UNL A   1      39.700  32.877  35.619  1.00  0.00     0.037 A 
ATOM     51  C   UNL A   1      41.332  28.435  31.120  1.00  0.00     0.049 A 
ATOM     52  C   UNL A   1      40.762  31.813  35.557  1.00  0.00     0.074 A 
ATOM     53  C   UNL A   1      42.385  27.537  31.154  1.00  0.00     0.029 A 
ATOM     54  N   UNL A   1      41.375  29.147  32.311  1.00  0.00    -0.354 N 
ATOM     55  N   UNL A   1      41.028  30.965  34.593  1.00  0.00    -0.248 NA
ATOM     56  C   UNL A   1      41.643  31.686  36.726  1.00  0.00     0.031 C 
ATOM     57  C   UNL A   1      43.039  27.677  32.382  1.00  0.00     0.029 A 
ATOM     58  C   UNL A   1      42.423  28.694  33.094  1.00  0.00     0.049 A 
ATOM     59  H   UNL A   1      40.752  29.866  32.562  1.00  0.00     0.167 HD
ATOM     60  C   UNL A   1      42.118  30.223  35.026  1.00  0.00     0.074 A 
ATOM     61  C   UNL A   1      42.473  30.729  36.336  1.00  0.00     0.031 C 
ATOM     62  C   UNL A   1      42.766  29.214  34.395  1.00  0.00     0.037 A 
BRANCH  49  63
ATOM     63  C   UNL A   1      40.381  27.726  28.889  1.00  0.00     0.064 A 
ATOM     64  C   UNL A   1      41.140  28.032  27.749  1.00  0.00     0.173 A 
ATOM     65  C   UNL A   1      39.650  26.529  28.889  1.00  0.00     0.173 A 
ATOM     66  F   UNL A   1      41.846  29.171  27.693  1.00  0.00    -0.203 F 
ATOM     67  C   UNL A   1      41.137  27.190  26.639  1.00  0.00     0.198 A 
ATOM     68  C   UNL A   1      39.675  25.674  27.791  1.00  0.00     0.198 A 
ATOM     69  F   UNL A   1      38.912  26.187  29.955  1.00  0.00    -0.203 F 
ATOM     70  F   UNL A   1      41.823  27.533  25.540  1.00  0.00    -0.200 F 
ATOM     71  C   UNL A   1      40.410  26.010  26.663  1.00  0.00     0.200 A 
ATOM     72  F   UNL A   1      38.980  24.529  27.818  1.00  0.00    -0.200 F 
ATOM     73  F   UNL A   1      40.409  25.201  25.595  1.00  0.00    -0.200 F 
ENDBRANCH  49  63
BRANCH  50  74
ATOM     74  C   UNL A   1      39.560  33.749  36.813  1.00  0.00     0.064 A 
ATOM     75  C   UNL A   1      40.220  34.984  36.881  1.00  0.00     0.173 A 
ATOM     76  C   UNL A   1      38.757  33.376  37.901  1.00  0.00     0.173 A 
ATOM     77  F   UNL A   1      41.014  35.374  35.872  1.00  0.00    -0.203 F 
ATOM     78  C   UNL A   1      40.092  35.808  37.996  1.00  0.00     0.198 A 
ATOM     79  C   UNL A   1      38.610  34.213  39.005  1.00  0.00     0.198 A 
ATOM     80  F   UNL A   1      38.101  32.208  37.882  1.00  0.00    -0.203 F 
ATOM     81  F   UNL A   1      40.761  36.968  38.049  1.00  0.00    -0.200 F 
ATOM     82  C   UNL A   1      39.282  35.425  39.055  1.00  0.00     0.200 A 
ATOM     83  F   UNL A   1      37.816  33.846  40.021  1.00  0.00    -0.200 F 
ATOM     84  F   UNL A   1      39.153  36.223  40.124  1.00  0.00    -0.200 F 
ENDBRANCH  50  74
BRANCH  62  85
ATOM     85  C   UNL A   1      43.946  28.610  35.097  1.00  0.00     0.064 A 
ATOM     86  C   UNL A   1      45.242  29.115  34.925  1.00  0.00     0.173 A 
ATOM     87  C   UNL A   1      43.768  27.540  35.989  1.00  0.00     0.173 A 
ATOM     88  F   UNL A   1      45.465  30.125  34.072  1.00  0.00    -0.203 F 
ATOM     89  C   UNL A   1      46.322  28.557  35.605  1.00  0.00     0.198 A 
ATOM     90  C   UNL A   1      44.845  27.005  36.688  1.00  0.00     0.198 A 
ATOM     91  F   UNL A   1      42.546  27.026  36.192  1.00  0.00    -0.203 F 
ATOM     92  F   UNL A   1      47.559  29.028  35.394  1.00  0.00    -0.200 F 
ATOM     93  C   UNL A   1      46.122  27.509  36.490  1.00  0.00     0.200 A 
ATOM     94  F   UNL A   1      44.648  26.000  37.553  1.00  0.00    -0.200 F 
ATOM     95  F   UNL A   1      47.162  26.979  37.150  1.00  0.00    -0.200 F 
ENDBRANCH  62  85
ENDBRANCH  36  37
ENDBRANCH  28  31
ENDBRANCH  26  27
ENDBRANCH  25  26
ENDBRANCH  24  25
ENDBRANCH   1  24
TORSDOF 18
ENDMDL
MODEL 3
REMARK VINA RESULT:     -11.3      5.441      9.940
REMARK SMILES CCOc1cc(CO)cc(Br)c1OCC(C)(C)C(=O)NCCCCNC(=O)c1ccc(-c2c3nc(c(-c4c(F)c(F)c(F)c(F)c4F)c4ccc([nH]4)c(-c4c(F)c(F)c(F)c(F)c4F)c4nc(c(-c5c(F)c(F)c(F)c(F)c5F)c5ccc2[nH]5)C=C4)C=C3)cc1
REMARK SMILES IDX 21 1 20 2 18 3 19 4 15 6 16 7 17 8 14 9 13 10 12 11 4 12
REMARK SMILES IDX 5 13 6 14 10 15 9 16 11 17 3 18 2 19 1 20 7 21 8 22 22 24
REMARK SMILES IDX 23 25 24 26 25 27 26 28 27 30 28 31 29 32 90 33 30 34 89 35
REMARK SMILES IDX 31 36 32 37 33 38 83 39 34 40 88 41 82 42 84 43 35 44 87 45
REMARK SMILES IDX 81 46 80 47 36 49 68 50 48 51 67 52 49 53 52 54 66 55 85 56
REMARK SMILES IDX 50 57 51 58 65 60 86 61 53 62 37 63 38 64 46 65 39 66 40 67
REMARK SMILES IDX 44 68 47 69 41 70 42 71 45 72 43 73 69 74 70 75 78 76 71 77
REMARK SMILES IDX 72 78 76 79 79 80 73 81 74 82 77 83 75 84 54 85 55 86 63 87
REMARK SMILES IDX 56 88 57 89 61 90 64 91 58 92 59 93 62 94 60 95
REMARK H PARENT 20 5 8 23 25 29 84 48 52 59
REMARK Flexibility Score: inf
ROOT
ATOM      1  C   UNL A   1      33.232  30.054  26.152  1.00  0.00     0.116 C 
ENDROOT
BRANCH   1   2
ATOM      2  N   UNL A   1      33.712  29.531  24.881  1.00  0.00    -0.356 N 
ATOM      3  C   UNL A   1      33.593  28.306  24.282  1.00  0.00     0.229 C 
ATOM      4  O   UNL A   1      34.063  28.216  23.145  1.00  0.00    -0.274 OA
ATOM      5  H   UNL A   1      34.220  30.186  24.349  1.00  0.00     0.163 HD
BRANCH   3   6
ATOM      6  C   UNL A   1      32.921  27.109  24.988  1.00  0.00     0.077 C 
ATOM      7  C   UNL A   1      31.403  27.203  24.782  1.00  0.00     0.025 C 
ATOM      8  C   UNL A   1      33.294  27.154  26.490  1.00  0.00     0.025 C 
BRANCH   6   9
ATOM      9  C   UNL A   1      33.536  25.742  24.488  1.00  0.00     0.246 C 
BRANCH   9  10
ATOM     10  O   UNL A   1      33.764  24.646  25.376  1.00  0.00    -0.487 OA
BRANCH  10  11
ATOM     11  C   UNL A   1      33.576  23.340  25.021  1.00  0.00     0.175 A 
ATOM     12  C   UNL A   1      32.263  22.879  25.255  1.00  0.00     0.162 A 
ATOM     13  C   UNL A   1      31.989  21.511  25.270  1.00  0.00     0.056 A 
ATOM     14  C   UNL A   1      33.004  20.579  25.027  1.00  0.00    -0.018 A 
ATOM     15  C   UNL A   1      34.516  22.427  24.533  1.00  0.00     0.064 A 
ATOM     16  C   UNL A   1      34.243  21.051  24.583  1.00  0.00     0.026 A 
ATOM     17  Br  UNL A   1      36.152  22.905  23.686  1.00  0.00    -0.047 Br
BRANCH  12  18
ATOM     18  O   UNL A   1      31.285  23.837  25.335  1.00  0.00    -0.490 OA
BRANCH  18  19
ATOM     19  C   UNL A   1      30.602  24.021  26.571  1.00  0.00     0.226 C 
ATOM     20  C   UNL A   1      29.821  22.788  27.001  1.00  0.00     0.049 C 
ENDBRANCH  18  19
ENDBRANCH  12  18
BRANCH  14  21
ATOM     21  C   UNL A   1      32.737  19.103  25.139  1.00  0.00     0.191 C 
BRANCH  21  22
ATOM     22  O   UNL A   1      32.645  18.702  26.502  1.00  0.00    -0.392 OA
ATOM     23  H   UNL A   1      33.527  18.466  26.830  1.00  0.00     0.211 HD
ENDBRANCH  21  22
ENDBRANCH  14  21
ENDBRANCH  10  11
ENDBRANCH   9  10
ENDBRANCH   6   9
ENDBRANCH   3   6
ENDBRANCH   1   2
BRANCH   1  24
ATOM     24  C   UNL A   1      31.766  30.469  26.110  1.00  0.00     0.023 C 
BRANCH  24  25
ATOM     25  C   UNL A   1      31.476  31.859  26.664  1.00  0.00     0.023 C 
BRANCH  25  26
ATOM     26  C   UNL A   1      32.682  32.596  27.237  1.00  0.00     0.116 C 
BRANCH  26  27
ATOM     27  N   UNL A   1      32.418  33.996  27.543  1.00  0.00    -0.352 N 
ATOM     28  C   UNL A   1      33.042  34.806  28.463  1.00  0.00     0.251 C 
ATOM     29  H   UNL A   1      31.697  34.418  27.024  1.00  0.00     0.163 HD
ATOM     30  O   UNL A   1      32.639  35.945  28.671  1.00  0.00    -0.269 OA
BRANCH  28  31
ATOM     31  C   UNL A   1      34.184  34.270  29.229  1.00  0.00     0.039 A 
ATOM     32  C   UNL A   1      33.934  33.477  30.351  1.00  0.00     0.014 A 
ATOM     33  C   UNL A   1      35.493  34.497  28.794  1.00  0.00     0.014 A 
ATOM     34  C   UNL A   1      34.997  32.840  30.992  1.00  0.00     0.010 A 
ATOM     35  C   UNL A   1      36.540  33.801  29.385  1.00  0.00     0.010 A 
ATOM     36  C   UNL A   1      36.301  32.963  30.487  1.00  0.00    -0.014 A 
BRANCH  36  37
ATOM     37  C   UNL A   1      37.435  32.219  31.088  1.00  0.00     0.031 A 
ATOM     38  C   UNL A   1      37.924  32.577  32.461  1.00  0.00     0.074 A 
ATOM     39  C   UNL A   1      38.075  31.280  30.364  1.00  0.00     0.049 A 
ATOM     40  N   UNL A   1      38.949  32.106  33.124  1.00  0.00    -0.248 NA
ATOM     41  C   UNL A   1      37.183  33.632  33.169  1.00  0.00     0.031 C 
ATOM     42  C   UNL A   1      37.733  30.886  28.996  1.00  0.00     0.029 A 
ATOM     43  N   UNL A   1      39.159  30.497  30.673  1.00  0.00    -0.354 N 
ATOM     44  C   UNL A   1      38.987  32.821  34.314  1.00  0.00     0.074 A 
ATOM     45  C   UNL A   1      37.917  33.794  34.259  1.00  0.00     0.031 C 
ATOM     46  C   UNL A   1      38.576  29.923  28.592  1.00  0.00     0.029 A 
ATOM     47  C   UNL A   1      39.537  29.654  29.657  1.00  0.00     0.049 A 
ATOM     48  H   UNL A   1      39.621  30.536  31.541  1.00  0.00     0.167 HD
ATOM     49  C   UNL A   1      39.823  32.664  35.367  1.00  0.00     0.037 A 
ATOM     50  C   UNL A   1      40.549  28.768  29.591  1.00  0.00     0.037 A 
ATOM     51  C   UNL A   1      40.864  31.673  35.431  1.00  0.00     0.049 A 
ATOM     52  C   UNL A   1      41.452  28.597  30.782  1.00  0.00     0.074 A 
ATOM     53  C   UNL A   1      41.716  31.381  36.481  1.00  0.00     0.029 A 
ATOM     54  N   UNL A   1      41.196  30.811  34.395  1.00  0.00    -0.354 N 
ATOM     55  N   UNL A   1      41.432  29.224  31.933  1.00  0.00    -0.248 NA
ATOM     56  C   UNL A   1      42.515  27.589  30.668  1.00  0.00     0.031 C 
ATOM     57  C   UNL A   1      42.590  30.370  36.067  1.00  0.00     0.029 A 
ATOM     58  C   UNL A   1      42.252  30.001  34.775  1.00  0.00     0.049 A 
ATOM     59  H   UNL A   1      40.746  30.781  33.519  1.00  0.00     0.167 HD
ATOM     60  C   UNL A   1      42.457  28.671  32.688  1.00  0.00     0.074 A 
ATOM     61  C   UNL A   1      43.073  27.649  31.869  1.00  0.00     0.031 C 
ATOM     62  C   UNL A   1      42.850  28.983  33.947  1.00  0.00     0.037 A 
BRANCH  49  63
ATOM     63  C   UNL A   1      39.640  33.587  36.537  1.00  0.00     0.064 A 
ATOM     64  C   UNL A   1      40.282  34.834  36.597  1.00  0.00     0.173 A 
ATOM     65  C   UNL A   1      38.802  33.229  37.602  1.00  0.00     0.173 A 
ATOM     66  F   UNL A   1      41.106  35.218  35.610  1.00  0.00    -0.203 F 
ATOM     67  C   UNL A   1      40.121  35.671  37.699  1.00  0.00     0.198 A 
ATOM     68  C   UNL A   1      38.616  34.082  38.687  1.00  0.00     0.198 A 
ATOM     69  F   UNL A   1      38.160  32.051  37.592  1.00  0.00    -0.203 F 
ATOM     70  F   UNL A   1      40.791  36.830  37.760  1.00  0.00    -0.200 F 
ATOM     71  C   UNL A   1      39.283  35.297  38.739  1.00  0.00     0.200 A 
ATOM     72  F   UNL A   1      37.800  33.725  39.687  1.00  0.00    -0.200 F 
ATOM     73  F   UNL A   1      39.128  36.104  39.797  1.00  0.00    -0.200 F 
ENDBRANCH  49  63
BRANCH  50  74
ATOM     74  C   UNL A   1      40.736  27.952  28.365  1.00  0.00     0.064 A 
ATOM     75  C   UNL A   1      40.130  26.694  28.243  1.00  0.00     0.173 A 
ATOM     76  C   UNL A   1      41.508  28.413  27.289  1.00  0.00     0.173 A 
ATOM     77  F   UNL A   1      39.398  26.202  29.254  1.00  0.00    -0.203 F 
ATOM     78  C   UNL A   1      40.299  25.922  27.095  1.00  0.00     0.198 A 
ATOM     79  C   UNL A   1      41.655  27.651  26.132  1.00  0.00     0.198 A 
ATOM     80  F   UNL A   1      42.103  29.612  27.356  1.00  0.00    -0.203 F 
ATOM     81  F   UNL A   1      39.737  24.708  27.019  1.00  0.00    -0.200 F 
ATOM     82  C   UNL A   1      41.056  26.404  26.039  1.00  0.00     0.200 A 
ATOM     83  F   UNL A   1      42.376  28.126  25.107  1.00  0.00    -0.200 F 
ATOM     84  F   UNL A   1      41.211  25.665  24.931  1.00  0.00    -0.200 F 
ENDBRANCH  50  74
BRANCH  62  85
ATOM     85  C   UNL A   1      43.982  28.189  34.529  1.00  0.00     0.064 A 
ATOM     86  C   UNL A   1      43.762  26.977  35.199  1.00  0.00     0.173 A 
ATOM     87  C   UNL A   1      45.307  28.626  34.374  1.00  0.00     0.173 A 
ATOM     88  F   UNL A   1      42.513  26.526  35.386  1.00  0.00    -0.203 F 
ATOM     89  C   UNL A   1      44.827  26.240  35.711  1.00  0.00     0.198 A 
ATOM     90  C   UNL A   1      46.371  27.872  34.862  1.00  0.00     0.198 A 
ATOM     91  F   UNL A   1      45.570  29.775  33.735  1.00  0.00    -0.203 F 
ATOM     92  F   UNL A   1      44.592  25.106  36.385  1.00  0.00    -0.200 F 
ATOM     93  C   UNL A   1      46.129  26.684  35.536  1.00  0.00     0.200 A 
ATOM     94  F   UNL A   1      47.629  28.296  34.681  1.00  0.00    -0.200 F 
ATOM     95  F   UNL A   1      47.153  25.969  36.022  1.00  0.00    -0.200 F 
ENDBRANCH  62  85
ENDBRANCH  36  37
ENDBRANCH  28  31
ENDBRANCH  26  27
ENDBRANCH  25  26
ENDBRANCH  24  25
ENDBRANCH   1  24
TORSDOF 18
ENDMDL
