MODEL 1
REMARK VINA RESULT:     -12.2      0.000      0.000
REMARK SMILES CCC1(C(=O)NCCCCNC(=O)c2ccc(-c3c4nc(c(-c5c(F)c(F)c(F)c(F)c5F)c5ccc([nH]5)c(-c5c(F)c(F)c(F)c(F)c5F)c5nc(c(-c6c(F)c(F)c(F)c(F)c6F)c6ccc3[nH]6)C=C5)C=C4)cc2)CCN(C(=O)C[C@H]2CSCC[NH2+]2)CC1
REMARK SMILES IDX 8 1 7 2 6 3 4 4 5 5 3 7 77 8 90 9 78 10 89 11 79 12 80 13
REMARK SMILES IDX 81 14 2 15 1 16 82 17 83 18 84 19 88 20 85 21 87 22 86 25
REMARK SMILES IDX 9 26 10 27 11 28 12 29 13 31 14 32 15 33 76 34 16 35 75 36
REMARK SMILES IDX 17 37 18 38 19 39 69 40 20 41 74 42 68 43 70 44 21 45 73 46
REMARK SMILES IDX 67 47 66 48 22 50 54 51 34 52 53 53 35 54 38 55 52 56 71 57
REMARK SMILES IDX 36 58 37 59 51 61 72 62 39 63 23 64 24 65 32 66 25 67 26 68
REMARK SMILES IDX 30 69 33 70 27 71 28 72 31 73 29 74 55 75 56 76 64 77 57 78
REMARK SMILES IDX 58 79 62 80 65 81 59 82 60 83 63 84 61 85 40 86 41 87 49 88
REMARK SMILES IDX 42 89 43 90 47 91 50 92 44 93 45 94 48 95 46 96
REMARK H PARENT 6 6 88 23 88 24 11 30 70 49 38 60
REMARK Flexibility Score: inf
ROOT
ATOM      1  C   UNL A   1      31.960  27.680  27.023  1.00  0.00     0.023 C 
ENDROOT
BRANCH   1   2
ATOM      2  C   UNL A   1      31.773  26.266  26.471  1.00  0.00     0.116 C 
BRANCH   2   3
ATOM      3  N   UNL A   1      33.001  25.476  26.507  1.00  0.00    -0.356 N 
ATOM      4  C   UNL A   1      33.792  24.958  25.518  1.00  0.00     0.226 C 
ATOM      5  O   UNL A   1      34.822  24.387  25.892  1.00  0.00    -0.274 OA
ATOM      6  H   UNL A   1      33.320  25.279  27.416  1.00  0.00     0.163 HD
BRANCH   4   7
ATOM      7  C   UNL A   1      33.455  25.113  24.011  1.00  0.00     0.052 C 
ATOM      8  C   UNL A   1      32.003  24.588  23.765  1.00  0.00     0.038 C 
ATOM      9  C   UNL A   1      33.649  26.603  23.639  1.00  0.00     0.038 C 
ATOM     10  C   UNL A   1      31.271  25.231  22.585  1.00  0.00     0.120 C 
ATOM     11  C   UNL A   1      32.933  26.991  22.353  1.00  0.00     0.120 C 
ATOM     12  N   UNL A   1      31.524  26.664  22.496  1.00  0.00    -0.342 N 
ATOM     13  C   UNL A   1      30.503  27.578  22.747  1.00  0.00     0.228 C 
ATOM     14  O   UNL A   1      29.402  27.224  23.178  1.00  0.00    -0.275 OA
BRANCH   7  15
ATOM     15  C   UNL A   1      34.402  24.205  23.148  1.00  0.00     0.013 C 
ATOM     16  C   UNL A   1      33.994  22.744  22.974  1.00  0.00     0.005 C 
ENDBRANCH   7  15
BRANCH  13  17
ATOM     17  C   UNL A   1      30.739  29.046  22.399  1.00  0.00     0.166 C 
BRANCH  17  18
ATOM     18  C   UNL A   1      29.480  29.930  22.256  1.00  0.00     0.201 C 
ATOM     19  C   UNL A   1      29.209  30.696  23.569  1.00  0.00     0.135 C 
ATOM     20  N   UNL A   1      29.544  30.776  21.049  1.00  0.00    -0.342 N 
ATOM     21  S   UNL A   1      27.655  31.647  23.502  1.00  0.00    -0.150 SA
ATOM     22  C   UNL A   1      28.367  31.625  20.838  1.00  0.00     0.271 C 
ATOM     23  H   UNL A   1      29.647  30.166  20.238  1.00  0.00     0.346 HD
ATOM     24  H   UNL A   1      30.338  31.404  21.177  1.00  0.00     0.346 HD
ATOM     25  C   UNL A   1      28.028  32.573  21.988  1.00  0.00     0.131 C 
ENDBRANCH  17  18
ENDBRANCH  13  17
ENDBRANCH   4   7
ENDBRANCH   2   3
ENDBRANCH   1   2
BRANCH   1  26
ATOM     26  C   UNL A   1      31.726  28.807  26.020  1.00  0.00     0.023 C 
BRANCH  26  27
ATOM     27  C   UNL A   1      32.895  29.765  25.828  1.00  0.00     0.116 C 
BRANCH  27  28
ATOM     28  N   UNL A   1      32.637  31.107  26.328  1.00  0.00    -0.352 N 
ATOM     29  C   UNL A   1      33.351  31.838  27.248  1.00  0.00     0.251 C 
ATOM     30  H   UNL A   1      31.841  31.553  25.957  1.00  0.00     0.163 HD
ATOM     31  O   UNL A   1      32.941  32.927  27.636  1.00  0.00    -0.269 OA
BRANCH  29  32
ATOM     32  C   UNL A   1      34.606  31.285  27.803  1.00  0.00     0.039 A 
ATOM     33  C   UNL A   1      35.691  32.142  28.002  1.00  0.00     0.014 A 
ATOM     34  C   UNL A   1      34.696  29.937  28.157  1.00  0.00     0.014 A 
ATOM     35  C   UNL A   1      36.842  31.666  28.634  1.00  0.00     0.010 A 
ATOM     36  C   UNL A   1      35.812  29.483  28.852  1.00  0.00     0.010 A 
ATOM     37  C   UNL A   1      36.893  30.343  29.102  1.00  0.00    -0.014 A 
BRANCH  37  38
ATOM     38  C   UNL A   1      38.068  29.823  29.849  1.00  0.00     0.031 A 
ATOM     39  C   UNL A   1      38.347  30.322  31.238  1.00  0.00     0.074 A 
ATOM     40  C   UNL A   1      38.927  28.978  29.248  1.00  0.00     0.049 A 
ATOM     41  N   UNL A   1      39.387  30.111  32.003  1.00  0.00    -0.248 NA
ATOM     42  C   UNL A   1      37.332  31.205  31.834  1.00  0.00     0.031 C 
ATOM     43  C   UNL A   1      38.787  28.445  27.893  1.00  0.00     0.029 A 
ATOM     44  N   UNL A   1      40.106  28.434  29.698  1.00  0.00    -0.354 N 
ATOM     45  C   UNL A   1      39.164  30.852  33.154  1.00  0.00     0.074 A 
ATOM     46  C   UNL A   1      37.914  31.557  32.970  1.00  0.00     0.031 C 
ATOM     47  C   UNL A   1      39.827  27.638  27.627  1.00  0.00     0.029 A 
ATOM     48  C   UNL A   1      40.729  27.631  28.774  1.00  0.00     0.049 A 
ATOM     49  H   UNL A   1      40.468  28.603  30.598  1.00  0.00     0.167 HD
ATOM     50  C   UNL A   1      39.922  30.923  34.275  1.00  0.00     0.037 A 
ATOM     51  C   UNL A   1      41.904  26.974  28.842  1.00  0.00     0.037 A 
ATOM     52  C   UNL A   1      41.149  30.197  34.469  1.00  0.00     0.049 A 
ATOM     53  C   UNL A   1      42.732  27.076  30.095  1.00  0.00     0.074 A 
ATOM     54  C   UNL A   1      41.966  30.164  35.584  1.00  0.00     0.029 A 
ATOM     55  N   UNL A   1      41.734  29.371  33.519  1.00  0.00    -0.354 N 
ATOM     56  N   UNL A   1      42.490  27.744  31.196  1.00  0.00    -0.248 NA
ATOM     57  C   UNL A   1      43.999  26.329  30.113  1.00  0.00     0.031 C 
ATOM     58  C   UNL A   1      43.064  29.345  35.298  1.00  0.00     0.029 A 
ATOM     59  C   UNL A   1      42.907  28.833  34.021  1.00  0.00     0.049 A 
ATOM     60  H   UNL A   1      41.369  29.193  32.623  1.00  0.00     0.167 HD
ATOM     61  C   UNL A   1      43.549  27.469  32.050  1.00  0.00     0.074 A 
ATOM     62  C   UNL A   1      44.437  26.571  31.341  1.00  0.00     0.031 C 
ATOM     63  C   UNL A   1      43.767  27.921  33.309  1.00  0.00     0.037 A 
BRANCH  50  64
ATOM     64  C   UNL A   1      39.441  31.818  35.378  1.00  0.00     0.064 A 
ATOM     65  C   UNL A   1      38.585  31.347  36.386  1.00  0.00     0.173 A 
ATOM     66  C   UNL A   1      39.855  33.157  35.443  1.00  0.00     0.173 A 
ATOM     67  F   UNL A   1      38.149  30.078  36.364  1.00  0.00    -0.203 F 
ATOM     68  C   UNL A   1      38.135  32.191  37.397  1.00  0.00     0.198 A 
ATOM     69  C   UNL A   1      39.428  33.990  36.474  1.00  0.00     0.198 A 
ATOM     70  F   UNL A   1      40.677  33.657  34.508  1.00  0.00    -0.203 F 
ATOM     71  F   UNL A   1      37.273  31.733  38.316  1.00  0.00    -0.200 F 
ATOM     72  C   UNL A   1      38.560  33.510  37.444  1.00  0.00     0.200 A 
ATOM     73  F   UNL A   1      39.850  35.261  36.524  1.00  0.00    -0.200 F 
ATOM     74  F   UNL A   1      38.129  34.321  38.419  1.00  0.00    -0.200 F 
ENDBRANCH  50  64
BRANCH  51  75
ATOM     75  C   UNL A   1      42.355  26.139  27.700  1.00  0.00     0.064 A 
ATOM     76  C   UNL A   1      41.855  24.842  27.520  1.00  0.00     0.173 A 
ATOM     77  C   UNL A   1      43.295  26.611  26.771  1.00  0.00     0.173 A 
ATOM     78  F   UNL A   1      40.972  24.340  28.396  1.00  0.00    -0.203 F 
ATOM     79  C   UNL A   1      42.290  24.041  26.467  1.00  0.00     0.198 A 
ATOM     80  C   UNL A   1      43.710  25.818  25.703  1.00  0.00     0.198 A 
ATOM     81  F   UNL A   1      43.803  27.845  26.896  1.00  0.00    -0.203 F 
ATOM     82  F   UNL A   1      41.828  22.789  26.345  1.00  0.00    -0.200 F 
ATOM     83  C   UNL A   1      43.213  24.531  25.557  1.00  0.00     0.200 A 
ATOM     84  F   UNL A   1      44.594  26.299  24.818  1.00  0.00    -0.200 F 
ATOM     85  F   UNL A   1      43.630  23.761  24.542  1.00  0.00    -0.200 F 
ENDBRANCH  51  75
BRANCH  63  86
ATOM     86  C   UNL A   1      44.981  27.409  34.027  1.00  0.00     0.064 A 
ATOM     87  C   UNL A   1      46.206  28.089  33.983  1.00  0.00     0.173 A 
ATOM     88  C   UNL A   1      44.898  26.250  34.815  1.00  0.00     0.173 A 
ATOM     89  F   UNL A   1      46.339  29.193  33.233  1.00  0.00    -0.203 F 
ATOM     90  C   UNL A   1      47.310  27.618  34.688  1.00  0.00     0.198 A 
ATOM     91  C   UNL A   1      45.996  25.797  35.540  1.00  0.00     0.198 A 
ATOM     92  F   UNL A   1      43.746  25.567  34.895  1.00  0.00    -0.203 F 
ATOM     93  F   UNL A   1      48.483  28.261  34.603  1.00  0.00    -0.200 F 
ATOM     94  C   UNL A   1      47.202  26.477  35.472  1.00  0.00     0.200 A 
ATOM     95  F   UNL A   1      45.886  24.703  36.306  1.00  0.00    -0.200 F 
ATOM     96  F   UNL A   1      48.263  26.032  36.159  1.00  0.00    -0.200 F 
ENDBRANCH  63  86
ENDBRANCH  37  38
ENDBRANCH  29  32
ENDBRANCH  27  28
ENDBRANCH  26  27
ENDBRANCH   1  26
TORSDOF 14
ENDMDL
MODEL 2
REMARK VINA RESULT:     -12.2      0.470      7.368
REMARK SMILES CCC1(C(=O)NCCCCNC(=O)c2ccc(-c3c4nc(c(-c5c(F)c(F)c(F)c(F)c5F)c5ccc([nH]5)c(-c5c(F)c(F)c(F)c(F)c5F)c5nc(c(-c6c(F)c(F)c(F)c(F)c6F)c6ccc3[nH]6)C=C5)C=C4)cc2)CCN(C(=O)C[C@H]2CSCC[NH2+]2)CC1
REMARK SMILES IDX 8 1 7 2 6 3 4 4 5 5 3 7 77 8 90 9 78 10 89 11 79 12 80 13
REMARK SMILES IDX 81 14 2 15 1 16 82 17 83 18 84 19 88 20 85 21 87 22 86 25
REMARK SMILES IDX 9 26 10 27 11 28 12 29 13 31 14 32 15 33 76 34 16 35 75 36
REMARK SMILES IDX 17 37 18 38 19 39 69 40 20 41 74 42 68 43 70 44 21 45 73 46
REMARK SMILES IDX 67 47 66 48 22 50 54 51 34 52 53 53 35 54 38 55 52 56 71 57
REMARK SMILES IDX 36 58 37 59 51 61 72 62 39 63 23 64 24 65 32 66 25 67 26 68
REMARK SMILES IDX 30 69 33 70 27 71 28 72 31 73 29 74 55 75 56 76 64 77 57 78
REMARK SMILES IDX 58 79 62 80 65 81 59 82 60 83 63 84 61 85 40 86 41 87 49 88
REMARK SMILES IDX 42 89 43 90 47 91 50 92 44 93 45 94 48 95 46 96
REMARK H PARENT 6 6 88 23 88 24 11 30 70 49 38 60
REMARK Flexibility Score: inf
ROOT
ATOM      1  C   UNL A   1      32.039  27.614  27.109  1.00  0.00     0.023 C 
ENDROOT
BRANCH   1   2
ATOM      2  C   UNL A   1      31.780  26.228  26.513  1.00  0.00     0.116 C 
BRANCH   2   3
ATOM      3  N   UNL A   1      32.950  25.355  26.583  1.00  0.00    -0.356 N 
ATOM      4  C   UNL A   1      33.752  24.812  25.616  1.00  0.00     0.226 C 
ATOM      5  O   UNL A   1      34.721  24.162  26.019  1.00  0.00    -0.274 OA
ATOM      6  H   UNL A   1      33.210  25.111  27.499  1.00  0.00     0.163 HD
BRANCH   4   7
ATOM      7  C   UNL A   1      33.500  25.032  24.100  1.00  0.00     0.052 C 
ATOM      8  C   UNL A   1      32.072  24.504  23.747  1.00  0.00     0.038 C 
ATOM      9  C   UNL A   1      33.696  26.540  23.807  1.00  0.00     0.038 C 
ATOM     10  C   UNL A   1      31.400  25.192  22.557  1.00  0.00     0.120 C 
ATOM     11  C   UNL A   1      33.049  26.978  22.501  1.00  0.00     0.120 C 
ATOM     12  N   UNL A   1      31.639  26.630  22.547  1.00  0.00    -0.342 N 
ATOM     13  C   UNL A   1      30.593  27.521  22.779  1.00  0.00     0.228 C 
ATOM     14  O   UNL A   1      29.474  27.137  23.129  1.00  0.00    -0.275 OA
BRANCH   7  15
ATOM     15  C   UNL A   1      34.507  24.175  23.254  1.00  0.00     0.013 C 
ATOM     16  C   UNL A   1      34.101  22.737  22.938  1.00  0.00     0.005 C 
ENDBRANCH   7  15
BRANCH  13  17
ATOM     17  C   UNL A   1      30.830  29.006  22.512  1.00  0.00     0.166 C 
BRANCH  17  18
ATOM     18  C   UNL A   1      29.569  29.885  22.351  1.00  0.00     0.201 C 
ATOM     19  C   UNL A   1      29.297  30.677  23.649  1.00  0.00     0.135 C 
ATOM     20  N   UNL A   1      29.631  30.706  21.128  1.00  0.00    -0.342 N 
ATOM     21  S   UNL A   1      27.742  31.625  23.563  1.00  0.00    -0.150 SA
ATOM     22  C   UNL A   1      28.453  31.550  20.900  1.00  0.00     0.271 C 
ATOM     23  H   UNL A   1      29.734  30.080  20.329  1.00  0.00     0.346 HD
ATOM     24  H   UNL A   1      30.424  31.338  21.242  1.00  0.00     0.346 HD
ATOM     25  C   UNL A   1      28.113  32.520  22.030  1.00  0.00     0.131 C 
ENDBRANCH  17  18
ENDBRANCH  13  17
ENDBRANCH   4   7
ENDBRANCH   2   3
ENDBRANCH   1   2
BRANCH   1  26
ATOM     26  C   UNL A   1      31.766  28.787  26.170  1.00  0.00     0.023 C 
BRANCH  26  27
ATOM     27  C   UNL A   1      32.917  29.769  25.999  1.00  0.00     0.116 C 
BRANCH  27  28
ATOM     28  N   UNL A   1      32.580  31.134  26.377  1.00  0.00    -0.352 N 
ATOM     29  C   UNL A   1      33.252  31.987  27.220  1.00  0.00     0.251 C 
ATOM     30  H   UNL A   1      31.758  31.496  25.973  1.00  0.00     0.163 HD
ATOM     31  O   UNL A   1      32.778  33.080  27.511  1.00  0.00    -0.269 OA
BRANCH  29  32
ATOM     32  C   UNL A   1      34.539  31.563  27.813  1.00  0.00     0.039 A 
ATOM     33  C   UNL A   1      35.576  32.494  27.914  1.00  0.00     0.014 A 
ATOM     34  C   UNL A   1      34.708  30.264  28.298  1.00  0.00     0.014 A 
ATOM     35  C   UNL A   1      36.755  32.148  28.577  1.00  0.00     0.010 A 
ATOM     36  C   UNL A   1      35.851  29.944  29.022  1.00  0.00     0.010 A 
ATOM     37  C   UNL A   1      36.884  30.883  29.173  1.00  0.00    -0.014 A 
BRANCH  37  38
ATOM     38  C   UNL A   1      38.090  30.507  29.955  1.00  0.00     0.031 A 
ATOM     39  C   UNL A   1      39.079  29.535  29.376  1.00  0.00     0.074 A 
ATOM     40  C   UNL A   1      38.247  30.964  31.212  1.00  0.00     0.049 A 
ATOM     41  N   UNL A   1      40.112  28.966  29.942  1.00  0.00    -0.248 NA
ATOM     42  C   UNL A   1      38.855  29.124  27.982  1.00  0.00     0.031 C 
ATOM     43  C   UNL A   1      37.342  31.885  31.899  1.00  0.00     0.029 A 
ATOM     44  N   UNL A   1      39.220  30.698  32.144  1.00  0.00    -0.354 N 
ATOM     45  C   UNL A   1      40.644  28.115  28.984  1.00  0.00     0.074 A 
ATOM     46  C   UNL A   1      39.793  28.204  27.818  1.00  0.00     0.031 C 
ATOM     47  C   UNL A   1      37.810  32.121  33.137  1.00  0.00     0.029 A 
ATOM     48  C   UNL A   1      39.021  31.335  33.345  1.00  0.00     0.049 A 
ATOM     49  H   UNL A   1      39.987  30.106  31.968  1.00  0.00     0.167 HD
ATOM     50  C   UNL A   1      41.755  27.343  29.062  1.00  0.00     0.037 A 
ATOM     51  C   UNL A   1      39.732  31.279  34.488  1.00  0.00     0.037 A 
ATOM     52  C   UNL A   1      42.617  27.280  30.211  1.00  0.00     0.049 A 
ATOM     53  C   UNL A   1      40.957  30.408  34.552  1.00  0.00     0.074 A 
ATOM     54  C   UNL A   1      43.791  26.566  30.373  1.00  0.00     0.029 A 
ATOM     55  N   UNL A   1      42.398  27.963  31.400  1.00  0.00    -0.354 N 
ATOM     56  N   UNL A   1      41.477  29.640  33.625  1.00  0.00    -0.248 NA
ATOM     57  C   UNL A   1      41.696  30.397  35.823  1.00  0.00     0.031 C 
ATOM     58  C   UNL A   1      44.264  26.789  31.670  1.00  0.00     0.029 A 
ATOM     59  C   UNL A   1      43.410  27.678  32.301  1.00  0.00     0.049 A 
ATOM     60  H   UNL A   1      41.637  28.562  31.575  1.00  0.00     0.167 HD
ATOM     61  C   UNL A   1      42.620  29.087  34.185  1.00  0.00     0.074 A 
ATOM     62  C   UNL A   1      42.721  29.607  35.532  1.00  0.00     0.031 C 
ATOM     63  C   UNL A   1      43.507  28.224  33.632  1.00  0.00     0.037 A 
BRANCH  50  64
ATOM     64  C   UNL A   1      42.098  26.506  27.865  1.00  0.00     0.064 A 
ATOM     65  C   UNL A   1      43.006  26.952  26.893  1.00  0.00     0.173 A 
ATOM     66  C   UNL A   1      41.530  25.234  27.698  1.00  0.00     0.173 A 
ATOM     67  F   UNL A   1      43.568  28.166  26.999  1.00  0.00    -0.203 F 
ATOM     68  C   UNL A   1      43.306  26.171  25.780  1.00  0.00     0.198 A 
ATOM     69  C   UNL A   1      41.857  24.442  26.600  1.00  0.00     0.198 A 
ATOM     70  F   UNL A   1      40.660  24.757  28.601  1.00  0.00    -0.203 F 
ATOM     71  F   UNL A   1      44.133  26.642  24.836  1.00  0.00    -0.200 F 
ATOM     72  C   UNL A   1      42.736  24.915  25.637  1.00  0.00     0.200 A 
ATOM     73  F   UNL A   1      41.314  23.223  26.469  1.00  0.00    -0.200 F 
ATOM     74  F   UNL A   1      43.028  24.163  24.567  1.00  0.00    -0.200 F 
ENDBRANCH  50  64
BRANCH  51  75
ATOM     75  C   UNL A   1      39.319  32.094  35.660  1.00  0.00     0.064 A 
ATOM     76  C   UNL A   1      38.453  31.568  36.628  1.00  0.00     0.173 A 
ATOM     77  C   UNL A   1      39.770  33.411  35.834  1.00  0.00     0.173 A 
ATOM     78  F   UNL A   1      37.977  30.321  36.492  1.00  0.00    -0.203 F 
ATOM     79  C   UNL A   1      38.039  32.332  37.716  1.00  0.00     0.198 A 
ATOM     80  C   UNL A   1      39.376  34.165  36.937  1.00  0.00     0.198 A 
ATOM     81  F   UNL A   1      40.601  33.961  34.938  1.00  0.00    -0.203 F 
ATOM     82  F   UNL A   1      37.175  31.818  38.604  1.00  0.00    -0.200 F 
ATOM     83  C   UNL A   1      38.504  33.628  37.873  1.00  0.00     0.200 A 
ATOM     84  F   UNL A   1      39.837  35.414  37.092  1.00  0.00    -0.200 F 
ATOM     85  F   UNL A   1      38.108  34.362  38.922  1.00  0.00    -0.200 F 
ENDBRANCH  51  75
BRANCH  63  86
ATOM     86  C   UNL A   1      44.696  27.831  34.457  1.00  0.00     0.064 A 
ATOM     87  C   UNL A   1      44.686  26.689  35.270  1.00  0.00     0.173 A 
ATOM     88  C   UNL A   1      45.882  28.580  34.388  1.00  0.00     0.173 A 
ATOM     89  F   UNL A   1      43.572  25.949  35.380  1.00  0.00    -0.203 F 
ATOM     90  C   UNL A   1      45.814  26.320  35.998  1.00  0.00     0.198 A 
ATOM     91  C   UNL A   1      47.016  28.193  35.096  1.00  0.00     0.198 A 
ATOM     92  F   UNL A   1      45.944  29.678  33.619  1.00  0.00    -0.203 F 
ATOM     93  F   UNL A   1      45.771  25.247  36.799  1.00  0.00    -0.200 F 
ATOM     94  C   UNL A   1      46.979  27.068  35.905  1.00  0.00     0.200 A 
ATOM     95  F   UNL A   1      48.144  28.909  34.994  1.00  0.00    -0.200 F 
ATOM     96  F   UNL A   1      48.067  26.704  36.598  1.00  0.00    -0.200 F 
ENDBRANCH  63  86
ENDBRANCH  37  38
ENDBRANCH  29  32
ENDBRANCH  27  28
ENDBRANCH  26  27
ENDBRANCH   1  26
TORSDOF 14
ENDMDL
MODEL 3
REMARK VINA RESULT:     -12.1      1.287      7.386
REMARK SMILES CCC1(C(=O)NCCCCNC(=O)c2ccc(-c3c4nc(c(-c5c(F)c(F)c(F)c(F)c5F)c5ccc([nH]5)c(-c5c(F)c(F)c(F)c(F)c5F)c5nc(c(-c6c(F)c(F)c(F)c(F)c6F)c6ccc3[nH]6)C=C5)C=C4)cc2)CCN(C(=O)C[C@H]2CSCC[NH2+]2)CC1
REMARK SMILES IDX 8 1 7 2 6 3 4 4 5 5 3 7 77 8 90 9 78 10 89 11 79 12 80 13
REMARK SMILES IDX 81 14 2 15 1 16 82 17 83 18 84 19 88 20 85 21 87 22 86 25
REMARK SMILES IDX 9 26 10 27 11 28 12 29 13 31 14 32 15 33 76 34 16 35 75 36
REMARK SMILES IDX 17 37 18 38 19 39 69 40 20 41 74 42 68 43 70 44 21 45 73 46
REMARK SMILES IDX 67 47 66 48 22 50 54 51 34 52 53 53 35 54 38 55 52 56 71 57
REMARK SMILES IDX 36 58 37 59 51 61 72 62 39 63 23 64 24 65 32 66 25 67 26 68
REMARK SMILES IDX 30 69 33 70 27 71 28 72 31 73 29 74 55 75 56 76 64 77 57 78
REMARK SMILES IDX 58 79 62 80 65 81 59 82 60 83 63 84 61 85 40 86 41 87 49 88
REMARK SMILES IDX 42 89 43 90 47 91 50 92 44 93 45 94 48 95 46 96
REMARK H PARENT 6 6 88 23 88 24 11 30 70 49 38 60
REMARK Flexibility Score: inf
ROOT
ATOM      1  C   UNL A   1      33.613  26.815  25.969  1.00  0.00     0.023 C 
ENDROOT
BRANCH   1   2
ATOM      2  C   UNL A   1      34.198  25.927  24.870  1.00  0.00     0.116 C 
BRANCH   2   3
ATOM      3  N   UNL A   1      35.030  24.848  25.397  1.00  0.00    -0.356 N 
ATOM      4  C   UNL A   1      34.746  23.558  25.757  1.00  0.00     0.226 C 
ATOM      5  O   UNL A   1      35.710  22.869  26.105  1.00  0.00    -0.274 OA
ATOM      6  H   UNL A   1      35.974  25.096  25.516  1.00  0.00     0.163 HD
BRANCH   4   7
ATOM      7  C   UNL A   1      33.312  22.968  25.690  1.00  0.00     0.052 C 
ATOM      8  C   UNL A   1      32.501  23.477  26.926  1.00  0.00     0.038 C 
ATOM      9  C   UNL A   1      32.699  23.381  24.329  1.00  0.00     0.038 C 
ATOM     10  C   UNL A   1      30.989  23.576  26.714  1.00  0.00     0.120 C 
ATOM     11  C   UNL A   1      31.181  23.279  24.309  1.00  0.00     0.120 C 
ATOM     12  N   UNL A   1      30.651  24.089  25.392  1.00  0.00    -0.342 N 
ATOM     13  C   UNL A   1      30.065  25.345  25.251  1.00  0.00     0.228 C 
ATOM     14  O   UNL A   1      29.936  26.116  26.206  1.00  0.00    -0.275 OA
BRANCH   7  15
ATOM     15  C   UNL A   1      33.364  21.404  25.814  1.00  0.00     0.013 C 
ATOM     16  C   UNL A   1      33.576  20.611  24.526  1.00  0.00     0.005 C 
ENDBRANCH   7  15
BRANCH  13  17
ATOM     17  C   UNL A   1      29.500  25.735  23.887  1.00  0.00     0.166 C 
BRANCH  17  18
ATOM     18  C   UNL A   1      29.174  27.231  23.680  1.00  0.00     0.201 C 
ATOM     19  C   UNL A   1      30.145  27.855  22.654  1.00  0.00     0.135 C 
ATOM     20  N   UNL A   1      27.745  27.440  23.383  1.00  0.00    -0.342 N 
ATOM     21  S   UNL A   1      29.896  29.652  22.475  1.00  0.00    -0.150 SA
ATOM     22  C   UNL A   1      27.361  28.844  23.197  1.00  0.00     0.271 C 
ATOM     23  H   UNL A   1      27.200  27.060  24.157  1.00  0.00     0.346 HD
ATOM     24  H   UNL A   1      27.560  26.968  22.497  1.00  0.00     0.346 HD
ATOM     25  C   UNL A   1      28.122  29.593  22.104  1.00  0.00     0.131 C 
ENDBRANCH  17  18
ENDBRANCH  13  17
ENDBRANCH   4   7
ENDBRANCH   2   3
ENDBRANCH   1   2
BRANCH   1  26
ATOM     26  C   UNL A   1      32.710  27.946  25.481  1.00  0.00     0.023 C 
BRANCH  26  27
ATOM     27  C   UNL A   1      33.409  29.274  25.219  1.00  0.00     0.116 C 
BRANCH  27  28
ATOM     28  N   UNL A   1      32.770  30.408  25.870  1.00  0.00    -0.352 N 
ATOM     29  C   UNL A   1      33.199  31.136  26.955  1.00  0.00     0.251 C 
ATOM     30  H   UNL A   1      31.911  30.693  25.481  1.00  0.00     0.163 HD
ATOM     31  O   UNL A   1      32.488  32.007  27.444  1.00  0.00    -0.269 OA
BRANCH  29  32
ATOM     32  C   UNL A   1      34.515  30.835  27.560  1.00  0.00     0.039 A 
ATOM     33  C   UNL A   1      35.455  31.862  27.676  1.00  0.00     0.014 A 
ATOM     34  C   UNL A   1      34.803  29.556  28.042  1.00  0.00     0.014 A 
ATOM     35  C   UNL A   1      36.656  31.628  28.351  1.00  0.00     0.010 A 
ATOM     36  C   UNL A   1      35.964  29.344  28.777  1.00  0.00     0.010 A 
ATOM     37  C   UNL A   1      36.899  30.378  28.943  1.00  0.00    -0.014 A 
BRANCH  37  38
ATOM     38  C   UNL A   1      38.128  30.116  29.737  1.00  0.00     0.031 A 
ATOM     39  C   UNL A   1      39.176  29.183  29.200  1.00  0.00     0.074 A 
ATOM     40  C   UNL A   1      38.257  30.641  30.970  1.00  0.00     0.049 A 
ATOM     41  N   UNL A   1      40.244  28.708  29.788  1.00  0.00    -0.248 NA
ATOM     42  C   UNL A   1      38.977  28.694  27.827  1.00  0.00     0.031 C 
ATOM     43  C   UNL A   1      37.297  31.534  31.618  1.00  0.00     0.029 A 
ATOM     44  N   UNL A   1      39.246  30.481  31.910  1.00  0.00    -0.354 N 
ATOM     45  C   UNL A   1      40.828  27.848  28.868  1.00  0.00     0.074 A 
ATOM     46  C   UNL A   1      39.971  27.828  27.702  1.00  0.00     0.031 C 
ATOM     47  C   UNL A   1      37.749  31.857  32.841  1.00  0.00     0.029 A 
ATOM     48  C   UNL A   1      39.009  31.160  33.080  1.00  0.00     0.049 A 
ATOM     49  H   UNL A   1      40.049  29.931  31.759  1.00  0.00     0.167 HD
ATOM     50  C   UNL A   1      41.986  27.153  28.977  1.00  0.00     0.037 A 
ATOM     51  C   UNL A   1      39.723  31.203  34.223  1.00  0.00     0.037 A 
ATOM     52  C   UNL A   1      42.852  27.199  30.125  1.00  0.00     0.049 A 
ATOM     53  C   UNL A   1      41.001  30.415  34.321  1.00  0.00     0.074 A 
ATOM     54  C   UNL A   1      44.069  26.569  30.314  1.00  0.00     0.029 A 
ATOM     55  N   UNL A   1      42.591  27.922  31.281  1.00  0.00    -0.354 N 
ATOM     56  N   UNL A   1      41.568  29.639  33.430  1.00  0.00    -0.248 NA
ATOM     57  C   UNL A   1      41.741  30.510  35.589  1.00  0.00     0.031 C 
ATOM     58  C   UNL A   1      44.528  26.882  31.598  1.00  0.00     0.029 A 
ATOM     59  C   UNL A   1      43.620  27.743  32.191  1.00  0.00     0.049 A 
ATOM     60  H   UNL A   1      41.794  28.478  31.431  1.00  0.00     0.167 HD
ATOM     61  C   UNL A   1      42.744  29.186  34.010  1.00  0.00     0.074 A 
ATOM     62  C   UNL A   1      42.813  29.775  35.331  1.00  0.00     0.031 C 
ATOM     63  C   UNL A   1      43.683  28.356  33.494  1.00  0.00     0.037 A 
BRANCH  50  64
ATOM     64  C   UNL A   1      42.380  26.284  27.820  1.00  0.00     0.064 A 
ATOM     65  C   UNL A   1      41.839  25.001  27.646  1.00  0.00     0.173 A 
ATOM     66  C   UNL A   1      43.294  26.746  26.860  1.00  0.00     0.173 A 
ATOM     67  F   UNL A   1      40.971  24.507  28.541  1.00  0.00    -0.203 F 
ATOM     68  C   UNL A   1      42.224  24.200  26.574  1.00  0.00     0.198 A 
ATOM     69  C   UNL A   1      43.652  25.954  25.772  1.00  0.00     0.198 A 
ATOM     70  F   UNL A   1      43.837  27.968  26.975  1.00  0.00    -0.203 F 
ATOM     71  F   UNL A   1      41.736  22.957  26.461  1.00  0.00    -0.200 F 
ATOM     72  C   UNL A   1      43.125  24.679  25.635  1.00  0.00     0.200 A 
ATOM     73  F   UNL A   1      44.514  26.423  24.859  1.00  0.00    -0.200 F 
ATOM     74  F   UNL A   1      43.492  23.908  24.603  1.00  0.00    -0.200 F 
ENDBRANCH  50  64
BRANCH  51  75
ATOM     75  C   UNL A   1      39.260  32.044  35.356  1.00  0.00     0.064 A 
ATOM     76  C   UNL A   1      38.497  31.490  36.393  1.00  0.00     0.173 A 
ATOM     77  C   UNL A   1      39.560  33.412  35.426  1.00  0.00     0.173 A 
ATOM     78  F   UNL A   1      38.166  30.190  36.358  1.00  0.00    -0.203 F 
ATOM     79  C   UNL A   1      38.036  32.275  37.447  1.00  0.00     0.198 A 
ATOM     80  C   UNL A   1      39.121  34.191  36.495  1.00  0.00     0.198 A 
ATOM     81  F   UNL A   1      40.289  33.990  34.460  1.00  0.00    -0.203 F 
ATOM     82  F   UNL A   1      37.271  31.728  38.403  1.00  0.00    -0.200 F 
ATOM     83  C   UNL A   1      38.352  33.623  37.501  1.00  0.00     0.200 A 
ATOM     84  F   UNL A   1      39.439  35.492  36.548  1.00  0.00    -0.200 F 
ATOM     85  F   UNL A   1      37.911  34.377  38.517  1.00  0.00    -0.200 F 
ENDBRANCH  51  75
BRANCH  63  86
ATOM     86  C   UNL A   1      44.896  28.079  34.332  1.00  0.00     0.064 A 
ATOM     87  C   UNL A   1      46.024  28.911  34.297  1.00  0.00     0.173 A 
ATOM     88  C   UNL A   1      44.905  26.994  35.222  1.00  0.00     0.173 A 
ATOM     89  F   UNL A   1      46.069  29.952  33.451  1.00  0.00    -0.203 F 
ATOM     90  C   UNL A   1      47.124  28.657  35.111  1.00  0.00     0.198 A 
ATOM     91  C   UNL A   1      45.996  26.759  36.055  1.00  0.00     0.198 A 
ATOM     92  F   UNL A   1      43.848  26.172  35.297  1.00  0.00    -0.203 F 
ATOM     93  F   UNL A   1      48.207  29.443  35.035  1.00  0.00    -0.200 F 
ATOM     94  C   UNL A   1      47.106  27.587  35.994  1.00  0.00     0.200 A 
ATOM     95  F   UNL A   1      45.971  25.733  36.916  1.00  0.00    -0.200 F 
ATOM     96  F   UNL A   1      48.162  27.352  36.785  1.00  0.00    -0.200 F 
ENDBRANCH  63  86
ENDBRANCH  37  38
ENDBRANCH  29  32
ENDBRANCH  27  28
ENDBRANCH  26  27
ENDBRANCH   1  26
TORSDOF 14
ENDMDL
