MODEL 1
REMARK VINA RESULT:     -14.1      0.000      0.000
REMARK SMILES Cc1ccccc1OC1(C(=O)NCCCCNC(=O)c2ccc(-c3c4nc(c(-c5c(F)c(F)c(F)c(F)c5F)c5ccc([nH]5)c(-c5c(F)c(F)c(F)c(F)c5F)c5nc(c(-c6c(F)c(F)c(F)c(F)c6F)c6ccc3[nH]6)C=C5)C=C4)cc2)CCN(c2ncc(C#N)c(N)n2)CC1
REMARK SMILES IDX 14 1 13 2 12 3 10 4 11 5 9 7 83 8 96 9 84 10 95 11 85 12
REMARK SMILES IDX 8 13 7 14 1 15 2 16 3 17 4 18 6 19 5 20 86 21 87 22 94 23
REMARK SMILES IDX 88 24 92 25 89 26 93 27 90 30 91 31 15 32 16 33 17 34 18 35
REMARK SMILES IDX 19 37 20 38 21 39 82 40 22 41 81 42 23 43 24 44 25 45 75 46
REMARK SMILES IDX 26 47 80 48 74 49 76 50 27 51 79 52 73 53 72 54 28 56 60 57
REMARK SMILES IDX 40 58 59 59 41 60 44 61 58 62 77 63 42 64 43 65 57 67 78 68
REMARK SMILES IDX 45 69 29 70 30 71 38 72 31 73 32 74 36 75 39 76 33 77 34 78
REMARK SMILES IDX 37 79 35 80 61 81 62 82 70 83 63 84 64 85 68 86 71 87 65 88
REMARK SMILES IDX 66 89 69 90 67 91 46 92 47 93 55 94 48 95 49 96 53 97 56 98
REMARK SMILES IDX 50 99 51 100 54 101 52 102
REMARK H PARENT 12 6 93 28 93 29 17 36 76 55 44 66
REMARK Flexibility Score: inf
ROOT
ATOM      1  C   UNL A   1      36.504  20.023  24.977  1.00  0.00     0.023 C 
ENDROOT
BRANCH   1   2
ATOM      2  C   UNL A   1      35.544  21.213  25.054  1.00  0.00     0.116 C 
BRANCH   2   3
ATOM      3  N   UNL A   1      34.912  21.398  26.354  1.00  0.00    -0.353 N 
ATOM      4  C   UNL A   1      33.589  21.589  26.710  1.00  0.00     0.264 C 
ATOM      5  O   UNL A   1      33.356  21.591  27.923  1.00  0.00    -0.270 OA
ATOM      6  H   UNL A   1      35.537  21.384  27.115  1.00  0.00     0.163 HD
BRANCH   4   7
ATOM      7  C   UNL A   1      32.448  21.791  25.618  1.00  0.00     0.190 C 
ATOM      8  C   UNL A   1      31.384  22.613  26.340  1.00  0.00     0.080 C 
ATOM      9  C   UNL A   1      33.198  22.322  24.393  1.00  0.00     0.080 C 
ATOM     10  C   UNL A   1      31.058  23.981  25.775  1.00  0.00     0.124 C 
ATOM     11  C   UNL A   1      32.638  23.573  23.756  1.00  0.00     0.124 C 
ATOM     12  N   UNL A   1      31.896  24.430  24.670  1.00  0.00    -0.340 N 
BRANCH   7  13
ATOM     13  O   UNL A   1      31.926  20.467  25.325  1.00  0.00    -0.477 OA
BRANCH  13  14
ATOM     14  C   UNL A   1      32.400  19.426  24.571  1.00  0.00     0.123 A 
ATOM     15  C   UNL A   1      31.982  19.995  22.058  1.00  0.00     0.048 C 
ATOM     16  C   UNL A   1      32.458  19.161  23.189  1.00  0.00    -0.009 A 
ATOM     17  C   UNL A   1      33.035  17.956  22.713  1.00  0.00     0.007 A 
ATOM     18  C   UNL A   1      33.545  16.998  23.569  1.00  0.00     0.001 A 
ATOM     19  C   UNL A   1      32.929  18.427  25.414  1.00  0.00     0.047 A 
ATOM     20  C   UNL A   1      33.488  17.235  24.930  1.00  0.00     0.004 A 
ENDBRANCH  13  14
ENDBRANCH   7  13
BRANCH  12  21
ATOM     21  C   UNL A   1      31.324  25.542  24.058  1.00  0.00     0.227 A 
ATOM     22  N   UNL A   1      32.151  26.479  23.582  1.00  0.00    -0.220 NA
ATOM     23  N   UNL A   1      29.984  25.663  24.054  1.00  0.00    -0.195 NA
ATOM     24  C   UNL A   1      31.580  27.553  23.011  1.00  0.00     0.138 A 
ATOM     25  C   UNL A   1      29.441  26.767  23.521  1.00  0.00     0.147 A 
ATOM     26  C   UNL A   1      30.220  27.749  22.948  1.00  0.00     0.113 A 
BRANCH  25  27
ATOM     27  N   UNL A   1      28.073  26.884  23.685  1.00  0.00    -0.382 N 
ATOM     28  H   UNL A   1      27.462  26.376  23.104  1.00  0.00     0.158 HD
ATOM     29  H   UNL A   1      27.710  27.475  24.384  1.00  0.00     0.158 HD
ENDBRANCH  25  27
BRANCH  26  30
ATOM     30  C   UNL A   1      29.681  28.897  22.301  1.00  0.00     0.105 C 
ATOM     31  N   UNL A   1      29.275  29.833  21.757  1.00  0.00    -0.192 NA
ENDBRANCH  26  30
ENDBRANCH  12  21
ENDBRANCH   4   7
ENDBRANCH   2   3
ENDBRANCH   1   2
BRANCH   1  32
ATOM     32  C   UNL A   1      37.976  20.395  24.999  1.00  0.00     0.023 C 
BRANCH  32  33
ATOM     33  C   UNL A   1      38.251  21.775  25.563  1.00  0.00     0.116 C 
BRANCH  33  34
ATOM     34  N   UNL A   1      39.318  21.820  26.548  1.00  0.00    -0.352 N 
ATOM     35  C   UNL A   1      40.078  22.900  26.964  1.00  0.00     0.251 C 
ATOM     36  H   UNL A   1      39.530  20.962  26.982  1.00  0.00     0.163 HD
ATOM     37  O   UNL A   1      41.136  22.702  27.553  1.00  0.00    -0.269 OA
BRANCH  35  38
ATOM     38  C   UNL A   1      39.508  24.279  26.925  1.00  0.00     0.039 A 
ATOM     39  C   UNL A   1      40.242  25.187  26.141  1.00  0.00     0.014 A 
ATOM     40  C   UNL A   1      38.764  24.745  27.994  1.00  0.00     0.014 A 
ATOM     41  C   UNL A   1      40.545  26.432  26.661  1.00  0.00     0.010 A 
ATOM     42  C   UNL A   1      39.231  25.859  28.624  1.00  0.00     0.010 A 
ATOM     43  C   UNL A   1      40.164  26.662  27.970  1.00  0.00    -0.014 A 
BRANCH  43  44
ATOM     44  C   UNL A   1      40.556  27.797  28.762  1.00  0.00     0.031 A 
ATOM     45  C   UNL A   1      39.617  28.925  28.705  1.00  0.00     0.074 A 
ATOM     46  C   UNL A   1      41.528  27.562  29.672  1.00  0.00     0.049 A 
ATOM     47  N   UNL A   1      39.861  30.100  29.140  1.00  0.00    -0.248 NA
ATOM     48  C   UNL A   1      38.287  28.821  28.092  1.00  0.00     0.031 C 
ATOM     49  C   UNL A   1      41.881  28.294  30.881  1.00  0.00     0.029 A 
ATOM     50  N   UNL A   1      42.556  26.607  29.552  1.00  0.00    -0.354 N 
ATOM     51  C   UNL A   1      38.648  30.757  29.232  1.00  0.00     0.074 A 
ATOM     52  C   UNL A   1      37.741  29.992  28.424  1.00  0.00     0.031 C 
ATOM     53  C   UNL A   1      43.169  28.034  31.182  1.00  0.00     0.029 A 
ATOM     54  C   UNL A   1      43.704  27.227  30.096  1.00  0.00     0.049 A 
ATOM     55  H   UNL A   1      42.489  25.701  29.170  1.00  0.00     0.167 HD
ATOM     56  C   UNL A   1      38.559  31.758  30.153  1.00  0.00     0.037 A 
ATOM     57  C   UNL A   1      44.698  27.629  29.244  1.00  0.00     0.037 A 
ATOM     58  C   UNL A   1      39.892  31.977  30.725  1.00  0.00     0.049 A 
ATOM     59  C   UNL A   1      44.774  29.139  29.171  1.00  0.00     0.074 A 
ATOM     60  C   UNL A   1      40.490  31.526  31.889  1.00  0.00     0.029 A 
ATOM     61  N   UNL A   1      40.925  32.355  29.871  1.00  0.00    -0.354 N 
ATOM     62  N   UNL A   1      43.754  29.936  29.366  1.00  0.00    -0.248 NA
ATOM     63  C   UNL A   1      46.027  29.862  28.987  1.00  0.00     0.031 C 
ATOM     64  C   UNL A   1      41.900  31.545  31.684  1.00  0.00     0.029 A 
ATOM     65  C   UNL A   1      42.153  32.017  30.405  1.00  0.00     0.049 A 
ATOM     66  H   UNL A   1      40.796  32.801  29.003  1.00  0.00     0.167 HD
ATOM     67  C   UNL A   1      44.193  31.235  29.400  1.00  0.00     0.074 A 
ATOM     68  C   UNL A   1      45.620  31.134  29.150  1.00  0.00     0.031 C 
ATOM     69  C   UNL A   1      43.376  32.302  29.666  1.00  0.00     0.037 A 
BRANCH  56  70
ATOM     70  C   UNL A   1      37.297  32.347  30.750  1.00  0.00     0.064 A 
ATOM     71  C   UNL A   1      36.497  33.209  29.963  1.00  0.00     0.173 A 
ATOM     72  C   UNL A   1      36.834  32.177  32.071  1.00  0.00     0.173 A 
ATOM     73  F   UNL A   1      36.776  33.435  28.672  1.00  0.00    -0.203 F 
ATOM     74  C   UNL A   1      35.379  33.880  30.467  1.00  0.00     0.198 A 
ATOM     75  C   UNL A   1      35.714  32.851  32.576  1.00  0.00     0.198 A 
ATOM     76  F   UNL A   1      37.419  31.346  32.933  1.00  0.00    -0.203 F 
ATOM     77  F   UNL A   1      34.684  34.702  29.670  1.00  0.00    -0.200 F 
ATOM     78  C   UNL A   1      34.992  33.707  31.777  1.00  0.00     0.200 A 
ATOM     79  F   UNL A   1      35.347  32.657  33.852  1.00  0.00    -0.200 F 
ATOM     80  F   UNL A   1      33.924  34.353  32.264  1.00  0.00    -0.200 F 
ENDBRANCH  56  70
BRANCH  57  81
ATOM     81  C   UNL A   1      44.875  26.648  28.124  1.00  0.00     0.064 A 
ATOM     82  C   UNL A   1      45.193  25.320  28.493  1.00  0.00     0.173 A 
ATOM     83  C   UNL A   1      44.286  26.834  26.868  1.00  0.00     0.173 A 
ATOM     84  F   UNL A   1      45.794  25.080  29.672  1.00  0.00    -0.203 F 
ATOM     85  C   UNL A   1      44.753  24.229  27.746  1.00  0.00     0.198 A 
ATOM     86  C   UNL A   1      43.891  25.734  26.095  1.00  0.00     0.198 A 
ATOM     87  F   UNL A   1      43.967  28.064  26.442  1.00  0.00    -0.203 F 
ATOM     88  F   UNL A   1      44.916  22.984  28.219  1.00  0.00    -0.200 F 
ATOM     89  C   UNL A   1      44.067  24.439  26.564  1.00  0.00     0.200 A 
ATOM     90  F   UNL A   1      43.240  25.931  24.939  1.00  0.00    -0.200 F 
ATOM     91  F   UNL A   1      43.548  23.398  25.896  1.00  0.00    -0.200 F 
ENDBRANCH  57  81
BRANCH  69  92
ATOM     92  C   UNL A   1      43.687  33.748  29.333  1.00  0.00     0.064 A 
ATOM     93  C   UNL A   1      43.852  34.230  28.026  1.00  0.00     0.173 A 
ATOM     94  C   UNL A   1      43.664  34.747  30.342  1.00  0.00     0.173 A 
ATOM     95  F   UNL A   1      43.732  33.429  26.959  1.00  0.00    -0.203 F 
ATOM     96  C   UNL A   1      44.082  35.580  27.757  1.00  0.00     0.198 A 
ATOM     97  C   UNL A   1      43.791  36.104  30.058  1.00  0.00     0.198 A 
ATOM     98  F   UNL A   1      43.483  34.452  31.637  1.00  0.00    -0.203 F 
ATOM     99  F   UNL A   1      44.318  35.970  26.497  1.00  0.00    -0.200 F 
ATOM    100  C   UNL A   1      44.036  36.519  28.768  1.00  0.00     0.200 A 
ATOM    101  F   UNL A   1      43.654  37.003  31.042  1.00  0.00    -0.200 F 
ATOM    102  F   UNL A   1      44.202  37.818  28.498  1.00  0.00    -0.200 F 
ENDBRANCH  69  92
ENDBRANCH  43  44
ENDBRANCH  35  38
ENDBRANCH  33  34
ENDBRANCH  32  33
ENDBRANCH   1  32
TORSDOF 16
ENDMDL
MODEL 2
REMARK VINA RESULT:     -14.1      2.987      9.466
REMARK SMILES Cc1ccccc1OC1(C(=O)NCCCCNC(=O)c2ccc(-c3c4nc(c(-c5c(F)c(F)c(F)c(F)c5F)c5ccc([nH]5)c(-c5c(F)c(F)c(F)c(F)c5F)c5nc(c(-c6c(F)c(F)c(F)c(F)c6F)c6ccc3[nH]6)C=C5)C=C4)cc2)CCN(c2ncc(C#N)c(N)n2)CC1
REMARK SMILES IDX 14 1 13 2 12 3 10 4 11 5 9 7 83 8 96 9 84 10 95 11 85 12
REMARK SMILES IDX 8 13 7 14 1 15 2 16 3 17 4 18 6 19 5 20 86 21 87 22 94 23
REMARK SMILES IDX 88 24 92 25 89 26 93 27 90 30 91 31 15 32 16 33 17 34 18 35
REMARK SMILES IDX 19 37 20 38 21 39 82 40 22 41 81 42 23 43 24 44 25 45 75 46
REMARK SMILES IDX 26 47 80 48 74 49 76 50 27 51 79 52 73 53 72 54 28 56 60 57
REMARK SMILES IDX 40 58 59 59 41 60 44 61 58 62 77 63 42 64 43 65 57 67 78 68
REMARK SMILES IDX 45 69 29 70 30 71 38 72 31 73 32 74 36 75 39 76 33 77 34 78
REMARK SMILES IDX 37 79 35 80 61 81 62 82 70 83 63 84 64 85 68 86 71 87 65 88
REMARK SMILES IDX 66 89 69 90 67 91 46 92 47 93 55 94 48 95 49 96 53 97 56 98
REMARK SMILES IDX 50 99 51 100 54 101 52 102
REMARK H PARENT 12 6 93 28 93 29 17 36 76 55 44 66
REMARK Flexibility Score: inf
ROOT
ATOM      1  C   UNL A   1      31.965  29.129  26.155  1.00  0.00     0.023 C 
ENDROOT
BRANCH   1   2
ATOM      2  C   UNL A   1      32.214  27.705  26.660  1.00  0.00     0.116 C 
BRANCH   2   3
ATOM      3  N   UNL A   1      31.015  26.886  26.782  1.00  0.00    -0.353 N 
ATOM      4  C   UNL A   1      30.622  25.736  26.123  1.00  0.00     0.264 C 
ATOM      5  O   UNL A   1      29.590  25.204  26.544  1.00  0.00    -0.270 OA
ATOM      6  H   UNL A   1      30.371  27.208  27.453  1.00  0.00     0.163 HD
BRANCH   4   7
ATOM      7  C   UNL A   1      31.453  25.143  24.901  1.00  0.00     0.190 C 
ATOM      8  C   UNL A   1      32.861  25.695  25.108  1.00  0.00     0.080 C 
ATOM      9  C   UNL A   1      31.150  23.643  24.939  1.00  0.00     0.080 C 
ATOM     10  C   UNL A   1      33.978  24.691  25.318  1.00  0.00     0.124 C 
ATOM     11  C   UNL A   1      32.345  22.718  24.902  1.00  0.00     0.124 C 
ATOM     12  N   UNL A   1      33.568  23.297  25.436  1.00  0.00    -0.340 N 
BRANCH   7  13
ATOM     13  O   UNL A   1      30.875  25.719  23.699  1.00  0.00    -0.477 OA
BRANCH  13  14
ATOM     14  C   UNL A   1      30.669  27.011  23.292  1.00  0.00     0.123 A 
ATOM     15  C   UNL A   1      32.958  27.981  22.496  1.00  0.00     0.048 C 
ATOM     16  C   UNL A   1      31.500  28.021  22.772  1.00  0.00    -0.009 A 
ATOM     17  C   UNL A   1      30.963  29.290  22.434  1.00  0.00     0.007 A 
ATOM     18  C   UNL A   1      29.625  29.590  22.608  1.00  0.00     0.001 A 
ATOM     19  C   UNL A   1      29.311  27.353  23.456  1.00  0.00     0.047 A 
ATOM     20  C   UNL A   1      28.794  28.614  23.126  1.00  0.00     0.004 A 
ENDBRANCH  13  14
ENDBRANCH   7  13
BRANCH  12  21
ATOM     21  C   UNL A   1      34.678  22.463  25.330  1.00  0.00     0.227 A 
ATOM     22  N   UNL A   1      34.457  21.170  25.070  1.00  0.00    -0.220 NA
ATOM     23  N   UNL A   1      35.899  22.973  25.579  1.00  0.00    -0.195 NA
ATOM     24  C   UNL A   1      35.539  20.378  24.991  1.00  0.00     0.138 A 
ATOM     25  C   UNL A   1      36.957  22.150  25.538  1.00  0.00     0.147 A 
ATOM     26  C   UNL A   1      36.822  20.818  25.212  1.00  0.00     0.113 A 
BRANCH  25  27
ATOM     27  N   UNL A   1      38.152  22.715  25.946  1.00  0.00    -0.382 N 
ATOM     28  H   UNL A   1      38.791  22.185  26.475  1.00  0.00     0.158 HD
ATOM     29  H   UNL A   1      38.362  23.646  25.708  1.00  0.00     0.158 HD
ENDBRANCH  25  27
BRANCH  26  30
ATOM     30  C   UNL A   1      37.927  19.930  25.080  1.00  0.00     0.105 C 
ATOM     31  N   UNL A   1      38.825  19.205  25.011  1.00  0.00    -0.192 NA
ENDBRANCH  26  30
ENDBRANCH  12  21
ENDBRANCH   4   7
ENDBRANCH   2   3
ENDBRANCH   1   2
BRANCH   1  32
ATOM     32  C   UNL A   1      33.169  30.051  26.244  1.00  0.00     0.023 C 
BRANCH  32  33
ATOM     33  C   UNL A   1      33.241  30.841  27.535  1.00  0.00     0.116 C 
BRANCH  33  34
ATOM     34  N   UNL A   1      34.383  31.737  27.628  1.00  0.00    -0.352 N 
ATOM     35  C   UNL A   1      35.627  31.509  28.191  1.00  0.00     0.251 C 
ATOM     36  H   UNL A   1      34.253  32.630  27.236  1.00  0.00     0.163 HD
ATOM     37  O   UNL A   1      36.346  32.464  28.471  1.00  0.00    -0.269 OA
BRANCH  35  38
ATOM     38  C   UNL A   1      36.195  30.129  28.229  1.00  0.00     0.039 A 
ATOM     39  C   UNL A   1      36.316  29.587  29.520  1.00  0.00     0.014 A 
ATOM     40  C   UNL A   1      37.057  29.715  27.229  1.00  0.00     0.014 A 
ATOM     41  C   UNL A   1      37.504  28.981  29.886  1.00  0.00     0.010 A 
ATOM     42  C   UNL A   1      38.306  29.336  27.618  1.00  0.00     0.010 A 
ATOM     43  C   UNL A   1      38.530  29.028  28.960  1.00  0.00    -0.014 A 
BRANCH  43  44
ATOM     44  C   UNL A   1      39.894  28.646  29.210  1.00  0.00     0.031 A 
ATOM     45  C   UNL A   1      40.188  27.237  28.917  1.00  0.00     0.074 A 
ATOM     46  C   UNL A   1      40.764  29.669  29.364  1.00  0.00     0.049 A 
ATOM     47  N   UNL A   1      41.253  26.626  29.267  1.00  0.00    -0.248 NA
ATOM     48  C   UNL A   1      39.248  26.360  28.210  1.00  0.00     0.031 C 
ATOM     49  C   UNL A   1      42.213  29.701  29.218  1.00  0.00     0.029 A 
ATOM     50  N   UNL A   1      40.457  30.942  29.883  1.00  0.00    -0.354 N 
ATOM     51  C   UNL A   1      41.316  25.464  28.521  1.00  0.00     0.074 A 
ATOM     52  C   UNL A   1      39.988  25.267  28.015  1.00  0.00     0.031 C 
ATOM     53  C   UNL A   1      42.698  30.731  29.939  1.00  0.00     0.029 A 
ATOM     54  C   UNL A   1      41.576  31.303  30.668  1.00  0.00     0.049 A 
ATOM     55  H   UNL A   1      39.637  31.467  29.731  1.00  0.00     0.167 HD
ATOM     56  C   UNL A   1      42.557  24.948  28.290  1.00  0.00     0.037 A 
ATOM     57  C   UNL A   1      41.449  31.299  32.031  1.00  0.00     0.037 A 
ATOM     58  C   UNL A   1      43.531  25.727  29.061  1.00  0.00     0.049 A 
ATOM     59  C   UNL A   1      42.258  30.178  32.649  1.00  0.00     0.074 A 
ATOM     60  C   UNL A   1      44.361  26.780  28.717  1.00  0.00     0.029 A 
ATOM     61  N   UNL A   1      43.401  25.763  30.447  1.00  0.00    -0.354 N 
ATOM     62  N   UNL A   1      42.537  29.053  32.042  1.00  0.00    -0.248 NA
ATOM     63  C   UNL A   1      42.905  30.291  33.951  1.00  0.00     0.031 C 
ATOM     64  C   UNL A   1      44.649  27.509  29.908  1.00  0.00     0.029 A 
ATOM     65  C   UNL A   1      44.003  26.892  30.968  1.00  0.00     0.049 A 
ATOM     66  H   UNL A   1      42.940  25.077  30.982  1.00  0.00     0.167 HD
ATOM     67  C   UNL A   1      43.422  28.333  32.802  1.00  0.00     0.074 A 
ATOM     68  C   UNL A   1      43.613  29.148  33.989  1.00  0.00     0.031 C 
ATOM     69  C   UNL A   1      43.969  27.142  32.403  1.00  0.00     0.037 A 
BRANCH  56  70
ATOM     70  C   UNL A   1      42.956  23.969  27.204  1.00  0.00     0.064 A 
ATOM     71  C   UNL A   1      42.603  22.605  27.340  1.00  0.00     0.173 A 
ATOM     72  C   UNL A   1      43.718  24.255  26.053  1.00  0.00     0.173 A 
ATOM     73  F   UNL A   1      41.838  22.180  28.354  1.00  0.00    -0.203 F 
ATOM     74  C   UNL A   1      43.023  21.619  26.443  1.00  0.00     0.198 A 
ATOM     75  C   UNL A   1      44.140  23.266  25.156  1.00  0.00     0.198 A 
ATOM     76  F   UNL A   1      44.079  25.496  25.724  1.00  0.00    -0.203 F 
ATOM     77  F   UNL A   1      42.672  20.342  26.650  1.00  0.00    -0.200 F 
ATOM     78  C   UNL A   1      43.800  21.947  25.354  1.00  0.00     0.200 A 
ATOM     79  F   UNL A   1      44.884  23.611  24.094  1.00  0.00    -0.200 F 
ATOM     80  F   UNL A   1      44.208  21.003  24.496  1.00  0.00    -0.200 F 
ENDBRANCH  56  70
BRANCH  57  81
ATOM     81  C   UNL A   1      40.094  31.787  32.447  1.00  0.00     0.064 A 
ATOM     82  C   UNL A   1      39.741  33.094  32.036  1.00  0.00     0.173 A 
ATOM     83  C   UNL A   1      39.044  30.911  32.747  1.00  0.00     0.173 A 
ATOM     84  F   UNL A   1      40.705  33.993  31.768  1.00  0.00    -0.203 F 
ATOM     85  C   UNL A   1      38.423  33.435  31.738  1.00  0.00     0.198 A 
ATOM     86  C   UNL A   1      37.715  31.277  32.494  1.00  0.00     0.198 A 
ATOM     87  F   UNL A   1      39.298  29.660  33.155  1.00  0.00    -0.203 F 
ATOM     88  F   UNL A   1      38.150  34.625  31.180  1.00  0.00    -0.200 F 
ATOM     89  C   UNL A   1      37.414  32.510  31.932  1.00  0.00     0.200 A 
ATOM     90  F   UNL A   1      36.730  30.390  32.697  1.00  0.00    -0.200 F 
ATOM     91  F   UNL A   1      36.161  32.794  31.547  1.00  0.00    -0.200 F 
ENDBRANCH  57  81
BRANCH  69  92
ATOM     92  C   UNL A   1      44.614  26.123  33.321  1.00  0.00     0.064 A 
ATOM     93  C   UNL A   1      43.901  25.345  34.245  1.00  0.00     0.173 A 
ATOM     94  C   UNL A   1      45.982  25.775  33.173  1.00  0.00     0.173 A 
ATOM     95  F   UNL A   1      42.573  25.445  34.375  1.00  0.00    -0.203 F 
ATOM     96  C   UNL A   1      44.524  24.375  35.034  1.00  0.00     0.198 A 
ATOM     97  C   UNL A   1      46.575  24.737  33.888  1.00  0.00     0.198 A 
ATOM     98  F   UNL A   1      46.790  26.402  32.307  1.00  0.00    -0.203 F 
ATOM     99  F   UNL A   1      43.810  23.722  35.961  1.00  0.00    -0.200 F 
ATOM    100  C   UNL A   1      45.855  24.060  34.845  1.00  0.00     0.200 A 
ATOM    101  F   UNL A   1      47.842  24.391  33.625  1.00  0.00    -0.200 F 
ATOM    102  F   UNL A   1      46.433  23.092  35.564  1.00  0.00    -0.200 F 
ENDBRANCH  69  92
ENDBRANCH  43  44
ENDBRANCH  35  38
ENDBRANCH  33  34
ENDBRANCH  32  33
ENDBRANCH   1  32
TORSDOF 16
ENDMDL
MODEL 3
REMARK VINA RESULT:     -13.8      1.685      4.695
REMARK SMILES Cc1ccccc1OC1(C(=O)NCCCCNC(=O)c2ccc(-c3c4nc(c(-c5c(F)c(F)c(F)c(F)c5F)c5ccc([nH]5)c(-c5c(F)c(F)c(F)c(F)c5F)c5nc(c(-c6c(F)c(F)c(F)c(F)c6F)c6ccc3[nH]6)C=C5)C=C4)cc2)CCN(c2ncc(C#N)c(N)n2)CC1
REMARK SMILES IDX 14 1 13 2 12 3 10 4 11 5 9 7 83 8 96 9 84 10 95 11 85 12
REMARK SMILES IDX 8 13 7 14 1 15 2 16 3 17 4 18 6 19 5 20 86 21 87 22 94 23
REMARK SMILES IDX 88 24 92 25 89 26 93 27 90 30 91 31 15 32 16 33 17 34 18 35
REMARK SMILES IDX 19 37 20 38 21 39 82 40 22 41 81 42 23 43 24 44 25 45 75 46
REMARK SMILES IDX 26 47 80 48 74 49 76 50 27 51 79 52 73 53 72 54 28 56 60 57
REMARK SMILES IDX 40 58 59 59 41 60 44 61 58 62 77 63 42 64 43 65 57 67 78 68
REMARK SMILES IDX 45 69 29 70 30 71 38 72 31 73 32 74 36 75 39 76 33 77 34 78
REMARK SMILES IDX 37 79 35 80 61 81 62 82 70 83 63 84 64 85 68 86 71 87 65 88
REMARK SMILES IDX 66 89 69 90 67 91 46 92 47 93 55 94 48 95 49 96 53 97 56 98
REMARK SMILES IDX 50 99 51 100 54 101 52 102
REMARK H PARENT 12 6 93 28 93 29 17 36 76 55 44 66
REMARK Flexibility Score: inf
ROOT
ATOM      1  C   UNL A   1      37.030  23.642  24.931  1.00  0.00     0.023 C 
ENDROOT
BRANCH   1   2
ATOM      2  C   UNL A   1      35.581  24.129  25.020  1.00  0.00     0.116 C 
BRANCH   2   3
ATOM      3  N   UNL A   1      34.919  24.304  23.734  1.00  0.00    -0.353 N 
ATOM      4  C   UNL A   1      33.677  23.898  23.281  1.00  0.00     0.264 C 
ATOM      5  O   UNL A   1      33.353  24.312  22.164  1.00  0.00    -0.270 OA
ATOM      6  H   UNL A   1      35.450  24.799  23.069  1.00  0.00     0.163 HD
BRANCH   4   7
ATOM      7  C   UNL A   1      32.734  22.957  24.152  1.00  0.00     0.190 C 
ATOM      8  C   UNL A   1      32.125  21.996  23.134  1.00  0.00     0.080 C 
ATOM      9  C   UNL A   1      33.639  22.476  25.290  1.00  0.00     0.080 C 
ATOM     10  C   UNL A   1      32.418  20.519  23.309  1.00  0.00     0.124 C 
ATOM     11  C   UNL A   1      33.670  20.984  25.535  1.00  0.00     0.124 C 
ATOM     12  N   UNL A   1      33.368  20.178  24.361  1.00  0.00    -0.340 N 
BRANCH   7  13
ATOM     13  O   UNL A   1      31.694  23.814  24.696  1.00  0.00    -0.477 OA
BRANCH  13  14
ATOM     14  C   UNL A   1      31.464  25.163  24.617  1.00  0.00     0.123 A 
ATOM     15  C   UNL A   1      33.176  26.365  26.178  1.00  0.00     0.048 C 
ATOM     16  C   UNL A   1      32.051  26.295  25.212  1.00  0.00    -0.009 A 
ATOM     17  C   UNL A   1      31.572  27.595  24.910  1.00  0.00     0.007 A 
ATOM     18  C   UNL A   1      30.517  27.804  24.041  1.00  0.00     0.001 A 
ATOM     19  C   UNL A   1      30.391  25.414  23.738  1.00  0.00     0.047 A 
ATOM     20  C   UNL A   1      29.920  26.704  23.454  1.00  0.00     0.004 A 
ENDBRANCH  13  14
ENDBRANCH   7  13
BRANCH  12  21
ATOM     21  C   UNL A   1      33.328  18.810  24.615  1.00  0.00     0.227 A 
ATOM     22  N   UNL A   1      32.126  18.245  24.770  1.00  0.00    -0.220 NA
ATOM     23  N   UNL A   1      34.488  18.146  24.777  1.00  0.00    -0.195 NA
ATOM     24  C   UNL A   1      32.110  16.927  25.032  1.00  0.00     0.138 A 
ATOM     25  C   UNL A   1      34.442  16.841  25.085  1.00  0.00     0.147 A 
ATOM     26  C   UNL A   1      33.244  16.168  25.196  1.00  0.00     0.113 A 
BRANCH  25  27
ATOM     27  N   UNL A   1      35.665  16.267  25.378  1.00  0.00    -0.382 N 
ATOM     28  H   UNL A   1      36.286  16.719  25.994  1.00  0.00     0.158 HD
ATOM     29  H   UNL A   1      35.915  15.406  24.970  1.00  0.00     0.158 HD
ENDBRANCH  25  27
BRANCH  26  30
ATOM     30  C   UNL A   1      33.154  14.769  25.442  1.00  0.00     0.105 C 
ATOM     31  N   UNL A   1      33.045  13.638  25.651  1.00  0.00    -0.192 NA
ENDBRANCH  26  30
ENDBRANCH  12  21
ENDBRANCH   4   7
ENDBRANCH   2   3
ENDBRANCH   1   2
BRANCH   1  32
ATOM     32  C   UNL A   1      37.372  22.496  25.867  1.00  0.00     0.023 C 
BRANCH  32  33
ATOM     33  C   UNL A   1      38.751  21.910  25.640  1.00  0.00     0.116 C 
BRANCH  33  34
ATOM     34  N   UNL A   1      39.628  21.971  26.798  1.00  0.00    -0.352 N 
ATOM     35  C   UNL A   1      40.256  23.070  27.360  1.00  0.00     0.251 C 
ATOM     36  H   UNL A   1      39.798  21.112  27.245  1.00  0.00     0.163 HD
ATOM     37  O   UNL A   1      41.203  22.898  28.121  1.00  0.00    -0.269 OA
BRANCH  35  38
ATOM     38  C   UNL A   1      39.643  24.426  27.247  1.00  0.00     0.039 A 
ATOM     39  C   UNL A   1      40.375  25.329  26.457  1.00  0.00     0.014 A 
ATOM     40  C   UNL A   1      38.843  24.903  28.270  1.00  0.00     0.014 A 
ATOM     41  C   UNL A   1      40.616  26.602  26.941  1.00  0.00     0.010 A 
ATOM     42  C   UNL A   1      39.247  26.055  28.875  1.00  0.00     0.010 A 
ATOM     43  C   UNL A   1      40.177  26.866  28.226  1.00  0.00    -0.014 A 
BRANCH  43  44
ATOM     44  C   UNL A   1      40.500  28.042  28.989  1.00  0.00     0.031 A 
ATOM     45  C   UNL A   1      39.528  29.135  28.852  1.00  0.00     0.074 A 
ATOM     46  C   UNL A   1      41.441  27.873  29.945  1.00  0.00     0.049 A 
ATOM     47  N   UNL A   1      39.716  30.333  29.251  1.00  0.00    -0.248 NA
ATOM     48  C   UNL A   1      38.228  28.963  28.192  1.00  0.00     0.031 C 
ATOM     49  C   UNL A   1      41.722  28.661  31.137  1.00  0.00     0.029 A 
ATOM     50  N   UNL A   1      42.504  26.950  29.901  1.00  0.00    -0.354 N 
ATOM     51  C   UNL A   1      38.480  30.951  29.271  1.00  0.00     0.074 A 
ATOM     52  C   UNL A   1      37.632  30.126  28.458  1.00  0.00     0.031 C 
ATOM     53  C   UNL A   1      43.004  28.456  31.499  1.00  0.00     0.029 A 
ATOM     54  C   UNL A   1      43.609  27.629  30.465  1.00  0.00     0.049 A 
ATOM     55  H   UNL A   1      42.482  26.029  29.552  1.00  0.00     0.167 HD
ATOM     56  C   UNL A   1      38.322  31.982  30.148  1.00  0.00     0.037 A 
ATOM     57  C   UNL A   1      44.622  28.032  29.639  1.00  0.00     0.037 A 
ATOM     58  C   UNL A   1      39.623  32.267  30.763  1.00  0.00     0.049 A 
ATOM     59  C   UNL A   1      44.653  29.540  29.511  1.00  0.00     0.074 A 
ATOM     60  C   UNL A   1      40.187  31.879  31.966  1.00  0.00     0.029 A 
ATOM     61  N   UNL A   1      40.676  32.647  29.937  1.00  0.00    -0.354 N 
ATOM     62  N   UNL A   1      43.601  30.309  29.635  1.00  0.00    -0.248 NA
ATOM     63  C   UNL A   1      45.888  30.298  29.349  1.00  0.00     0.031 C 
ATOM     64  C   UNL A   1      41.603  31.938  31.816  1.00  0.00     0.029 A 
ATOM     65  C   UNL A   1      41.892  32.371  30.531  1.00  0.00     0.049 A 
ATOM     66  H   UNL A   1      40.568  33.057  29.048  1.00  0.00     0.167 HD
ATOM     67  C   UNL A   1      43.995  31.622  29.637  1.00  0.00     0.074 A 
ATOM     68  C   UNL A   1      45.433  31.560  29.448  1.00  0.00     0.031 C 
ATOM     69  C   UNL A   1      43.134  32.670  29.830  1.00  0.00     0.037 A 
BRANCH  56  70
ATOM     70  C   UNL A   1      37.018  32.549  30.673  1.00  0.00     0.064 A 
ATOM     71  C   UNL A   1      36.272  33.434  29.859  1.00  0.00     0.173 A 
ATOM     72  C   UNL A   1      36.464  32.338  31.952  1.00  0.00     0.173 A 
ATOM     73  F   UNL A   1      36.640  33.700  28.597  1.00  0.00    -0.203 F 
ATOM     74  C   UNL A   1      35.119  34.086  30.302  1.00  0.00     0.198 A 
ATOM     75  C   UNL A   1      35.308  32.993  32.397  1.00  0.00     0.198 A 
ATOM     76  F   UNL A   1      36.991  31.481  32.827  1.00  0.00    -0.203 F 
ATOM     77  F   UNL A   1      34.478  34.931  29.484  1.00  0.00    -0.200 F 
ATOM     78  C   UNL A   1      34.640  33.872  31.576  1.00  0.00     0.200 A 
ATOM     79  F   UNL A   1      34.853  32.759  33.637  1.00  0.00    -0.200 F 
ATOM     80  F   UNL A   1      33.538  34.500  32.006  1.00  0.00    -0.200 F 
ENDBRANCH  56  70
BRANCH  57  81
ATOM     81  C   UNL A   1      44.876  27.017  28.564  1.00  0.00     0.064 A 
ATOM     82  C   UNL A   1      45.226  25.716  28.996  1.00  0.00     0.173 A 
ATOM     83  C   UNL A   1      44.329  27.135  27.281  1.00  0.00     0.173 A 
ATOM     84  F   UNL A   1      45.789  25.542  30.205  1.00  0.00    -0.203 F 
ATOM     85  C   UNL A   1      44.853  24.583  28.276  1.00  0.00     0.198 A 
ATOM     86  C   UNL A   1      44.002  25.993  26.538  1.00  0.00     0.198 A 
ATOM     87  F   UNL A   1      43.985  28.336  26.797  1.00  0.00    -0.203 F 
ATOM     88  F   UNL A   1      45.041  23.363  28.803  1.00  0.00    -0.200 F 
ATOM     89  C   UNL A   1      44.206  24.723  27.062  1.00  0.00     0.200 A 
ATOM     90  F   UNL A   1      43.390  26.123  25.352  1.00  0.00    -0.200 F 
ATOM     91  F   UNL A   1      43.749  23.641  26.416  1.00  0.00    -0.200 F 
ENDBRANCH  57  81
BRANCH  69  92
ATOM     92  C   UNL A   1      43.412  34.112  29.454  1.00  0.00     0.064 A 
ATOM     93  C   UNL A   1      43.553  35.149  30.389  1.00  0.00     0.173 A 
ATOM     94  C   UNL A   1      43.716  34.468  28.114  1.00  0.00     0.173 A 
ATOM     95  F   UNL A   1      43.460  34.928  31.706  1.00  0.00    -0.203 F 
ATOM     96  C   UNL A   1      43.866  36.455  30.006  1.00  0.00     0.198 A 
ATOM     97  C   UNL A   1      44.128  35.748  27.751  1.00  0.00     0.198 A 
ATOM     98  F   UNL A   1      43.660  33.583  27.109  1.00  0.00    -0.203 F 
ATOM     99  F   UNL A   1      43.903  37.422  30.933  1.00  0.00    -0.200 F 
ATOM    100  C   UNL A   1      44.169  36.751  28.692  1.00  0.00     0.200 A 
ATOM    101  F   UNL A   1      44.502  35.991  26.488  1.00  0.00    -0.200 F 
ATOM    102  F   UNL A   1      44.522  37.992  28.339  1.00  0.00    -0.200 F 
ENDBRANCH  69  92
ENDBRANCH  43  44
ENDBRANCH  35  38
ENDBRANCH  33  34
ENDBRANCH  32  33
ENDBRANCH   1  32
TORSDOF 16
ENDMDL
