MODEL 1
REMARK VINA RESULT:     -11.6      0.000      0.000
REMARK SMILES CC(C)C[C@@H](CNC(=O)[C@@H]1CCOC1)C(=O)NCCCCNC(=O)c1ccc(-c2c3nc(c(-c4c(F)c(F)c(F)c(F)c4F)c4ccc([nH]4)c(-c4c(F)c(F)c(F)c(F)c4F)c4nc(c(-c5c(F)c(F)c(F)c(F)c5F)c5ccc2[nH]5)C=C4)C=C3)cc1
REMARK SMILES IDX 19 1 18 2 17 3 15 4 16 5 5 7 4 8 2 9 1 10 3 11 6 12 7 13
REMARK SMILES IDX 8 14 9 16 10 17 11 18 14 19 12 20 13 21 20 22 21 23 22 24
REMARK SMILES IDX 23 25 24 27 25 28 26 29 87 30 27 31 86 32 28 33 29 34 30 35
REMARK SMILES IDX 80 36 31 37 85 38 79 39 81 40 32 41 84 42 78 43 77 44 33 46
REMARK SMILES IDX 65 47 45 48 64 49 46 50 49 51 63 52 82 53 47 54 48 55 62 57
REMARK SMILES IDX 83 58 50 59 34 60 35 61 43 62 36 63 37 64 41 65 44 66 38 67
REMARK SMILES IDX 39 68 42 69 40 70 66 71 67 72 75 73 68 74 69 75 73 76 76 77
REMARK SMILES IDX 70 78 71 79 74 80 72 81 51 82 52 83 60 84 53 85 54 86 58 87
REMARK SMILES IDX 61 88 55 89 56 90 59 91 57 92
REMARK H PARENT 17 6 7 15 22 26 81 45 49 56
REMARK Flexibility Score: inf
ROOT
ATOM      1  C   UNL A   1      36.864  20.526  25.181  1.00  0.00     0.023 C 
ENDROOT
BRANCH   1   2
ATOM      2  C   UNL A   1      36.337  21.922  25.482  1.00  0.00     0.116 C 
BRANCH   2   3
ATOM      3  N   UNL A   1      35.327  21.919  26.524  1.00  0.00    -0.356 N 
ATOM      4  C   UNL A   1      34.063  21.418  26.547  1.00  0.00     0.224 C 
ATOM      5  O   UNL A   1      33.489  21.392  27.640  1.00  0.00    -0.275 OA
ATOM      6  H   UNL A   1      35.605  22.356  27.361  1.00  0.00     0.163 HD
BRANCH   4   7
ATOM      7  C   UNL A   1      33.360  20.867  25.308  1.00  0.00     0.098 C 
BRANCH   7   8
ATOM      8  C   UNL A   1      33.276  19.328  25.320  1.00  0.00     0.018 C 
BRANCH   8   9
ATOM      9  C   UNL A   1      33.742  18.589  24.055  1.00  0.00    -0.017 C 
ATOM     10  C   UNL A   1      34.660  17.410  24.374  1.00  0.00     0.007 C 
ATOM     11  C   UNL A   1      32.512  18.090  23.286  1.00  0.00     0.007 C 
ENDBRANCH   8   9
ENDBRANCH   7   8
BRANCH   7  12
ATOM     12  C   UNL A   1      32.114  21.698  24.952  1.00  0.00     0.129 C 
BRANCH  12  13
ATOM     13  N   UNL A   1      31.234  22.031  26.057  1.00  0.00    -0.355 N 
ATOM     14  C   UNL A   1      30.660  23.223  26.401  1.00  0.00     0.225 C 
ATOM     15  H   UNL A   1      31.016  21.279  26.653  1.00  0.00     0.163 HD
ATOM     16  O   UNL A   1      30.065  23.272  27.477  1.00  0.00    -0.275 OA
BRANCH  14  17
ATOM     17  C   UNL A   1      30.794  24.428  25.477  1.00  0.00     0.106 C 
ATOM     18  C   UNL A   1      32.172  25.053  25.539  1.00  0.00     0.044 C 
ATOM     19  C   UNL A   1      29.886  25.578  25.899  1.00  0.00     0.173 C 
ATOM     20  C   UNL A   1      32.027  26.099  26.622  1.00  0.00     0.161 C 
ATOM     21  O   UNL A   1      30.693  26.594  26.514  1.00  0.00    -0.381 OA
ENDBRANCH  14  17
ENDBRANCH  12  13
ENDBRANCH   7  12
ENDBRANCH   4   7
ENDBRANCH   2   3
ENDBRANCH   1   2
BRANCH   1  22
ATOM     22  C   UNL A   1      38.350  20.479  24.835  1.00  0.00     0.023 C 
BRANCH  22  23
ATOM     23  C   UNL A   1      39.293  20.402  26.032  1.00  0.00     0.116 C 
BRANCH  23  24
ATOM     24  N   UNL A   1      40.197  19.262  25.988  1.00  0.00    -0.352 N 
ATOM     25  C   UNL A   1      41.567  19.251  26.103  1.00  0.00     0.251 C 
ATOM     26  H   UNL A   1      39.773  18.384  25.860  1.00  0.00     0.163 HD
ATOM     27  O   UNL A   1      42.207  18.221  25.922  1.00  0.00    -0.269 OA
BRANCH  25  28
ATOM     28  C   UNL A   1      42.266  20.516  26.403  1.00  0.00     0.039 A 
ATOM     29  C   UNL A   1      42.748  21.288  25.345  1.00  0.00     0.014 A 
ATOM     30  C   UNL A   1      42.381  20.961  27.723  1.00  0.00     0.014 A 
ATOM     31  C   UNL A   1      43.271  22.555  25.605  1.00  0.00     0.010 A 
ATOM     32  C   UNL A   1      42.833  22.252  27.971  1.00  0.00     0.010 A 
ATOM     33  C   UNL A   1      43.275  23.063  26.914  1.00  0.00    -0.014 A 
BRANCH  33  34
ATOM     34  C   UNL A   1      43.725  24.448  27.202  1.00  0.00     0.031 A 
ATOM     35  C   UNL A   1      42.751  25.458  27.733  1.00  0.00     0.074 A 
ATOM     36  C   UNL A   1      44.989  24.812  26.908  1.00  0.00     0.049 A 
ATOM     37  N   UNL A   1      42.928  26.734  27.968  1.00  0.00    -0.248 NA
ATOM     38  C   UNL A   1      41.387  24.979  28.009  1.00  0.00     0.031 C 
ATOM     39  C   UNL A   1      46.012  23.935  26.333  1.00  0.00     0.029 A 
ATOM     40  N   UNL A   1      45.624  26.021  27.038  1.00  0.00    -0.354 N 
ATOM     41  C   UNL A   1      41.696  27.211  28.395  1.00  0.00     0.074 A 
ATOM     42  C   UNL A   1      40.769  26.102  28.342  1.00  0.00     0.031 C 
ATOM     43  C   UNL A   1      47.152  24.628  26.186  1.00  0.00     0.029 A 
ATOM     44  C   UNL A   1      46.932  26.004  26.619  1.00  0.00     0.049 A 
ATOM     45  H   UNL A   1      45.185  26.825  27.399  1.00  0.00     0.167 HD
ATOM     46  C   UNL A   1      41.374  28.457  28.814  1.00  0.00     0.037 A 
ATOM     47  C   UNL A   1      47.848  26.990  26.586  1.00  0.00     0.037 A 
ATOM     48  C   UNL A   1      42.308  29.548  28.904  1.00  0.00     0.049 A 
ATOM     49  C   UNL A   1      47.468  28.362  27.076  1.00  0.00     0.074 A 
ATOM     50  C   UNL A   1      42.099  30.826  29.389  1.00  0.00     0.029 A 
ATOM     51  N   UNL A   1      43.633  29.485  28.498  1.00  0.00    -0.354 N 
ATOM     52  N   UNL A   1      46.320  28.783  27.547  1.00  0.00    -0.248 NA
ATOM     53  C   UNL A   1      48.515  29.393  27.033  1.00  0.00     0.031 C 
ATOM     54  C   UNL A   1      43.287  31.550  29.244  1.00  0.00     0.029 A 
ATOM     55  C   UNL A   1      44.248  30.708  28.706  1.00  0.00     0.049 A 
ATOM     56  H   UNL A   1      44.071  28.689  28.120  1.00  0.00     0.167 HD
ATOM     57  C   UNL A   1      46.513  30.116  27.883  1.00  0.00     0.074 A 
ATOM     58  C   UNL A   1      47.892  30.431  27.572  1.00  0.00     0.031 C 
ATOM     59  C   UNL A   1      45.626  31.000  28.402  1.00  0.00     0.037 A 
BRANCH  46  60
ATOM     60  C   UNL A   1      39.951  28.705  29.218  1.00  0.00     0.064 A 
ATOM     61  C   UNL A   1      38.996  29.166  28.299  1.00  0.00     0.173 A 
ATOM     62  C   UNL A   1      39.529  28.449  30.531  1.00  0.00     0.173 A 
ATOM     63  F   UNL A   1      39.352  29.438  27.034  1.00  0.00    -0.203 F 
ATOM     64  C   UNL A   1      37.677  29.388  28.687  1.00  0.00     0.198 A 
ATOM     65  C   UNL A   1      38.203  28.644  30.909  1.00  0.00     0.198 A 
ATOM     66  F   UNL A   1      40.401  28.003  31.447  1.00  0.00    -0.203 F 
ATOM     67  F   UNL A   1      36.794  29.872  27.804  1.00  0.00    -0.200 F 
ATOM     68  C   UNL A   1      37.280  29.120  29.989  1.00  0.00     0.200 A 
ATOM     69  F   UNL A   1      37.818  28.375  32.164  1.00  0.00    -0.200 F 
ATOM     70  F   UNL A   1      36.010  29.328  30.359  1.00  0.00    -0.200 F 
ENDBRANCH  46  60
BRANCH  47  71
ATOM     71  C   UNL A   1      49.225  26.711  26.104  1.00  0.00     0.064 A 
ATOM     72  C   UNL A   1      49.600  27.023  24.790  1.00  0.00     0.173 A 
ATOM     73  C   UNL A   1      50.188  26.122  26.936  1.00  0.00     0.173 A 
ATOM     74  F   UNL A   1      48.706  27.567  23.950  1.00  0.00    -0.203 F 
ATOM     75  C   UNL A   1      50.880  26.740  24.319  1.00  0.00     0.198 A 
ATOM     76  C   UNL A   1      51.476  25.864  26.472  1.00  0.00     0.198 A 
ATOM     77  F   UNL A   1      49.880  25.809  28.203  1.00  0.00    -0.203 F 
ATOM     78  F   UNL A   1      51.199  27.009  23.046  1.00  0.00    -0.200 F 
ATOM     79  C   UNL A   1      51.819  26.165  25.163  1.00  0.00     0.200 A 
ATOM     80  F   UNL A   1      52.385  25.318  27.293  1.00  0.00    -0.200 F 
ATOM     81  F   UNL A   1      53.051  25.895  24.711  1.00  0.00    -0.200 F 
ENDBRANCH  47  71
BRANCH  59  82
ATOM     82  C   UNL A   1      46.129  32.381  28.701  1.00  0.00     0.064 A 
ATOM     83  C   UNL A   1      46.041  33.414  27.758  1.00  0.00     0.173 A 
ATOM     84  C   UNL A   1      46.665  32.681  29.962  1.00  0.00     0.173 A 
ATOM     85  F   UNL A   1      45.551  33.171  26.533  1.00  0.00    -0.203 F 
ATOM     86  C   UNL A   1      46.493  34.696  28.060  1.00  0.00     0.198 A 
ATOM     87  C   UNL A   1      47.091  33.971  30.269  1.00  0.00     0.198 A 
ATOM     88  F   UNL A   1      46.764  31.728  30.900  1.00  0.00    -0.203 F 
ATOM     89  F   UNL A   1      46.439  35.659  27.129  1.00  0.00    -0.200 F 
ATOM     90  C   UNL A   1      47.010  34.974  29.317  1.00  0.00     0.200 A 
ATOM     91  F   UNL A   1      47.579  34.240  31.488  1.00  0.00    -0.200 F 
ATOM     92  F   UNL A   1      47.437  36.211  29.607  1.00  0.00    -0.200 F 
ENDBRANCH  59  82
ENDBRANCH  33  34
ENDBRANCH  25  28
ENDBRANCH  23  24
ENDBRANCH  22  23
ENDBRANCH   1  22
TORSDOF 16
ENDMDL
MODEL 2
REMARK VINA RESULT:     -11.6      6.119     11.678
REMARK SMILES CC(C)C[C@@H](CNC(=O)[C@@H]1CCOC1)C(=O)NCCCCNC(=O)c1ccc(-c2c3nc(c(-c4c(F)c(F)c(F)c(F)c4F)c4ccc([nH]4)c(-c4c(F)c(F)c(F)c(F)c4F)c4nc(c(-c5c(F)c(F)c(F)c(F)c5F)c5ccc2[nH]5)C=C4)C=C3)cc1
REMARK SMILES IDX 19 1 18 2 17 3 15 4 16 5 5 7 4 8 2 9 1 10 3 11 6 12 7 13
REMARK SMILES IDX 8 14 9 16 10 17 11 18 14 19 12 20 13 21 20 22 21 23 22 24
REMARK SMILES IDX 23 25 24 27 25 28 26 29 87 30 27 31 86 32 28 33 29 34 30 35
REMARK SMILES IDX 80 36 31 37 85 38 79 39 81 40 32 41 84 42 78 43 77 44 33 46
REMARK SMILES IDX 65 47 45 48 64 49 46 50 49 51 63 52 82 53 47 54 48 55 62 57
REMARK SMILES IDX 83 58 50 59 34 60 35 61 43 62 36 63 37 64 41 65 44 66 38 67
REMARK SMILES IDX 39 68 42 69 40 70 66 71 67 72 75 73 68 74 69 75 73 76 76 77
REMARK SMILES IDX 70 78 71 79 74 80 72 81 51 82 52 83 60 84 53 85 54 86 58 87
REMARK SMILES IDX 61 88 55 89 56 90 59 91 57 92
REMARK H PARENT 17 6 7 15 22 26 81 45 49 56
REMARK Flexibility Score: inf
ROOT
ATOM      1  C   UNL A   1      32.166  30.426  26.895  1.00  0.00     0.023 C 
ENDROOT
BRANCH   1   2
ATOM      2  C   UNL A   1      31.468  29.626  25.804  1.00  0.00     0.116 C 
BRANCH   2   3
ATOM      3  N   UNL A   1      32.331  29.376  24.664  1.00  0.00    -0.356 N 
ATOM      4  C   UNL A   1      32.044  29.042  23.377  1.00  0.00     0.224 C 
ATOM      5  O   UNL A   1      32.976  29.074  22.568  1.00  0.00    -0.275 OA
ATOM      6  H   UNL A   1      33.292  29.463  24.855  1.00  0.00     0.163 HD
BRANCH   4   7
ATOM      7  C   UNL A   1      30.640  28.674  22.902  1.00  0.00     0.098 C 
BRANCH   7   8
ATOM      8  C   UNL A   1      30.044  29.738  21.959  1.00  0.00     0.018 C 
BRANCH   8   9
ATOM      9  C   UNL A   1      28.633  30.254  22.284  1.00  0.00    -0.017 C 
ATOM     10  C   UNL A   1      28.622  31.212  23.473  1.00  0.00     0.007 C 
ATOM     11  C   UNL A   1      28.064  30.962  21.048  1.00  0.00     0.007 C 
ENDBRANCH   8   9
ENDBRANCH   7   8
BRANCH   7  12
ATOM     12  C   UNL A   1      30.544  27.183  22.531  1.00  0.00     0.129 C 
BRANCH  12  13
ATOM     13  N   UNL A   1      31.540  26.696  21.594  1.00  0.00    -0.355 N 
ATOM     14  C   UNL A   1      32.561  25.804  21.775  1.00  0.00     0.225 C 
ATOM     15  H   UNL A   1      31.469  27.066  20.685  1.00  0.00     0.163 HD
ATOM     16  O   UNL A   1      33.360  25.670  20.849  1.00  0.00    -0.275 OA
BRANCH  14  17
ATOM     17  C   UNL A   1      32.686  25.047  23.091  1.00  0.00     0.106 C 
ATOM     18  C   UNL A   1      34.096  24.555  23.343  1.00  0.00     0.044 C 
ATOM     19  C   UNL A   1      31.878  23.753  23.087  1.00  0.00     0.173 C 
ATOM     20  C   UNL A   1      34.095  23.173  22.730  1.00  0.00     0.161 C 
ATOM     21  O   UNL A   1      32.785  22.649  22.946  1.00  0.00    -0.381 OA
ENDBRANCH  14  17
ENDBRANCH  12  13
ENDBRANCH   7  12
ENDBRANCH   4   7
ENDBRANCH   2   3
ENDBRANCH   1   2
BRANCH   1  22
ATOM     22  C   UNL A   1      31.830  31.915  26.891  1.00  0.00     0.023 C 
BRANCH  22  23
ATOM     23  C   UNL A   1      32.965  32.836  27.330  1.00  0.00     0.116 C 
BRANCH  23  24
ATOM     24  N   UNL A   1      32.524  34.182  27.669  1.00  0.00    -0.352 N 
ATOM     25  C   UNL A   1      33.008  35.021  28.644  1.00  0.00     0.251 C 
ATOM     26  H   UNL A   1      31.783  34.538  27.128  1.00  0.00     0.163 HD
ATOM     27  O   UNL A   1      32.452  36.085  28.894  1.00  0.00    -0.269 OA
BRANCH  25  28
ATOM     28  C   UNL A   1      34.188  34.600  29.424  1.00  0.00     0.039 A 
ATOM     29  C   UNL A   1      34.003  34.115  30.719  1.00  0.00     0.014 A 
ATOM     30  C   UNL A   1      35.460  34.624  28.845  1.00  0.00     0.014 A 
ATOM     31  C   UNL A   1      35.087  33.571  31.408  1.00  0.00     0.010 A 
ATOM     32  C   UNL A   1      36.522  34.014  29.504  1.00  0.00     0.010 A 
ATOM     33  C   UNL A   1      36.343  33.476  30.787  1.00  0.00    -0.014 A 
BRANCH  33  34
ATOM     34  C   UNL A   1      37.484  32.803  31.458  1.00  0.00     0.031 A 
ATOM     35  C   UNL A   1      38.174  31.651  30.788  1.00  0.00     0.074 A 
ATOM     36  C   UNL A   1      37.842  33.180  32.700  1.00  0.00     0.049 A 
ATOM     37  N   UNL A   1      39.132  30.882  31.243  1.00  0.00    -0.248 NA
ATOM     38  C   UNL A   1      37.706  31.295  29.439  1.00  0.00     0.031 C 
ATOM     39  C   UNL A   1      37.210  34.248  33.478  1.00  0.00     0.029 A 
ATOM     40  N   UNL A   1      38.819  32.697  33.534  1.00  0.00    -0.354 N 
ATOM     41  C   UNL A   1      39.362  29.941  30.248  1.00  0.00     0.074 A 
ATOM     42  C   UNL A   1      38.415  30.204  29.187  1.00  0.00     0.031 C 
ATOM     43  C   UNL A   1      37.830  34.355  34.664  1.00  0.00     0.029 A 
ATOM     44  C   UNL A   1      38.879  33.342  34.745  1.00  0.00     0.049 A 
ATOM     45  H   UNL A   1      39.420  31.958  33.289  1.00  0.00     0.167 HD
ATOM     46  C   UNL A   1      40.295  28.962  30.215  1.00  0.00     0.037 A 
ATOM     47  C   UNL A   1      39.687  33.138  35.802  1.00  0.00     0.037 A 
ATOM     48  C   UNL A   1      41.262  28.729  31.254  1.00  0.00     0.049 A 
ATOM     49  C   UNL A   1      40.728  32.053  35.731  1.00  0.00     0.074 A 
ATOM     50  C   UNL A   1      42.298  27.812  31.280  1.00  0.00     0.029 A 
ATOM     51  N   UNL A   1      41.311  29.423  32.454  1.00  0.00    -0.354 N 
ATOM     52  N   UNL A   1      40.986  31.217  34.755  1.00  0.00    -0.248 NA
ATOM     53  C   UNL A   1      41.592  31.887  36.908  1.00  0.00     0.031 C 
ATOM     54  C   UNL A   1      42.952  27.925  32.512  1.00  0.00     0.029 A 
ATOM     55  C   UNL A   1      42.348  28.942  33.235  1.00  0.00     0.049 A 
ATOM     56  H   UNL A   1      40.700  30.151  32.711  1.00  0.00     0.167 HD
ATOM     57  C   UNL A   1      42.057  30.448  35.186  1.00  0.00     0.074 A 
ATOM     58  C   UNL A   1      42.410  30.924  36.507  1.00  0.00     0.031 C 
ATOM     59  C   UNL A   1      42.692  29.437  34.543  1.00  0.00     0.037 A 
BRANCH  46  60
ATOM     60  C   UNL A   1      40.321  28.071  29.007  1.00  0.00     0.064 A 
ATOM     61  C   UNL A   1      41.056  28.410  27.861  1.00  0.00     0.173 A 
ATOM     62  C   UNL A   1      39.630  26.851  29.009  1.00  0.00     0.173 A 
ATOM     63  F   UNL A   1      41.723  29.572  27.806  1.00  0.00    -0.203 F 
ATOM     64  C   UNL A   1      41.074  27.572  26.749  1.00  0.00     0.198 A 
ATOM     65  C   UNL A   1      39.674  26.001  27.906  1.00  0.00     0.198 A 
ATOM     66  F   UNL A   1      38.917  26.478  30.082  1.00  0.00    -0.203 F 
ATOM     67  F   UNL A   1      41.744  27.938  25.649  1.00  0.00    -0.200 F 
ATOM     68  C   UNL A   1      40.390  26.366  26.775  1.00  0.00     0.200 A 
ATOM     69  F   UNL A   1      39.022  24.831  27.936  1.00  0.00    -0.200 F 
ATOM     70  F   UNL A   1      40.414  25.558  25.707  1.00  0.00    -0.200 F 
ENDBRANCH  46  60
BRANCH  47  71
ATOM     71  C   UNL A   1      39.569  33.999  37.007  1.00  0.00     0.064 A 
ATOM     72  C   UNL A   1      38.817  33.582  38.114  1.00  0.00     0.173 A 
ATOM     73  C   UNL A   1      40.194  35.252  37.076  1.00  0.00     0.173 A 
ATOM     74  F   UNL A   1      38.184  32.400  38.086  1.00  0.00    -0.203 F 
ATOM     75  C   UNL A   1      38.679  34.394  39.238  1.00  0.00     0.198 A 
ATOM     76  C   UNL A   1      40.076  36.052  38.210  1.00  0.00     0.198 A 
ATOM     77  F   UNL A   1      40.928  35.695  36.045  1.00  0.00    -0.203 F 
ATOM     78  F   UNL A   1      37.919  33.989  40.264  1.00  0.00    -0.200 F 
ATOM     79  C   UNL A   1      39.312  35.626  39.287  1.00  0.00     0.200 A 
ATOM     80  F   UNL A   1      40.699  37.238  38.260  1.00  0.00    -0.200 F 
ATOM     81  F   UNL A   1      39.181  36.406  40.368  1.00  0.00    -0.200 F 
ENDBRANCH  47  71
BRANCH  59  82
ATOM     82  C   UNL A   1      43.856  28.802  35.246  1.00  0.00     0.064 A 
ATOM     83  C   UNL A   1      43.689  27.698  36.092  1.00  0.00     0.173 A 
ATOM     84  C   UNL A   1      45.157  29.280  35.033  1.00  0.00     0.173 A 
ATOM     85  F   UNL A   1      42.462  27.216  36.339  1.00  0.00    -0.203 F 
ATOM     86  C   UNL A   1      44.783  27.107  36.719  1.00  0.00     0.198 A 
ATOM     87  C   UNL A   1      46.252  28.670  35.640  1.00  0.00     0.198 A 
ATOM     88  F   UNL A   1      45.370  30.331  34.227  1.00  0.00    -0.203 F 
ATOM     89  F   UNL A   1      44.596  26.078  37.558  1.00  0.00    -0.200 F 
ATOM     90  C   UNL A   1      46.063  27.589  36.486  1.00  0.00     0.200 A 
ATOM     91  F   UNL A   1      47.489  29.130  35.404  1.00  0.00    -0.200 F 
ATOM     92  F   UNL A   1      47.114  27.014  37.085  1.00  0.00    -0.200 F 
ENDBRANCH  59  82
ENDBRANCH  33  34
ENDBRANCH  25  28
ENDBRANCH  23  24
ENDBRANCH  22  23
ENDBRANCH   1  22
TORSDOF 16
ENDMDL
MODEL 3
REMARK VINA RESULT:     -11.5      6.300     11.422
REMARK SMILES CC(C)C[C@@H](CNC(=O)[C@@H]1CCOC1)C(=O)NCCCCNC(=O)c1ccc(-c2c3nc(c(-c4c(F)c(F)c(F)c(F)c4F)c4ccc([nH]4)c(-c4c(F)c(F)c(F)c(F)c4F)c4nc(c(-c5c(F)c(F)c(F)c(F)c5F)c5ccc2[nH]5)C=C4)C=C3)cc1
REMARK SMILES IDX 19 1 18 2 17 3 15 4 16 5 5 7 4 8 2 9 1 10 3 11 6 12 7 13
REMARK SMILES IDX 8 14 9 16 10 17 11 18 14 19 12 20 13 21 20 22 21 23 22 24
REMARK SMILES IDX 23 25 24 27 25 28 26 29 87 30 27 31 86 32 28 33 29 34 30 35
REMARK SMILES IDX 80 36 31 37 85 38 79 39 81 40 32 41 84 42 78 43 77 44 33 46
REMARK SMILES IDX 65 47 45 48 64 49 46 50 49 51 63 52 82 53 47 54 48 55 62 57
REMARK SMILES IDX 83 58 50 59 34 60 35 61 43 62 36 63 37 64 41 65 44 66 38 67
REMARK SMILES IDX 39 68 42 69 40 70 66 71 67 72 75 73 68 74 69 75 73 76 76 77
REMARK SMILES IDX 70 78 71 79 74 80 72 81 51 82 52 83 60 84 53 85 54 86 58 87
REMARK SMILES IDX 61 88 55 89 56 90 59 91 57 92
REMARK H PARENT 17 6 7 15 22 26 81 45 49 56
REMARK Flexibility Score: inf
ROOT
ATOM      1  C   UNL A   1      31.797  30.333  26.808  1.00  0.00     0.023 C 
ENDROOT
BRANCH   1   2
ATOM      2  C   UNL A   1      33.191  29.733  26.694  1.00  0.00     0.116 C 
BRANCH   2   3
ATOM      3  N   UNL A   1      33.678  29.722  25.327  1.00  0.00    -0.356 N 
ATOM      4  C   UNL A   1      33.379  28.915  24.275  1.00  0.00     0.224 C 
ATOM      5  O   UNL A   1      33.809  29.255  23.167  1.00  0.00    -0.275 OA
ATOM      6  H   UNL A   1      34.341  30.421  25.127  1.00  0.00     0.163 HD
BRANCH   4   7
ATOM      7  C   UNL A   1      32.523  27.657  24.402  1.00  0.00     0.098 C 
BRANCH   7   8
ATOM      8  C   UNL A   1      32.915  26.805  25.625  1.00  0.00     0.018 C 
BRANCH   8   9
ATOM      9  C   UNL A   1      33.956  25.695  25.405  1.00  0.00    -0.017 C 
ATOM     10  C   UNL A   1      33.640  24.433  26.204  1.00  0.00     0.007 C 
ATOM     11  C   UNL A   1      34.014  25.356  23.910  1.00  0.00     0.007 C 
ENDBRANCH   8   9
ENDBRANCH   7   8
BRANCH   7  12
ATOM     12  C   UNL A   1      31.039  27.954  24.121  1.00  0.00     0.129 C 
BRANCH  12  13
ATOM     13  N   UNL A   1      30.743  28.539  22.826  1.00  0.00    -0.355 N 
ATOM     14  C   UNL A   1      29.796  29.459  22.468  1.00  0.00     0.225 C 
ATOM     15  H   UNL A   1      31.314  28.224  22.089  1.00  0.00     0.163 HD
ATOM     16  O   UNL A   1      29.657  29.683  21.266  1.00  0.00    -0.275 OA
BRANCH  14  17
ATOM     17  C   UNL A   1      28.949  30.137  23.538  1.00  0.00     0.106 C 
ATOM     18  C   UNL A   1      27.554  30.465  23.050  1.00  0.00     0.044 C 
ATOM     19  C   UNL A   1      29.500  31.506  23.922  1.00  0.00     0.173 C 
ATOM     20  C   UNL A   1      27.701  31.867  22.502  1.00  0.00     0.161 C 
ATOM     21  O   UNL A   1      28.662  32.515  23.335  1.00  0.00    -0.381 OA
ENDBRANCH  14  17
ENDBRANCH  12  13
ENDBRANCH   7  12
ENDBRANCH   4   7
ENDBRANCH   2   3
ENDBRANCH   1   2
BRANCH   1  22
ATOM     22  C   UNL A   1      31.752  31.848  26.626  1.00  0.00     0.023 C 
BRANCH  22  23
ATOM     23  C   UNL A   1      32.792  32.628  27.424  1.00  0.00     0.116 C 
BRANCH  23  24
ATOM     24  N   UNL A   1      32.430  34.020  27.649  1.00  0.00    -0.352 N 
ATOM     25  C   UNL A   1      32.974  34.914  28.540  1.00  0.00     0.251 C 
ATOM     26  H   UNL A   1      31.699  34.368  27.088  1.00  0.00     0.163 HD
ATOM     27  O   UNL A   1      32.480  36.024  28.703  1.00  0.00    -0.269 OA
BRANCH  25  28
ATOM     28  C   UNL A   1      34.144  34.499  29.339  1.00  0.00     0.039 A 
ATOM     29  C   UNL A   1      33.935  33.924  30.594  1.00  0.00     0.014 A 
ATOM     30  C   UNL A   1      35.434  34.617  28.814  1.00  0.00     0.014 A 
ATOM     31  C   UNL A   1      35.017  33.388  31.291  1.00  0.00     0.010 A 
ATOM     32  C   UNL A   1      36.499  34.016  29.476  1.00  0.00     0.010 A 
ATOM     33  C   UNL A   1      36.299  33.390  30.716  1.00  0.00    -0.014 A 
BRANCH  33  34
ATOM     34  C   UNL A   1      37.445  32.729  31.388  1.00  0.00     0.031 A 
ATOM     35  C   UNL A   1      38.138  31.574  30.728  1.00  0.00     0.074 A 
ATOM     36  C   UNL A   1      37.807  33.120  32.626  1.00  0.00     0.049 A 
ATOM     37  N   UNL A   1      39.101  30.813  31.186  1.00  0.00    -0.248 NA
ATOM     38  C   UNL A   1      37.667  31.202  29.384  1.00  0.00     0.031 C 
ATOM     39  C   UNL A   1      37.172  34.193  33.395  1.00  0.00     0.029 A 
ATOM     40  N   UNL A   1      38.788  32.650  33.461  1.00  0.00    -0.354 N 
ATOM     41  C   UNL A   1      39.331  29.864  30.200  1.00  0.00     0.074 A 
ATOM     42  C   UNL A   1      38.379  30.112  29.140  1.00  0.00     0.031 C 
ATOM     43  C   UNL A   1      37.797  34.315  34.577  1.00  0.00     0.029 A 
ATOM     44  C   UNL A   1      38.850  33.308  34.665  1.00  0.00     0.049 A 
ATOM     45  H   UNL A   1      39.392  31.911  33.220  1.00  0.00     0.167 HD
ATOM     46  C   UNL A   1      40.268  28.888  30.173  1.00  0.00     0.037 A 
ATOM     47  C   UNL A   1      39.663  33.117  35.721  1.00  0.00     0.037 A 
ATOM     48  C   UNL A   1      41.241  28.670  31.211  1.00  0.00     0.049 A 
ATOM     49  C   UNL A   1      40.708  32.036  35.656  1.00  0.00     0.074 A 
ATOM     50  C   UNL A   1      42.280  27.757  31.242  1.00  0.00     0.029 A 
ATOM     51  N   UNL A   1      41.291  29.376  32.404  1.00  0.00    -0.354 N 
ATOM     52  N   UNL A   1      40.967  31.192  34.688  1.00  0.00    -0.248 NA
ATOM     53  C   UNL A   1      41.578  31.886  36.831  1.00  0.00     0.031 C 
ATOM     54  C   UNL A   1      42.939  27.886  32.470  1.00  0.00     0.029 A 
ATOM     55  C   UNL A   1      42.334  28.908  33.186  1.00  0.00     0.049 A 
ATOM     56  H   UNL A   1      40.678  30.104  32.656  1.00  0.00     0.167 HD
ATOM     57  C   UNL A   1      42.043  30.431  35.122  1.00  0.00     0.074 A 
ATOM     58  C   UNL A   1      42.398  30.923  36.437  1.00  0.00     0.031 C 
ATOM     59  C   UNL A   1      42.680  29.417  34.487  1.00  0.00     0.037 A 
BRANCH  46  60
ATOM     60  C   UNL A   1      40.294  27.986  28.975  1.00  0.00     0.064 A 
ATOM     61  C   UNL A   1      41.030  28.312  27.825  1.00  0.00     0.173 A 
ATOM     62  C   UNL A   1      39.602  26.766  28.988  1.00  0.00     0.173 A 
ATOM     63  F   UNL A   1      41.699  29.473  27.759  1.00  0.00    -0.203 F 
ATOM     64  C   UNL A   1      41.048  27.463  26.721  1.00  0.00     0.198 A 
ATOM     65  C   UNL A   1      39.645  25.906  27.893  1.00  0.00     0.198 A 
ATOM     66  F   UNL A   1      38.887  26.405  30.064  1.00  0.00    -0.203 F 
ATOM     67  F   UNL A   1      41.719  27.817  25.618  1.00  0.00    -0.200 F 
ATOM     68  C   UNL A   1      40.362  26.258  26.759  1.00  0.00     0.200 A 
ATOM     69  F   UNL A   1      38.991  24.737  27.935  1.00  0.00    -0.200 F 
ATOM     70  F   UNL A   1      40.386  25.440  25.699  1.00  0.00    -0.200 F 
ENDBRANCH  46  60
BRANCH  47  71
ATOM     71  C   UNL A   1      39.546  33.990  36.917  1.00  0.00     0.064 A 
ATOM     72  C   UNL A   1      40.199  35.230  36.964  1.00  0.00     0.173 A 
ATOM     73  C   UNL A   1      38.792  33.605  38.035  1.00  0.00     0.173 A 
ATOM     74  F   UNL A   1      40.949  35.631  35.928  1.00  0.00    -0.203 F 
ATOM     75  C   UNL A   1      40.118  36.044  38.092  1.00  0.00     0.198 A 
ATOM     76  C   UNL A   1      38.691  34.432  39.151  1.00  0.00     0.198 A 
ATOM     77  F   UNL A   1      38.146  32.431  38.037  1.00  0.00    -0.203 F 
ATOM     78  F   UNL A   1      40.786  37.205  38.127  1.00  0.00    -0.200 F 
ATOM     79  C   UNL A   1      39.359  35.647  39.183  1.00  0.00     0.200 A 
ATOM     80  F   UNL A   1      37.948  34.050  40.200  1.00  0.00    -0.200 F 
ATOM     81  F   UNL A   1      39.279  36.430  40.266  1.00  0.00    -0.200 F 
ENDBRANCH  47  71
BRANCH  59  82
ATOM     82  C   UNL A   1      43.849  28.794  35.191  1.00  0.00     0.064 A 
ATOM     83  C   UNL A   1      45.154  29.275  35.014  1.00  0.00     0.173 A 
ATOM     84  C   UNL A   1      43.652  27.732  36.086  1.00  0.00     0.173 A 
ATOM     85  F   UNL A   1      45.393  30.278  34.157  1.00  0.00    -0.203 F 
ATOM     86  C   UNL A   1      46.225  28.699  35.693  1.00  0.00     0.198 A 
ATOM     87  C   UNL A   1      44.722  27.176  36.783  1.00  0.00     0.198 A 
ATOM     88  F   UNL A   1      42.422  27.240  36.294  1.00  0.00    -0.203 F 
ATOM     89  F   UNL A   1      47.470  29.146  35.477  1.00  0.00    -0.200 F 
ATOM     90  C   UNL A   1      46.006  27.657  36.582  1.00  0.00     0.200 A 
ATOM     91  F   UNL A   1      44.508  26.177  37.650  1.00  0.00    -0.200 F 
ATOM     92  F   UNL A   1      47.038  27.109  37.238  1.00  0.00    -0.200 F 
ENDBRANCH  59  82
ENDBRANCH  33  34
ENDBRANCH  25  28
ENDBRANCH  23  24
ENDBRANCH  22  23
ENDBRANCH   1  22
TORSDOF 16
ENDMDL
