MODEL 1
REMARK VINA RESULT:     -11.2      0.000      0.000
REMARK SMILES C[C@H]([C@H](C)C(=O)NCCCCNC(=O)c1ccc(-c2c3nc(c(-c4c(F)c(F)c(F)c(F)c4F)c4ccc([nH]4)c(-c4c(F)c(F)c(F)c(F)c4F)c4nc(c(-c5c(F)c(F)c(F)c(F)c5F)c5ccc2[nH]5)C=C4)C=C3)cc1)[C@H](O)c1cncn1C1CC1
REMARK SMILES IDX 8 1 7 2 5 3 6 4 3 6 4 7 2 8 1 9 78 10 80 11 81 12 84 13
REMARK SMILES IDX 82 14 83 15 85 16 86 17 87 18 79 19 9 21 10 22 11 23 12 24
REMARK SMILES IDX 13 25 14 27 15 28 16 29 77 30 17 31 76 32 18 33 19 34 20 35
REMARK SMILES IDX 70 36 21 37 75 38 69 39 71 40 22 41 74 42 68 43 67 44 23 46
REMARK SMILES IDX 55 47 35 48 54 49 36 50 39 51 53 52 72 53 37 54 38 55 52 57
REMARK SMILES IDX 73 58 40 59 24 60 25 61 33 62 26 63 27 64 31 65 34 66 28 67
REMARK SMILES IDX 29 68 32 69 30 70 56 71 57 72 65 73 58 74 59 75 63 76 66 77
REMARK SMILES IDX 60 78 61 79 64 80 62 81 41 82 42 83 50 84 43 85 44 86 48 87
REMARK SMILES IDX 51 88 45 89 46 90 49 91 47 92
REMARK H PARENT 7 5 79 20 12 26 71 45 39 56
REMARK Flexibility Score: inf
ROOT
ATOM      1  C   UNL A   1      33.242  29.043  23.413  1.00  0.00     0.116 C 
ENDROOT
BRANCH   1   2
ATOM      2  N   UNL A   1      31.937  29.303  22.834  1.00  0.00    -0.356 N 
ATOM      3  C   UNL A   1      30.853  28.506  22.636  1.00  0.00     0.223 C 
ATOM      4  O   UNL A   1      29.924  29.026  22.009  1.00  0.00    -0.275 OA
ATOM      5  H   UNL A   1      31.812  30.231  22.530  1.00  0.00     0.163 HD
BRANCH   3   6
ATOM      6  C   UNL A   1      30.709  27.101  23.255  1.00  0.00     0.081 C 
ATOM      7  C   UNL A   1      29.192  26.917  23.522  1.00  0.00     0.018 C 
BRANCH   6   8
ATOM      8  C   UNL A   1      31.266  25.784  22.584  1.00  0.00     0.033 C 
ATOM      9  C   UNL A   1      32.316  25.848  21.463  1.00  0.00     0.011 C 
BRANCH   8  10
ATOM     10  C   UNL A   1      31.348  24.474  23.364  1.00  0.00     0.166 C 
BRANCH  10  11
ATOM     11  C   UNL A   1      31.652  24.270  24.822  1.00  0.00     0.067 A 
ATOM     12  C   UNL A   1      30.645  24.424  25.787  1.00  0.00     0.137 A 
ATOM     13  N   UNL A   1      32.727  23.841  25.589  1.00  0.00    -0.329 N 
ATOM     14  N   UNL A   1      31.039  24.091  27.041  1.00  0.00    -0.245 NA
ATOM     15  C   UNL A   1      32.285  23.730  26.890  1.00  0.00     0.199 A 
BRANCH  13  16
ATOM     16  C   UNL A   1      34.135  23.566  25.379  1.00  0.00     0.088 C 
ATOM     17  C   UNL A   1      35.017  23.613  24.177  1.00  0.00     0.027 C 
ATOM     18  C   UNL A   1      35.121  24.705  25.188  1.00  0.00     0.027 C 
ENDBRANCH  13  16
ENDBRANCH  10  11
BRANCH  10  19
ATOM     19  O   UNL A   1      30.180  23.696  23.081  1.00  0.00    -0.387 OA
ATOM     20  H   UNL A   1      29.865  23.899  22.187  1.00  0.00     0.211 HD
ENDBRANCH  10  19
ENDBRANCH   8  10
ENDBRANCH   6   8
ENDBRANCH   3   6
ENDBRANCH   1   2
BRANCH   1  21
ATOM     21  C   UNL A   1      33.218  29.338  24.905  1.00  0.00     0.023 C 
BRANCH  21  22
ATOM     22  C   UNL A   1      33.772  28.276  25.840  1.00  0.00     0.023 C 
BRANCH  22  23
ATOM     23  C   UNL A   1      33.539  28.547  27.311  1.00  0.00     0.116 C 
BRANCH  23  24
ATOM     24  N   UNL A   1      33.604  29.955  27.679  1.00  0.00    -0.352 N 
ATOM     25  C   UNL A   1      34.683  30.680  28.131  1.00  0.00     0.251 C 
ATOM     26  H   UNL A   1      32.761  30.457  27.593  1.00  0.00     0.163 HD
ATOM     27  O   UNL A   1      34.568  31.862  28.435  1.00  0.00    -0.269 OA
BRANCH  25  28
ATOM     28  C   UNL A   1      35.978  29.992  28.304  1.00  0.00     0.039 A 
ATOM     29  C   UNL A   1      36.929  30.079  27.284  1.00  0.00     0.014 A 
ATOM     30  C   UNL A   1      36.286  29.360  29.509  1.00  0.00     0.014 A 
ATOM     31  C   UNL A   1      38.228  29.620  27.516  1.00  0.00     0.010 A 
ATOM     32  C   UNL A   1      37.602  29.007  29.775  1.00  0.00     0.010 A 
ATOM     33  C   UNL A   1      38.587  29.136  28.784  1.00  0.00    -0.014 A 
BRANCH  33  34
ATOM     34  C   UNL A   1      39.982  28.751  29.113  1.00  0.00     0.031 A 
ATOM     35  C   UNL A   1      40.871  29.732  29.825  1.00  0.00     0.074 A 
ATOM     36  C   UNL A   1      40.480  27.579  28.673  1.00  0.00     0.049 A 
ATOM     37  N   UNL A   1      42.157  29.671  30.056  1.00  0.00    -0.248 NA
ATOM     38  C   UNL A   1      40.237  30.975  30.294  1.00  0.00     0.031 C 
ATOM     39  C   UNL A   1      39.737  26.571  27.912  1.00  0.00     0.029 A 
ATOM     40  N   UNL A   1      41.740  27.045  28.783  1.00  0.00    -0.354 N 
ATOM     41  C   UNL A   1      42.488  30.879  30.654  1.00  0.00     0.074 A 
ATOM     42  C   UNL A   1      41.282  31.676  30.703  1.00  0.00     0.031 C 
ATOM     43  C   UNL A   1      40.547  25.534  27.644  1.00  0.00     0.029 A 
ATOM     44  C   UNL A   1      41.876  25.820  28.175  1.00  0.00     0.049 A 
ATOM     45  H   UNL A   1      42.477  27.497  29.254  1.00  0.00     0.167 HD
ATOM     46  C   UNL A   1      43.685  31.278  31.141  1.00  0.00     0.037 A 
ATOM     47  C   UNL A   1      42.956  25.024  28.051  1.00  0.00     0.037 A 
ATOM     48  C   UNL A   1      44.862  30.453  31.154  1.00  0.00     0.049 A 
ATOM     49  C   UNL A   1      44.264  25.470  28.647  1.00  0.00     0.074 A 
ATOM     50  C   UNL A   1      46.095  30.719  31.722  1.00  0.00     0.029 A 
ATOM     51  N   UNL A   1      44.945  29.193  30.580  1.00  0.00    -0.354 N 
ATOM     52  N   UNL A   1      44.548  26.584  29.279  1.00  0.00    -0.248 NA
ATOM     53  C   UNL A   1      45.402  24.551  28.513  1.00  0.00     0.031 C 
ATOM     54  C   UNL A   1      46.937  29.633  31.459  1.00  0.00     0.029 A 
ATOM     55  C   UNL A   1      46.217  28.676  30.763  1.00  0.00     0.049 A 
ATOM     56  H   UNL A   1      44.211  28.736  30.111  1.00  0.00     0.167 HD
ATOM     57  C   UNL A   1      45.885  26.490  29.637  1.00  0.00     0.074 A 
ATOM     58  C   UNL A   1      46.355  25.203  29.165  1.00  0.00     0.031 C 
ATOM     59  C   UNL A   1      46.658  27.387  30.295  1.00  0.00     0.037 A 
BRANCH  46  60
ATOM     60  C   UNL A   1      43.777  32.661  31.715  1.00  0.00     0.064 A 
ATOM     61  C   UNL A   1      43.532  32.913  33.074  1.00  0.00     0.173 A 
ATOM     62  C   UNL A   1      44.140  33.745  30.902  1.00  0.00     0.173 A 
ATOM     63  F   UNL A   1      43.168  31.913  33.890  1.00  0.00    -0.203 F 
ATOM     64  C   UNL A   1      43.615  34.203  33.589  1.00  0.00     0.198 A 
ATOM     65  C   UNL A   1      44.252  35.029  31.427  1.00  0.00     0.198 A 
ATOM     66  F   UNL A   1      44.389  33.559  29.596  1.00  0.00    -0.203 F 
ATOM     67  F   UNL A   1      43.324  34.428  34.879  1.00  0.00    -0.200 F 
ATOM     68  C   UNL A   1      43.982  35.260  32.768  1.00  0.00     0.200 A 
ATOM     69  F   UNL A   1      44.617  36.046  30.635  1.00  0.00    -0.200 F 
ATOM     70  F   UNL A   1      44.066  36.499  33.267  1.00  0.00    -0.200 F 
ENDBRANCH  46  60
BRANCH  47  71
ATOM     71  C   UNL A   1      42.843  23.716  27.356  1.00  0.00     0.064 A 
ATOM     72  C   UNL A   1      43.214  23.585  26.011  1.00  0.00     0.173 A 
ATOM     73  C   UNL A   1      42.359  22.576  28.013  1.00  0.00     0.173 A 
ATOM     74  F   UNL A   1      43.662  24.653  25.334  1.00  0.00    -0.203 F 
ATOM     75  C   UNL A   1      43.085  22.370  25.342  1.00  0.00     0.198 A 
ATOM     76  C   UNL A   1      42.256  21.353  27.352  1.00  0.00     0.198 A 
ATOM     77  F   UNL A   1      41.996  22.646  29.302  1.00  0.00    -0.203 F 
ATOM     78  F   UNL A   1      43.403  22.284  24.044  1.00  0.00    -0.200 F 
ATOM     79  C   UNL A   1      42.611  21.253  26.014  1.00  0.00     0.200 A 
ATOM     80  F   UNL A   1      41.808  20.274  28.007  1.00  0.00    -0.200 F 
ATOM     81  F   UNL A   1      42.487  20.084  25.371  1.00  0.00    -0.200 F 
ENDBRANCH  47  71
BRANCH  59  82
ATOM     82  C   UNL A   1      48.080  27.004  30.567  1.00  0.00     0.064 A 
ATOM     83  C   UNL A   1      48.429  26.244  31.693  1.00  0.00     0.173 A 
ATOM     84  C   UNL A   1      49.094  27.346  29.660  1.00  0.00     0.173 A 
ATOM     85  F   UNL A   1      47.496  25.908  32.595  1.00  0.00    -0.203 F 
ATOM     86  C   UNL A   1      49.747  25.852  31.907  1.00  0.00     0.198 A 
ATOM     87  C   UNL A   1      50.405  26.930  29.864  1.00  0.00     0.198 A 
ATOM     88  F   UNL A   1      48.806  28.067  28.565  1.00  0.00    -0.203 F 
ATOM     89  F   UNL A   1      50.066  25.154  33.005  1.00  0.00    -0.200 F 
ATOM     90  C   UNL A   1      50.732  26.187  30.989  1.00  0.00     0.200 A 
ATOM     91  F   UNL A   1      51.353  27.243  28.970  1.00  0.00    -0.200 F 
ATOM     92  F   UNL A   1      51.998  25.796  31.189  1.00  0.00    -0.200 F 
ENDBRANCH  59  82
ENDBRANCH  33  34
ENDBRANCH  25  28
ENDBRANCH  23  24
ENDBRANCH  22  23
ENDBRANCH  21  22
ENDBRANCH   1  21
TORSDOF 16
ENDMDL
MODEL 2
REMARK VINA RESULT:     -11.0      3.814      5.561
REMARK SMILES C[C@H]([C@H](C)C(=O)NCCCCNC(=O)c1ccc(-c2c3nc(c(-c4c(F)c(F)c(F)c(F)c4F)c4ccc([nH]4)c(-c4c(F)c(F)c(F)c(F)c4F)c4nc(c(-c5c(F)c(F)c(F)c(F)c5F)c5ccc2[nH]5)C=C4)C=C3)cc1)[C@H](O)c1cncn1C1CC1
REMARK SMILES IDX 8 1 7 2 5 3 6 4 3 6 4 7 2 8 1 9 78 10 80 11 81 12 84 13
REMARK SMILES IDX 82 14 83 15 85 16 86 17 87 18 79 19 9 21 10 22 11 23 12 24
REMARK SMILES IDX 13 25 14 27 15 28 16 29 77 30 17 31 76 32 18 33 19 34 20 35
REMARK SMILES IDX 70 36 21 37 75 38 69 39 71 40 22 41 74 42 68 43 67 44 23 46
REMARK SMILES IDX 55 47 35 48 54 49 36 50 39 51 53 52 72 53 37 54 38 55 52 57
REMARK SMILES IDX 73 58 40 59 24 60 25 61 33 62 26 63 27 64 31 65 34 66 28 67
REMARK SMILES IDX 29 68 32 69 30 70 56 71 57 72 65 73 58 74 59 75 63 76 66 77
REMARK SMILES IDX 60 78 61 79 64 80 62 81 41 82 42 83 50 84 43 85 44 86 48 87
REMARK SMILES IDX 51 88 45 89 46 90 49 91 47 92
REMARK H PARENT 7 5 79 20 12 26 71 45 39 56
REMARK Flexibility Score: inf
ROOT
ATOM      1  C   UNL A   1      33.028  29.823  26.109  1.00  0.00     0.116 C 
ENDROOT
BRANCH   1   2
ATOM      2  N   UNL A   1      32.816  29.766  24.674  1.00  0.00    -0.356 N 
ATOM      3  C   UNL A   1      32.026  28.972  23.902  1.00  0.00     0.223 C 
ATOM      4  O   UNL A   1      32.165  29.119  22.682  1.00  0.00    -0.275 OA
ATOM      5  H   UNL A   1      33.340  30.426  24.165  1.00  0.00     0.163 HD
BRANCH   3   6
ATOM      6  C   UNL A   1      30.932  28.050  24.474  1.00  0.00     0.081 C 
ATOM      7  C   UNL A   1      29.966  27.765  23.294  1.00  0.00     0.018 C 
BRANCH   6   8
ATOM      8  C   UNL A   1      31.231  26.690  25.220  1.00  0.00     0.033 C 
ATOM      9  C   UNL A   1      31.449  26.652  26.741  1.00  0.00     0.011 C 
BRANCH   8  10
ATOM     10  C   UNL A   1      30.690  25.364  24.692  1.00  0.00     0.166 C 
BRANCH  10  11
ATOM     11  C   UNL A   1      31.458  24.180  24.174  1.00  0.00     0.067 A 
ATOM     12  C   UNL A   1      31.383  22.941  24.828  1.00  0.00     0.137 A 
ATOM     13  N   UNL A   1      32.243  23.878  23.069  1.00  0.00    -0.329 N 
ATOM     14  N   UNL A   1      32.031  21.943  24.177  1.00  0.00    -0.245 NA
ATOM     15  C   UNL A   1      32.523  22.529  23.119  1.00  0.00     0.199 A 
BRANCH  13  16
ATOM     16  C   UNL A   1      32.861  24.607  21.978  1.00  0.00     0.088 C 
ATOM     17  C   UNL A   1      32.497  25.855  21.248  1.00  0.00     0.027 C 
ATOM     18  C   UNL A   1      33.607  25.902  22.244  1.00  0.00     0.027 C 
ENDBRANCH  13  16
ENDBRANCH  10  11
BRANCH  10  19
ATOM     19  O   UNL A   1      29.738  24.849  25.629  1.00  0.00    -0.387 OA
ATOM     20  H   UNL A   1      29.024  24.398  25.150  1.00  0.00     0.211 HD
ENDBRANCH  10  19
ENDBRANCH   8  10
ENDBRANCH   6   8
ENDBRANCH   3   6
ENDBRANCH   1   2
BRANCH   1  21
ATOM     21  C   UNL A   1      31.847  30.504  26.783  1.00  0.00     0.023 C 
BRANCH  21  22
ATOM     22  C   UNL A   1      31.734  32.013  26.643  1.00  0.00     0.023 C 
BRANCH  22  23
ATOM     23  C   UNL A   1      32.830  32.794  27.336  1.00  0.00     0.116 C 
BRANCH  23  24
ATOM     24  N   UNL A   1      32.459  34.157  27.695  1.00  0.00    -0.352 N 
ATOM     25  C   UNL A   1      33.030  34.987  28.633  1.00  0.00     0.251 C 
ATOM     26  H   UNL A   1      31.697  34.536  27.200  1.00  0.00     0.163 HD
ATOM     27  O   UNL A   1      32.577  36.106  28.845  1.00  0.00    -0.269 OA
BRANCH  25  28
ATOM     28  C   UNL A   1      34.167  34.483  29.430  1.00  0.00     0.039 A 
ATOM     29  C   UNL A   1      33.907  33.821  30.632  1.00  0.00     0.014 A 
ATOM     30  C   UNL A   1      35.468  34.571  28.936  1.00  0.00     0.014 A 
ATOM     31  C   UNL A   1      34.945  33.156  31.287  1.00  0.00     0.010 A 
ATOM     32  C   UNL A   1      36.472  33.818  29.528  1.00  0.00     0.010 A 
ATOM     33  C   UNL A   1      36.222  33.100  30.707  1.00  0.00    -0.014 A 
BRANCH  33  34
ATOM     34  C   UNL A   1      37.324  32.305  31.304  1.00  0.00     0.031 A 
ATOM     35  C   UNL A   1      37.832  32.661  32.674  1.00  0.00     0.074 A 
ATOM     36  C   UNL A   1      37.938  31.352  30.578  1.00  0.00     0.049 A 
ATOM     37  N   UNL A   1      38.885  32.217  33.310  1.00  0.00    -0.248 NA
ATOM     38  C   UNL A   1      37.083  33.695  33.406  1.00  0.00     0.031 C 
ATOM     39  C   UNL A   1      37.582  30.961  29.212  1.00  0.00     0.029 A 
ATOM     40  N   UNL A   1      39.011  30.551  30.881  1.00  0.00    -0.354 N 
ATOM     41  C   UNL A   1      38.948  32.946  34.488  1.00  0.00     0.074 A 
ATOM     42  C   UNL A   1      37.859  33.898  34.459  1.00  0.00     0.031 C 
ATOM     43  C   UNL A   1      38.405  29.981  28.804  1.00  0.00     0.029 A 
ATOM     44  C   UNL A   1      39.374  29.704  29.860  1.00  0.00     0.049 A 
ATOM     45  H   UNL A   1      39.477  30.579  31.747  1.00  0.00     0.167 HD
ATOM     46  C   UNL A   1      39.819  32.817  35.515  1.00  0.00     0.037 A 
ATOM     47  C   UNL A   1      40.381  28.813  29.784  1.00  0.00     0.037 A 
ATOM     48  C   UNL A   1      40.853  31.820  35.569  1.00  0.00     0.049 A 
ATOM     49  C   UNL A   1      41.306  28.653  30.960  1.00  0.00     0.074 A 
ATOM     50  C   UNL A   1      41.719  31.532  36.609  1.00  0.00     0.029 A 
ATOM     51  N   UNL A   1      41.152  30.941  34.539  1.00  0.00    -0.354 N 
ATOM     52  N   UNL A   1      41.308  29.296  32.103  1.00  0.00    -0.248 NA
ATOM     53  C   UNL A   1      42.368  27.645  30.838  1.00  0.00     0.031 C 
ATOM     54  C   UNL A   1      42.567  30.499  36.194  1.00  0.00     0.029 A 
ATOM     55  C   UNL A   1      42.204  30.120  34.912  1.00  0.00     0.049 A 
ATOM     56  H   UNL A   1      40.688  30.906  33.672  1.00  0.00     0.167 HD
ATOM     57  C   UNL A   1      42.352  28.757  32.843  1.00  0.00     0.074 A 
ATOM     58  C   UNL A   1      42.952  27.723  32.025  1.00  0.00     0.031 C 
ATOM     59  C   UNL A   1      42.778  29.089  34.085  1.00  0.00     0.037 A 
BRANCH  46  60
ATOM     60  C   UNL A   1      39.680  33.763  36.670  1.00  0.00     0.064 A 
ATOM     61  C   UNL A   1      40.318  35.013  36.680  1.00  0.00     0.173 A 
ATOM     62  C   UNL A   1      38.875  33.429  37.770  1.00  0.00     0.173 A 
ATOM     63  F   UNL A   1      41.109  35.374  35.658  1.00  0.00    -0.203 F 
ATOM     64  C   UNL A   1      40.184  35.877  37.762  1.00  0.00     0.198 A 
ATOM     65  C   UNL A   1      38.719  34.309  38.837  1.00  0.00     0.198 A 
ATOM     66  F   UNL A   1      38.239  32.248  37.809  1.00  0.00    -0.203 F 
ATOM     67  F   UNL A   1      40.848  37.042  37.774  1.00  0.00    -0.200 F 
ATOM     68  C   UNL A   1      39.379  35.529  38.837  1.00  0.00     0.200 A 
ATOM     69  F   UNL A   1      37.932  33.976  39.869  1.00  0.00    -0.200 F 
ATOM     70  F   UNL A   1      39.247  36.364  39.875  1.00  0.00    -0.200 F 
ENDBRANCH  46  60
BRANCH  47  71
ATOM     71  C   UNL A   1      40.556  27.987  28.561  1.00  0.00     0.064 A 
ATOM     72  C   UNL A   1      41.337  28.447  27.492  1.00  0.00     0.173 A 
ATOM     73  C   UNL A   1      39.945  26.732  28.431  1.00  0.00     0.173 A 
ATOM     74  F   UNL A   1      41.923  29.651  27.561  1.00  0.00    -0.203 F 
ATOM     75  C   UNL A   1      41.484  27.692  26.330  1.00  0.00     0.198 A 
ATOM     76  C   UNL A   1      40.114  25.965  27.279  1.00  0.00     0.198 A 
ATOM     77  F   UNL A   1      39.192  26.244  29.427  1.00  0.00    -0.203 F 
ATOM     78  F   UNL A   1      42.198  28.176  25.304  1.00  0.00    -0.200 F 
ATOM     79  C   UNL A   1      40.877  26.450  26.226  1.00  0.00     0.200 A 
ATOM     80  F   UNL A   1      39.535  24.761  27.187  1.00  0.00    -0.200 F 
ATOM     81  F   UNL A   1      41.017  25.724  25.108  1.00  0.00    -0.200 F 
ENDBRANCH  47  71
BRANCH  59  82
ATOM     82  C   UNL A   1      43.928  28.314  34.650  1.00  0.00     0.064 A 
ATOM     83  C   UNL A   1      45.247  28.779  34.540  1.00  0.00     0.173 A 
ATOM     84  C   UNL A   1      43.703  27.127  35.363  1.00  0.00     0.173 A 
ATOM     85  F   UNL A   1      45.511  29.901  33.854  1.00  0.00    -0.203 F 
ATOM     86  C   UNL A   1      46.301  28.074  35.113  1.00  0.00     0.198 A 
ATOM     87  C   UNL A   1      44.757  26.439  35.956  1.00  0.00     0.198 A 
ATOM     88  F   UNL A   1      42.458  26.647  35.499  1.00  0.00    -0.203 F 
ATOM     89  F   UNL A   1      47.557  28.518  34.969  1.00  0.00    -0.200 F 
ATOM     90  C   UNL A   1      46.055  26.912  35.828  1.00  0.00     0.200 A 
ATOM     91  F   UNL A   1      44.516  25.323  36.657  1.00  0.00    -0.200 F 
ATOM     92  F   UNL A   1      47.070  26.242  36.392  1.00  0.00    -0.200 F 
ENDBRANCH  59  82
ENDBRANCH  33  34
ENDBRANCH  25  28
ENDBRANCH  23  24
ENDBRANCH  22  23
ENDBRANCH  21  22
ENDBRANCH   1  21
TORSDOF 16
ENDMDL
MODEL 3
REMARK VINA RESULT:     -10.9      3.755      8.698
REMARK SMILES C[C@H]([C@H](C)C(=O)NCCCCNC(=O)c1ccc(-c2c3nc(c(-c4c(F)c(F)c(F)c(F)c4F)c4ccc([nH]4)c(-c4c(F)c(F)c(F)c(F)c4F)c4nc(c(-c5c(F)c(F)c(F)c(F)c5F)c5ccc2[nH]5)C=C4)C=C3)cc1)[C@H](O)c1cncn1C1CC1
REMARK SMILES IDX 8 1 7 2 5 3 6 4 3 6 4 7 2 8 1 9 78 10 80 11 81 12 84 13
REMARK SMILES IDX 82 14 83 15 85 16 86 17 87 18 79 19 9 21 10 22 11 23 12 24
REMARK SMILES IDX 13 25 14 27 15 28 16 29 77 30 17 31 76 32 18 33 19 34 20 35
REMARK SMILES IDX 70 36 21 37 75 38 69 39 71 40 22 41 74 42 68 43 67 44 23 46
REMARK SMILES IDX 55 47 35 48 54 49 36 50 39 51 53 52 72 53 37 54 38 55 52 57
REMARK SMILES IDX 73 58 40 59 24 60 25 61 33 62 26 63 27 64 31 65 34 66 28 67
REMARK SMILES IDX 29 68 32 69 30 70 56 71 57 72 65 73 58 74 59 75 63 76 66 77
REMARK SMILES IDX 60 78 61 79 64 80 62 81 41 82 42 83 50 84 43 85 44 86 48 87
REMARK SMILES IDX 51 88 45 89 46 90 49 91 47 92
REMARK H PARENT 7 5 79 20 12 26 71 45 39 56
REMARK Flexibility Score: inf
ROOT
ATOM      1  C   UNL A   1      31.665  29.052  25.195  1.00  0.00     0.116 C 
ENDROOT
BRANCH   1   2
ATOM      2  N   UNL A   1      31.086  29.554  23.962  1.00  0.00    -0.356 N 
ATOM      3  C   UNL A   1      30.804  28.950  22.777  1.00  0.00     0.223 C 
ATOM      4  O   UNL A   1      30.405  29.705  21.883  1.00  0.00    -0.275 OA
ATOM      5  H   UNL A   1      30.852  30.510  23.990  1.00  0.00     0.163 HD
BRANCH   3   6
ATOM      6  C   UNL A   1      30.836  27.422  22.575  1.00  0.00     0.081 C 
ATOM      7  C   UNL A   1      32.335  27.052  22.424  1.00  0.00     0.018 C 
BRANCH   6   8
ATOM      8  C   UNL A   1      30.159  26.391  23.562  1.00  0.00     0.033 C 
ATOM      9  C   UNL A   1      28.658  26.468  23.884  1.00  0.00     0.011 C 
BRANCH   8  10
ATOM     10  C   UNL A   1      30.698  24.970  23.712  1.00  0.00     0.166 C 
BRANCH  10  11
ATOM     11  C   UNL A   1      31.147  24.265  24.961  1.00  0.00     0.067 A 
ATOM     12  C   UNL A   1      30.923  24.839  26.222  1.00  0.00     0.137 A 
ATOM     13  N   UNL A   1      31.703  23.038  25.295  1.00  0.00    -0.329 N 
ATOM     14  N   UNL A   1      31.274  24.034  27.256  1.00  0.00    -0.245 NA
ATOM     15  C   UNL A   1      31.722  22.956  26.672  1.00  0.00     0.199 A 
BRANCH  13  16
ATOM     16  C   UNL A   1      32.297  21.917  24.592  1.00  0.00     0.088 C 
ATOM     17  C   UNL A   1      32.320  21.508  23.158  1.00  0.00     0.027 C 
ATOM     18  C   UNL A   1      33.548  22.112  23.753  1.00  0.00     0.027 C 
ENDBRANCH  13  16
ENDBRANCH  10  11
BRANCH  10  19
ATOM     19  O   UNL A   1      29.814  24.069  23.036  1.00  0.00    -0.387 OA
ATOM     20  H   UNL A   1      30.323  23.327  22.674  1.00  0.00     0.211 HD
ENDBRANCH  10  19
ENDBRANCH   8  10
ENDBRANCH   6   8
ENDBRANCH   3   6
ENDBRANCH   1   2
BRANCH   1  21
ATOM     21  C   UNL A   1      32.615  30.084  25.782  1.00  0.00     0.023 C 
BRANCH  21  22
ATOM     22  C   UNL A   1      32.024  31.135  26.708  1.00  0.00     0.023 C 
BRANCH  22  23
ATOM     23  C   UNL A   1      33.032  32.102  27.290  1.00  0.00     0.116 C 
BRANCH  23  24
ATOM     24  N   UNL A   1      32.522  33.452  27.489  1.00  0.00    -0.352 N 
ATOM     25  C   UNL A   1      32.992  34.436  28.328  1.00  0.00     0.251 C 
ATOM     26  H   UNL A   1      31.734  33.693  26.951  1.00  0.00     0.163 HD
ATOM     27  O   UNL A   1      32.427  35.521  28.409  1.00  0.00    -0.269 OA
BRANCH  25  28
ATOM     28  C   UNL A   1      34.162  34.144  29.182  1.00  0.00     0.039 A 
ATOM     29  C   UNL A   1      33.971  33.420  30.361  1.00  0.00     0.014 A 
ATOM     30  C   UNL A   1      35.446  34.489  28.761  1.00  0.00     0.014 A 
ATOM     31  C   UNL A   1      35.082  32.953  31.067  1.00  0.00     0.010 A 
ATOM     32  C   UNL A   1      36.543  33.931  29.401  1.00  0.00     0.010 A 
ATOM     33  C   UNL A   1      36.375  33.155  30.557  1.00  0.00    -0.014 A 
BRANCH  33  34
ATOM     34  C   UNL A   1      37.576  32.574  31.207  1.00  0.00     0.031 A 
ATOM     35  C   UNL A   1      38.311  31.451  30.530  1.00  0.00     0.074 A 
ATOM     36  C   UNL A   1      37.932  32.971  32.444  1.00  0.00     0.049 A 
ATOM     37  N   UNL A   1      39.270  30.690  30.990  1.00  0.00    -0.248 NA
ATOM     38  C   UNL A   1      37.871  31.101  29.169  1.00  0.00     0.031 C 
ATOM     39  C   UNL A   1      37.257  34.004  33.233  1.00  0.00     0.029 A 
ATOM     40  N   UNL A   1      38.941  32.534  33.266  1.00  0.00    -0.354 N 
ATOM     41  C   UNL A   1      39.514  29.752  29.998  1.00  0.00     0.074 A 
ATOM     42  C   UNL A   1      38.570  30.003  28.931  1.00  0.00     0.031 C 
ATOM     43  C   UNL A   1      37.883  34.137  34.414  1.00  0.00     0.029 A 
ATOM     44  C   UNL A   1      38.975  33.171  34.485  1.00  0.00     0.049 A 
ATOM     45  H   UNL A   1      39.580  31.832  33.009  1.00  0.00     0.167 HD
ATOM     46  C   UNL A   1      40.459  28.784  29.966  1.00  0.00     0.037 A 
ATOM     47  C   UNL A   1      39.789  32.986  35.541  1.00  0.00     0.037 A 
ATOM     48  C   UNL A   1      41.441  28.587  30.997  1.00  0.00     0.049 A 
ATOM     49  C   UNL A   1      40.864  31.936  35.460  1.00  0.00     0.074 A 
ATOM     50  C   UNL A   1      42.509  27.707  31.014  1.00  0.00     0.029 A 
ATOM     51  N   UNL A   1      41.479  29.291  32.191  1.00  0.00    -0.354 N 
ATOM     52  N   UNL A   1      41.135  31.104  34.484  1.00  0.00    -0.248 NA
ATOM     53  C   UNL A   1      41.746  31.797  36.627  1.00  0.00     0.031 C 
ATOM     54  C   UNL A   1      43.173  27.855  32.236  1.00  0.00     0.029 A 
ATOM     55  C   UNL A   1      42.543  28.852  32.962  1.00  0.00     0.049 A 
ATOM     56  H   UNL A   1      40.844  29.996  32.453  1.00  0.00     0.167 HD
ATOM     57  C   UNL A   1      42.229  30.362  34.907  1.00  0.00     0.074 A 
ATOM     58  C   UNL A   1      42.582  30.852  36.224  1.00  0.00     0.031 C 
ATOM     59  C   UNL A   1      42.882  29.363  34.266  1.00  0.00     0.037 A 
BRANCH  46  60
ATOM     60  C   UNL A   1      40.485  27.876  28.773  1.00  0.00     0.064 A 
ATOM     61  C   UNL A   1      39.766  26.672  28.746  1.00  0.00     0.173 A 
ATOM     62  C   UNL A   1      41.219  28.227  27.629  1.00  0.00     0.173 A 
ATOM     63  F   UNL A   1      39.060  26.284  29.819  1.00  0.00    -0.203 F 
ATOM     64  C   UNL A   1      39.807  25.837  27.633  1.00  0.00     0.198 A 
ATOM     65  C   UNL A   1      41.233  27.405  26.506  1.00  0.00     0.198 A 
ATOM     66  F   UNL A   1      41.922  29.370  27.600  1.00  0.00    -0.203 F 
ATOM     67  F   UNL A   1      39.155  24.666  27.652  1.00  0.00    -0.200 F 
ATOM     68  C   UNL A   1      40.534  26.207  26.511  1.00  0.00     0.200 A 
ATOM     69  F   UNL A   1      41.927  27.769  25.419  1.00  0.00    -0.200 F 
ATOM     70  F   UNL A   1      40.567  25.405  25.439  1.00  0.00    -0.200 F 
ENDBRANCH  46  60
BRANCH  47  71
ATOM     71  C   UNL A   1      39.637  33.828  36.757  1.00  0.00     0.064 A 
ATOM     72  C   UNL A   1      38.858  33.391  37.837  1.00  0.00     0.173 A 
ATOM     73  C   UNL A   1      40.258  35.081  36.863  1.00  0.00     0.173 A 
ATOM     74  F   UNL A   1      38.227  32.210  37.772  1.00  0.00    -0.203 F 
ATOM     75  C   UNL A   1      38.686  34.186  38.969  1.00  0.00     0.198 A 
ATOM     76  C   UNL A   1      40.107  35.863  38.007  1.00  0.00     0.198 A 
ATOM     77  F   UNL A   1      41.018  35.541  35.860  1.00  0.00    -0.203 F 
ATOM     78  F   UNL A   1      37.897  33.765  39.967  1.00  0.00    -0.200 F 
ATOM     79  C   UNL A   1      39.315  35.418  39.055  1.00  0.00     0.200 A 
ATOM     80  F   UNL A   1      40.726  37.048  38.091  1.00  0.00    -0.200 F 
ATOM     81  F   UNL A   1      39.150  36.183  40.144  1.00  0.00    -0.200 F 
ENDBRANCH  47  71
BRANCH  59  82
ATOM     82  C   UNL A   1      44.058  28.749  34.962  1.00  0.00     0.064 A 
ATOM     83  C   UNL A   1      43.913  27.624  35.786  1.00  0.00     0.173 A 
ATOM     84  C   UNL A   1      45.350  29.253  34.751  1.00  0.00     0.173 A 
ATOM     85  F   UNL A   1      42.696  27.117  36.028  1.00  0.00    -0.203 F 
ATOM     86  C   UNL A   1      45.022  27.034  36.386  1.00  0.00     0.198 A 
ATOM     87  C   UNL A   1      46.458  28.644  35.332  1.00  0.00     0.198 A 
ATOM     88  F   UNL A   1      45.538  30.325  33.965  1.00  0.00    -0.203 F 
ATOM     89  F   UNL A   1      44.859  25.979  37.196  1.00  0.00    -0.200 F 
ATOM     90  C   UNL A   1      46.292  27.537  36.151  1.00  0.00     0.200 A 
ATOM     91  F   UNL A   1      47.686  29.125  35.095  1.00  0.00    -0.200 F 
ATOM     92  F   UNL A   1      47.360  26.959  36.719  1.00  0.00    -0.200 F 
ENDBRANCH  59  82
ENDBRANCH  33  34
ENDBRANCH  25  28
ENDBRANCH  23  24
ENDBRANCH  22  23
ENDBRANCH  21  22
ENDBRANCH   1  21
TORSDOF 16
ENDMDL
