MODEL 1
REMARK VINA RESULT:     -12.6      0.000      0.000
REMARK SMILES O=C(NCCCCNC(=O)[C@H]1[C@H]2CC[C@H](CC2)[C@H]1C(=O)NCCC[NH+]1CCOCC1)c1ccc(-c2c3nc(c(-c4c(F)c(F)c(F)c(F)c4F)c4ccc([nH]4)c(-c4c(F)c(F)c(F)c(F)c4F)c4nc(c(-c5c(F)c(F)c(F)c(F)c5F)c5ccc2[nH]5)C=C4)C=C3)cc1
REMARK SMILES IDX 7 1 6 2 5 3 4 4 3 5 1 6 2 7 31 9 32 10 93 11 33 12 92 13
REMARK SMILES IDX 34 14 35 15 36 16 86 17 37 18 91 19 85 20 87 21 38 22 90 23
REMARK SMILES IDX 84 24 83 25 39 27 71 28 51 29 70 30 52 31 55 32 69 33 88 34
REMARK SMILES IDX 53 35 54 36 68 38 89 39 56 40 40 41 41 42 49 43 42 44 43 45
REMARK SMILES IDX 47 46 50 47 44 48 45 49 48 50 46 51 72 52 73 53 81 54 74 55
REMARK SMILES IDX 75 56 79 57 82 58 76 59 77 60 80 61 78 62 57 63 58 64 66 65
REMARK SMILES IDX 59 66 60 67 64 68 67 69 61 70 62 71 65 72 63 73 8 74 9 75
REMARK SMILES IDX 10 77 11 78 12 79 18 80 17 81 13 82 15 83 16 84 14 85 19 86
REMARK SMILES IDX 20 87 21 88 22 90 23 91 24 92 25 93 26 94 30 95 27 97 29 98
REMARK SMILES IDX 28 99
REMARK H PARENT 3 8 87 26 55 37 8 76 21 89 25 96
REMARK Flexibility Score: inf
ROOT
ATOM      1  C   UNL A   1      32.990  29.888  25.969  1.00  0.00     0.116 C 
ENDROOT
BRANCH   1   2
ATOM      2  C   UNL A   1      31.780  30.332  26.811  1.00  0.00     0.023 C 
BRANCH   2   3
ATOM      3  C   UNL A   1      31.500  31.842  26.832  1.00  0.00     0.023 C 
BRANCH   3   4
ATOM      4  C   UNL A   1      32.725  32.740  26.962  1.00  0.00     0.116 C 
BRANCH   4   5
ATOM      5  N   UNL A   1      32.427  34.001  27.621  1.00  0.00    -0.352 N 
ATOM      6  O   UNL A   1      32.530  35.606  29.194  1.00  0.00    -0.269 OA
ATOM      7  C   UNL A   1      33.026  34.593  28.700  1.00  0.00     0.251 C 
ATOM      8  H   UNL A   1      31.678  34.508  27.230  1.00  0.00     0.163 HD
BRANCH   7   9
ATOM      9  C   UNL A   1      34.250  34.017  29.295  1.00  0.00     0.039 A 
ATOM     10  C   UNL A   1      35.522  34.448  28.907  1.00  0.00     0.014 A 
ATOM     11  C   UNL A   1      34.113  33.051  30.295  1.00  0.00     0.014 A 
ATOM     12  C   UNL A   1      36.655  33.837  29.440  1.00  0.00     0.010 A 
ATOM     13  C   UNL A   1      35.249  32.488  30.877  1.00  0.00     0.010 A 
ATOM     14  C   UNL A   1      36.530  32.859  30.437  1.00  0.00    -0.014 A 
BRANCH  14  15
ATOM     15  C   UNL A   1      37.733  32.253  31.059  1.00  0.00     0.031 A 
ATOM     16  C   UNL A   1      38.475  31.147  30.366  1.00  0.00     0.074 A 
ATOM     17  C   UNL A   1      38.123  32.668  32.278  1.00  0.00     0.049 A 
ATOM     18  N   UNL A   1      39.472  30.419  30.799  1.00  0.00    -0.248 NA
ATOM     19  C   UNL A   1      38.026  30.807  29.008  1.00  0.00     0.031 C 
ATOM     20  C   UNL A   1      37.481  33.731  33.049  1.00  0.00     0.029 A 
ATOM     21  N   UNL A   1      39.137  32.230  33.091  1.00  0.00    -0.354 N 
ATOM     22  C   UNL A   1      39.754  29.518  29.781  1.00  0.00     0.074 A 
ATOM     23  C   UNL A   1      38.805  29.775  28.718  1.00  0.00     0.031 C 
ATOM     24  C   UNL A   1      38.113  33.863  34.224  1.00  0.00     0.029 A 
ATOM     25  C   UNL A   1      39.162  32.852  34.315  1.00  0.00     0.049 A 
ATOM     26  H   UNL A   1      39.785  31.536  32.824  1.00  0.00     0.167 HD
ATOM     27  C   UNL A   1      40.719  28.568  29.740  1.00  0.00     0.037 A 
ATOM     28  C   UNL A   1      39.914  32.610  35.405  1.00  0.00     0.037 A 
ATOM     29  C   UNL A   1      41.657  28.322  30.807  1.00  0.00     0.049 A 
ATOM     30  C   UNL A   1      40.945  31.519  35.359  1.00  0.00     0.074 A 
ATOM     31  C   UNL A   1      42.699  27.413  30.848  1.00  0.00     0.029 A 
ATOM     32  N   UNL A   1      41.650  28.976  32.031  1.00  0.00    -0.354 N 
ATOM     33  N   UNL A   1      41.235  30.700  34.377  1.00  0.00    -0.248 NA
ATOM     34  C   UNL A   1      41.756  31.319  36.567  1.00  0.00     0.031 C 
ATOM     35  C   UNL A   1      43.279  27.470  32.119  1.00  0.00     0.029 A 
ATOM     36  C   UNL A   1      42.650  28.468  32.846  1.00  0.00     0.049 A 
ATOM     37  H   UNL A   1      41.028  29.697  32.284  1.00  0.00     0.167 HD
ATOM     38  C   UNL A   1      42.280  29.910  34.834  1.00  0.00     0.074 A 
ATOM     39  C   UNL A   1      42.573  30.347  36.184  1.00  0.00     0.031 C 
ATOM     40  C   UNL A   1      42.940  28.919  34.186  1.00  0.00     0.037 A 
BRANCH  27  41
ATOM     41  C   UNL A   1      40.781  27.695  28.517  1.00  0.00     0.064 A 
ATOM     42  C   UNL A   1      41.569  28.026  27.404  1.00  0.00     0.173 A 
ATOM     43  C   UNL A   1      40.044  26.501  28.462  1.00  0.00     0.173 A 
ATOM     44  F   UNL A   1      42.291  29.156  27.399  1.00  0.00    -0.203 F 
ATOM     45  C   UNL A   1      41.576  27.222  26.265  1.00  0.00     0.198 A 
ATOM     46  C   UNL A   1      40.083  25.682  27.337  1.00  0.00     0.198 A 
ATOM     47  F   UNL A   1      39.283  26.127  29.501  1.00  0.00    -0.203 F 
ATOM     48  F   UNL A   1      42.283  27.597  25.189  1.00  0.00    -0.200 F 
ATOM     49  C   UNL A   1      40.838  26.050  26.233  1.00  0.00     0.200 A 
ATOM     50  F   UNL A   1      39.382  24.540  27.316  1.00  0.00    -0.200 F 
ATOM     51  F   UNL A   1      40.844  25.281  25.137  1.00  0.00    -0.200 F 
ENDBRANCH  27  41
BRANCH  28  52
ATOM     52  C   UNL A   1      39.693  33.423  36.627  1.00  0.00     0.064 A 
ATOM     53  C   UNL A   1      40.365  34.637  36.820  1.00  0.00     0.173 A 
ATOM     54  C   UNL A   1      38.760  33.030  37.600  1.00  0.00     0.173 A 
ATOM     55  F   UNL A   1      41.276  35.046  35.925  1.00  0.00    -0.203 F 
ATOM     56  C   UNL A   1      40.114  35.427  37.940  1.00  0.00     0.198 A 
ATOM     57  C   UNL A   1      38.488  33.834  38.704  1.00  0.00     0.198 A 
ATOM     58  F   UNL A   1      38.084  31.881  37.457  1.00  0.00    -0.203 F 
ATOM     59  F   UNL A   1      40.786  36.572  38.113  1.00  0.00    -0.200 F 
ATOM     60  C   UNL A   1      39.168  35.031  38.875  1.00  0.00     0.200 A 
ATOM     61  F   UNL A   1      37.559  33.458  39.592  1.00  0.00    -0.200 F 
ATOM     62  F   UNL A   1      38.912  35.802  39.940  1.00  0.00    -0.200 F 
ENDBRANCH  28  52
BRANCH  40  63
ATOM     63  C   UNL A   1      44.090  28.265  34.898  1.00  0.00     0.064 A 
ATOM     64  C   UNL A   1      43.928  27.095  35.652  1.00  0.00     0.173 A 
ATOM     65  C   UNL A   1      45.388  28.777  34.749  1.00  0.00     0.173 A 
ATOM     66  F   UNL A   1      42.706  26.574  35.839  1.00  0.00    -0.203 F 
ATOM     67  C   UNL A   1      45.024  26.465  36.237  1.00  0.00     0.198 A 
ATOM     68  C   UNL A   1      46.484  28.128  35.309  1.00  0.00     0.198 A 
ATOM     69  F   UNL A   1      45.597  29.893  34.035  1.00  0.00    -0.203 F 
ATOM     70  F   UNL A   1      44.844  25.363  36.979  1.00  0.00    -0.200 F 
ATOM     71  C   UNL A   1      46.302  26.975  36.054  1.00  0.00     0.200 A 
ATOM     72  F   UNL A   1      47.719  28.614  35.117  1.00  0.00    -0.200 F 
ATOM     73  F   UNL A   1      47.357  26.353  36.599  1.00  0.00    -0.200 F 
ENDBRANCH  40  63
ENDBRANCH  14  15
ENDBRANCH   7   9
ENDBRANCH   4   5
ENDBRANCH   3   4
ENDBRANCH   2   3
ENDBRANCH   1   2
BRANCH   1  74
ATOM     74  N   UNL A   1      32.607  29.554  24.608  1.00  0.00    -0.356 N 
ATOM     75  C   UNL A   1      33.407  28.758  23.833  1.00  0.00     0.224 C 
ATOM     76  H   UNL A   1      31.765  29.904  24.239  1.00  0.00     0.163 HD
ATOM     77  O   UNL A   1      33.995  29.327  22.919  1.00  0.00    -0.275 OA
BRANCH  75  78
ATOM     78  C   UNL A   1      33.654  27.316  24.273  1.00  0.00     0.094 C 
ATOM     79  C   UNL A   1      33.165  26.890  25.700  1.00  0.00     0.002 C 
ATOM     80  C   UNL A   1      33.336  26.191  23.261  1.00  0.00     0.094 C 
ATOM     81  C   UNL A   1      31.738  26.293  25.753  1.00  0.00     0.005 C 
ATOM     82  C   UNL A   1      34.081  25.725  26.139  1.00  0.00     0.005 C 
ATOM     83  C   UNL A   1      32.920  24.897  24.024  1.00  0.00     0.002 C 
ATOM     84  C   UNL A   1      31.631  25.053  24.841  1.00  0.00     0.005 C 
ATOM     85  C   UNL A   1      34.025  24.598  25.083  1.00  0.00     0.005 C 
BRANCH  80  86
ATOM     86  C   UNL A   1      32.639  26.512  21.916  1.00  0.00     0.224 C 
ATOM     87  O   UNL A   1      33.277  26.343  20.867  1.00  0.00    -0.275 OA
ATOM     88  N   UNL A   1      31.364  26.963  21.776  1.00  0.00    -0.356 N 
ATOM     89  H   UNL A   1      31.128  27.253  20.865  1.00  0.00     0.163 HD
BRANCH  88  90
ATOM     90  C   UNL A   1      30.304  27.088  22.739  1.00  0.00     0.121 C 
BRANCH  90  91
ATOM     91  C   UNL A   1      29.871  28.482  23.162  1.00  0.00     0.083 C 
BRANCH  91  92
ATOM     92  C   UNL A   1      29.592  29.427  22.008  1.00  0.00     0.264 C 
BRANCH  92  93
ATOM     93  N   UNL A   1      28.168  29.724  21.794  1.00  0.00    -0.331 N 
ATOM     94  C   UNL A   1      27.410  30.044  23.025  1.00  0.00     0.291 C 
ATOM     95  C   UNL A   1      28.028  30.877  20.876  1.00  0.00     0.291 C 
ATOM     96  H   UNL A   1      27.775  28.865  21.408  1.00  0.00     0.348 HD
ATOM     97  C   UNL A   1      27.813  31.381  23.661  1.00  0.00     0.221 C 
ATOM     98  C   UNL A   1      28.397  32.225  21.528  1.00  0.00     0.221 C 
ATOM     99  O   UNL A   1      27.653  32.459  22.731  1.00  0.00    -0.370 OA
ENDBRANCH  92  93
ENDBRANCH  91  92
ENDBRANCH  90  91
ENDBRANCH  88  90
ENDBRANCH  80  86
ENDBRANCH  75  78
ENDBRANCH   1  74
TORSDOF 16
ENDMDL
MODEL 2
REMARK VINA RESULT:     -12.3      5.883     10.931
REMARK SMILES O=C(NCCCCNC(=O)[C@H]1[C@H]2CC[C@H](CC2)[C@H]1C(=O)NCCC[NH+]1CCOCC1)c1ccc(-c2c3nc(c(-c4c(F)c(F)c(F)c(F)c4F)c4ccc([nH]4)c(-c4c(F)c(F)c(F)c(F)c4F)c4nc(c(-c5c(F)c(F)c(F)c(F)c5F)c5ccc2[nH]5)C=C4)C=C3)cc1
REMARK SMILES IDX 7 1 6 2 5 3 4 4 3 5 1 6 2 7 31 9 32 10 93 11 33 12 92 13
REMARK SMILES IDX 34 14 35 15 36 16 86 17 37 18 91 19 85 20 87 21 38 22 90 23
REMARK SMILES IDX 84 24 83 25 39 27 71 28 51 29 70 30 52 31 55 32 69 33 88 34
REMARK SMILES IDX 53 35 54 36 68 38 89 39 56 40 40 41 41 42 49 43 42 44 43 45
REMARK SMILES IDX 47 46 50 47 44 48 45 49 48 50 46 51 72 52 73 53 81 54 74 55
REMARK SMILES IDX 75 56 79 57 82 58 76 59 77 60 80 61 78 62 57 63 58 64 66 65
REMARK SMILES IDX 59 66 60 67 64 68 67 69 61 70 62 71 65 72 63 73 8 74 9 75
REMARK SMILES IDX 10 77 11 78 12 79 18 80 17 81 13 82 15 83 16 84 14 85 19 86
REMARK SMILES IDX 20 87 21 88 22 90 23 91 24 92 25 93 26 94 30 95 27 97 29 98
REMARK SMILES IDX 28 99
REMARK H PARENT 3 8 87 26 55 37 8 76 21 89 25 96
REMARK Flexibility Score: inf
ROOT
ATOM      1  C   UNL A   1      37.885  23.442  26.024  1.00  0.00     0.116 C 
ENDROOT
BRANCH   1   2
ATOM      2  C   UNL A   1      39.044  22.509  26.421  1.00  0.00     0.023 C 
BRANCH   2   3
ATOM      3  C   UNL A   1      39.209  21.248  25.561  1.00  0.00     0.023 C 
BRANCH   3   4
ATOM      4  C   UNL A   1      39.381  19.941  26.329  1.00  0.00     0.116 C 
BRANCH   4   5
ATOM      5  N   UNL A   1      40.573  19.211  25.933  1.00  0.00    -0.352 N 
ATOM      6  O   UNL A   1      42.732  18.883  25.392  1.00  0.00    -0.269 OA
ATOM      7  C   UNL A   1      41.880  19.616  25.896  1.00  0.00     0.251 C 
ATOM      8  H   UNL A   1      40.417  18.282  25.646  1.00  0.00     0.163 HD
BRANCH   7   9
ATOM      9  C   UNL A   1      42.278  20.933  26.433  1.00  0.00     0.039 A 
ATOM     10  C   UNL A   1      42.314  21.179  27.808  1.00  0.00     0.014 A 
ATOM     11  C   UNL A   1      42.666  21.930  25.533  1.00  0.00     0.014 A 
ATOM     12  C   UNL A   1      42.630  22.452  28.279  1.00  0.00     0.010 A 
ATOM     13  C   UNL A   1      43.047  23.185  26.009  1.00  0.00     0.010 A 
ATOM     14  C   UNL A   1      43.010  23.463  27.384  1.00  0.00    -0.014 A 
BRANCH  14  15
ATOM     15  C   UNL A   1      43.415  24.802  27.882  1.00  0.00     0.031 A 
ATOM     16  C   UNL A   1      42.380  25.836  28.216  1.00  0.00     0.074 A 
ATOM     17  C   UNL A   1      44.723  25.099  27.980  1.00  0.00     0.049 A 
ATOM     18  N   UNL A   1      42.540  27.091  28.552  1.00  0.00    -0.248 NA
ATOM     19  C   UNL A   1      40.976  25.404  28.151  1.00  0.00     0.031 C 
ATOM     20  C   UNL A   1      45.819  24.177  27.682  1.00  0.00     0.029 A 
ATOM     21  N   UNL A   1      45.353  26.265  28.335  1.00  0.00    -0.354 N 
ATOM     22  C   UNL A   1      41.261  27.606  28.713  1.00  0.00     0.074 A 
ATOM     23  C   UNL A   1      40.335  26.534  28.413  1.00  0.00     0.031 C 
ATOM     24  C   UNL A   1      46.986  24.812  27.863  1.00  0.00     0.029 A 
ATOM     25  C   UNL A   1      46.720  26.199  28.228  1.00  0.00     0.049 A 
ATOM     26  H   UNL A   1      44.872  27.070  28.638  1.00  0.00     0.167 HD
ATOM     27  C   UNL A   1      40.897  28.859  29.082  1.00  0.00     0.037 A 
ATOM     28  C   UNL A   1      47.656  27.159  28.364  1.00  0.00     0.037 A 
ATOM     29  C   UNL A   1      41.831  29.917  29.376  1.00  0.00     0.049 A 
ATOM     30  C   UNL A   1      47.230  28.554  28.723  1.00  0.00     0.074 A 
ATOM     31  C   UNL A   1      41.567  31.208  29.799  1.00  0.00     0.029 A 
ATOM     32  N   UNL A   1      43.210  29.811  29.258  1.00  0.00    -0.354 N 
ATOM     33  N   UNL A   1      46.022  29.023  28.916  1.00  0.00    -0.248 NA
ATOM     34  C   UNL A   1      48.296  29.552  28.887  1.00  0.00     0.031 C 
ATOM     35  C   UNL A   1      42.779  31.901  29.871  1.00  0.00     0.029 A 
ATOM     36  C   UNL A   1      43.807  31.023  29.567  1.00  0.00     0.049 A 
ATOM     37  H   UNL A   1      43.692  28.994  28.993  1.00  0.00     0.167 HD
ATOM     38  C   UNL A   1      46.179  30.359  29.255  1.00  0.00     0.074 A 
ATOM     39  C   UNL A   1      47.603  30.627  29.239  1.00  0.00     0.031 C 
ATOM     40  C   UNL A   1      45.228  31.275  29.560  1.00  0.00     0.037 A 
BRANCH  27  41
ATOM     41  C   UNL A   1      39.426  29.163  29.144  1.00  0.00     0.064 A 
ATOM     42  C   UNL A   1      38.715  29.161  30.355  1.00  0.00     0.173 A 
ATOM     43  C   UNL A   1      38.716  29.470  27.973  1.00  0.00     0.173 A 
ATOM     44  F   UNL A   1      39.340  28.870  31.505  1.00  0.00    -0.203 F 
ATOM     45  C   UNL A   1      37.343  29.404  30.382  1.00  0.00     0.198 A 
ATOM     46  C   UNL A   1      37.353  29.750  28.009  1.00  0.00     0.198 A 
ATOM     47  F   UNL A   1      39.345  29.501  26.788  1.00  0.00    -0.203 F 
ATOM     48  F   UNL A   1      36.675  29.326  31.542  1.00  0.00    -0.200 F 
ATOM     49  C   UNL A   1      36.664  29.702  29.211  1.00  0.00     0.200 A 
ATOM     50  F   UNL A   1      36.702  30.055  26.878  1.00  0.00    -0.200 F 
ATOM     51  F   UNL A   1      35.345  29.932  29.239  1.00  0.00    -0.200 F 
ENDBRANCH  27  41
BRANCH  28  52
ATOM     52  C   UNL A   1      49.082  26.811  28.143  1.00  0.00     0.064 A 
ATOM     53  C   UNL A   1      49.918  26.473  29.215  1.00  0.00     0.173 A 
ATOM     54  C   UNL A   1      49.621  26.752  26.848  1.00  0.00     0.173 A 
ATOM     55  F   UNL A   1      49.451  26.529  30.471  1.00  0.00    -0.203 F 
ATOM     56  C   UNL A   1      51.241  26.091  29.000  1.00  0.00     0.198 A 
ATOM     57  C   UNL A   1      50.934  26.341  26.633  1.00  0.00     0.198 A 
ATOM     58  F   UNL A   1      48.858  27.056  25.788  1.00  0.00    -0.203 F 
ATOM     59  F   UNL A   1      52.027  25.795  30.043  1.00  0.00    -0.200 F 
ATOM     60  C   UNL A   1      51.744  26.014  27.710  1.00  0.00     0.200 A 
ATOM     61  F   UNL A   1      51.409  26.248  25.384  1.00  0.00    -0.200 F 
ATOM     62  F   UNL A   1      53.010  25.625  27.504  1.00  0.00    -0.200 F 
ENDBRANCH  28  52
BRANCH  40  63
ATOM     63  C   UNL A   1      45.685  32.649  29.961  1.00  0.00     0.064 A 
ATOM     64  C   UNL A   1      45.814  33.689  29.031  1.00  0.00     0.173 A 
ATOM     65  C   UNL A   1      45.914  32.944  31.314  1.00  0.00     0.173 A 
ATOM     66  F   UNL A   1      45.623  33.456  27.723  1.00  0.00    -0.203 F 
ATOM     67  C   UNL A   1      46.164  34.974  29.441  1.00  0.00     0.198 A 
ATOM     68  C   UNL A   1      46.232  34.235  31.723  1.00  0.00     0.198 A 
ATOM     69  F   UNL A   1      45.800  31.983  32.243  1.00  0.00    -0.203 F 
ATOM     70  F   UNL A   1      46.312  35.949  28.532  1.00  0.00    -0.200 F 
ATOM     71  C   UNL A   1      46.360  35.248  30.787  1.00  0.00     0.200 A 
ATOM     72  F   UNL A   1      46.405  34.499  33.026  1.00  0.00    -0.200 F 
ATOM     73  F   UNL A   1      46.672  36.490  31.181  1.00  0.00    -0.200 F 
ENDBRANCH  40  63
ENDBRANCH  14  15
ENDBRANCH   7   9
ENDBRANCH   4   5
ENDBRANCH   3   4
ENDBRANCH   2   3
ENDBRANCH   1   2
BRANCH   1  74
ATOM     74  N   UNL A   1      37.280  23.045  24.764  1.00  0.00    -0.356 N 
ATOM     75  C   UNL A   1      35.929  22.838  24.673  1.00  0.00     0.224 C 
ATOM     76  H   UNL A   1      37.846  22.923  23.969  1.00  0.00     0.163 HD
ATOM     77  O   UNL A   1      35.580  21.669  24.553  1.00  0.00    -0.275 OA
BRANCH  75  78
ATOM     78  C   UNL A   1      34.988  24.016  24.924  1.00  0.00     0.094 C 
ATOM     79  C   UNL A   1      34.247  24.638  23.691  1.00  0.00     0.002 C 
ATOM     80  C   UNL A   1      34.009  23.912  26.116  1.00  0.00     0.094 C 
ATOM     81  C   UNL A   1      32.852  24.038  23.393  1.00  0.00     0.005 C 
ATOM     82  C   UNL A   1      33.956  26.110  24.062  1.00  0.00     0.005 C 
ATOM     83  C   UNL A   1      32.717  24.726  25.810  1.00  0.00     0.002 C 
ATOM     84  C   UNL A   1      31.920  24.189  24.614  1.00  0.00     0.005 C 
ATOM     85  C   UNL A   1      33.152  26.160  25.382  1.00  0.00     0.005 C 
BRANCH  80  86
ATOM     86  C   UNL A   1      33.880  22.595  26.920  1.00  0.00     0.224 C 
ATOM     87  O   UNL A   1      34.430  22.523  28.028  1.00  0.00    -0.275 OA
ATOM     88  N   UNL A   1      33.197  21.489  26.518  1.00  0.00    -0.356 N 
ATOM     89  H   UNL A   1      33.336  20.693  27.081  1.00  0.00     0.163 HD
BRANCH  88  90
ATOM     90  C   UNL A   1      32.307  21.291  25.407  1.00  0.00     0.121 C 
BRANCH  90  91
ATOM     91  C   UNL A   1      32.524  20.081  24.514  1.00  0.00     0.083 C 
BRANCH  91  92
ATOM     92  C   UNL A   1      32.749  18.782  25.264  1.00  0.00     0.264 C 
BRANCH  92  93
ATOM     93  N   UNL A   1      32.208  17.589  24.594  1.00  0.00    -0.331 N 
ATOM     94  C   UNL A   1      32.735  17.351  23.232  1.00  0.00     0.291 C 
ATOM     95  C   UNL A   1      32.503  16.383  25.401  1.00  0.00     0.291 C 
ATOM     96  H   UNL A   1      31.207  17.767  24.508  1.00  0.00     0.348 HD
ATOM     97  C   UNL A   1      34.217  16.952  23.211  1.00  0.00     0.221 C 
ATOM     98  C   UNL A   1      33.986  15.962  25.349  1.00  0.00     0.221 C 
ATOM     99  O   UNL A   1      34.443  15.779  24.002  1.00  0.00    -0.370 OA
ENDBRANCH  92  93
ENDBRANCH  91  92
ENDBRANCH  90  91
ENDBRANCH  88  90
ENDBRANCH  80  86
ENDBRANCH  75  78
ENDBRANCH   1  74
TORSDOF 16
ENDMDL
MODEL 3
REMARK VINA RESULT:     -12.2      1.826      4.011
REMARK SMILES O=C(NCCCCNC(=O)[C@H]1[C@H]2CC[C@H](CC2)[C@H]1C(=O)NCCC[NH+]1CCOCC1)c1ccc(-c2c3nc(c(-c4c(F)c(F)c(F)c(F)c4F)c4ccc([nH]4)c(-c4c(F)c(F)c(F)c(F)c4F)c4nc(c(-c5c(F)c(F)c(F)c(F)c5F)c5ccc2[nH]5)C=C4)C=C3)cc1
REMARK SMILES IDX 7 1 6 2 5 3 4 4 3 5 1 6 2 7 31 9 32 10 93 11 33 12 92 13
REMARK SMILES IDX 34 14 35 15 36 16 86 17 37 18 91 19 85 20 87 21 38 22 90 23
REMARK SMILES IDX 84 24 83 25 39 27 71 28 51 29 70 30 52 31 55 32 69 33 88 34
REMARK SMILES IDX 53 35 54 36 68 38 89 39 56 40 40 41 41 42 49 43 42 44 43 45
REMARK SMILES IDX 47 46 50 47 44 48 45 49 48 50 46 51 72 52 73 53 81 54 74 55
REMARK SMILES IDX 75 56 79 57 82 58 76 59 77 60 80 61 78 62 57 63 58 64 66 65
REMARK SMILES IDX 59 66 60 67 64 68 67 69 61 70 62 71 65 72 63 73 8 74 9 75
REMARK SMILES IDX 10 77 11 78 12 79 18 80 17 81 13 82 15 83 16 84 14 85 19 86
REMARK SMILES IDX 20 87 21 88 22 90 23 91 24 92 25 93 26 94 30 95 27 97 29 98
REMARK SMILES IDX 28 99
REMARK H PARENT 3 8 87 26 55 37 8 76 21 89 25 96
REMARK Flexibility Score: inf
ROOT
ATOM      1  C   UNL A   1      32.739  30.189  26.533  1.00  0.00     0.116 C 
ENDROOT
BRANCH   1   2
ATOM      2  C   UNL A   1      31.454  30.930  26.124  1.00  0.00     0.023 C 
BRANCH   2   3
ATOM      3  C   UNL A   1      31.390  32.416  26.506  1.00  0.00     0.023 C 
BRANCH   3   4
ATOM      4  C   UNL A   1      32.648  32.988  27.152  1.00  0.00     0.116 C 
BRANCH   4   5
ATOM      5  N   UNL A   1      32.442  34.321  27.693  1.00  0.00    -0.352 N 
ATOM      6  O   UNL A   1      32.637  36.039  29.134  1.00  0.00    -0.269 OA
ATOM      7  C   UNL A   1      33.057  34.948  28.743  1.00  0.00     0.251 C 
ATOM      8  H   UNL A   1      31.754  34.856  27.233  1.00  0.00     0.163 HD
BRANCH   7   9
ATOM      9  C   UNL A   1      34.204  34.321  29.431  1.00  0.00     0.039 A 
ATOM     10  C   UNL A   1      34.026  33.506  30.552  1.00  0.00     0.014 A 
ATOM     11  C   UNL A   1      35.485  34.524  28.909  1.00  0.00     0.014 A 
ATOM     12  C   UNL A   1      35.134  32.985  31.216  1.00  0.00     0.010 A 
ATOM     13  C   UNL A   1      36.589  33.946  29.536  1.00  0.00     0.010 A 
ATOM     14  C   UNL A   1      36.425  33.191  30.708  1.00  0.00    -0.014 A 
BRANCH  14  15
ATOM     15  C   UNL A   1      37.606  32.581  31.370  1.00  0.00     0.031 A 
ATOM     16  C   UNL A   1      38.320  31.423  30.739  1.00  0.00     0.074 A 
ATOM     17  C   UNL A   1      37.998  33.044  32.571  1.00  0.00     0.049 A 
ATOM     18  N   UNL A   1      39.292  30.688  31.216  1.00  0.00    -0.248 NA
ATOM     19  C   UNL A   1      37.872  31.029  29.394  1.00  0.00     0.031 C 
ATOM     20  C   UNL A   1      37.381  34.162  33.283  1.00  0.00     0.029 A 
ATOM     21  N   UNL A   1      38.993  32.618  33.414  1.00  0.00    -0.354 N 
ATOM     22  C   UNL A   1      39.556  29.731  30.245  1.00  0.00     0.074 A 
ATOM     23  C   UNL A   1      38.623  29.962  29.162  1.00  0.00     0.031 C 
ATOM     24  C   UNL A   1      38.008  34.333  34.456  1.00  0.00     0.029 A 
ATOM     25  C   UNL A   1      39.026  33.299  34.605  1.00  0.00     0.049 A 
ATOM     26  H   UNL A   1      39.623  31.894  33.187  1.00  0.00     0.167 HD
ATOM     27  C   UNL A   1      40.494  28.752  30.259  1.00  0.00     0.037 A 
ATOM     28  C   UNL A   1      39.762  33.089  35.713  1.00  0.00     0.037 A 
ATOM     29  C   UNL A   1      41.416  28.532  31.346  1.00  0.00     0.049 A 
ATOM     30  C   UNL A   1      40.762  31.968  35.729  1.00  0.00     0.074 A 
ATOM     31  C   UNL A   1      42.431  27.598  31.441  1.00  0.00     0.029 A 
ATOM     32  N   UNL A   1      41.419  29.246  32.537  1.00  0.00    -0.354 N 
ATOM     33  N   UNL A   1      41.035  31.094  34.791  1.00  0.00    -0.248 NA
ATOM     34  C   UNL A   1      41.557  31.805  36.953  1.00  0.00     0.031 C 
ATOM     35  C   UNL A   1      43.003  27.700  32.713  1.00  0.00     0.029 A 
ATOM     36  C   UNL A   1      42.397  28.750  33.385  1.00  0.00     0.049 A 
ATOM     37  H   UNL A   1      40.816  29.996  32.748  1.00  0.00     0.167 HD
ATOM     38  C   UNL A   1      42.053  30.298  35.296  1.00  0.00     0.074 A 
ATOM     39  C   UNL A   1      42.348  30.792  36.625  1.00  0.00     0.031 C 
ATOM     40  C   UNL A   1      42.690  29.258  34.704  1.00  0.00     0.037 A 
BRANCH  27  41
ATOM     41  C   UNL A   1      40.540  27.819  29.081  1.00  0.00     0.064 A 
ATOM     42  C   UNL A   1      41.387  28.043  27.985  1.00  0.00     0.173 A 
ATOM     43  C   UNL A   1      39.727  26.675  29.053  1.00  0.00     0.173 A 
ATOM     44  F   UNL A   1      42.183  29.123  27.956  1.00  0.00    -0.203 F 
ATOM     45  C   UNL A   1      41.381  27.187  26.885  1.00  0.00     0.198 A 
ATOM     46  C   UNL A   1      39.750  25.802  27.969  1.00  0.00     0.198 A 
ATOM     47  F   UNL A   1      38.906  26.402  30.078  1.00  0.00    -0.203 F 
ATOM     48  F   UNL A   1      42.148  27.462  25.821  1.00  0.00    -0.200 F 
ATOM     49  C   UNL A   1      40.567  26.066  26.880  1.00  0.00     0.200 A 
ATOM     50  F   UNL A   1      38.975  24.708  27.974  1.00  0.00    -0.200 F 
ATOM     51  F   UNL A   1      40.559  25.246  25.820  1.00  0.00    -0.200 F 
ENDBRANCH  27  41
BRANCH  28  52
ATOM     52  C   UNL A   1      39.556  33.967  36.892  1.00  0.00     0.064 A 
ATOM     53  C   UNL A   1      38.737  33.567  37.957  1.00  0.00     0.173 A 
ATOM     54  C   UNL A   1      40.222  35.198  37.005  1.00  0.00     0.173 A 
ATOM     55  F   UNL A   1      38.069  32.406  37.887  1.00  0.00    -0.203 F 
ATOM     56  C   UNL A   1      38.590  34.367  39.089  1.00  0.00     0.198 A 
ATOM     57  C   UNL A   1      40.097  35.981  38.150  1.00  0.00     0.198 A 
ATOM     58  F   UNL A   1      41.025  35.620  36.018  1.00  0.00    -0.203 F 
ATOM     59  F   UNL A   1      37.783  33.973  40.082  1.00  0.00    -0.200 F 
ATOM     60  C   UNL A   1      39.279  35.566  39.189  1.00  0.00     0.200 A 
ATOM     61  F   UNL A   1      40.781  37.128  38.251  1.00  0.00    -0.200 F 
ATOM     62  F   UNL A   1      39.154  36.323  40.288  1.00  0.00    -0.200 F 
ENDBRANCH  28  52
BRANCH  40  63
ATOM     63  C   UNL A   1      43.814  28.607  35.457  1.00  0.00     0.064 A 
ATOM     64  C   UNL A   1      43.606  27.504  36.296  1.00  0.00     0.173 A 
ATOM     65  C   UNL A   1      45.133  29.047  35.264  1.00  0.00     0.173 A 
ATOM     66  F   UNL A   1      42.363  27.055  36.527  1.00  0.00    -0.203 F 
ATOM     67  C   UNL A   1      44.677  26.870  36.922  1.00  0.00     0.198 A 
ATOM     68  C   UNL A   1      46.203  28.392  35.866  1.00  0.00     0.198 A 
ATOM     69  F   UNL A   1      45.386  30.097  34.469  1.00  0.00    -0.203 F 
ATOM     70  F   UNL A   1      44.454  25.836  37.745  1.00  0.00    -0.200 F 
ATOM     71  C   UNL A   1      45.975  27.307  36.696  1.00  0.00     0.200 A 
ATOM     72  F   UNL A   1      47.457  28.807  35.633  1.00  0.00    -0.200 F 
ATOM     73  F   UNL A   1      47.005  26.680  37.281  1.00  0.00    -0.200 F 
ENDBRANCH  40  63
ENDBRANCH  14  15
ENDBRANCH   7   9
ENDBRANCH   4   5
ENDBRANCH   3   4
ENDBRANCH   2   3
ENDBRANCH   1   2
BRANCH   1  74
ATOM     74  N   UNL A   1      33.449  29.663  25.380  1.00  0.00    -0.356 N 
ATOM     75  C   UNL A   1      33.162  28.415  24.894  1.00  0.00     0.224 C 
ATOM     76  H   UNL A   1      34.141  30.208  24.944  1.00  0.00     0.163 HD
ATOM     77  O   UNL A   1      34.018  27.560  25.093  1.00  0.00    -0.275 OA
BRANCH  75  78
ATOM     78  C   UNL A   1      31.763  28.146  24.341  1.00  0.00     0.094 C 
ATOM     79  C   UNL A   1      31.644  27.603  22.876  1.00  0.00     0.002 C 
ATOM     80  C   UNL A   1      30.763  27.397  25.252  1.00  0.00     0.094 C 
ATOM     81  C   UNL A   1      31.611  26.061  22.749  1.00  0.00     0.005 C 
ATOM     82  C   UNL A   1      30.259  28.057  22.360  1.00  0.00     0.005 C 
ATOM     83  C   UNL A   1      29.765  26.579  24.378  1.00  0.00     0.002 C 
ATOM     84  C   UNL A   1      30.434  25.471  23.554  1.00  0.00     0.005 C 
ATOM     85  C   UNL A   1      29.159  27.549  23.320  1.00  0.00     0.005 C 
BRANCH  80  86
ATOM     86  C   UNL A   1      31.220  26.801  26.606  1.00  0.00     0.224 C 
ATOM     87  O   UNL A   1      31.028  27.462  27.637  1.00  0.00    -0.275 OA
ATOM     88  N   UNL A   1      31.818  25.590  26.773  1.00  0.00    -0.356 N 
ATOM     89  H   UNL A   1      32.174  25.429  27.677  1.00  0.00     0.163 HD
BRANCH  88  90
ATOM     90  C   UNL A   1      32.018  24.509  25.848  1.00  0.00     0.121 C 
BRANCH  90  91
ATOM     91  C   UNL A   1      31.500  23.130  26.224  1.00  0.00     0.083 C 
BRANCH  91  92
ATOM     92  C   UNL A   1      32.048  22.002  25.371  1.00  0.00     0.264 C 
BRANCH  92  93
ATOM     93  N   UNL A   1      32.656  20.901  26.134  1.00  0.00    -0.331 N 
ATOM     94  C   UNL A   1      33.339  19.879  25.310  1.00  0.00     0.291 C 
ATOM     95  C   UNL A   1      33.653  21.441  27.086  1.00  0.00     0.291 C 
ATOM     96  H   UNL A   1      31.874  20.442  26.604  1.00  0.00     0.348 HD
ATOM     97  C   UNL A   1      34.614  20.395  24.629  1.00  0.00     0.221 C 
ATOM     98  C   UNL A   1      34.949  21.924  26.404  1.00  0.00     0.221 C 
ATOM     99  O   UNL A   1      35.543  20.899  25.596  1.00  0.00    -0.370 OA
ENDBRANCH  92  93
ENDBRANCH  91  92
ENDBRANCH  90  91
ENDBRANCH  88  90
ENDBRANCH  80  86
ENDBRANCH  75  78
ENDBRANCH   1  74
TORSDOF 16
ENDMDL
