MODEL 1
REMARK VINA RESULT:     -12.6      0.000      0.000
REMARK SMILES Cc1nsc(NC(=O)C2([NH3+])CCCCC2)c1C(=O)NCCCCNC(=O)c1ccc(-c2c3nc(c(-c4c(F)c(F)c(F)c(F)c4F)c4ccc([nH]4)c(-c4c(F)c(F)c(F)c(F)c4F)c4nc(c(-c5c(F)c(F)c(F)c(F)c5F)c5ccc2[nH]5)C=C4)C=C3)cc1
REMARK SMILES IDX 21 1 20 2 19 3 17 4 18 5 16 7 1 8 2 9 3 10 4 11 5 12 6 13
REMARK SMILES IDX 7 14 8 16 9 17 11 18 15 19 12 20 14 21 13 22 10 23 22 27
REMARK SMILES IDX 23 28 24 29 25 30 26 32 27 33 28 34 89 35 29 36 88 37 30 38
REMARK SMILES IDX 31 39 32 40 82 41 33 42 87 43 81 44 83 45 34 46 86 47 80 48
REMARK SMILES IDX 79 49 35 51 67 52 47 53 66 54 48 55 51 56 65 57 84 58 49 59
REMARK SMILES IDX 50 60 64 62 85 63 52 64 36 65 37 66 45 67 38 68 39 69 43 70
REMARK SMILES IDX 46 71 40 72 41 73 44 74 42 75 68 76 69 77 77 78 70 79 71 80
REMARK SMILES IDX 75 81 78 82 72 83 73 84 76 85 74 86 53 87 54 88 62 89 55 90
REMARK SMILES IDX 56 91 60 92 63 93 57 94 58 95 61 96 59 97
REMARK H PARENT 19 6 6 15 10 24 10 25 10 26 24 31 83 50 51 61
REMARK Flexibility Score: inf
ROOT
ATOM      1  C   UNL A   1      38.350  22.739  26.603  1.00  0.00     0.023 C 
ENDROOT
BRANCH   1   2
ATOM      2  C   UNL A   1      37.536  23.694  25.728  1.00  0.00     0.116 C 
BRANCH   2   3
ATOM      3  N   UNL A   1      37.384  23.257  24.365  1.00  0.00    -0.352 N 
ATOM      4  C   UNL A   1      36.315  22.960  23.566  1.00  0.00     0.256 C 
ATOM      5  O   UNL A   1      36.615  22.887  22.367  1.00  0.00    -0.269 OA
ATOM      6  H   UNL A   1      38.246  23.148  23.903  1.00  0.00     0.163 HD
BRANCH   4   7
ATOM      7  C   UNL A   1      34.954  22.616  24.002  1.00  0.00     0.097 A 
ATOM      8  C   UNL A   1      34.842  21.455  26.444  1.00  0.00     0.069 C 
ATOM      9  C   UNL A   1      34.349  21.856  25.099  1.00  0.00     0.066 A 
ATOM     10  N   UNL A   1      33.070  21.512  24.914  1.00  0.00    -0.195 NA
ATOM     11  S   UNL A   1      32.514  22.220  23.556  1.00  0.00    -0.017 S 
ATOM     12  C   UNL A   1      33.873  23.199  23.310  1.00  0.00     0.129 A 
BRANCH  12  13
ATOM     13  N   UNL A   1      33.879  24.270  22.426  1.00  0.00    -0.310 N 
ATOM     14  C   UNL A   1      33.302  25.522  22.448  1.00  0.00     0.286 C 
ATOM     15  H   UNL A   1      34.409  24.099  21.614  1.00  0.00     0.171 HD
ATOM     16  O   UNL A   1      33.598  26.263  21.498  1.00  0.00    -0.267 OA
BRANCH  14  17
ATOM     17  C   UNL A   1      32.382  26.058  23.610  1.00  0.00     0.174 C 
ATOM     18  C   UNL A   1      32.882  25.584  24.998  1.00  0.00     0.079 C 
ATOM     19  C   UNL A   1      32.242  27.609  23.593  1.00  0.00     0.079 C 
ATOM     20  C   UNL A   1      34.075  26.384  25.524  1.00  0.00     0.007 C 
ATOM     21  C   UNL A   1      33.381  28.395  24.244  1.00  0.00     0.007 C 
ATOM     22  C   UNL A   1      33.723  27.855  25.624  1.00  0.00     0.001 C 
BRANCH  17  23
ATOM     23  N   UNL A   1      30.992  25.627  23.312  1.00  0.00    -0.345 N 
ATOM     24  H   UNL A   1      31.010  24.733  22.820  1.00  0.00     0.345 HD
ATOM     25  H   UNL A   1      30.536  26.328  22.728  1.00  0.00     0.345 HD
ATOM     26  H   UNL A   1      30.473  25.524  24.185  1.00  0.00     0.345 HD
ENDBRANCH  17  23
ENDBRANCH  14  17
ENDBRANCH  12  13
ENDBRANCH   4   7
ENDBRANCH   2   3
ENDBRANCH   1   2
BRANCH   1  27
ATOM     27  C   UNL A   1      39.178  21.690  25.855  1.00  0.00     0.023 C 
BRANCH  27  28
ATOM     28  C   UNL A   1      40.435  21.222  26.589  1.00  0.00     0.116 C 
BRANCH  28  29
ATOM     29  N   UNL A   1      41.660  21.462  25.831  1.00  0.00    -0.352 N 
ATOM     30  C   UNL A   1      42.286  22.664  25.576  1.00  0.00     0.251 C 
ATOM     31  H   UNL A   1      42.094  20.663  25.454  1.00  0.00     0.163 HD
ATOM     32  O   UNL A   1      43.066  22.785  24.645  1.00  0.00    -0.269 OA
BRANCH  30  33
ATOM     33  C   UNL A   1      42.003  23.813  26.454  1.00  0.00     0.039 A 
ATOM     34  C   UNL A   1      42.558  23.876  27.734  1.00  0.00     0.014 A 
ATOM     35  C   UNL A   1      41.194  24.841  25.972  1.00  0.00     0.014 A 
ATOM     36  C   UNL A   1      42.378  25.030  28.491  1.00  0.00     0.010 A 
ATOM     37  C   UNL A   1      41.083  26.016  26.686  1.00  0.00     0.010 A 
ATOM     38  C   UNL A   1      41.667  26.113  27.950  1.00  0.00    -0.014 A 
BRANCH  38  39
ATOM     39  C   UNL A   1      41.675  27.404  28.639  1.00  0.00     0.031 A 
ATOM     40  C   UNL A   1      42.782  28.330  28.255  1.00  0.00     0.074 A 
ATOM     41  C   UNL A   1      40.647  27.845  29.394  1.00  0.00     0.049 A 
ATOM     42  N   UNL A   1      43.660  28.878  29.031  1.00  0.00    -0.248 NA
ATOM     43  C   UNL A   1      42.992  28.626  26.828  1.00  0.00     0.031 C 
ATOM     44  C   UNL A   1      39.364  27.184  29.646  1.00  0.00     0.029 A 
ATOM     45  N   UNL A   1      40.488  29.056  30.000  1.00  0.00    -0.354 N 
ATOM     46  C   UNL A   1      44.446  29.702  28.226  1.00  0.00     0.074 A 
ATOM     47  C   UNL A   1      44.070  29.412  26.867  1.00  0.00     0.031 C 
ATOM     48  C   UNL A   1      38.488  28.082  30.144  1.00  0.00     0.029 A 
ATOM     49  C   UNL A   1      39.181  29.337  30.377  1.00  0.00     0.049 A 
ATOM     50  H   UNL A   1      41.235  29.678  30.157  1.00  0.00     0.167 HD
ATOM     51  C   UNL A   1      45.214  30.693  28.764  1.00  0.00     0.037 A 
ATOM     52  C   UNL A   1      38.692  30.526  30.812  1.00  0.00     0.037 A 
ATOM     53  C   UNL A   1      45.398  30.494  30.179  1.00  0.00     0.049 A 
ATOM     54  C   UNL A   1      39.845  31.324  31.298  1.00  0.00     0.074 A 
ATOM     55  C   UNL A   1      45.949  29.489  30.950  1.00  0.00     0.029 A 
ATOM     56  N   UNL A   1      44.662  31.264  31.044  1.00  0.00    -0.354 N 
ATOM     57  N   UNL A   1      40.519  31.038  32.377  1.00  0.00    -0.248 NA
ATOM     58  C   UNL A   1      40.523  32.197  30.351  1.00  0.00     0.031 C 
ATOM     59  C   UNL A   1      45.115  29.414  32.103  1.00  0.00     0.029 A 
ATOM     60  C   UNL A   1      44.153  30.419  31.995  1.00  0.00     0.049 A 
ATOM     61  H   UNL A   1      44.524  32.238  30.992  1.00  0.00     0.167 HD
ATOM     62  C   UNL A   1      41.836  31.302  32.040  1.00  0.00     0.074 A 
ATOM     63  C   UNL A   1      41.767  32.117  30.830  1.00  0.00     0.031 C 
ATOM     64  C   UNL A   1      42.857  30.592  32.602  1.00  0.00     0.037 A 
BRANCH  51  65
ATOM     65  C   UNL A   1      45.519  32.021  28.107  1.00  0.00     0.064 A 
ATOM     66  C   UNL A   1      44.454  32.900  27.814  1.00  0.00     0.173 A 
ATOM     67  C   UNL A   1      46.742  32.320  27.474  1.00  0.00     0.173 A 
ATOM     68  F   UNL A   1      43.242  32.716  28.359  1.00  0.00    -0.203 F 
ATOM     69  C   UNL A   1      44.578  33.929  26.875  1.00  0.00     0.198 A 
ATOM     70  C   UNL A   1      46.877  33.382  26.578  1.00  0.00     0.198 A 
ATOM     71  F   UNL A   1      47.822  31.540  27.603  1.00  0.00    -0.203 F 
ATOM     72  F   UNL A   1      43.501  34.644  26.524  1.00  0.00    -0.200 F 
ATOM     73  C   UNL A   1      45.787  34.161  26.249  1.00  0.00     0.200 A 
ATOM     74  F   UNL A   1      48.055  33.584  25.971  1.00  0.00    -0.200 F 
ATOM     75  F   UNL A   1      45.893  35.096  25.297  1.00  0.00    -0.200 F 
ENDBRANCH  51  65
BRANCH  52  76
ATOM     76  C   UNL A   1      37.333  31.098  30.659  1.00  0.00     0.064 A 
ATOM     77  C   UNL A   1      36.551  31.420  31.783  1.00  0.00     0.173 A 
ATOM     78  C   UNL A   1      36.870  31.589  29.422  1.00  0.00     0.173 A 
ATOM     79  F   UNL A   1      36.933  31.027  33.007  1.00  0.00    -0.203 F 
ATOM     80  C   UNL A   1      35.402  32.211  31.679  1.00  0.00     0.198 A 
ATOM     81  C   UNL A   1      35.717  32.366  29.317  1.00  0.00     0.198 A 
ATOM     82  F   UNL A   1      37.578  31.405  28.298  1.00  0.00    -0.203 F 
ATOM     83  F   UNL A   1      34.725  32.554  32.783  1.00  0.00    -0.200 F 
ATOM     84  C   UNL A   1      34.991  32.693  30.447  1.00  0.00     0.200 A 
ATOM     85  F   UNL A   1      35.348  32.849  28.122  1.00  0.00    -0.200 F 
ATOM     86  F   UNL A   1      33.927  33.502  30.355  1.00  0.00    -0.200 F 
ENDBRANCH  52  76
BRANCH  64  87
ATOM     87  C   UNL A   1      42.547  29.722  33.786  1.00  0.00     0.064 A 
ATOM     88  C   UNL A   1      42.075  28.401  33.691  1.00  0.00     0.173 A 
ATOM     89  C   UNL A   1      42.892  30.192  35.061  1.00  0.00     0.173 A 
ATOM     90  F   UNL A   1      41.822  27.839  32.503  1.00  0.00    -0.203 F 
ATOM     91  C   UNL A   1      41.912  27.609  34.825  1.00  0.00     0.198 A 
ATOM     92  C   UNL A   1      42.767  29.384  36.186  1.00  0.00     0.198 A 
ATOM     93  F   UNL A   1      43.404  31.424  35.206  1.00  0.00    -0.203 F 
ATOM     94  F   UNL A   1      41.447  26.355  34.707  1.00  0.00    -0.200 F 
ATOM     95  C   UNL A   1      42.267  28.098  36.071  1.00  0.00     0.200 A 
ATOM     96  F   UNL A   1      43.161  29.844  37.382  1.00  0.00    -0.200 F 
ATOM     97  F   UNL A   1      42.154  27.320  37.156  1.00  0.00    -0.200 F 
ENDBRANCH  64  87
ENDBRANCH  38  39
ENDBRANCH  30  33
ENDBRANCH  28  29
ENDBRANCH  27  28
ENDBRANCH   1  27
TORSDOF 14
ENDMDL
MODEL 2
REMARK VINA RESULT:     -12.4      3.270      8.637
REMARK SMILES Cc1nsc(NC(=O)C2([NH3+])CCCCC2)c1C(=O)NCCCCNC(=O)c1ccc(-c2c3nc(c(-c4c(F)c(F)c(F)c(F)c4F)c4ccc([nH]4)c(-c4c(F)c(F)c(F)c(F)c4F)c4nc(c(-c5c(F)c(F)c(F)c(F)c5F)c5ccc2[nH]5)C=C4)C=C3)cc1
REMARK SMILES IDX 21 1 20 2 19 3 17 4 18 5 16 7 1 8 2 9 3 10 4 11 5 12 6 13
REMARK SMILES IDX 7 14 8 16 9 17 11 18 15 19 12 20 14 21 13 22 10 23 22 27
REMARK SMILES IDX 23 28 24 29 25 30 26 32 27 33 28 34 89 35 29 36 88 37 30 38
REMARK SMILES IDX 31 39 32 40 82 41 33 42 87 43 81 44 83 45 34 46 86 47 80 48
REMARK SMILES IDX 79 49 35 51 67 52 47 53 66 54 48 55 51 56 65 57 84 58 49 59
REMARK SMILES IDX 50 60 64 62 85 63 52 64 36 65 37 66 45 67 38 68 39 69 43 70
REMARK SMILES IDX 46 71 40 72 41 73 44 74 42 75 68 76 69 77 77 78 70 79 71 80
REMARK SMILES IDX 75 81 78 82 72 83 73 84 76 85 74 86 53 87 54 88 62 89 55 90
REMARK SMILES IDX 56 91 60 92 63 93 57 94 58 95 61 96 59 97
REMARK H PARENT 19 6 6 15 10 24 10 25 10 26 24 31 83 50 51 61
REMARK Flexibility Score: inf
ROOT
ATOM      1  C   UNL A   1      35.182  29.713  27.334  1.00  0.00     0.023 C 
ENDROOT
BRANCH   1   2
ATOM      2  C   UNL A   1      34.300  28.557  26.862  1.00  0.00     0.116 C 
BRANCH   2   3
ATOM      3  N   UNL A   1      33.021  28.487  27.520  1.00  0.00    -0.352 N 
ATOM      4  C   UNL A   1      31.813  27.925  27.213  1.00  0.00     0.256 C 
ATOM      5  O   UNL A   1      31.049  27.862  28.185  1.00  0.00    -0.269 OA
ATOM      6  H   UNL A   1      33.016  28.949  28.389  1.00  0.00     0.163 HD
BRANCH   4   7
ATOM      7  C   UNL A   1      31.334  27.534  25.879  1.00  0.00     0.097 A 
ATOM      8  C   UNL A   1      32.259  29.099  23.875  1.00  0.00     0.069 C 
ATOM      9  C   UNL A   1      31.374  28.097  24.527  1.00  0.00     0.066 A 
ATOM     10  N   UNL A   1      30.505  27.561  23.663  1.00  0.00    -0.195 NA
ATOM     11  S   UNL A   1      29.769  26.287  24.361  1.00  0.00    -0.017 S 
ATOM     12  C   UNL A   1      30.757  26.255  25.735  1.00  0.00     0.129 A 
BRANCH  12  13
ATOM     13  N   UNL A   1      30.798  25.177  26.609  1.00  0.00    -0.310 N 
ATOM     14  C   UNL A   1      31.446  23.960  26.587  1.00  0.00     0.286 C 
ATOM     15  H   UNL A   1      30.248  25.310  27.416  1.00  0.00     0.171 HD
ATOM     16  O   UNL A   1      31.310  23.264  27.604  1.00  0.00    -0.267 OA
BRANCH  14  17
ATOM     17  C   UNL A   1      32.372  23.467  25.410  1.00  0.00     0.174 C 
ATOM     18  C   UNL A   1      33.214  24.628  24.822  1.00  0.00     0.079 C 
ATOM     19  C   UNL A   1      33.304  22.294  25.836  1.00  0.00     0.079 C 
ATOM     20  C   UNL A   1      34.429  24.995  25.674  1.00  0.00     0.007 C 
ATOM     21  C   UNL A   1      34.586  22.685  26.571  1.00  0.00     0.007 C 
ATOM     22  C   UNL A   1      35.337  23.792  25.848  1.00  0.00     0.001 C 
BRANCH  17  23
ATOM     23  N   UNL A   1      31.501  22.810  24.403  1.00  0.00    -0.345 N 
ATOM     24  H   UNL A   1      30.553  22.728  24.773  1.00  0.00     0.345 HD
ATOM     25  H   UNL A   1      31.865  21.880  24.193  1.00  0.00     0.345 HD
ATOM     26  H   UNL A   1      31.485  23.369  23.550  1.00  0.00     0.345 HD
ENDBRANCH  17  23
ENDBRANCH  14  17
ENDBRANCH  12  13
ENDBRANCH   4   7
ENDBRANCH   2   3
ENDBRANCH   1   2
BRANCH   1  27
ATOM     27  C   UNL A   1      34.499  31.081  27.426  1.00  0.00     0.023 C 
BRANCH  27  28
ATOM     28  C   UNL A   1      35.373  32.197  27.997  1.00  0.00     0.116 C 
BRANCH  28  29
ATOM     29  N   UNL A   1      34.866  32.728  29.259  1.00  0.00    -0.352 N 
ATOM     30  C   UNL A   1      35.157  32.311  30.542  1.00  0.00     0.251 C 
ATOM     31  H   UNL A   1      34.234  33.480  29.186  1.00  0.00     0.163 HD
ATOM     32  O   UNL A   1      34.412  32.566  31.474  1.00  0.00    -0.269 OA
BRANCH  30  33
ATOM     33  C   UNL A   1      36.398  31.551  30.777  1.00  0.00     0.039 A 
ATOM     34  C   UNL A   1      36.372  30.155  30.820  1.00  0.00     0.014 A 
ATOM     35  C   UNL A   1      37.593  32.251  30.932  1.00  0.00     0.014 A 
ATOM     36  C   UNL A   1      37.575  29.462  30.916  1.00  0.00     0.010 A 
ATOM     37  C   UNL A   1      38.790  31.566  30.945  1.00  0.00     0.010 A 
ATOM     38  C   UNL A   1      38.786  30.170  30.944  1.00  0.00    -0.014 A 
BRANCH  38  39
ATOM     39  C   UNL A   1      40.053  29.449  30.807  1.00  0.00     0.031 A 
ATOM     40  C   UNL A   1      40.794  29.204  32.081  1.00  0.00     0.074 A 
ATOM     41  C   UNL A   1      40.434  28.837  29.666  1.00  0.00     0.049 A 
ATOM     42  N   UNL A   1      42.007  29.547  32.367  1.00  0.00    -0.248 NA
ATOM     43  C   UNL A   1      40.080  28.569  33.201  1.00  0.00     0.031 C 
ATOM     44  C   UNL A   1      39.695  28.739  28.405  1.00  0.00     0.029 A 
ATOM     45  N   UNL A   1      41.528  28.057  29.439  1.00  0.00    -0.354 N 
ATOM     46  C   UNL A   1      42.271  29.052  33.644  1.00  0.00     0.074 A 
ATOM     47  C   UNL A   1      41.014  28.569  34.155  1.00  0.00     0.031 C 
ATOM     48  C   UNL A   1      40.241  27.769  27.642  1.00  0.00     0.029 A 
ATOM     49  C   UNL A   1      41.443  27.276  28.292  1.00  0.00     0.049 A 
ATOM     50  H   UNL A   1      42.311  28.046  30.035  1.00  0.00     0.167 HD
ATOM     51  C   UNL A   1      43.549  28.913  34.099  1.00  0.00     0.037 A 
ATOM     52  C   UNL A   1      42.277  26.272  27.922  1.00  0.00     0.037 A 
ATOM     53  C   UNL A   1      44.469  29.682  33.301  1.00  0.00     0.049 A 
ATOM     54  C   UNL A   1      43.553  26.468  28.652  1.00  0.00     0.074 A 
ATOM     55  C   UNL A   1      44.599  31.024  32.999  1.00  0.00     0.029 A 
ATOM     56  N   UNL A   1      45.242  29.019  32.382  1.00  0.00    -0.354 N 
ATOM     57  N   UNL A   1      44.383  27.444  28.410  1.00  0.00    -0.248 NA
ATOM     58  C   UNL A   1      43.707  25.825  29.949  1.00  0.00     0.031 C 
ATOM     59  C   UNL A   1      45.013  31.054  31.636  1.00  0.00     0.029 A 
ATOM     60  C   UNL A   1      45.176  29.734  31.214  1.00  0.00     0.049 A 
ATOM     61  H   UNL A   1      45.749  28.188  32.530  1.00  0.00     0.167 HD
ATOM     62  C   UNL A   1      44.833  27.831  29.661  1.00  0.00     0.074 A 
ATOM     63  C   UNL A   1      44.477  26.732  30.555  1.00  0.00     0.031 C 
ATOM     64  C   UNL A   1      45.185  29.126  29.907  1.00  0.00     0.037 A 
BRANCH  51  65
ATOM     65  C   UNL A   1      44.034  27.831  35.038  1.00  0.00     0.064 A 
ATOM     66  C   UNL A   1      43.810  26.478  34.697  1.00  0.00     0.173 A 
ATOM     67  C   UNL A   1      44.408  28.062  36.377  1.00  0.00     0.173 A 
ATOM     68  F   UNL A   1      43.450  26.135  33.451  1.00  0.00    -0.203 F 
ATOM     69  C   UNL A   1      43.850  25.457  35.651  1.00  0.00     0.198 A 
ATOM     70  C   UNL A   1      44.499  27.033  37.314  1.00  0.00     0.198 A 
ATOM     71  F   UNL A   1      44.589  29.296  36.863  1.00  0.00    -0.203 F 
ATOM     72  F   UNL A   1      43.489  24.213  35.310  1.00  0.00    -0.200 F 
ATOM     73  C   UNL A   1      44.183  25.737  36.962  1.00  0.00     0.200 A 
ATOM     74  F   UNL A   1      44.812  27.326  38.584  1.00  0.00    -0.200 F 
ATOM     75  F   UNL A   1      44.152  24.776  37.893  1.00  0.00    -0.200 F 
ENDBRANCH  51  65
BRANCH  52  76
ATOM     76  C   UNL A   1      41.986  25.049  27.135  1.00  0.00     0.064 A 
ATOM     77  C   UNL A   1      42.814  24.659  26.068  1.00  0.00     0.173 A 
ATOM     78  C   UNL A   1      41.048  24.092  27.573  1.00  0.00     0.173 A 
ATOM     79  F   UNL A   1      43.761  25.490  25.609  1.00  0.00    -0.203 F 
ATOM     80  C   UNL A   1      42.733  23.383  25.501  1.00  0.00     0.198 A 
ATOM     81  C   UNL A   1      40.960  22.824  26.998  1.00  0.00     0.198 A 
ATOM     82  F   UNL A   1      40.261  24.331  28.631  1.00  0.00    -0.203 F 
ATOM     83  F   UNL A   1      43.589  23.027  24.533  1.00  0.00    -0.200 F 
ATOM     84  C   UNL A   1      41.813  22.462  25.973  1.00  0.00     0.200 A 
ATOM     85  F   UNL A   1      40.083  21.934  27.485  1.00  0.00    -0.200 F 
ATOM     86  F   UNL A   1      41.777  21.220  25.473  1.00  0.00    -0.200 F 
ENDBRANCH  52  76
BRANCH  64  87
ATOM     87  C   UNL A   1      45.340  30.053  28.736  1.00  0.00     0.064 A 
ATOM     88  C   UNL A   1      44.288  30.799  28.175  1.00  0.00     0.173 A 
ATOM     89  C   UNL A   1      46.635  30.313  28.265  1.00  0.00     0.173 A 
ATOM     90  F   UNL A   1      43.038  30.688  28.639  1.00  0.00    -0.203 F 
ATOM     91  C   UNL A   1      44.519  31.724  27.161  1.00  0.00     0.198 A 
ATOM     92  C   UNL A   1      46.867  31.268  27.280  1.00  0.00     0.198 A 
ATOM     93  F   UNL A   1      47.686  29.675  28.803  1.00  0.00    -0.203 F 
ATOM     94  F   UNL A   1      43.494  32.413  26.635  1.00  0.00    -0.200 F 
ATOM     95  C   UNL A   1      45.809  31.965  26.720  1.00  0.00     0.200 A 
ATOM     96  F   UNL A   1      48.122  31.535  26.895  1.00  0.00    -0.200 F 
ATOM     97  F   UNL A   1      46.036  32.889  25.777  1.00  0.00    -0.200 F 
ENDBRANCH  64  87
ENDBRANCH  38  39
ENDBRANCH  30  33
ENDBRANCH  28  29
ENDBRANCH  27  28
ENDBRANCH   1  27
TORSDOF 14
ENDMDL
MODEL 3
REMARK VINA RESULT:     -12.4      1.536      3.146
REMARK SMILES Cc1nsc(NC(=O)C2([NH3+])CCCCC2)c1C(=O)NCCCCNC(=O)c1ccc(-c2c3nc(c(-c4c(F)c(F)c(F)c(F)c4F)c4ccc([nH]4)c(-c4c(F)c(F)c(F)c(F)c4F)c4nc(c(-c5c(F)c(F)c(F)c(F)c5F)c5ccc2[nH]5)C=C4)C=C3)cc1
REMARK SMILES IDX 21 1 20 2 19 3 17 4 18 5 16 7 1 8 2 9 3 10 4 11 5 12 6 13
REMARK SMILES IDX 7 14 8 16 9 17 11 18 15 19 12 20 14 21 13 22 10 23 22 27
REMARK SMILES IDX 23 28 24 29 25 30 26 32 27 33 28 34 89 35 29 36 88 37 30 38
REMARK SMILES IDX 31 39 32 40 82 41 33 42 87 43 81 44 83 45 34 46 86 47 80 48
REMARK SMILES IDX 79 49 35 51 67 52 47 53 66 54 48 55 51 56 65 57 84 58 49 59
REMARK SMILES IDX 50 60 64 62 85 63 52 64 36 65 37 66 45 67 38 68 39 69 43 70
REMARK SMILES IDX 46 71 40 72 41 73 44 74 42 75 68 76 69 77 77 78 70 79 71 80
REMARK SMILES IDX 75 81 78 82 72 83 73 84 76 85 74 86 53 87 54 88 62 89 55 90
REMARK SMILES IDX 56 91 60 92 63 93 57 94 58 95 61 96 59 97
REMARK H PARENT 19 6 6 15 10 24 10 25 10 26 24 31 83 50 51 61
REMARK Flexibility Score: inf
ROOT
ATOM      1  C   UNL A   1      38.387  22.848  26.507  1.00  0.00     0.023 C 
ENDROOT
BRANCH   1   2
ATOM      2  C   UNL A   1      37.794  23.949  25.626  1.00  0.00     0.116 C 
BRANCH   2   3
ATOM      3  N   UNL A   1      37.062  23.461  24.487  1.00  0.00    -0.352 N 
ATOM      4  C   UNL A   1      35.749  23.167  24.244  1.00  0.00     0.256 C 
ATOM      5  O   UNL A   1      35.500  23.033  23.038  1.00  0.00    -0.269 OA
ATOM      6  H   UNL A   1      37.639  23.302  23.705  1.00  0.00     0.163 HD
BRANCH   4   7
ATOM      7  C   UNL A   1      34.707  22.888  25.242  1.00  0.00     0.097 A 
ATOM      8  C   UNL A   1      32.697  24.700  25.270  1.00  0.00     0.069 C 
ATOM      9  C   UNL A   1      33.540  23.588  25.786  1.00  0.00     0.066 A 
ATOM     10  N   UNL A   1      33.067  23.096  26.936  1.00  0.00    -0.195 NA
ATOM     11  S   UNL A   1      33.858  21.717  27.296  1.00  0.00    -0.017 S 
ATOM     12  C   UNL A   1      34.672  21.600  25.817  1.00  0.00     0.129 A 
BRANCH  12  13
ATOM     13  N   UNL A   1      35.315  20.442  25.400  1.00  0.00    -0.310 N 
ATOM     14  C   UNL A   1      34.871  19.191  25.028  1.00  0.00     0.286 C 
ATOM     15  H   UNL A   1      36.295  20.535  25.361  1.00  0.00     0.171 HD
ATOM     16  O   UNL A   1      35.747  18.410  24.627  1.00  0.00    -0.267 OA
BRANCH  14  17
ATOM     17  C   UNL A   1      33.357  18.750  25.019  1.00  0.00     0.174 C 
ATOM     18  C   UNL A   1      32.456  19.819  24.350  1.00  0.00     0.079 C 
ATOM     19  C   UNL A   1      33.143  17.368  24.335  1.00  0.00     0.079 C 
ATOM     20  C   UNL A   1      32.510  19.797  22.822  1.00  0.00     0.007 C 
ATOM     21  C   UNL A   1      33.063  17.377  22.808  1.00  0.00     0.007 C 
ATOM     22  C   UNL A   1      32.098  18.435  22.298  1.00  0.00     0.001 C 
BRANCH  17  23
ATOM     23  N   UNL A   1      32.970  18.456  26.422  1.00  0.00    -0.345 N 
ATOM     24  H   UNL A   1      33.462  19.092  27.052  1.00  0.00     0.345 HD
ATOM     25  H   UNL A   1      33.220  17.494  26.649  1.00  0.00     0.345 HD
ATOM     26  H   UNL A   1      31.964  18.580  26.531  1.00  0.00     0.345 HD
ENDBRANCH  17  23
ENDBRANCH  14  17
ENDBRANCH  12  13
ENDBRANCH   4   7
ENDBRANCH   2   3
ENDBRANCH   1   2
BRANCH   1  27
ATOM     27  C   UNL A   1      39.173  21.757  25.774  1.00  0.00     0.023 C 
BRANCH  27  28
ATOM     28  C   UNL A   1      40.398  21.235  26.525  1.00  0.00     0.116 C 
BRANCH  28  29
ATOM     29  N   UNL A   1      41.647  21.463  25.804  1.00  0.00    -0.352 N 
ATOM     30  C   UNL A   1      42.294  22.659  25.569  1.00  0.00     0.251 C 
ATOM     31  H   UNL A   1      42.084  20.660  25.439  1.00  0.00     0.163 HD
ATOM     32  O   UNL A   1      43.103  22.773  24.662  1.00  0.00    -0.269 OA
BRANCH  30  33
ATOM     33  C   UNL A   1      41.998  23.810  26.440  1.00  0.00     0.039 A 
ATOM     34  C   UNL A   1      42.457  23.833  27.759  1.00  0.00     0.014 A 
ATOM     35  C   UNL A   1      41.273  24.879  25.915  1.00  0.00     0.014 A 
ATOM     36  C   UNL A   1      42.272  24.986  28.517  1.00  0.00     0.010 A 
ATOM     37  C   UNL A   1      41.161  26.049  26.636  1.00  0.00     0.010 A 
ATOM     38  C   UNL A   1      41.652  26.106  27.941  1.00  0.00    -0.014 A 
BRANCH  38  39
ATOM     39  C   UNL A   1      41.666  27.387  28.648  1.00  0.00     0.031 A 
ATOM     40  C   UNL A   1      42.787  28.306  28.289  1.00  0.00     0.074 A 
ATOM     41  C   UNL A   1      40.633  27.829  29.396  1.00  0.00     0.049 A 
ATOM     42  N   UNL A   1      43.661  28.834  29.083  1.00  0.00    -0.248 NA
ATOM     43  C   UNL A   1      43.017  28.619  26.869  1.00  0.00     0.031 C 
ATOM     44  C   UNL A   1      39.341  27.178  29.624  1.00  0.00     0.029 A 
ATOM     45  N   UNL A   1      40.481  29.033  30.017  1.00  0.00    -0.354 N 
ATOM     46  C   UNL A   1      44.465  29.660  28.299  1.00  0.00     0.074 A 
ATOM     47  C   UNL A   1      44.103  29.393  26.931  1.00  0.00     0.031 C 
ATOM     48  C   UNL A   1      38.469  28.079  30.124  1.00  0.00     0.029 A 
ATOM     49  C   UNL A   1      39.172  29.324  30.382  1.00  0.00     0.049 A 
ATOM     50  H   UNL A   1      41.232  29.645  30.191  1.00  0.00     0.167 HD
ATOM     51  C   UNL A   1      45.238  30.636  28.858  1.00  0.00     0.037 A 
ATOM     52  C   UNL A   1      38.691  30.512  30.828  1.00  0.00     0.037 A 
ATOM     53  C   UNL A   1      45.403  30.416  30.272  1.00  0.00     0.049 A 
ATOM     54  C   UNL A   1      39.846  31.291  31.338  1.00  0.00     0.074 A 
ATOM     55  C   UNL A   1      45.934  29.395  31.036  1.00  0.00     0.029 A 
ATOM     56  N   UNL A   1      44.665  31.182  31.139  1.00  0.00    -0.354 N 
ATOM     57  N   UNL A   1      40.504  30.983  32.421  1.00  0.00    -0.248 NA
ATOM     58  C   UNL A   1      40.545  32.169  30.411  1.00  0.00     0.031 C 
ATOM     59  C   UNL A   1      45.085  29.313  32.178  1.00  0.00     0.029 A 
ATOM     60  C   UNL A   1      44.136  30.330  32.073  1.00  0.00     0.049 A 
ATOM     61  H   UNL A   1      44.538  32.157  31.099  1.00  0.00     0.167 HD
ATOM     62  C   UNL A   1      41.828  31.237  32.103  1.00  0.00     0.074 A 
ATOM     63  C   UNL A   1      41.782  32.069  30.903  1.00  0.00     0.031 C 
ATOM     64  C   UNL A   1      42.834  30.509  32.667  1.00  0.00     0.037 A 
BRANCH  51  65
ATOM     65  C   UNL A   1      45.565  31.969  28.224  1.00  0.00     0.064 A 
ATOM     66  C   UNL A   1      46.917  32.364  28.119  1.00  0.00     0.173 A 
ATOM     67  C   UNL A   1      44.619  32.992  28.015  1.00  0.00     0.173 A 
ATOM     68  F   UNL A   1      47.907  31.476  28.298  1.00  0.00    -0.203 F 
ATOM     69  C   UNL A   1      47.287  33.699  27.932  1.00  0.00     0.198 A 
ATOM     70  C   UNL A   1      44.992  34.315  27.775  1.00  0.00     0.198 A 
ATOM     71  F   UNL A   1      43.304  32.784  28.147  1.00  0.00    -0.203 F 
ATOM     72  F   UNL A   1      48.580  34.045  27.985  1.00  0.00    -0.200 F 
ATOM     73  C   UNL A   1      46.324  34.675  27.772  1.00  0.00     0.200 A 
ATOM     74  F   UNL A   1      44.043  35.251  27.633  1.00  0.00    -0.200 F 
ATOM     75  F   UNL A   1      46.670  35.964  27.665  1.00  0.00    -0.200 F 
ENDBRANCH  51  65
BRANCH  52  76
ATOM     76  C   UNL A   1      37.339  31.100  30.666  1.00  0.00     0.064 A 
ATOM     77  C   UNL A   1      36.536  31.388  31.784  1.00  0.00     0.173 A 
ATOM     78  C   UNL A   1      36.907  31.639  29.438  1.00  0.00     0.173 A 
ATOM     79  F   UNL A   1      36.888  30.949  33.001  1.00  0.00    -0.203 F 
ATOM     80  C   UNL A   1      35.396  32.192  31.684  1.00  0.00     0.198 A 
ATOM     81  C   UNL A   1      35.763  32.430  29.337  1.00  0.00     0.198 A 
ATOM     82  F   UNL A   1      37.638  31.490  28.324  1.00  0.00    -0.203 F 
ATOM     83  F   UNL A   1      34.698  32.501  32.786  1.00  0.00    -0.200 F 
ATOM     84  C   UNL A   1      35.015  32.722  30.463  1.00  0.00     0.200 A 
ATOM     85  F   UNL A   1      35.424  32.959  28.152  1.00  0.00    -0.200 F 
ATOM     86  F   UNL A   1      33.960  33.542  30.376  1.00  0.00    -0.200 F 
ENDBRANCH  52  76
BRANCH  64  87
ATOM     87  C   UNL A   1      42.501  29.626  33.835  1.00  0.00     0.064 A 
ATOM     88  C   UNL A   1      41.945  28.340  33.718  1.00  0.00     0.173 A 
ATOM     89  C   UNL A   1      42.907  30.038  35.112  1.00  0.00     0.173 A 
ATOM     90  F   UNL A   1      41.627  27.829  32.523  1.00  0.00    -0.203 F 
ATOM     91  C   UNL A   1      41.762  27.527  34.835  1.00  0.00     0.198 A 
ATOM     92  C   UNL A   1      42.761  29.207  36.219  1.00  0.00     0.198 A 
ATOM     93  F   UNL A   1      43.499  31.231  35.277  1.00  0.00    -0.203 F 
ATOM     94  F   UNL A   1      41.217  26.309  34.696  1.00  0.00    -0.200 F 
ATOM     95  C   UNL A   1      42.179  27.958  36.083  1.00  0.00     0.200 A 
ATOM     96  F   UNL A   1      43.214  29.608  37.415  1.00  0.00    -0.200 F 
ATOM     97  F   UNL A   1      42.045  27.158  37.149  1.00  0.00    -0.200 F 
ENDBRANCH  64  87
ENDBRANCH  38  39
ENDBRANCH  30  33
ENDBRANCH  28  29
ENDBRANCH  27  28
ENDBRANCH   1  27
TORSDOF 14
ENDMDL
