MODEL 1
REMARK VINA RESULT:     -12.0      0.000      0.000
REMARK SMILES C[N@H+]1CCO[C@@H](C[N@H+]2CCCC[C@@H]2CCC(=O)NCCCCNC(=O)c2ccc(-c3c4nc(c(-c5c(F)c(F)c(F)c(F)c5F)c5ccc([nH]5)c(-c5c(F)c(F)c(F)c(F)c5F)c5nc(c(-c6c(F)c(F)c(F)c(F)c6F)c6ccc3[nH]6)C=C5)C=C4)cc2)C1
REMARK SMILES IDX 19 1 18 2 16 3 17 4 15 6 14 7 13 8 8 9 9 10 10 12 12 13
REMARK SMILES IDX 11 14 7 15 6 16 1 17 2 18 3 19 89 20 4 22 5 23 20 24 21 25
REMARK SMILES IDX 22 26 23 27 24 28 25 30 26 31 27 32 88 33 28 34 87 35 29 36
REMARK SMILES IDX 30 37 31 38 81 39 32 40 86 41 80 42 82 43 33 44 85 45 79 46
REMARK SMILES IDX 78 47 34 49 66 50 46 51 65 52 47 53 50 54 64 55 83 56 48 57
REMARK SMILES IDX 49 58 63 60 84 61 51 62 35 63 36 64 44 65 37 66 38 67 42 68
REMARK SMILES IDX 45 69 39 70 40 71 43 72 41 73 67 74 68 75 76 76 69 77 70 78
REMARK SMILES IDX 74 79 77 80 71 81 72 82 75 83 73 84 52 85 53 86 61 87 54 88
REMARK SMILES IDX 55 89 59 90 62 91 56 92 57 93 60 94 58 95
REMARK H PARENT 18 5 8 11 2 21 23 29 82 48 50 59
REMARK Flexibility Score: inf
ROOT
ATOM      1  C   UNL A   1      33.721  27.958  25.817  1.00  0.00     0.116 C 
ENDROOT
BRANCH   1   2
ATOM      2  N   UNL A   1      33.379  27.331  24.556  1.00  0.00    -0.356 N 
ATOM      3  C   UNL A   1      33.699  26.092  24.087  1.00  0.00     0.220 C 
ATOM      4  O   UNL A   1      33.393  25.812  22.927  1.00  0.00    -0.275 OA
ATOM      5  H   UNL A   1      32.835  27.883  23.947  1.00  0.00     0.163 HD
BRANCH   3   6
ATOM      6  C   UNL A   1      34.400  25.078  24.978  1.00  0.00     0.106 C 
BRANCH   6   7
ATOM      7  C   UNL A   1      33.712  23.706  24.993  1.00  0.00     0.075 C 
BRANCH   7   8
ATOM      8  C   UNL A   1      34.445  22.627  24.158  1.00  0.00     0.184 C 
ATOM      9  N   UNL A   1      34.465  21.361  24.886  1.00  0.00    -0.330 N 
ATOM     10  C   UNL A   1      35.432  21.263  25.968  1.00  0.00     0.262 C 
ATOM     11  H   UNL A   1      33.600  21.433  25.422  1.00  0.00     0.348 HD
ATOM     12  C   UNL A   1      36.847  21.699  25.596  1.00  0.00     0.062 C 
ATOM     13  C   UNL A   1      35.851  23.037  23.696  1.00  0.00     0.065 C 
ATOM     14  C   UNL A   1      36.884  23.006  24.812  1.00  0.00     0.012 C 
BRANCH   9  15
ATOM     15  C   UNL A   1      34.098  20.140  24.163  1.00  0.00     0.300 C 
BRANCH  15  16
ATOM     16  C   UNL A   1      32.642  19.600  24.212  1.00  0.00     0.228 C 
ATOM     17  C   UNL A   1      34.105  16.878  23.235  1.00  0.00     0.332 C 
ATOM     18  N   UNL A   1      32.696  17.131  23.503  1.00  0.00    -0.333 N 
ATOM     19  C   UNL A   1      32.324  16.820  24.895  1.00  0.00     0.290 C 
ATOM     20  C   UNL A   1      32.261  18.503  23.199  1.00  0.00     0.300 C 
ATOM     21  H   UNL A   1      32.212  16.499  22.864  1.00  0.00     0.348 HD
ATOM     22  C   UNL A   1      32.757  17.898  25.906  1.00  0.00     0.222 C 
ATOM     23  O   UNL A   1      32.285  19.207  25.559  1.00  0.00    -0.361 OA
ENDBRANCH  15  16
ENDBRANCH   9  15
ENDBRANCH   7   8
ENDBRANCH   6   7
ENDBRANCH   3   6
ENDBRANCH   1   2
BRANCH   1  24
ATOM     24  C   UNL A   1      32.500  28.032  26.732  1.00  0.00     0.023 C 
BRANCH  24  25
ATOM     25  C   UNL A   1      31.880  29.411  26.885  1.00  0.00     0.023 C 
BRANCH  25  26
ATOM     26  C   UNL A   1      32.712  30.515  26.249  1.00  0.00     0.116 C 
BRANCH  26  27
ATOM     27  N   UNL A   1      32.542  31.832  26.849  1.00  0.00    -0.352 N 
ATOM     28  C   UNL A   1      33.450  32.539  27.612  1.00  0.00     0.251 C 
ATOM     29  H   UNL A   1      31.676  32.271  26.692  1.00  0.00     0.163 HD
ATOM     30  O   UNL A   1      33.176  33.648  28.065  1.00  0.00    -0.269 OA
BRANCH  28  31
ATOM     31  C   UNL A   1      34.730  31.895  27.970  1.00  0.00     0.039 A 
ATOM     32  C   UNL A   1      35.863  32.704  28.080  1.00  0.00     0.014 A 
ATOM     33  C   UNL A   1      34.788  30.546  28.321  1.00  0.00     0.014 A 
ATOM     34  C   UNL A   1      37.027  32.183  28.645  1.00  0.00     0.010 A 
ATOM     35  C   UNL A   1      35.912  30.059  28.978  1.00  0.00     0.010 A 
ATOM     36  C   UNL A   1      37.040  30.874  29.154  1.00  0.00    -0.014 A 
BRANCH  36  37
ATOM     37  C   UNL A   1      38.219  30.352  29.886  1.00  0.00     0.031 A 
ATOM     38  C   UNL A   1      38.470  30.766  31.309  1.00  0.00     0.074 A 
ATOM     39  C   UNL A   1      39.100  29.554  29.249  1.00  0.00     0.049 A 
ATOM     40  N   UNL A   1      39.460  30.446  32.102  1.00  0.00    -0.248 NA
ATOM     41  C   UNL A   1      37.499  31.696  31.907  1.00  0.00     0.031 C 
ATOM     42  C   UNL A   1      39.015  29.149  27.843  1.00  0.00     0.029 A 
ATOM     43  N   UNL A   1      40.244  28.943  29.698  1.00  0.00    -0.354 N 
ATOM     44  C   UNL A   1      39.243  31.152  33.278  1.00  0.00     0.074 A 
ATOM     45  C   UNL A   1      38.065  31.966  33.074  1.00  0.00     0.031 C 
ATOM     46  C   UNL A   1      40.035  28.324  27.559  1.00  0.00     0.029 A 
ATOM     47  C   UNL A   1      40.862  28.163  28.751  1.00  0.00     0.049 A 
ATOM     48  H   UNL A   1      40.587  29.052  30.615  1.00  0.00     0.167 HD
ATOM     49  C   UNL A   1      39.941  31.100  34.436  1.00  0.00     0.037 A 
ATOM     50  C   UNL A   1      41.964  27.396  28.840  1.00  0.00     0.037 A 
ATOM     51  C   UNL A   1      41.082  30.253  34.652  1.00  0.00     0.049 A 
ATOM     52  C   UNL A   1      42.691  27.312  30.155  1.00  0.00     0.074 A 
ATOM     53  C   UNL A   1      41.813  30.066  35.810  1.00  0.00     0.029 A 
ATOM     54  N   UNL A   1      41.654  29.441  33.682  1.00  0.00    -0.354 N 
ATOM     55  N   UNL A   1      42.426  27.919  31.287  1.00  0.00    -0.248 NA
ATOM     56  C   UNL A   1      43.863  26.428  30.207  1.00  0.00     0.031 C 
ATOM     57  C   UNL A   1      42.846  29.164  35.534  1.00  0.00     0.029 A 
ATOM     58  C   UNL A   1      42.735  28.759  34.213  1.00  0.00     0.049 A 
ATOM     59  H   UNL A   1      41.336  29.361  32.753  1.00  0.00     0.167 HD
ATOM     60  C   UNL A   1      43.382  27.476  32.190  1.00  0.00     0.074 A 
ATOM     61  C   UNL A   1      44.220  26.532  31.480  1.00  0.00     0.031 C 
ATOM     62  C   UNL A   1      43.552  27.821  33.489  1.00  0.00     0.037 A 
BRANCH  49  63
ATOM     63  C   UNL A   1      39.472  31.973  35.561  1.00  0.00     0.064 A 
ATOM     64  C   UNL A   1      38.542  31.513  36.507  1.00  0.00     0.173 A 
ATOM     65  C   UNL A   1      39.967  33.277  35.707  1.00  0.00     0.173 A 
ATOM     66  F   UNL A   1      38.027  30.280  36.403  1.00  0.00    -0.203 F 
ATOM     67  C   UNL A   1      38.098  32.341  37.536  1.00  0.00     0.198 A 
ATOM     68  C   UNL A   1      39.543  34.091  36.756  1.00  0.00     0.198 A 
ATOM     69  F   UNL A   1      40.859  33.764  34.832  1.00  0.00    -0.203 F 
ATOM     70  F   UNL A   1      37.166  31.898  38.393  1.00  0.00    -0.200 F 
ATOM     71  C   UNL A   1      38.603  33.625  37.663  1.00  0.00     0.200 A 
ATOM     72  F   UNL A   1      40.038  35.329  36.882  1.00  0.00    -0.200 F 
ATOM     73  F   UNL A   1      38.176  34.418  38.655  1.00  0.00    -0.200 F 
ENDBRANCH  49  63
BRANCH  50  74
ATOM     74  C   UNL A   1      42.417  26.604  27.668  1.00  0.00     0.064 A 
ATOM     75  C   UNL A   1      41.870  25.339  27.405  1.00  0.00     0.173 A 
ATOM     76  C   UNL A   1      43.401  27.085  26.794  1.00  0.00     0.173 A 
ATOM     77  F   UNL A   1      40.940  24.829  28.225  1.00  0.00    -0.203 F 
ATOM     78  C   UNL A   1      42.305  24.578  26.322  1.00  0.00     0.198 A 
ATOM     79  C   UNL A   1      43.818  26.333  25.697  1.00  0.00     0.198 A 
ATOM     80  F   UNL A   1      43.951  28.291  26.999  1.00  0.00    -0.203 F 
ATOM     81  F   UNL A   1      41.797  23.355  26.118  1.00  0.00    -0.200 F 
ATOM     82  C   UNL A   1      43.276  25.078  25.467  1.00  0.00     0.200 A 
ATOM     83  F   UNL A   1      44.747  26.823  24.865  1.00  0.00    -0.200 F 
ATOM     84  F   UNL A   1      43.693  24.345  24.425  1.00  0.00    -0.200 F 
ENDBRANCH  50  74
BRANCH  62  85
ATOM     85  C   UNL A   1      44.674  27.156  34.229  1.00  0.00     0.064 A 
ATOM     86  C   UNL A   1      45.953  27.730  34.292  1.00  0.00     0.173 A 
ATOM     87  C   UNL A   1      44.459  25.949  34.911  1.00  0.00     0.173 A 
ATOM     88  F   UNL A   1      46.209  28.876  33.642  1.00  0.00    -0.203 F 
ATOM     89  C   UNL A   1      46.982  27.104  34.988  1.00  0.00     0.198 A 
ATOM     90  C   UNL A   1      45.484  25.341  35.629  1.00  0.00     0.198 A 
ATOM     91  F   UNL A   1      43.252  25.364  34.887  1.00  0.00    -0.203 F 
ATOM     92  F   UNL A   1      48.209  27.646  34.995  1.00  0.00    -0.200 F 
ATOM     93  C   UNL A   1      46.746  25.915  35.661  1.00  0.00     0.200 A 
ATOM     94  F   UNL A   1      45.252  24.197  36.288  1.00  0.00    -0.200 F 
ATOM     95  F   UNL A   1      47.738  25.317  36.334  1.00  0.00    -0.200 F 
ENDBRANCH  62  85
ENDBRANCH  36  37
ENDBRANCH  28  31
ENDBRANCH  26  27
ENDBRANCH  25  26
ENDBRANCH  24  25
ENDBRANCH   1  24
TORSDOF 15
ENDMDL
MODEL 2
REMARK VINA RESULT:     -12.0      1.888      3.089
REMARK SMILES C[N@H+]1CCO[C@@H](C[N@H+]2CCCC[C@@H]2CCC(=O)NCCCCNC(=O)c2ccc(-c3c4nc(c(-c5c(F)c(F)c(F)c(F)c5F)c5ccc([nH]5)c(-c5c(F)c(F)c(F)c(F)c5F)c5nc(c(-c6c(F)c(F)c(F)c(F)c6F)c6ccc3[nH]6)C=C5)C=C4)cc2)C1
REMARK SMILES IDX 19 1 18 2 16 3 17 4 15 6 14 7 13 8 8 9 9 10 10 12 12 13
REMARK SMILES IDX 11 14 7 15 6 16 1 17 2 18 3 19 89 20 4 22 5 23 20 24 21 25
REMARK SMILES IDX 22 26 23 27 24 28 25 30 26 31 27 32 88 33 28 34 87 35 29 36
REMARK SMILES IDX 30 37 31 38 81 39 32 40 86 41 80 42 82 43 33 44 85 45 79 46
REMARK SMILES IDX 78 47 34 49 66 50 46 51 65 52 47 53 50 54 64 55 83 56 48 57
REMARK SMILES IDX 49 58 63 60 84 61 51 62 35 63 36 64 44 65 37 66 38 67 42 68
REMARK SMILES IDX 45 69 39 70 40 71 43 72 41 73 67 74 68 75 76 76 69 77 70 78
REMARK SMILES IDX 74 79 77 80 71 81 72 82 75 83 73 84 52 85 53 86 61 87 54 88
REMARK SMILES IDX 55 89 59 90 62 91 56 92 57 93 60 94 58 95
REMARK H PARENT 18 5 8 11 2 21 23 29 82 48 50 59
REMARK Flexibility Score: inf
ROOT
ATOM      1  C   UNL A   1      33.212  30.383  26.838  1.00  0.00     0.116 C 
ENDROOT
BRANCH   1   2
ATOM      2  N   UNL A   1      33.587  29.722  25.604  1.00  0.00    -0.356 N 
ATOM      3  C   UNL A   1      33.703  28.391  25.334  1.00  0.00     0.220 C 
ATOM      4  O   UNL A   1      34.151  28.058  24.236  1.00  0.00    -0.275 OA
ATOM      5  H   UNL A   1      33.786  30.323  24.850  1.00  0.00     0.163 HD
BRANCH   3   6
ATOM      6  C   UNL A   1      33.278  27.348  26.355  1.00  0.00     0.106 C 
BRANCH   6   7
ATOM      7  C   UNL A   1      32.144  26.440  25.858  1.00  0.00     0.075 C 
BRANCH   7   8
ATOM      8  C   UNL A   1      32.564  24.963  25.659  1.00  0.00     0.184 C 
ATOM      9  N   UNL A   1      33.587  24.871  24.620  1.00  0.00    -0.330 N 
ATOM     10  C   UNL A   1      33.114  24.981  23.250  1.00  0.00     0.262 C 
ATOM     11  H   UNL A   1      34.050  25.774  24.725  1.00  0.00     0.348 HD
ATOM     12  C   UNL A   1      31.919  24.091  22.917  1.00  0.00     0.062 C 
ATOM     13  C   UNL A   1      31.394  24.006  25.389  1.00  0.00     0.065 C 
ATOM     14  C   UNL A   1      30.829  24.130  23.982  1.00  0.00     0.012 C 
BRANCH   9  15
ATOM     15  C   UNL A   1      34.776  24.055  24.887  1.00  0.00     0.300 C 
BRANCH  15  16
ATOM     16  C   UNL A   1      35.211  22.945  23.891  1.00  0.00     0.228 C 
ATOM     17  C   UNL A   1      37.863  22.953  25.754  1.00  0.00     0.332 C 
ATOM     18  N   UNL A   1      37.551  22.142  24.586  1.00  0.00    -0.333 N 
ATOM     19  C   UNL A   1      36.904  20.866  24.944  1.00  0.00     0.290 C 
ATOM     20  C   UNL A   1      36.716  22.823  23.584  1.00  0.00     0.300 C 
ATOM     21  H   UNL A   1      38.463  21.963  24.166  1.00  0.00     0.348 HD
ATOM     22  C   UNL A   1      35.412  21.008  25.301  1.00  0.00     0.222 C 
ATOM     23  O   UNL A   1      34.655  21.665  24.275  1.00  0.00    -0.361 OA
ENDBRANCH  15  16
ENDBRANCH   9  15
ENDBRANCH   7   8
ENDBRANCH   6   7
ENDBRANCH   3   6
ENDBRANCH   1   2
BRANCH   1  24
ATOM     24  C   UNL A   1      31.718  30.704  26.847  1.00  0.00     0.023 C 
BRANCH  24  25
ATOM     25  C   UNL A   1      31.365  32.178  26.734  1.00  0.00     0.023 C 
BRANCH  25  26
ATOM     26  C   UNL A   1      32.578  33.092  26.817  1.00  0.00     0.116 C 
BRANCH  26  27
ATOM     27  N   UNL A   1      32.436  34.215  27.736  1.00  0.00    -0.352 N 
ATOM     28  C   UNL A   1      33.283  34.581  28.763  1.00  0.00     0.251 C 
ATOM     29  H   UNL A   1      31.642  34.780  27.609  1.00  0.00     0.163 HD
ATOM     30  O   UNL A   1      33.043  35.555  29.471  1.00  0.00    -0.269 OA
BRANCH  28  31
ATOM     31  C   UNL A   1      34.441  33.716  29.071  1.00  0.00     0.039 A 
ATOM     32  C   UNL A   1      35.717  34.201  28.779  1.00  0.00     0.014 A 
ATOM     33  C   UNL A   1      34.282  32.511  29.755  1.00  0.00     0.014 A 
ATOM     34  C   UNL A   1      36.837  33.528  29.269  1.00  0.00     0.010 A 
ATOM     35  C   UNL A   1      35.390  31.902  30.331  1.00  0.00     0.010 A 
ATOM     36  C   UNL A   1      36.678  32.408  30.101  1.00  0.00    -0.014 A 
BRANCH  36  37
ATOM     37  C   UNL A   1      37.848  31.766  30.749  1.00  0.00     0.031 A 
ATOM     38  C   UNL A   1      38.244  32.153  32.146  1.00  0.00     0.074 A 
ATOM     39  C   UNL A   1      38.592  30.882  30.055  1.00  0.00     0.049 A 
ATOM     40  N   UNL A   1      39.252  31.732  32.866  1.00  0.00    -0.248 NA
ATOM     41  C   UNL A   1      37.422  33.179  32.806  1.00  0.00     0.031 C 
ATOM     42  C   UNL A   1      38.361  30.487  28.662  1.00  0.00     0.029 A 
ATOM     43  N   UNL A   1      39.696  30.155  30.424  1.00  0.00    -0.354 N 
ATOM     44  C   UNL A   1      39.197  32.458  34.049  1.00  0.00     0.074 A 
ATOM     45  C   UNL A   1      38.098  33.389  33.926  1.00  0.00     0.031 C 
ATOM     46  C   UNL A   1      39.268  29.560  28.311  1.00  0.00     0.029 A 
ATOM     47  C   UNL A   1      40.159  29.315  29.440  1.00  0.00     0.049 A 
ATOM     48  H   UNL A   1      40.116  30.229  31.312  1.00  0.00     0.167 HD
ATOM     49  C   UNL A   1      39.970  32.334  35.153  1.00  0.00     0.037 A 
ATOM     50  C   UNL A   1      41.180  28.438  29.455  1.00  0.00     0.037 A 
ATOM     51  C   UNL A   1      41.030  31.374  35.291  1.00  0.00     0.049 A 
ATOM     52  C   UNL A   1      41.989  28.280  30.713  1.00  0.00     0.074 A 
ATOM     53  C   UNL A   1      41.822  31.112  36.394  1.00  0.00     0.029 A 
ATOM     54  N   UNL A   1      41.441  30.506  34.289  1.00  0.00    -0.354 N 
ATOM     55  N   UNL A   1      41.873  28.911  31.856  1.00  0.00    -0.248 NA
ATOM     56  C   UNL A   1      43.064  27.279  30.686  1.00  0.00     0.031 C 
ATOM     57  C   UNL A   1      42.733  30.108  36.051  1.00  0.00     0.029 A 
ATOM     58  C   UNL A   1      42.483  29.716  34.745  1.00  0.00     0.049 A 
ATOM     59  H   UNL A   1      41.049  30.460  33.386  1.00  0.00     0.167 HD
ATOM     60  C   UNL A   1      42.842  28.372  32.690  1.00  0.00     0.074 A 
ATOM     61  C   UNL A   1      43.524  27.346  31.928  1.00  0.00     0.031 C 
ATOM     62  C   UNL A   1      43.143  28.698  33.970  1.00  0.00     0.037 A 
BRANCH  49  63
ATOM     63  C   UNL A   1      39.678  33.252  36.303  1.00  0.00     0.064 A 
ATOM     64  C   UNL A   1      38.755  32.905  37.302  1.00  0.00     0.173 A 
ATOM     65  C   UNL A   1      40.338  34.484  36.418  1.00  0.00     0.173 A 
ATOM     66  F   UNL A   1      38.086  31.745  37.229  1.00  0.00    -0.203 F 
ATOM     67  C   UNL A   1      38.477  33.774  38.353  1.00  0.00     0.198 A 
ATOM     68  C   UNL A   1      40.079  35.337  37.488  1.00  0.00     0.198 A 
ATOM     69  F   UNL A   1      41.231  34.863  35.492  1.00  0.00    -0.203 F 
ATOM     70  F   UNL A   1      37.549  33.445  39.264  1.00  0.00    -0.200 F 
ATOM     71  C   UNL A   1      39.142  34.986  38.449  1.00  0.00     0.200 A 
ATOM     72  F   UNL A   1      40.730  36.505  37.584  1.00  0.00    -0.200 F 
ATOM     73  F   UNL A   1      38.875  35.820  39.463  1.00  0.00    -0.200 F 
ENDBRANCH  49  63
BRANCH  50  74
ATOM     74  C   UNL A   1      41.460  27.602  28.259  1.00  0.00     0.064 A 
ATOM     75  C   UNL A   1      42.333  28.054  27.258  1.00  0.00     0.173 A 
ATOM     76  C   UNL A   1      40.865  26.345  28.088  1.00  0.00     0.173 A 
ATOM     77  F   UNL A   1      42.910  29.259  27.370  1.00  0.00    -0.203 F 
ATOM     78  C   UNL A   1      42.584  27.289  26.122  1.00  0.00     0.198 A 
ATOM     79  C   UNL A   1      41.136  25.569  26.962  1.00  0.00     0.198 A 
ATOM     80  F   UNL A   1      40.027  25.866  29.018  1.00  0.00    -0.203 F 
ATOM     81  F   UNL A   1      43.388  27.762  25.161  1.00  0.00    -0.200 F 
ATOM     82  C   UNL A   1      41.988  26.044  25.977  1.00  0.00     0.200 A 
ATOM     83  F   UNL A   1      40.568  24.363  26.829  1.00  0.00    -0.200 F 
ATOM     84  F   UNL A   1      42.231  25.308  24.884  1.00  0.00    -0.200 F 
ENDBRANCH  50  74
BRANCH  62  85
ATOM     85  C   UNL A   1      44.242  27.921  34.632  1.00  0.00     0.064 A 
ATOM     86  C   UNL A   1      43.985  26.719  35.307  1.00  0.00     0.173 A 
ATOM     87  C   UNL A   1      45.570  28.368  34.561  1.00  0.00     0.173 A 
ATOM     88  F   UNL A   1      42.728  26.261  35.414  1.00  0.00    -0.203 F 
ATOM     89  C   UNL A   1      45.016  26.005  35.910  1.00  0.00     0.198 A 
ATOM     90  C   UNL A   1      46.601  27.637  35.142  1.00  0.00     0.198 A 
ATOM     91  F   UNL A   1      45.867  29.508  33.920  1.00  0.00    -0.203 F 
ATOM     92  F   UNL A   1      44.742  24.883  36.591  1.00  0.00    -0.200 F 
ATOM     93  C   UNL A   1      46.323  26.461  35.822  1.00  0.00     0.200 A 
ATOM     94  F   UNL A   1      47.865  28.072  35.047  1.00  0.00    -0.200 F 
ATOM     95  F   UNL A   1      47.315  25.769  36.400  1.00  0.00    -0.200 F 
ENDBRANCH  62  85
ENDBRANCH  36  37
ENDBRANCH  28  31
ENDBRANCH  26  27
ENDBRANCH  25  26
ENDBRANCH  24  25
ENDBRANCH   1  24
TORSDOF 15
ENDMDL
MODEL 3
REMARK VINA RESULT:     -12.0      1.898      3.110
REMARK SMILES C[N@H+]1CCO[C@@H](C[N@H+]2CCCC[C@@H]2CCC(=O)NCCCCNC(=O)c2ccc(-c3c4nc(c(-c5c(F)c(F)c(F)c(F)c5F)c5ccc([nH]5)c(-c5c(F)c(F)c(F)c(F)c5F)c5nc(c(-c6c(F)c(F)c(F)c(F)c6F)c6ccc3[nH]6)C=C5)C=C4)cc2)C1
REMARK SMILES IDX 19 1 18 2 16 3 17 4 15 6 14 7 13 8 8 9 9 10 10 12 12 13
REMARK SMILES IDX 11 14 7 15 6 16 1 17 2 18 3 19 89 20 4 22 5 23 20 24 21 25
REMARK SMILES IDX 22 26 23 27 24 28 25 30 26 31 27 32 88 33 28 34 87 35 29 36
REMARK SMILES IDX 30 37 31 38 81 39 32 40 86 41 80 42 82 43 33 44 85 45 79 46
REMARK SMILES IDX 78 47 34 49 66 50 46 51 65 52 47 53 50 54 64 55 83 56 48 57
REMARK SMILES IDX 49 58 63 60 84 61 51 62 35 63 36 64 44 65 37 66 38 67 42 68
REMARK SMILES IDX 45 69 39 70 40 71 43 72 41 73 67 74 68 75 76 76 69 77 70 78
REMARK SMILES IDX 74 79 77 80 71 81 72 82 75 83 73 84 52 85 53 86 61 87 54 88
REMARK SMILES IDX 55 89 59 90 62 91 56 92 57 93 60 94 58 95
REMARK H PARENT 18 5 8 11 2 21 23 29 82 48 50 59
REMARK Flexibility Score: inf
ROOT
ATOM      1  C   UNL A   1      33.301  30.409  26.822  1.00  0.00     0.116 C 
ENDROOT
BRANCH   1   2
ATOM      2  N   UNL A   1      33.661  29.677  25.625  1.00  0.00    -0.356 N 
ATOM      3  C   UNL A   1      33.721  28.331  25.416  1.00  0.00     0.220 C 
ATOM      4  O   UNL A   1      34.168  27.930  24.340  1.00  0.00    -0.275 OA
ATOM      5  H   UNL A   1      33.897  30.234  24.847  1.00  0.00     0.163 HD
BRANCH   3   6
ATOM      6  C   UNL A   1      33.236  27.355  26.475  1.00  0.00     0.106 C 
BRANCH   6   7
ATOM      7  C   UNL A   1      31.957  26.608  26.072  1.00  0.00     0.075 C 
BRANCH   7   8
ATOM      8  C   UNL A   1      32.152  25.082  25.890  1.00  0.00     0.184 C 
ATOM      9  N   UNL A   1      33.188  24.827  24.892  1.00  0.00    -0.330 N 
ATOM     10  C   UNL A   1      32.790  24.999  23.504  1.00  0.00     0.262 C 
ATOM     11  H   UNL A   1      33.780  25.648  25.014  1.00  0.00     0.348 HD
ATOM     12  C   UNL A   1      31.486  24.301  23.126  1.00  0.00     0.062 C 
ATOM     13  C   UNL A   1      30.860  24.315  25.576  1.00  0.00     0.065 C 
ATOM     14  C   UNL A   1      30.374  24.515  24.148  1.00  0.00     0.012 C 
BRANCH   9  15
ATOM     15  C   UNL A   1      34.225  23.840  25.206  1.00  0.00     0.300 C 
BRANCH  15  16
ATOM     16  C   UNL A   1      34.851  22.968  24.082  1.00  0.00     0.228 C 
ATOM     17  C   UNL A   1      37.576  23.657  25.698  1.00  0.00     0.332 C 
ATOM     18  N   UNL A   1      37.385  22.858  24.496  1.00  0.00    -0.333 N 
ATOM     19  C   UNL A   1      37.179  21.430  24.796  1.00  0.00     0.290 C 
ATOM     20  C   UNL A   1      36.284  23.317  23.634  1.00  0.00     0.300 C 
ATOM     21  H   UNL A   1      38.258  22.984  23.983  1.00  0.00     0.348 HD
ATOM     22  C   UNL A   1      35.759  21.101  25.294  1.00  0.00     0.222 C 
ATOM     23  O   UNL A   1      34.736  21.561  24.400  1.00  0.00    -0.361 OA
ENDBRANCH  15  16
ENDBRANCH   9  15
ENDBRANCH   7   8
ENDBRANCH   6   7
ENDBRANCH   3   6
ENDBRANCH   1   2
BRANCH   1  24
ATOM     24  C   UNL A   1      31.791  30.638  26.881  1.00  0.00     0.023 C 
BRANCH  24  25
ATOM     25  C   UNL A   1      31.349  32.093  26.875  1.00  0.00     0.023 C 
BRANCH  25  26
ATOM     26  C   UNL A   1      32.511  33.070  26.780  1.00  0.00     0.116 C 
BRANCH  26  27
ATOM     27  N   UNL A   1      32.421  34.216  27.676  1.00  0.00    -0.352 N 
ATOM     28  C   UNL A   1      33.305  34.585  28.670  1.00  0.00     0.251 C 
ATOM     29  H   UNL A   1      31.636  34.797  27.559  1.00  0.00     0.163 HD
ATOM     30  O   UNL A   1      33.107  35.581  29.363  1.00  0.00    -0.269 OA
BRANCH  28  31
ATOM     31  C   UNL A   1      34.452  33.702  28.965  1.00  0.00     0.039 A 
ATOM     32  C   UNL A   1      35.738  34.202  28.749  1.00  0.00     0.014 A 
ATOM     33  C   UNL A   1      34.269  32.457  29.568  1.00  0.00     0.014 A 
ATOM     34  C   UNL A   1      36.839  33.497  29.237  1.00  0.00     0.010 A 
ATOM     35  C   UNL A   1      35.356  31.811  30.144  1.00  0.00     0.010 A 
ATOM     36  C   UNL A   1      36.651  32.328  29.992  1.00  0.00    -0.014 A 
BRANCH  36  37
ATOM     37  C   UNL A   1      37.798  31.646  30.639  1.00  0.00     0.031 A 
ATOM     38  C   UNL A   1      38.166  31.971  32.059  1.00  0.00     0.074 A 
ATOM     39  C   UNL A   1      38.547  30.780  29.928  1.00  0.00     0.049 A 
ATOM     40  N   UNL A   1      39.152  31.509  32.785  1.00  0.00    -0.248 NA
ATOM     41  C   UNL A   1      37.342  32.981  32.741  1.00  0.00     0.031 C 
ATOM     42  C   UNL A   1      38.344  30.444  28.515  1.00  0.00     0.029 A 
ATOM     43  N   UNL A   1      39.634  30.024  30.292  1.00  0.00    -0.354 N 
ATOM     44  C   UNL A   1      39.077  32.187  33.995  1.00  0.00     0.074 A 
ATOM     45  C   UNL A   1      37.993  33.137  33.884  1.00  0.00     0.031 C 
ATOM     46  C   UNL A   1      39.247  29.520  28.148  1.00  0.00     0.029 A 
ATOM     47  C   UNL A   1      40.109  29.219  29.286  1.00  0.00     0.049 A 
ATOM     48  H   UNL A   1      40.034  30.057  31.192  1.00  0.00     0.167 HD
ATOM     49  C   UNL A   1      39.823  32.009  35.111  1.00  0.00     0.037 A 
ATOM     50  C   UNL A   1      41.118  28.328  29.289  1.00  0.00     0.037 A 
ATOM     51  C   UNL A   1      40.867  31.030  35.234  1.00  0.00     0.049 A 
ATOM     52  C   UNL A   1      41.896  28.109  30.558  1.00  0.00     0.074 A 
ATOM     53  C   UNL A   1      41.630  30.714  36.344  1.00  0.00     0.029 A 
ATOM     54  N   UNL A   1      41.292  30.198  34.207  1.00  0.00    -0.354 N 
ATOM     55  N   UNL A   1      41.761  28.696  31.723  1.00  0.00    -0.248 NA
ATOM     56  C   UNL A   1      42.959  27.096  30.516  1.00  0.00     0.031 C 
ATOM     57  C   UNL A   1      42.536  29.712  35.981  1.00  0.00     0.029 A 
ATOM     58  C   UNL A   1      42.312  29.377  34.655  1.00  0.00     0.049 A 
ATOM     59  H   UNL A   1      40.920  30.192  33.295  1.00  0.00     0.167 HD
ATOM     60  C   UNL A   1      42.703  28.111  32.556  1.00  0.00     0.074 A 
ATOM     61  C   UNL A   1      43.390  27.107  31.770  1.00  0.00     0.031 C 
ATOM     62  C   UNL A   1      42.978  28.381  33.855  1.00  0.00     0.037 A 
BRANCH  49  63
ATOM     63  C   UNL A   1      39.515  32.884  36.289  1.00  0.00     0.064 A 
ATOM     64  C   UNL A   1      40.225  34.071  36.526  1.00  0.00     0.173 A 
ATOM     65  C   UNL A   1      38.491  32.542  37.184  1.00  0.00     0.173 A 
ATOM     66  F   UNL A   1      41.225  34.434  35.709  1.00  0.00    -0.203 F 
ATOM     67  C   UNL A   1      39.944  34.865  37.636  1.00  0.00     0.198 A 
ATOM     68  C   UNL A   1      38.193  33.355  38.275  1.00  0.00     0.198 A 
ATOM     69  F   UNL A   1      37.780  31.419  37.002  1.00  0.00    -0.203 F 
ATOM     70  F   UNL A   1      40.675  35.964  37.872  1.00  0.00    -0.200 F 
ATOM     71  C   UNL A   1      38.925  34.510  38.505  1.00  0.00     0.200 A 
ATOM     72  F   UNL A   1      37.201  33.014  39.110  1.00  0.00    -0.200 F 
ATOM     73  F   UNL A   1      38.655  35.276  39.571  1.00  0.00    -0.200 F 
ENDBRANCH  49  63
BRANCH  50  74
ATOM     74  C   UNL A   1      41.416  27.537  28.067  1.00  0.00     0.064 A 
ATOM     75  C   UNL A   1      40.841  26.273  27.875  1.00  0.00     0.173 A 
ATOM     76  C   UNL A   1      42.279  28.020  27.074  1.00  0.00     0.173 A 
ATOM     77  F   UNL A   1      40.024  25.762  28.808  1.00  0.00    -0.203 F 
ATOM     78  C   UNL A   1      41.133  25.513  26.745  1.00  0.00     0.198 A 
ATOM     79  C   UNL A   1      42.551  27.270  25.932  1.00  0.00     0.198 A 
ATOM     80  F   UNL A   1      42.851  29.226  27.208  1.00  0.00    -0.203 F 
ATOM     81  F   UNL A   1      40.603  24.290  26.606  1.00  0.00    -0.200 F 
ATOM     82  C   UNL A   1      41.985  26.014  25.771  1.00  0.00     0.200 A 
ATOM     83  F   UNL A   1      43.365  27.761  24.988  1.00  0.00    -0.200 F 
ATOM     84  F   UNL A   1      42.264  25.283  24.684  1.00  0.00    -0.200 F 
ENDBRANCH  50  74
BRANCH  62  85
ATOM     85  C   UNL A   1      44.051  27.564  34.510  1.00  0.00     0.064 A 
ATOM     86  C   UNL A   1      43.767  26.332  35.116  1.00  0.00     0.173 A 
ATOM     87  C   UNL A   1      45.383  28.004  34.502  1.00  0.00     0.173 A 
ATOM     88  F   UNL A   1      42.505  25.878  35.162  1.00  0.00    -0.203 F 
ATOM     89  C   UNL A   1      44.775  25.581  35.714  1.00  0.00     0.198 A 
ATOM     90  C   UNL A   1      46.392  27.237  35.077  1.00  0.00     0.198 A 
ATOM     91  F   UNL A   1      45.707  29.173  33.929  1.00  0.00    -0.203 F 
ATOM     92  F   UNL A   1      44.473  24.428  36.329  1.00  0.00    -0.200 F 
ATOM     93  C   UNL A   1      46.086  26.031  35.688  1.00  0.00     0.200 A 
ATOM     94  F   UNL A   1      47.661  27.667  35.042  1.00  0.00    -0.200 F 
ATOM     95  F   UNL A   1      47.055  25.304  36.261  1.00  0.00    -0.200 F 
ENDBRANCH  62  85
ENDBRANCH  36  37
ENDBRANCH  28  31
ENDBRANCH  26  27
ENDBRANCH  25  26
ENDBRANCH  24  25
ENDBRANCH   1  24
TORSDOF 15
ENDMDL
