MODEL 1
REMARK VINA RESULT:     -12.1      0.000      0.000
REMARK SMILES O=C(CC1=c2ccccc2=NC1)NCCCCNC(=O)c1ccc(-c2c3nc(c(-c4c(F)c(F)c(F)c(F)c4F)c4ccc([nH]4)c(-c4c(F)c(F)c(F)c(F)c4F)c4nc(c(-c5c(F)c(F)c(F)c(F)c5F)c5ccc2[nH]5)C=C4)C=C3)cc1
REMARK SMILES IDX 16 1 15 2 14 3 13 4 1 5 2 6 3 8 4 9 5 10 12 11 6 12 10 13
REMARK SMILES IDX 11 14 7 15 9 16 8 17 17 18 18 19 19 20 20 22 21 23 22 24
REMARK SMILES IDX 83 25 23 26 82 27 24 28 25 29 26 30 76 31 27 32 81 33 75 34
REMARK SMILES IDX 77 35 28 36 80 37 74 38 73 39 29 41 61 42 41 43 60 44 42 45
REMARK SMILES IDX 45 46 59 47 78 48 43 49 44 50 58 52 79 53 46 54 30 55 31 56
REMARK SMILES IDX 39 57 32 58 33 59 37 60 40 61 34 62 35 63 38 64 36 65 62 66
REMARK SMILES IDX 63 67 71 68 64 69 65 70 69 71 72 72 66 73 67 74 70 75 68 76
REMARK SMILES IDX 47 77 48 78 56 79 49 80 50 81 54 82 57 83 51 84 52 85 55 86
REMARK SMILES IDX 53 87
REMARK H PARENT 13 7 18 21 77 40 45 51
REMARK Flexibility Score: inf
ROOT
ATOM      1  C   UNL A   1      31.466  32.078  26.660  1.00  0.00     0.023 C 
ENDROOT
BRANCH   1   2
ATOM      2  C   UNL A   1      31.659  30.572  26.468  1.00  0.00     0.023 C 
BRANCH   2   3
ATOM      3  C   UNL A   1      33.013  30.150  25.900  1.00  0.00     0.116 C 
BRANCH   3   4
ATOM      4  N   UNL A   1      32.953  28.870  25.222  1.00  0.00    -0.356 N 
ATOM      5  O   UNL A   1      34.323  27.755  26.697  1.00  0.00    -0.275 OA
ATOM      6  C   UNL A   1      33.612  27.754  25.697  1.00  0.00     0.224 C 
ATOM      7  H   UNL A   1      32.424  28.793  24.396  1.00  0.00     0.163 HD
BRANCH   6   8
ATOM      8  C   UNL A   1      33.365  26.493  24.878  1.00  0.00     0.133 C 
BRANCH   8   9
ATOM      9  C   UNL A   1      32.899  25.383  25.761  1.00  0.00    -0.030 C 
ATOM     10  C   UNL A   1      33.563  24.295  26.140  1.00  0.00     0.001 A 
ATOM     11  C   UNL A   1      31.515  25.377  26.331  1.00  0.00     0.175 C 
ATOM     12  C   UNL A   1      34.874  23.778  25.920  1.00  0.00     0.010 A 
ATOM     13  C   UNL A   1      32.576  23.580  26.967  1.00  0.00     0.065 A 
ATOM     14  N   UNL A   1      31.407  24.128  27.117  1.00  0.00    -0.280 NA
ATOM     15  C   UNL A   1      35.206  22.604  26.482  1.00  0.00     0.001 A 
ATOM     16  C   UNL A   1      33.015  22.294  27.551  1.00  0.00     0.028 A 
ATOM     17  C   UNL A   1      34.261  21.860  27.300  1.00  0.00     0.002 A 
ENDBRANCH   8   9
ENDBRANCH   6   8
ENDBRANCH   3   4
ENDBRANCH   2   3
ENDBRANCH   1   2
BRANCH   1  18
ATOM     18  C   UNL A   1      32.622  32.810  27.334  1.00  0.00     0.116 C 
BRANCH  18  19
ATOM     19  N   UNL A   1      32.310  34.189  27.672  1.00  0.00    -0.352 N 
ATOM     20  C   UNL A   1      32.922  35.027  28.578  1.00  0.00     0.251 C 
ATOM     21  H   UNL A   1      31.551  34.581  27.182  1.00  0.00     0.163 HD
ATOM     22  O   UNL A   1      32.442  36.130  28.819  1.00  0.00    -0.269 OA
BRANCH  20  23
ATOM     23  C   UNL A   1      34.135  34.580  29.299  1.00  0.00     0.039 A 
ATOM     24  C   UNL A   1      35.406  34.745  28.745  1.00  0.00     0.014 A 
ATOM     25  C   UNL A   1      33.992  33.960  30.545  1.00  0.00     0.014 A 
ATOM     26  C   UNL A   1      36.504  34.131  29.342  1.00  0.00     0.010 A 
ATOM     27  C   UNL A   1      35.110  33.413  31.184  1.00  0.00     0.010 A 
ATOM     28  C   UNL A   1      36.365  33.441  30.557  1.00  0.00    -0.014 A 
BRANCH  28  29
ATOM     29  C   UNL A   1      37.537  32.728  31.132  1.00  0.00     0.031 A 
ATOM     30  C   UNL A   1      38.017  33.040  32.524  1.00  0.00     0.074 A 
ATOM     31  C   UNL A   1      38.126  31.744  30.427  1.00  0.00     0.049 A 
ATOM     32  N   UNL A   1      38.984  32.481  33.211  1.00  0.00    -0.248 NA
ATOM     33  C   UNL A   1      37.323  34.119  33.242  1.00  0.00     0.031 C 
ATOM     34  C   UNL A   1      37.744  31.336  29.076  1.00  0.00     0.029 A 
ATOM     35  N   UNL A   1      39.144  30.887  30.761  1.00  0.00    -0.354 N 
ATOM     36  C   UNL A   1      39.020  33.146  34.428  1.00  0.00     0.074 A 
ATOM     37  C   UNL A   1      38.003  34.174  34.378  1.00  0.00     0.031 C 
ATOM     38  C   UNL A   1      38.474  30.267  28.720  1.00  0.00     0.029 A 
ATOM     39  C   UNL A   1      39.409  29.950  29.795  1.00  0.00     0.049 A 
ATOM     40  H   UNL A   1      39.637  30.940  31.612  1.00  0.00     0.167 HD
ATOM     41  C   UNL A   1      39.818  32.911  35.499  1.00  0.00     0.037 A 
ATOM     42  C   UNL A   1      40.305  28.944  29.774  1.00  0.00     0.037 A 
ATOM     43  C   UNL A   1      40.818  31.878  35.560  1.00  0.00     0.049 A 
ATOM     44  C   UNL A   1      41.212  28.736  30.953  1.00  0.00     0.074 A 
ATOM     45  C   UNL A   1      41.660  31.552  36.610  1.00  0.00     0.029 A 
ATOM     46  N   UNL A   1      41.113  31.001  34.526  1.00  0.00    -0.354 N 
ATOM     47  N   UNL A   1      41.237  29.373  32.097  1.00  0.00    -0.248 NA
ATOM     48  C   UNL A   1      42.226  27.681  30.829  1.00  0.00     0.031 C 
ATOM     49  C   UNL A   1      42.490  30.504  36.199  1.00  0.00     0.029 A 
ATOM     50  C   UNL A   1      42.139  30.150  34.906  1.00  0.00     0.049 A 
ATOM     51  H   UNL A   1      40.660  30.987  33.653  1.00  0.00     0.167 HD
ATOM     52  C   UNL A   1      42.261  28.795  32.833  1.00  0.00     0.074 A 
ATOM     53  C   UNL A   1      42.824  27.742  32.011  1.00  0.00     0.031 C 
ATOM     54  C   UNL A   1      42.699  29.115  34.074  1.00  0.00     0.037 A 
BRANCH  41  55
ATOM     55  C   UNL A   1      39.644  33.797  36.699  1.00  0.00     0.064 A 
ATOM     56  C   UNL A   1      40.261  35.054  36.778  1.00  0.00     0.173 A 
ATOM     57  C   UNL A   1      38.820  33.400  37.763  1.00  0.00     0.173 A 
ATOM     58  F   UNL A   1      41.067  35.473  35.791  1.00  0.00    -0.203 F 
ATOM     59  C   UNL A   1      40.078  35.872  37.890  1.00  0.00     0.198 A 
ATOM     60  C   UNL A   1      38.620  34.231  38.863  1.00  0.00     0.198 A 
ATOM     61  F   UNL A   1      38.202  32.210  37.734  1.00  0.00    -0.203 F 
ATOM     62  F   UNL A   1      40.711  37.051  37.962  1.00  0.00    -0.200 F 
ATOM     63  C   UNL A   1      39.254  35.463  38.928  1.00  0.00     0.200 A 
ATOM     64  F   UNL A   1      37.815  33.840  39.860  1.00  0.00    -0.200 F 
ATOM     65  F   UNL A   1      39.076  36.254  39.995  1.00  0.00    -0.200 F 
ENDBRANCH  41  55
BRANCH  42  66
ATOM     66  C   UNL A   1      40.358  28.046  28.594  1.00  0.00     0.064 A 
ATOM     67  C   UNL A   1      41.106  28.395  27.463  1.00  0.00     0.173 A 
ATOM     68  C   UNL A   1      39.712  26.801  28.597  1.00  0.00     0.173 A 
ATOM     69  F   UNL A   1      41.724  29.585  27.410  1.00  0.00    -0.203 F 
ATOM     70  C   UNL A   1      41.215  27.527  26.379  1.00  0.00     0.198 A 
ATOM     71  C   UNL A   1      39.840  25.925  27.522  1.00  0.00     0.198 A 
ATOM     72  F   UNL A   1      38.986  26.424  29.659  1.00  0.00    -0.203 F 
ATOM     73  F   UNL A   1      41.925  27.889  25.303  1.00  0.00    -0.200 F 
ATOM     74  C   UNL A   1      40.591  26.289  26.415  1.00  0.00     0.200 A 
ATOM     75  F   UNL A   1      39.248  24.724  27.565  1.00  0.00    -0.200 F 
ATOM     76  F   UNL A   1      40.714  25.445  25.381  1.00  0.00    -0.200 F 
ENDBRANCH  42  66
BRANCH  54  77
ATOM     77  C   UNL A   1      43.845  28.322  34.628  1.00  0.00     0.064 A 
ATOM     78  C   UNL A   1      45.167  28.776  34.509  1.00  0.00     0.173 A 
ATOM     79  C   UNL A   1      43.616  27.133  35.335  1.00  0.00     0.173 A 
ATOM     80  F   UNL A   1      45.436  29.900  33.829  1.00  0.00    -0.203 F 
ATOM     81  C   UNL A   1      46.220  28.060  35.069  1.00  0.00     0.198 A 
ATOM     82  C   UNL A   1      44.671  26.432  35.914  1.00  0.00     0.198 A 
ATOM     83  F   UNL A   1      42.369  26.662  35.481  1.00  0.00    -0.203 F 
ATOM     84  F   UNL A   1      47.479  28.495  34.920  1.00  0.00    -0.200 F 
ATOM     85  C   UNL A   1      45.971  26.893  35.778  1.00  0.00     0.200 A 
ATOM     86  F   UNL A   1      44.427  25.312  36.607  1.00  0.00    -0.200 F 
ATOM     87  F   UNL A   1      46.985  26.212  36.327  1.00  0.00    -0.200 F 
ENDBRANCH  54  77
ENDBRANCH  28  29
ENDBRANCH  20  23
ENDBRANCH  18  19
ENDBRANCH   1  18
TORSDOF 12
ENDMDL
MODEL 2
REMARK VINA RESULT:     -12.0      0.886      2.028
REMARK SMILES O=C(CC1=c2ccccc2=NC1)NCCCCNC(=O)c1ccc(-c2c3nc(c(-c4c(F)c(F)c(F)c(F)c4F)c4ccc([nH]4)c(-c4c(F)c(F)c(F)c(F)c4F)c4nc(c(-c5c(F)c(F)c(F)c(F)c5F)c5ccc2[nH]5)C=C4)C=C3)cc1
REMARK SMILES IDX 16 1 15 2 14 3 13 4 1 5 2 6 3 8 4 9 5 10 12 11 6 12 10 13
REMARK SMILES IDX 11 14 7 15 9 16 8 17 17 18 18 19 19 20 20 22 21 23 22 24
REMARK SMILES IDX 83 25 23 26 82 27 24 28 25 29 26 30 76 31 27 32 81 33 75 34
REMARK SMILES IDX 77 35 28 36 80 37 74 38 73 39 29 41 61 42 41 43 60 44 42 45
REMARK SMILES IDX 45 46 59 47 78 48 43 49 44 50 58 52 79 53 46 54 30 55 31 56
REMARK SMILES IDX 39 57 32 58 33 59 37 60 40 61 34 62 35 63 38 64 36 65 62 66
REMARK SMILES IDX 63 67 71 68 64 69 65 70 69 71 72 72 66 73 67 74 70 75 68 76
REMARK SMILES IDX 47 77 48 78 56 79 49 80 50 81 54 82 57 83 51 84 52 85 55 86
REMARK SMILES IDX 53 87
REMARK H PARENT 13 7 18 21 77 40 45 51
REMARK Flexibility Score: inf
ROOT
ATOM      1  C   UNL A   1      31.625  31.863  26.643  1.00  0.00     0.023 C 
ENDROOT
BRANCH   1   2
ATOM      2  C   UNL A   1      31.754  30.340  26.716  1.00  0.00     0.023 C 
BRANCH   2   3
ATOM      3  C   UNL A   1      32.221  29.657  25.431  1.00  0.00     0.116 C 
BRANCH   3   4
ATOM      4  N   UNL A   1      32.151  28.212  25.516  1.00  0.00    -0.356 N 
ATOM      5  O   UNL A   1      34.357  27.901  26.092  1.00  0.00    -0.275 OA
ATOM      6  C   UNL A   1      33.243  27.441  25.863  1.00  0.00     0.224 C 
ATOM      7  H   UNL A   1      31.297  27.764  25.321  1.00  0.00     0.163 HD
BRANCH   6   8
ATOM      8  C   UNL A   1      32.943  25.951  25.963  1.00  0.00     0.133 C 
BRANCH   8   9
ATOM      9  C   UNL A   1      33.635  25.207  24.870  1.00  0.00    -0.030 C 
ATOM     10  C   UNL A   1      34.738  24.468  24.943  1.00  0.00     0.001 A 
ATOM     11  C   UNL A   1      33.124  25.246  23.464  1.00  0.00     0.175 C 
ATOM     12  C   UNL A   1      35.632  24.080  25.985  1.00  0.00     0.010 A 
ATOM     13  C   UNL A   1      34.932  24.030  23.550  1.00  0.00     0.065 A 
ATOM     14  N   UNL A   1      34.066  24.428  22.667  1.00  0.00    -0.280 NA
ATOM     15  C   UNL A   1      36.680  23.299  25.676  1.00  0.00     0.001 A 
ATOM     16  C   UNL A   1      36.109  23.173  23.288  1.00  0.00     0.028 A 
ATOM     17  C   UNL A   1      36.915  22.848  24.313  1.00  0.00     0.002 A 
ENDBRANCH   8   9
ENDBRANCH   6   8
ENDBRANCH   3   4
ENDBRANCH   2   3
ENDBRANCH   1   2
BRANCH   1  18
ATOM     18  C   UNL A   1      32.772  32.652  27.265  1.00  0.00     0.116 C 
BRANCH  18  19
ATOM     19  N   UNL A   1      32.409  34.017  27.611  1.00  0.00    -0.352 N 
ATOM     20  C   UNL A   1      32.974  34.862  28.541  1.00  0.00     0.251 C 
ATOM     21  H   UNL A   1      31.650  34.391  27.109  1.00  0.00     0.163 HD
ATOM     22  O   UNL A   1      32.453  35.947  28.784  1.00  0.00    -0.269 OA
BRANCH  20  23
ATOM     23  C   UNL A   1      34.183  34.444  29.286  1.00  0.00     0.039 A 
ATOM     24  C   UNL A   1      35.459  34.638  28.755  1.00  0.00     0.014 A 
ATOM     25  C   UNL A   1      34.031  33.822  30.529  1.00  0.00     0.014 A 
ATOM     26  C   UNL A   1      36.560  34.050  29.374  1.00  0.00     0.010 A 
ATOM     27  C   UNL A   1      35.149  33.302  31.190  1.00  0.00     0.010 A 
ATOM     28  C   UNL A   1      36.415  33.359  30.587  1.00  0.00    -0.014 A 
BRANCH  28  29
ATOM     29  C   UNL A   1      37.592  32.674  31.184  1.00  0.00     0.031 A 
ATOM     30  C   UNL A   1      38.053  33.015  32.577  1.00  0.00     0.074 A 
ATOM     31  C   UNL A   1      38.204  31.689  30.502  1.00  0.00     0.049 A 
ATOM     32  N   UNL A   1      39.022  32.483  33.281  1.00  0.00    -0.248 NA
ATOM     33  C   UNL A   1      37.334  34.094  33.271  1.00  0.00     0.031 C 
ATOM     34  C   UNL A   1      37.842  31.253  29.153  1.00  0.00     0.029 A 
ATOM     35  N   UNL A   1      39.232  30.853  30.859  1.00  0.00    -0.354 N 
ATOM     36  C   UNL A   1      39.035  33.167  34.489  1.00  0.00     0.074 A 
ATOM     37  C   UNL A   1      38.002  34.178  34.412  1.00  0.00     0.031 C 
ATOM     38  C   UNL A   1      38.593  30.191  28.822  1.00  0.00     0.029 A 
ATOM     39  C   UNL A   1      39.522  29.906  29.910  1.00  0.00     0.049 A 
ATOM     40  H   UNL A   1      39.716  30.928  31.714  1.00  0.00     0.167 HD
ATOM     41  C   UNL A   1      39.825  32.962  35.571  1.00  0.00     0.037 A 
ATOM     42  C   UNL A   1      40.433  28.914  29.915  1.00  0.00     0.037 A 
ATOM     43  C   UNL A   1      40.841  31.947  35.658  1.00  0.00     0.049 A 
ATOM     44  C   UNL A   1      41.332  28.740  31.105  1.00  0.00     0.074 A 
ATOM     45  C   UNL A   1      41.677  31.651  36.722  1.00  0.00     0.029 A 
ATOM     46  N   UNL A   1      41.160  31.059  34.642  1.00  0.00    -0.354 N 
ATOM     47  N   UNL A   1      41.335  29.394  32.240  1.00  0.00    -0.248 NA
ATOM     48  C   UNL A   1      42.363  27.698  31.008  1.00  0.00     0.031 C 
ATOM     49  C   UNL A   1      42.528  30.610  36.335  1.00  0.00     0.029 A 
ATOM     50  C   UNL A   1      42.195  30.230  35.044  1.00  0.00     0.049 A 
ATOM     51  H   UNL A   1      40.717  31.023  33.764  1.00  0.00     0.167 HD
ATOM     52  C   UNL A   1      42.361  28.845  32.994  1.00  0.00     0.074 A 
ATOM     53  C   UNL A   1      42.948  27.788  32.196  1.00  0.00     0.031 C 
ATOM     54  C   UNL A   1      42.781  29.191  34.235  1.00  0.00     0.037 A 
BRANCH  41  55
ATOM     55  C   UNL A   1      39.624  33.864  36.755  1.00  0.00     0.064 A 
ATOM     56  C   UNL A   1      38.823  33.481  37.840  1.00  0.00     0.173 A 
ATOM     57  C   UNL A   1      40.272  35.106  36.821  1.00  0.00     0.173 A 
ATOM     58  F   UNL A   1      38.173  32.308  37.819  1.00  0.00    -0.203 F 
ATOM     59  C   UNL A   1      38.658  34.320  38.940  1.00  0.00     0.198 A 
ATOM     60  C   UNL A   1      40.125  35.932  37.933  1.00  0.00     0.198 A 
ATOM     61  F   UNL A   1      41.055  35.517  35.812  1.00  0.00    -0.203 F 
ATOM     62  F   UNL A   1      37.854  33.952  39.946  1.00  0.00    -0.200 F 
ATOM     63  C   UNL A   1      39.313  35.542  38.987  1.00  0.00     0.200 A 
ATOM     64  F   UNL A   1      40.767  37.107  37.983  1.00  0.00    -0.200 F 
ATOM     65  F   UNL A   1      39.157  36.346  40.048  1.00  0.00    -0.200 F 
ENDBRANCH  41  55
BRANCH  42  66
ATOM     66  C   UNL A   1      40.513  27.999  28.750  1.00  0.00     0.064 A 
ATOM     67  C   UNL A   1      39.781  26.804  28.728  1.00  0.00     0.173 A 
ATOM     68  C   UNL A   1      41.270  28.326  27.616  1.00  0.00     0.173 A 
ATOM     69  F   UNL A   1      39.058  26.443  29.799  1.00  0.00    -0.203 F 
ATOM     70  C   UNL A   1      39.798  25.973  27.611  1.00  0.00     0.198 A 
ATOM     71  C   UNL A   1      41.268  27.506  26.491  1.00  0.00     0.198 A 
ATOM     72  F   UNL A   1      41.985  29.460  27.591  1.00  0.00    -0.203 F 
ATOM     73  F   UNL A   1      39.102  24.829  27.619  1.00  0.00    -0.200 F 
ATOM     74  C   UNL A   1      40.532  26.330  26.489  1.00  0.00     0.200 A 
ATOM     75  F   UNL A   1      41.968  27.860  25.404  1.00  0.00    -0.200 F 
ATOM     76  F   UNL A   1      40.531  25.541  25.406  1.00  0.00    -0.200 F 
ENDBRANCH  42  66
BRANCH  54  77
ATOM     77  C   UNL A   1      43.933  28.426  34.812  1.00  0.00     0.064 A 
ATOM     78  C   UNL A   1      45.252  28.883  34.673  1.00  0.00     0.173 A 
ATOM     79  C   UNL A   1      43.715  27.261  35.563  1.00  0.00     0.173 A 
ATOM     80  F   UNL A   1      45.512  29.983  33.952  1.00  0.00    -0.203 F 
ATOM     81  C   UNL A   1      46.312  28.193  35.254  1.00  0.00     0.198 A 
ATOM     82  C   UNL A   1      44.775  26.588  36.163  1.00  0.00     0.198 A 
ATOM     83  F   UNL A   1      42.470  26.788  35.730  1.00  0.00    -0.203 F 
ATOM     84  F   UNL A   1      47.568  28.631  35.084  1.00  0.00    -0.200 F 
ATOM     85  C   UNL A   1      46.072  27.052  36.006  1.00  0.00     0.200 A 
ATOM     86  F   UNL A   1      44.541  25.492  36.897  1.00  0.00    -0.200 F 
ATOM     87  F   UNL A   1      47.093  26.397  36.575  1.00  0.00    -0.200 F 
ENDBRANCH  54  77
ENDBRANCH  28  29
ENDBRANCH  20  23
ENDBRANCH  18  19
ENDBRANCH   1  18
TORSDOF 12
ENDMDL
MODEL 3
REMARK VINA RESULT:     -12.0      1.719      3.121
REMARK SMILES O=C(CC1=c2ccccc2=NC1)NCCCCNC(=O)c1ccc(-c2c3nc(c(-c4c(F)c(F)c(F)c(F)c4F)c4ccc([nH]4)c(-c4c(F)c(F)c(F)c(F)c4F)c4nc(c(-c5c(F)c(F)c(F)c(F)c5F)c5ccc2[nH]5)C=C4)C=C3)cc1
REMARK SMILES IDX 16 1 15 2 14 3 13 4 1 5 2 6 3 8 4 9 5 10 12 11 6 12 10 13
REMARK SMILES IDX 11 14 7 15 9 16 8 17 17 18 18 19 19 20 20 22 21 23 22 24
REMARK SMILES IDX 83 25 23 26 82 27 24 28 25 29 26 30 76 31 27 32 81 33 75 34
REMARK SMILES IDX 77 35 28 36 80 37 74 38 73 39 29 41 61 42 41 43 60 44 42 45
REMARK SMILES IDX 45 46 59 47 78 48 43 49 44 50 58 52 79 53 46 54 30 55 31 56
REMARK SMILES IDX 39 57 32 58 33 59 37 60 40 61 34 62 35 63 38 64 36 65 62 66
REMARK SMILES IDX 63 67 71 68 64 69 65 70 69 71 72 72 66 73 67 74 70 75 68 76
REMARK SMILES IDX 47 77 48 78 56 79 49 80 50 81 54 82 57 83 51 84 52 85 55 86
REMARK SMILES IDX 53 87
REMARK H PARENT 13 7 18 21 77 40 45 51
REMARK Flexibility Score: inf
ROOT
ATOM      1  C   UNL A   1      31.636  31.939  26.720  1.00  0.00     0.023 C 
ENDROOT
BRANCH   1   2
ATOM      2  C   UNL A   1      31.825  30.420  26.703  1.00  0.00     0.023 C 
BRANCH   2   3
ATOM      3  C   UNL A   1      32.971  29.910  25.830  1.00  0.00     0.116 C 
BRANCH   3   4
ATOM      4  N   UNL A   1      32.499  29.247  24.630  1.00  0.00    -0.356 N 
ATOM      5  O   UNL A   1      33.764  27.344  24.897  1.00  0.00    -0.275 OA
ATOM      6  C   UNL A   1      32.931  27.988  24.267  1.00  0.00     0.224 C 
ATOM      7  H   UNL A   1      31.847  29.710  24.055  1.00  0.00     0.163 HD
BRANCH   6   8
ATOM      8  C   UNL A   1      32.263  27.442  23.012  1.00  0.00     0.133 C 
BRANCH   8   9
ATOM      9  C   UNL A   1      30.778  27.505  23.143  1.00  0.00    -0.030 C 
ATOM     10  C   UNL A   1      29.953  28.468  22.742  1.00  0.00     0.001 A 
ATOM     11  C   UNL A   1      30.014  26.410  23.820  1.00  0.00     0.175 C 
ATOM     12  C   UNL A   1      30.101  29.712  22.060  1.00  0.00     0.010 A 
ATOM     13  C   UNL A   1      28.635  27.973  23.176  1.00  0.00     0.065 A 
ATOM     14  N   UNL A   1      28.594  26.826  23.787  1.00  0.00    -0.280 NA
ATOM     15  C   UNL A   1      29.003  30.448  21.819  1.00  0.00     0.001 A 
ATOM     16  C   UNL A   1      27.475  28.839  22.875  1.00  0.00     0.028 A 
ATOM     17  C   UNL A   1      27.683  30.002  22.235  1.00  0.00     0.002 A 
ENDBRANCH   8   9
ENDBRANCH   6   8
ENDBRANCH   3   4
ENDBRANCH   2   3
ENDBRANCH   1   2
BRANCH   1  18
ATOM     18  C   UNL A   1      32.797  32.741  27.299  1.00  0.00     0.116 C 
BRANCH  18  19
ATOM     19  N   UNL A   1      32.432  34.101  27.661  1.00  0.00    -0.352 N 
ATOM     20  C   UNL A   1      32.990  34.933  28.606  1.00  0.00     0.251 C 
ATOM     21  H   UNL A   1      31.676  34.482  27.159  1.00  0.00     0.163 HD
ATOM     22  O   UNL A   1      32.468  36.015  28.860  1.00  0.00    -0.269 OA
BRANCH  20  23
ATOM     23  C   UNL A   1      34.194  34.505  29.353  1.00  0.00     0.039 A 
ATOM     24  C   UNL A   1      35.476  34.736  28.849  1.00  0.00     0.014 A 
ATOM     25  C   UNL A   1      34.034  33.835  30.570  1.00  0.00     0.014 A 
ATOM     26  C   UNL A   1      36.575  34.141  29.462  1.00  0.00     0.010 A 
ATOM     27  C   UNL A   1      35.149  33.307  31.228  1.00  0.00     0.010 A 
ATOM     28  C   UNL A   1      36.423  33.403  30.647  1.00  0.00    -0.014 A 
BRANCH  28  29
ATOM     29  C   UNL A   1      37.601  32.713  31.237  1.00  0.00     0.031 A 
ATOM     30  C   UNL A   1      38.066  33.045  32.630  1.00  0.00     0.074 A 
ATOM     31  C   UNL A   1      38.210  31.732  30.546  1.00  0.00     0.049 A 
ATOM     32  N   UNL A   1      39.036  32.507  33.328  1.00  0.00    -0.248 NA
ATOM     33  C   UNL A   1      37.350  34.120  33.333  1.00  0.00     0.031 C 
ATOM     34  C   UNL A   1      37.844  31.306  29.195  1.00  0.00     0.029 A 
ATOM     35  N   UNL A   1      39.238  30.893  30.895  1.00  0.00    -0.354 N 
ATOM     36  C   UNL A   1      39.053  33.184  34.540  1.00  0.00     0.074 A 
ATOM     37  C   UNL A   1      38.022  34.196  34.473  1.00  0.00     0.031 C 
ATOM     38  C   UNL A   1      38.592  30.245  28.855  1.00  0.00     0.029 A 
ATOM     39  C   UNL A   1      39.524  29.952  29.939  1.00  0.00     0.049 A 
ATOM     40  H   UNL A   1      39.724  30.962  31.749  1.00  0.00     0.167 HD
ATOM     41  C   UNL A   1      39.846  32.970  35.618  1.00  0.00     0.037 A 
ATOM     42  C   UNL A   1      40.435  28.959  29.934  1.00  0.00     0.037 A 
ATOM     43  C   UNL A   1      40.862  31.954  35.697  1.00  0.00     0.049 A 
ATOM     44  C   UNL A   1      41.337  28.776  31.121  1.00  0.00     0.074 A 
ATOM     45  C   UNL A   1      41.700  31.650  36.756  1.00  0.00     0.029 A 
ATOM     46  N   UNL A   1      41.177  31.072  34.673  1.00  0.00    -0.354 N 
ATOM     47  N   UNL A   1      41.343  29.423  32.260  1.00  0.00    -0.248 NA
ATOM     48  C   UNL A   1      42.367  27.734  31.014  1.00  0.00     0.031 C 
ATOM     49  C   UNL A   1      42.549  30.611  36.359  1.00  0.00     0.029 A 
ATOM     50  C   UNL A   1      42.213  30.239  35.067  1.00  0.00     0.049 A 
ATOM     51  H   UNL A   1      40.731  31.043  33.796  1.00  0.00     0.167 HD
ATOM     52  C   UNL A   1      42.371  28.868  33.008  1.00  0.00     0.074 A 
ATOM     53  C   UNL A   1      42.955  27.816  32.200  1.00  0.00     0.031 C 
ATOM     54  C   UNL A   1      42.794  29.206  34.250  1.00  0.00     0.037 A 
BRANCH  41  55
ATOM     55  C   UNL A   1      39.650  33.864  36.809  1.00  0.00     0.064 A 
ATOM     56  C   UNL A   1      40.234  35.138  36.873  1.00  0.00     0.173 A 
ATOM     57  C   UNL A   1      38.838  33.459  37.878  1.00  0.00     0.173 A 
ATOM     58  F   UNL A   1      41.029  35.567  35.881  1.00  0.00    -0.203 F 
ATOM     59  C   UNL A   1      40.031  35.964  37.976  1.00  0.00     0.198 A 
ATOM     60  C   UNL A   1      38.617  34.296  38.969  1.00  0.00     0.198 A 
ATOM     61  F   UNL A   1      38.252  32.252  37.863  1.00  0.00    -0.203 F 
ATOM     62  F   UNL A   1      40.633  37.159  38.036  1.00  0.00    -0.200 F 
ATOM     63  C   UNL A   1      39.219  35.544  39.020  1.00  0.00     0.200 A 
ATOM     64  F   UNL A   1      37.823  33.895  39.971  1.00  0.00    -0.200 F 
ATOM     65  F   UNL A   1      39.022  36.342  40.079  1.00  0.00    -0.200 F 
ENDBRANCH  41  55
BRANCH  42  66
ATOM     66  C   UNL A   1      40.510  28.052  28.763  1.00  0.00     0.064 A 
ATOM     67  C   UNL A   1      39.787  26.852  28.741  1.00  0.00     0.173 A 
ATOM     68  C   UNL A   1      41.255  28.391  27.625  1.00  0.00     0.173 A 
ATOM     69  F   UNL A   1      39.077  26.479  29.816  1.00  0.00    -0.203 F 
ATOM     70  C   UNL A   1      39.799  26.028  27.618  1.00  0.00     0.198 A 
ATOM     71  C   UNL A   1      41.248  27.578  26.494  1.00  0.00     0.198 A 
ATOM     72  F   UNL A   1      41.960  29.531  27.600  1.00  0.00    -0.203 F 
ATOM     73  F   UNL A   1      39.111  24.879  27.626  1.00  0.00    -0.200 F 
ATOM     74  C   UNL A   1      40.521  26.397  26.492  1.00  0.00     0.200 A 
ATOM     75  F   UNL A   1      41.935  27.944  25.403  1.00  0.00    -0.200 F 
ATOM     76  F   UNL A   1      40.514  25.615  25.404  1.00  0.00    -0.200 F 
ENDBRANCH  42  66
BRANCH  54  77
ATOM     77  C   UNL A   1      43.948  28.435  34.818  1.00  0.00     0.064 A 
ATOM     78  C   UNL A   1      43.748  27.230  35.508  1.00  0.00     0.173 A 
ATOM     79  C   UNL A   1      45.267  28.871  34.620  1.00  0.00     0.173 A 
ATOM     80  F   UNL A   1      42.505  26.781  35.735  1.00  0.00    -0.203 F 
ATOM     81  C   UNL A   1      44.827  26.495  35.989  1.00  0.00     0.198 A 
ATOM     82  C   UNL A   1      46.344  28.120  35.082  1.00  0.00     0.198 A 
ATOM     83  F   UNL A   1      45.509  30.014  33.961  1.00  0.00    -0.203 F 
ATOM     84  F   UNL A   1      44.613  25.361  36.671  1.00  0.00    -0.200 F 
ATOM     85  C   UNL A   1      46.125  26.936  35.769  1.00  0.00     0.200 A 
ATOM     86  F   UNL A   1      47.596  28.542  34.859  1.00  0.00    -0.200 F 
ATOM     87  F   UNL A   1      47.163  26.221  36.222  1.00  0.00    -0.200 F 
ENDBRANCH  54  77
ENDBRANCH  28  29
ENDBRANCH  20  23
ENDBRANCH  18  19
ENDBRANCH   1  18
TORSDOF 12
ENDMDL
