MODEL 1
REMARK VINA RESULT:     -13.7      0.000      0.000
REMARK SMILES O=C(NCCCCNC(=O)[C@@H]1CC2(CCN(C(=O)C3(c4ccccc4F)CC3)CC2)C[NH2+]1)c1ccc(-c2c3nc(c(-c4c(F)c(F)c(F)c(F)c4F)c4ccc([nH]4)c(-c4c(F)c(F)c(F)c(F)c4F)c4nc(c(-c5c(F)c(F)c(F)c(F)c5F)c5ccc2[nH]5)C=C4)C=C3)cc1
REMARK SMILES IDX 5 1 4 2 3 3 1 4 2 5 33 7 34 8 95 9 35 10 94 11 36 12 37 13
REMARK SMILES IDX 38 14 88 15 39 16 93 17 87 18 89 19 40 20 92 21 86 22 85 23
REMARK SMILES IDX 41 25 73 26 53 27 72 28 54 29 57 30 71 31 90 32 55 33 56 34
REMARK SMILES IDX 70 36 91 37 58 38 42 39 43 40 51 41 44 42 45 43 49 44 52 45
REMARK SMILES IDX 46 46 47 47 50 48 48 49 74 50 75 51 83 52 76 53 77 54 81 55
REMARK SMILES IDX 84 56 78 57 79 58 82 59 80 60 59 61 60 62 68 63 61 64 62 65
REMARK SMILES IDX 66 66 69 67 63 68 64 69 67 70 65 71 6 72 7 73 8 74 9 75
REMARK SMILES IDX 10 77 11 78 12 79 32 80 13 81 31 82 14 85 30 86 15 87 29 88
REMARK SMILES IDX 16 89 17 90 18 91 19 92 27 93 28 94 20 95 21 96 25 97 22 98
REMARK SMILES IDX 24 99 26 100 23 101
REMARK H PARENT 3 6 89 24 57 35 8 76 32 83 32 84
REMARK Flexibility Score: inf
ROOT
ATOM      1  C   UNL A   1      31.404  32.254  26.584  1.00  0.00     0.023 C 
ENDROOT
BRANCH   1   2
ATOM      2  C   UNL A   1      32.672  32.860  27.175  1.00  0.00     0.116 C 
BRANCH   2   3
ATOM      3  N   UNL A   1      32.456  34.192  27.712  1.00  0.00    -0.352 N 
ATOM      4  O   UNL A   1      32.679  35.903  29.161  1.00  0.00    -0.269 OA
ATOM      5  C   UNL A   1      33.105  34.836  28.736  1.00  0.00     0.251 C 
ATOM      6  H   UNL A   1      31.739  34.710  27.277  1.00  0.00     0.163 HD
BRANCH   5   7
ATOM      7  C   UNL A   1      34.305  34.226  29.346  1.00  0.00     0.039 A 
ATOM      8  C   UNL A   1      35.589  34.561  28.904  1.00  0.00     0.014 A 
ATOM      9  C   UNL A   1      34.137  33.316  30.394  1.00  0.00     0.014 A 
ATOM     10  C   UNL A   1      36.696  33.898  29.424  1.00  0.00     0.010 A 
ATOM     11  C   UNL A   1      35.255  32.707  30.966  1.00  0.00     0.010 A 
ATOM     12  C   UNL A   1      36.541  32.975  30.469  1.00  0.00    -0.014 A 
BRANCH  12  13
ATOM     13  C   UNL A   1      37.726  32.335  31.089  1.00  0.00     0.031 A 
ATOM     14  C   UNL A   1      38.453  31.224  30.391  1.00  0.00     0.074 A 
ATOM     15  C   UNL A   1      38.117  32.732  32.315  1.00  0.00     0.049 A 
ATOM     16  N   UNL A   1      39.438  30.479  30.825  1.00  0.00    -0.248 NA
ATOM     17  C   UNL A   1      38.011  30.899  29.026  1.00  0.00     0.031 C 
ATOM     18  C   UNL A   1      37.489  33.806  33.085  1.00  0.00     0.029 A 
ATOM     19  N   UNL A   1      39.120  32.276  33.131  1.00  0.00    -0.354 N 
ATOM     20  C   UNL A   1      39.715  29.582  29.804  1.00  0.00     0.074 A 
ATOM     21  C   UNL A   1      38.781  29.860  28.734  1.00  0.00     0.031 C 
ATOM     22  C   UNL A   1      38.127  33.935  34.257  1.00  0.00     0.029 A 
ATOM     23  C   UNL A   1      39.161  32.908  34.349  1.00  0.00     0.049 A 
ATOM     24  H   UNL A   1      39.748  31.565  32.869  1.00  0.00     0.167 HD
ATOM     25  C   UNL A   1      40.665  28.618  29.770  1.00  0.00     0.037 A 
ATOM     26  C   UNL A   1      39.919  32.668  35.436  1.00  0.00     0.037 A 
ATOM     27  C   UNL A   1      41.596  28.363  30.840  1.00  0.00     0.049 A 
ATOM     28  C   UNL A   1      40.929  31.560  35.397  1.00  0.00     0.074 A 
ATOM     29  C   UNL A   1      42.635  27.451  30.875  1.00  0.00     0.029 A 
ATOM     30  N   UNL A   1      41.590  29.011  32.067  1.00  0.00    -0.354 N 
ATOM     31  N   UNL A   1      41.210  30.739  34.414  1.00  0.00    -0.248 NA
ATOM     32  C   UNL A   1      41.723  31.335  36.614  1.00  0.00     0.031 C 
ATOM     33  C   UNL A   1      43.210  27.493  32.147  1.00  0.00     0.029 A 
ATOM     34  C   UNL A   1      42.581  28.487  32.882  1.00  0.00     0.049 A 
ATOM     35  H   UNL A   1      40.975  29.737  32.321  1.00  0.00     0.167 HD
ATOM     36  C   UNL A   1      42.226  29.918  34.880  1.00  0.00     0.074 A 
ATOM     37  C   UNL A   1      42.513  30.336  36.237  1.00  0.00     0.031 C 
ATOM     38  C   UNL A   1      42.863  28.913  34.231  1.00  0.00     0.037 A 
BRANCH  25  39
ATOM     39  C   UNL A   1      40.733  27.737  28.554  1.00  0.00     0.064 A 
ATOM     40  C   UNL A   1      41.495  28.129  27.440  1.00  0.00     0.173 A 
ATOM     41  C   UNL A   1      40.008  26.539  28.461  1.00  0.00     0.173 A 
ATOM     42  F   UNL A   1      42.199  29.269  27.470  1.00  0.00    -0.203 F 
ATOM     43  C   UNL A   1      41.521  27.359  26.281  1.00  0.00     0.198 A 
ATOM     44  C   UNL A   1      40.065  25.754  27.312  1.00  0.00     0.198 A 
ATOM     45  F   UNL A   1      39.269  26.115  29.497  1.00  0.00    -0.203 F 
ATOM     46  F   UNL A   1      42.231  27.771  25.222  1.00  0.00    -0.200 F 
ATOM     47  C   UNL A   1      40.814  26.168  26.220  1.00  0.00     0.200 A 
ATOM     48  F   UNL A   1      39.402  24.591  27.263  1.00  0.00    -0.200 F 
ATOM     49  F   UNL A   1      40.858  25.417  25.111  1.00  0.00    -0.200 F 
ENDBRANCH  25  39
BRANCH  26  50
ATOM     50  C   UNL A   1      39.723  33.517  36.637  1.00  0.00     0.064 A 
ATOM     51  C   UNL A   1      38.828  33.145  37.653  1.00  0.00     0.173 A 
ATOM     52  C   UNL A   1      40.340  34.770  36.736  1.00  0.00     0.173 A 
ATOM     53  F   UNL A   1      38.203  31.959  37.594  1.00  0.00    -0.203 F 
ATOM     54  C   UNL A   1      38.526  34.012  38.699  1.00  0.00     0.198 A 
ATOM     55  C   UNL A   1      40.057  35.626  37.798  1.00  0.00     0.198 A 
ATOM     56  F   UNL A   1      41.213  35.163  35.797  1.00  0.00    -0.203 F 
ATOM     57  F   UNL A   1      37.620  33.658  39.620  1.00  0.00    -0.200 F 
ATOM     58  C   UNL A   1      39.139  35.254  38.769  1.00  0.00     0.200 A 
ATOM     59  F   UNL A   1      40.661  36.821  37.872  1.00  0.00    -0.200 F 
ATOM     60  F   UNL A   1      38.839  36.094  39.768  1.00  0.00    -0.200 F 
ENDBRANCH  26  50
BRANCH  38  61
ATOM     61  C   UNL A   1      43.964  28.191  34.950  1.00  0.00     0.064 A 
ATOM     62  C   UNL A   1      43.671  27.063  35.735  1.00  0.00     0.173 A 
ATOM     63  C   UNL A   1      45.271  28.695  34.985  1.00  0.00     0.173 A 
ATOM     64  F   UNL A   1      42.432  26.548  35.740  1.00  0.00    -0.203 F 
ATOM     65  C   UNL A   1      44.636  26.495  36.560  1.00  0.00     0.198 A 
ATOM     66  C   UNL A   1      46.242  28.104  35.791  1.00  0.00     0.198 A 
ATOM     67  F   UNL A   1      45.604  29.761  34.242  1.00  0.00    -0.203 F 
ATOM     68  F   UNL A   1      44.316  25.457  37.347  1.00  0.00    -0.200 F 
ATOM     69  C   UNL A   1      45.919  27.018  36.591  1.00  0.00     0.200 A 
ATOM     70  F   UNL A   1      47.487  28.599  35.808  1.00  0.00    -0.200 F 
ATOM     71  F   UNL A   1      46.844  26.478  37.397  1.00  0.00    -0.200 F 
ENDBRANCH  38  61
ENDBRANCH  12  13
ENDBRANCH   5   7
ENDBRANCH   2   3
ENDBRANCH   1   2
BRANCH   1  72
ATOM     72  C   UNL A   1      31.408  30.729  26.462  1.00  0.00     0.023 C 
BRANCH  72  73
ATOM     73  C   UNL A   1      32.591  30.146  25.691  1.00  0.00     0.116 C 
BRANCH  73  74
ATOM     74  N   UNL A   1      32.193  29.587  24.412  1.00  0.00    -0.351 N 
ATOM     75  C   UNL A   1      31.455  28.466  24.161  1.00  0.00     0.278 C 
ATOM     76  H   UNL A   1      32.498  30.083  23.618  1.00  0.00     0.163 HD
ATOM     77  O   UNL A   1      31.107  28.252  22.998  1.00  0.00    -0.268 OA
BRANCH  75  78
ATOM     78  C   UNL A   1      31.073  27.538  25.332  1.00  0.00     0.273 C 
ATOM     79  C   UNL A   1      32.150  26.517  25.658  1.00  0.00     0.088 C 
ATOM     80  N   UNL A   1      29.911  26.689  25.011  1.00  0.00    -0.336 N 
ATOM     81  C   UNL A   1      31.876  25.326  24.715  1.00  0.00     0.029 C 
ATOM     82  C   UNL A   1      30.423  25.542  24.254  1.00  0.00     0.268 C 
ATOM     83  H   UNL A   1      29.240  27.211  24.447  1.00  0.00     0.346 HD
ATOM     84  H   UNL A   1      29.433  26.386  25.859  1.00  0.00     0.346 HD
ATOM     85  C   UNL A   1      32.033  23.986  25.455  1.00  0.00     0.034 C 
ATOM     86  C   UNL A   1      32.827  25.323  23.499  1.00  0.00     0.034 C 
ATOM     87  C   UNL A   1      33.488  23.665  25.801  1.00  0.00     0.120 C 
ATOM     88  C   UNL A   1      34.264  24.999  23.892  1.00  0.00     0.120 C 
ATOM     89  N   UNL A   1      34.342  23.729  24.620  1.00  0.00    -0.342 N 
ATOM     90  C   UNL A   1      35.196  22.757  24.086  1.00  0.00     0.233 C 
ATOM     91  O   UNL A   1      35.701  22.965  22.979  1.00  0.00    -0.274 OA
BRANCH  90  92
ATOM     92  C   UNL A   1      35.586  21.438  24.765  1.00  0.00     0.077 C 
ATOM     93  C   UNL A   1      36.982  20.872  25.001  1.00  0.00     0.023 C 
ATOM     94  C   UNL A   1      36.271  21.557  26.124  1.00  0.00     0.023 C 
BRANCH  92  95
ATOM     95  C   UNL A   1      34.519  20.339  24.557  1.00  0.00     0.003 A 
ATOM     96  C   UNL A   1      33.157  20.664  24.411  1.00  0.00     0.008 A 
ATOM     97  C   UNL A   1      34.845  18.975  24.626  1.00  0.00     0.127 A 
ATOM     98  C   UNL A   1      32.172  19.673  24.366  1.00  0.00     0.001 A 
ATOM     99  C   UNL A   1      33.870  17.980  24.604  1.00  0.00     0.039 A 
ATOM    100  F   UNL A   1      36.129  18.606  24.753  1.00  0.00    -0.207 F 
ATOM    101  C   UNL A   1      32.528  18.332  24.479  1.00  0.00     0.003 A 
ENDBRANCH  92  95
ENDBRANCH  90  92
ENDBRANCH  75  78
ENDBRANCH  73  74
ENDBRANCH  72  73
ENDBRANCH   1  72
TORSDOF 13
ENDMDL
MODEL 2
REMARK VINA RESULT:     -13.6      3.393      8.356
REMARK SMILES O=C(NCCCCNC(=O)[C@@H]1CC2(CCN(C(=O)C3(c4ccccc4F)CC3)CC2)C[NH2+]1)c1ccc(-c2c3nc(c(-c4c(F)c(F)c(F)c(F)c4F)c4ccc([nH]4)c(-c4c(F)c(F)c(F)c(F)c4F)c4nc(c(-c5c(F)c(F)c(F)c(F)c5F)c5ccc2[nH]5)C=C4)C=C3)cc1
REMARK SMILES IDX 5 1 4 2 3 3 1 4 2 5 33 7 34 8 95 9 35 10 94 11 36 12 37 13
REMARK SMILES IDX 38 14 88 15 39 16 93 17 87 18 89 19 40 20 92 21 86 22 85 23
REMARK SMILES IDX 41 25 73 26 53 27 72 28 54 29 57 30 71 31 90 32 55 33 56 34
REMARK SMILES IDX 70 36 91 37 58 38 42 39 43 40 51 41 44 42 45 43 49 44 52 45
REMARK SMILES IDX 46 46 47 47 50 48 48 49 74 50 75 51 83 52 76 53 77 54 81 55
REMARK SMILES IDX 84 56 78 57 79 58 82 59 80 60 59 61 60 62 68 63 61 64 62 65
REMARK SMILES IDX 66 66 69 67 63 68 64 69 67 70 65 71 6 72 7 73 8 74 9 75
REMARK SMILES IDX 10 77 11 78 12 79 32 80 13 81 31 82 14 85 30 86 15 87 29 88
REMARK SMILES IDX 16 89 17 90 18 91 19 92 27 93 28 94 20 95 21 96 25 97 22 98
REMARK SMILES IDX 24 99 26 100 23 101
REMARK H PARENT 3 6 89 24 57 35 8 76 32 83 32 84
REMARK Flexibility Score: inf
ROOT
ATOM      1  C   UNL A   1      33.982  28.098  25.469  1.00  0.00     0.023 C 
ENDROOT
BRANCH   1   2
ATOM      2  C   UNL A   1      34.060  28.307  26.977  1.00  0.00     0.116 C 
BRANCH   2   3
ATOM      3  N   UNL A   1      33.816  29.686  27.363  1.00  0.00    -0.352 N 
ATOM      4  O   UNL A   1      34.168  31.624  28.456  1.00  0.00    -0.269 OA
ATOM      5  C   UNL A   1      34.608  30.542  28.087  1.00  0.00     0.251 C 
ATOM      6  H   UNL A   1      32.957  30.061  27.061  1.00  0.00     0.163 HD
BRANCH   5   7
ATOM      7  C   UNL A   1      35.987  30.147  28.444  1.00  0.00     0.039 A 
ATOM      8  C   UNL A   1      37.045  30.328  27.548  1.00  0.00     0.014 A 
ATOM      9  C   UNL A   1      36.222  29.602  29.710  1.00  0.00     0.014 A 
ATOM     10  C   UNL A   1      38.313  29.854  27.868  1.00  0.00     0.010 A 
ATOM     11  C   UNL A   1      37.512  29.196  30.057  1.00  0.00     0.010 A 
ATOM     12  C   UNL A   1      38.562  29.297  29.131  1.00  0.00    -0.014 A 
BRANCH  12  13
ATOM     13  C   UNL A   1      39.932  28.875  29.511  1.00  0.00     0.031 A 
ATOM     14  C   UNL A   1      40.798  29.756  30.361  1.00  0.00     0.074 A 
ATOM     15  C   UNL A   1      40.409  27.707  29.043  1.00  0.00     0.049 A 
ATOM     16  N   UNL A   1      42.052  29.601  30.702  1.00  0.00    -0.248 NA
ATOM     17  C   UNL A   1      40.178  30.980  30.892  1.00  0.00     0.031 C 
ATOM     18  C   UNL A   1      39.655  26.767  28.214  1.00  0.00     0.029 A 
ATOM     19  N   UNL A   1      41.640  27.117  29.184  1.00  0.00    -0.354 N 
ATOM     20  C   UNL A   1      42.380  30.715  31.462  1.00  0.00     0.074 A 
ATOM     21  C   UNL A   1      41.200  31.550  31.517  1.00  0.00     0.031 C 
ATOM     22  C   UNL A   1      40.432  25.713  27.928  1.00  0.00     0.029 A 
ATOM     23  C   UNL A   1      41.759  25.936  28.494  1.00  0.00     0.049 A 
ATOM     24  H   UNL A   1      42.364  27.503  29.726  1.00  0.00     0.167 HD
ATOM     25  C   UNL A   1      43.561  31.005  32.058  1.00  0.00     0.037 A 
ATOM     26  C   UNL A   1      42.826  25.137  28.304  1.00  0.00     0.037 A 
ATOM     27  C   UNL A   1      44.723  30.154  32.005  1.00  0.00     0.049 A 
ATOM     28  C   UNL A   1      44.140  25.504  28.928  1.00  0.00     0.074 A 
ATOM     29  C   UNL A   1      45.945  30.330  32.628  1.00  0.00     0.029 A 
ATOM     30  N   UNL A   1      44.811  28.976  31.277  1.00  0.00    -0.354 N 
ATOM     31  N   UNL A   1      44.433  26.540  29.676  1.00  0.00    -0.248 NA
ATOM     32  C   UNL A   1      45.273  24.601  28.681  1.00  0.00     0.031 C 
ATOM     33  C   UNL A   1      46.796  29.302  32.218  1.00  0.00     0.029 A 
ATOM     34  C   UNL A   1      46.082  28.439  31.401  1.00  0.00     0.049 A 
ATOM     35  H   UNL A   1      44.079  28.580  30.751  1.00  0.00     0.167 HD
ATOM     36  C   UNL A   1      45.772  26.405  30.009  1.00  0.00     0.074 A 
ATOM     37  C   UNL A   1      46.239  25.187  29.381  1.00  0.00     0.031 C 
ATOM     38  C   UNL A   1      46.537  27.221  30.775  1.00  0.00     0.037 A 
BRANCH  25  39
ATOM     39  C   UNL A   1      43.678  32.310  32.795  1.00  0.00     0.064 A 
ATOM     40  C   UNL A   1      43.311  32.392  34.148  1.00  0.00     0.173 A 
ATOM     41  C   UNL A   1      44.096  33.488  32.158  1.00  0.00     0.173 A 
ATOM     42  F   UNL A   1      42.894  31.299  34.804  1.00  0.00    -0.203 F 
ATOM     43  C   UNL A   1      43.352  33.604  34.832  1.00  0.00     0.198 A 
ATOM     44  C   UNL A   1      44.168  34.692  32.855  1.00  0.00     0.198 A 
ATOM     45  F   UNL A   1      44.463  33.465  30.868  1.00  0.00    -0.203 F 
ATOM     46  F   UNL A   1      42.966  33.661  36.114  1.00  0.00    -0.200 F 
ATOM     47  C   UNL A   1      43.789  34.751  34.188  1.00  0.00     0.200 A 
ATOM     48  F   UNL A   1      44.615  35.795  32.239  1.00  0.00    -0.200 F 
ATOM     49  F   UNL A   1      43.848  35.913  34.853  1.00  0.00    -0.200 F 
ENDBRANCH  25  39
BRANCH  26  50
ATOM     50  C   UNL A   1      42.657  23.915  27.479  1.00  0.00     0.064 A 
ATOM     51  C   UNL A   1      42.250  22.700  28.055  1.00  0.00     0.173 A 
ATOM     52  C   UNL A   1      43.009  23.911  26.124  1.00  0.00     0.173 A 
ATOM     53  F   UNL A   1      41.916  22.653  29.353  1.00  0.00    -0.203 F 
ATOM     54  C   UNL A   1      42.243  21.521  27.316  1.00  0.00     0.198 A 
ATOM     55  C   UNL A   1      42.976  22.734  25.378  1.00  0.00     0.198 A 
ATOM     56  F   UNL A   1      43.390  25.050  25.528  1.00  0.00    -0.203 F 
ATOM     57  F   UNL A   1      41.912  20.364  27.905  1.00  0.00    -0.200 F 
ATOM     58  C   UNL A   1      42.608  21.539  25.978  1.00  0.00     0.200 A 
ATOM     59  F   UNL A   1      43.316  22.756  24.082  1.00  0.00    -0.200 F 
ATOM     60  F   UNL A   1      42.615  20.402  25.269  1.00  0.00    -0.200 F 
ENDBRANCH  26  50
BRANCH  38  61
ATOM     61  C   UNL A   1      47.966  26.831  31.017  1.00  0.00     0.064 A 
ATOM     62  C   UNL A   1      48.975  27.279  30.148  1.00  0.00     0.173 A 
ATOM     63  C   UNL A   1      48.315  25.904  32.008  1.00  0.00     0.173 A 
ATOM     64  F   UNL A   1      48.688  28.162  29.179  1.00  0.00    -0.203 F 
ATOM     65  C   UNL A   1      50.270  26.780  30.237  1.00  0.00     0.198 A 
ATOM     66  C   UNL A   1      49.620  25.428  32.112  1.00  0.00     0.198 A 
ATOM     67  F   UNL A   1      47.391  25.458  32.871  1.00  0.00    -0.203 F 
ATOM     68  F   UNL A   1      51.201  27.176  29.357  1.00  0.00    -0.200 F 
ATOM     69  C   UNL A   1      50.590  25.852  31.215  1.00  0.00     0.200 A 
ATOM     70  F   UNL A   1      49.935  24.545  33.069  1.00  0.00    -0.200 F 
ATOM     71  F   UNL A   1      51.835  25.360  31.291  1.00  0.00    -0.200 F 
ENDBRANCH  38  61
ENDBRANCH  12  13
ENDBRANCH   5   7
ENDBRANCH   2   3
ENDBRANCH   1   2
BRANCH   1  72
ATOM     72  C   UNL A   1      33.500  29.310  24.669  1.00  0.00     0.023 C 
BRANCH  72  73
ATOM     73  C   UNL A   1      31.986  29.516  24.659  1.00  0.00     0.116 C 
BRANCH  73  74
ATOM     74  N   UNL A   1      31.388  29.144  23.391  1.00  0.00    -0.351 N 
ATOM     75  C   UNL A   1      30.400  28.232  23.146  1.00  0.00     0.278 C 
ATOM     76  H   UNL A   1      31.744  29.610  22.599  1.00  0.00     0.163 HD
ATOM     77  O   UNL A   1      29.936  28.177  22.004  1.00  0.00    -0.268 OA
BRANCH  75  78
ATOM     78  C   UNL A   1      29.898  27.339  24.297  1.00  0.00     0.273 C 
ATOM     79  C   UNL A   1      30.980  26.437  24.867  1.00  0.00     0.088 C 
ATOM     80  N   UNL A   1      28.879  26.373  23.846  1.00  0.00    -0.336 N 
ATOM     81  C   UNL A   1      30.967  25.178  23.976  1.00  0.00     0.029 C 
ATOM     82  C   UNL A   1      29.603  25.238  23.265  1.00  0.00     0.268 C 
ATOM     83  H   UNL A   1      28.276  26.802  23.143  1.00  0.00     0.346 HD
ATOM     84  H   UNL A   1      28.288  26.074  24.621  1.00  0.00     0.346 HD
ATOM     85  C   UNL A   1      31.101  23.899  24.822  1.00  0.00     0.034 C 
ATOM     86  C   UNL A   1      32.110  25.195  22.938  1.00  0.00     0.034 C 
ATOM     87  C   UNL A   1      32.496  23.730  25.426  1.00  0.00     0.120 C 
ATOM     88  C   UNL A   1      33.480  25.022  23.586  1.00  0.00     0.120 C 
ATOM     89  N   UNL A   1      33.532  23.805  24.402  1.00  0.00    -0.342 N 
ATOM     90  C   UNL A   1      34.539  22.886  24.085  1.00  0.00     0.233 C 
ATOM     91  O   UNL A   1      35.209  23.079  23.066  1.00  0.00    -0.274 OA
BRANCH  90  92
ATOM     92  C   UNL A   1      34.910  21.647  24.908  1.00  0.00     0.077 C 
ATOM     93  C   UNL A   1      34.107  20.968  26.013  1.00  0.00     0.023 C 
ATOM     94  C   UNL A   1      34.092  20.386  24.635  1.00  0.00     0.023 C 
BRANCH  92  95
ATOM     95  C   UNL A   1      36.437  21.519  25.112  1.00  0.00     0.003 A 
ATOM     96  C   UNL A   1      37.125  20.347  24.745  1.00  0.00     0.008 A 
ATOM     97  C   UNL A   1      37.176  22.510  25.778  1.00  0.00     0.127 A 
ATOM     98  C   UNL A   1      38.476  20.168  25.055  1.00  0.00     0.001 A 
ATOM     99  C   UNL A   1      38.517  22.333  26.111  1.00  0.00     0.039 A 
ATOM    100  F   UNL A   1      36.575  23.654  26.141  1.00  0.00    -0.207 F 
ATOM    101  C   UNL A   1      39.168  21.154  25.753  1.00  0.00     0.003 A 
ENDBRANCH  92  95
ENDBRANCH  90  92
ENDBRANCH  75  78
ENDBRANCH  73  74
ENDBRANCH  72  73
ENDBRANCH   1  72
TORSDOF 13
ENDMDL
MODEL 3
REMARK VINA RESULT:     -13.5      4.609     10.945
REMARK SMILES O=C(NCCCCNC(=O)[C@@H]1CC2(CCN(C(=O)C3(c4ccccc4F)CC3)CC2)C[NH2+]1)c1ccc(-c2c3nc(c(-c4c(F)c(F)c(F)c(F)c4F)c4ccc([nH]4)c(-c4c(F)c(F)c(F)c(F)c4F)c4nc(c(-c5c(F)c(F)c(F)c(F)c5F)c5ccc2[nH]5)C=C4)C=C3)cc1
REMARK SMILES IDX 5 1 4 2 3 3 1 4 2 5 33 7 34 8 95 9 35 10 94 11 36 12 37 13
REMARK SMILES IDX 38 14 88 15 39 16 93 17 87 18 89 19 40 20 92 21 86 22 85 23
REMARK SMILES IDX 41 25 73 26 53 27 72 28 54 29 57 30 71 31 90 32 55 33 56 34
REMARK SMILES IDX 70 36 91 37 58 38 42 39 43 40 51 41 44 42 45 43 49 44 52 45
REMARK SMILES IDX 46 46 47 47 50 48 48 49 74 50 75 51 83 52 76 53 77 54 81 55
REMARK SMILES IDX 84 56 78 57 79 58 82 59 80 60 59 61 60 62 68 63 61 64 62 65
REMARK SMILES IDX 66 66 69 67 63 68 64 69 67 70 65 71 6 72 7 73 8 74 9 75
REMARK SMILES IDX 10 77 11 78 12 79 32 80 13 81 31 82 14 85 30 86 15 87 29 88
REMARK SMILES IDX 16 89 17 90 18 91 19 92 27 93 28 94 20 95 21 96 25 97 22 98
REMARK SMILES IDX 24 99 26 100 23 101
REMARK H PARENT 3 6 89 24 57 35 8 76 32 83 32 84
REMARK Flexibility Score: inf
ROOT
ATOM      1  C   UNL A   1      35.118  32.858  29.774  1.00  0.00     0.023 C 
ENDROOT
BRANCH   1   2
ATOM      2  C   UNL A   1      34.638  32.705  28.334  1.00  0.00     0.116 C 
BRANCH   2   3
ATOM      3  N   UNL A   1      33.933  31.455  28.111  1.00  0.00    -0.352 N 
ATOM      4  O   UNL A   1      33.699  29.265  27.638  1.00  0.00    -0.269 OA
ATOM      5  C   UNL A   1      34.432  30.182  27.986  1.00  0.00     0.251 C 
ATOM      6  H   UNL A   1      32.953  31.532  28.040  1.00  0.00     0.163 HD
BRANCH   5   7
ATOM      7  C   UNL A   1      35.864  29.924  28.246  1.00  0.00     0.039 A 
ATOM      8  C   UNL A   1      36.830  30.164  27.265  1.00  0.00     0.014 A 
ATOM      9  C   UNL A   1      36.242  29.450  29.505  1.00  0.00     0.014 A 
ATOM     10  C   UNL A   1      38.157  29.816  27.499  1.00  0.00     0.010 A 
ATOM     11  C   UNL A   1      37.585  29.172  29.763  1.00  0.00     0.010 A 
ATOM     12  C   UNL A   1      38.550  29.330  28.755  1.00  0.00    -0.014 A 
BRANCH  12  13
ATOM     13  C   UNL A   1      39.977  29.045  29.039  1.00  0.00     0.031 A 
ATOM     14  C   UNL A   1      40.844  30.066  29.714  1.00  0.00     0.074 A 
ATOM     15  C   UNL A   1      40.500  27.871  28.641  1.00  0.00     0.049 A 
ATOM     16  N   UNL A   1      42.132  30.034  29.945  1.00  0.00    -0.248 NA
ATOM     17  C   UNL A   1      40.180  31.292  30.183  1.00  0.00     0.031 C 
ATOM     18  C   UNL A   1      39.751  26.802  27.982  1.00  0.00     0.029 A 
ATOM     19  N   UNL A   1      41.781  27.385  28.718  1.00  0.00    -0.354 N 
ATOM     20  C   UNL A   1      42.438  31.240  30.560  1.00  0.00     0.074 A 
ATOM     21  C   UNL A   1      41.205  31.993  30.648  1.00  0.00     0.031 C 
ATOM     22  C   UNL A   1      40.580  25.780  27.725  1.00  0.00     0.029 A 
ATOM     23  C   UNL A   1      41.931  26.151  28.136  1.00  0.00     0.049 A 
ATOM     24  H   UNL A   1      42.519  27.874  29.148  1.00  0.00     0.167 HD
ATOM     25  C   UNL A   1      43.641  31.670  31.009  1.00  0.00     0.037 A 
ATOM     26  C   UNL A   1      43.036  25.412  27.920  1.00  0.00     0.037 A 
ATOM     27  C   UNL A   1      44.857  30.901  30.925  1.00  0.00     0.049 A 
ATOM     28  C   UNL A   1      44.367  25.931  28.377  1.00  0.00     0.074 A 
ATOM     29  C   UNL A   1      46.112  31.223  31.407  1.00  0.00     0.029 A 
ATOM     30  N   UNL A   1      44.971  29.663  30.307  1.00  0.00    -0.354 N 
ATOM     31  N   UNL A   1      44.643  27.055  28.991  1.00  0.00    -0.248 NA
ATOM     32  C   UNL A   1      45.541  25.088  28.109  1.00  0.00     0.031 C 
ATOM     33  C   UNL A   1      47.001  30.220  31.017  1.00  0.00     0.029 A 
ATOM     34  C   UNL A   1      46.286  29.230  30.358  1.00  0.00     0.049 A 
ATOM     35  H   UNL A   1      44.228  29.165  29.895  1.00  0.00     0.167 HD
ATOM     36  C   UNL A   1      46.014  27.049  29.204  1.00  0.00     0.074 A 
ATOM     37  C   UNL A   1      46.516  25.807  28.653  1.00  0.00     0.031 C 
ATOM     38  C   UNL A   1      46.778  27.989  29.810  1.00  0.00     0.037 A 
BRANCH  25  39
ATOM     39  C   UNL A   1      43.721  33.049  31.602  1.00  0.00     0.064 A 
ATOM     40  C   UNL A   1      43.727  33.217  32.997  1.00  0.00     0.173 A 
ATOM     41  C   UNL A   1      43.734  34.202  30.804  1.00  0.00     0.173 A 
ATOM     42  F   UNL A   1      43.705  32.149  33.808  1.00  0.00    -0.203 F 
ATOM     43  C   UNL A   1      43.738  34.487  33.567  1.00  0.00     0.198 A 
ATOM     44  C   UNL A   1      43.779  35.471  31.379  1.00  0.00     0.198 A 
ATOM     45  F   UNL A   1      43.734  34.099  29.467  1.00  0.00    -0.203 F 
ATOM     46  F   UNL A   1      43.712  34.620  34.900  1.00  0.00    -0.200 F 
ATOM     47  C   UNL A   1      43.772  35.612  32.759  1.00  0.00     0.200 A 
ATOM     48  F   UNL A   1      43.839  36.557  30.597  1.00  0.00    -0.200 F 
ATOM     49  F   UNL A   1      43.803  36.834  33.309  1.00  0.00    -0.200 F 
ENDBRANCH  25  39
BRANCH  26  50
ATOM     50  C   UNL A   1      42.890  24.103  27.236  1.00  0.00     0.064 A 
ATOM     51  C   UNL A   1      42.533  22.947  27.949  1.00  0.00     0.173 A 
ATOM     52  C   UNL A   1      43.215  23.962  25.882  1.00  0.00     0.173 A 
ATOM     53  F   UNL A   1      42.225  23.030  29.252  1.00  0.00    -0.203 F 
ATOM     54  C   UNL A   1      42.549  21.694  27.342  1.00  0.00     0.198 A 
ATOM     55  C   UNL A   1      43.205  22.711  25.269  1.00  0.00     0.198 A 
ATOM     56  F   UNL A   1      43.548  25.040  25.158  1.00  0.00    -0.203 F 
ATOM     57  F   UNL A   1      42.267  20.599  28.060  1.00  0.00    -0.200 F 
ATOM     58  C   UNL A   1      42.888  21.577  26.002  1.00  0.00     0.200 A 
ATOM     59  F   UNL A   1      43.520  22.602  23.970  1.00  0.00    -0.200 F 
ATOM     60  F   UNL A   1      42.917  20.371  25.420  1.00  0.00    -0.200 F 
ENDBRANCH  26  50
BRANCH  38  61
ATOM     61  C   UNL A   1      48.249  27.726  29.950  1.00  0.00     0.064 A 
ATOM     62  C   UNL A   1      49.132  28.111  28.928  1.00  0.00     0.173 A 
ATOM     63  C   UNL A   1      48.761  26.968  31.011  1.00  0.00     0.173 A 
ATOM     64  F   UNL A   1      48.688  28.833  27.887  1.00  0.00    -0.203 F 
ATOM     65  C   UNL A   1      50.464  27.710  28.944  1.00  0.00     0.198 A 
ATOM     66  C   UNL A   1      50.102  26.593  31.037  1.00  0.00     0.198 A 
ATOM     67  F   UNL A   1      47.960  26.588  32.017  1.00  0.00    -0.203 F 
ATOM     68  F   UNL A   1      51.274  28.038  27.927  1.00  0.00    -0.200 F 
ATOM     69  C   UNL A   1      50.947  26.948  29.996  1.00  0.00     0.200 A 
ATOM     70  F   UNL A   1      50.573  25.871  32.063  1.00  0.00    -0.200 F 
ATOM     71  F   UNL A   1      52.227  26.550  30.003  1.00  0.00    -0.200 F 
ENDBRANCH  38  61
ENDBRANCH  12  13
ENDBRANCH   5   7
ENDBRANCH   2   3
ENDBRANCH   1   2
BRANCH   1  72
ATOM     72  C   UNL A   1      36.576  33.292  29.930  1.00  0.00     0.023 C 
BRANCH  72  73
ATOM     73  C   UNL A   1      36.925  33.909  31.283  1.00  0.00     0.116 C 
BRANCH  73  74
ATOM     74  N   UNL A   1      35.998  33.511  32.325  1.00  0.00    -0.351 N 
ATOM     75  C   UNL A   1      36.156  33.572  33.681  1.00  0.00     0.278 C 
ATOM     76  H   UNL A   1      35.137  33.147  32.013  1.00  0.00     0.163 HD
ATOM     77  O   UNL A   1      35.179  33.317  34.389  1.00  0.00    -0.268 OA
BRANCH  75  78
ATOM     78  C   UNL A   1      37.526  33.974  34.261  1.00  0.00     0.273 C 
ATOM     79  C   UNL A   1      38.656  33.065  33.805  1.00  0.00     0.088 C 
ATOM     80  N   UNL A   1      37.571  33.831  35.728  1.00  0.00    -0.336 N 
ATOM     81  C   UNL A   1      38.655  31.888  34.803  1.00  0.00     0.029 C 
ATOM     82  C   UNL A   1      37.854  32.419  36.006  1.00  0.00     0.268 C 
ATOM     83  H   UNL A   1      36.674  34.096  36.134  1.00  0.00     0.346 HD
ATOM     84  H   UNL A   1      38.285  34.436  36.134  1.00  0.00     0.346 HD
ATOM     85  C   UNL A   1      40.089  31.507  35.212  1.00  0.00     0.034 C 
ATOM     86  C   UNL A   1      37.968  30.635  34.217  1.00  0.00     0.034 C 
ATOM     87  C   UNL A   1      40.871  30.838  34.080  1.00  0.00     0.120 C 
ATOM     88  C   UNL A   1      38.784  30.003  33.094  1.00  0.00     0.120 C 
ATOM     89  N   UNL A   1      40.147  29.694  33.536  1.00  0.00    -0.342 N 
ATOM     90  C   UNL A   1      40.559  28.364  33.398  1.00  0.00     0.233 C 
ATOM     91  O   UNL A   1      39.721  27.522  33.063  1.00  0.00    -0.274 OA
BRANCH  90  92
ATOM     92  C   UNL A   1      41.986  27.843  33.609  1.00  0.00     0.077 C 
ATOM     93  C   UNL A   1      43.075  27.614  32.566  1.00  0.00     0.023 C 
ATOM     94  C   UNL A   1      43.111  28.855  33.401  1.00  0.00     0.023 C 
BRANCH  92  95
ATOM     95  C   UNL A   1      42.075  26.856  34.796  1.00  0.00     0.003 A 
ATOM     96  C   UNL A   1      42.404  25.503  34.593  1.00  0.00     0.008 A 
ATOM     97  C   UNL A   1      41.716  27.238  36.098  1.00  0.00     0.127 A 
ATOM     98  C   UNL A   1      42.348  24.575  35.638  1.00  0.00     0.001 A 
ATOM     99  C   UNL A   1      41.636  26.318  37.141  1.00  0.00     0.039 A 
ATOM    100  F   UNL A   1      41.405  28.518  36.352  1.00  0.00    -0.207 F 
ATOM    101  C   UNL A   1      41.948  24.980  36.908  1.00  0.00     0.003 A 
ENDBRANCH  92  95
ENDBRANCH  90  92
ENDBRANCH  75  78
ENDBRANCH  73  74
ENDBRANCH  72  73
ENDBRANCH   1  72
TORSDOF 13
ENDMDL
