MODEL 1
REMARK VINA RESULT:     -13.2      0.000      0.000
REMARK SMILES CS(=O)(=O)c1ccc(-n2nc(C(F)(F)F)cc2-c2ccc(CC(=O)NCCCCNC(=O)c3ccc(-c4c5nc(c(-c6c(F)c(F)c(F)c(F)c6F)c6ccc([nH]6)c(-c6c(F)c(F)c(F)c(F)c6F)c6nc(c(-c7c(F)c(F)c(F)c(F)c7F)c7ccc4[nH]7)C=C6)C=C5)cc3)cc2)cc1
REMARK SMILES IDX 26 1 25 2 23 3 24 4 22 6 21 7 18 8 19 9 97 10 20 11 96 12
REMARK SMILES IDX 17 13 9 14 10 15 11 16 16 17 8 18 5 19 6 20 99 21 7 22 98 23
REMARK SMILES IDX 2 24 1 25 3 26 4 27 12 28 13 29 14 30 15 31 27 32 28 33
REMARK SMILES IDX 29 34 30 35 31 36 32 38 33 39 34 40 95 41 35 42 94 43 36 44
REMARK SMILES IDX 37 45 38 46 88 47 39 48 93 49 87 50 89 51 40 52 92 53 86 54
REMARK SMILES IDX 85 55 41 57 73 58 53 59 72 60 54 61 57 62 71 63 90 64 55 65
REMARK SMILES IDX 56 66 70 68 91 69 58 70 42 71 43 72 51 73 44 74 45 75 49 76
REMARK SMILES IDX 52 77 46 78 47 79 50 80 48 81 74 82 75 83 83 84 76 85 77 86
REMARK SMILES IDX 81 87 84 88 78 89 79 90 82 91 80 92 59 93 60 94 68 95 61 96
REMARK SMILES IDX 62 97 66 98 69 99 63 100 64 101 67 102 65 103
REMARK H PARENT 25 5 30 37 89 56 57 67
REMARK Flexibility Score: inf
ROOT
ATOM      1  C   UNL A   1      34.362  21.466  25.281  1.00  0.00     0.116 C 
ENDROOT
BRANCH   1   2
ATOM      2  N   UNL A   1      34.058  21.817  23.907  1.00  0.00    -0.356 N 
ATOM      3  C   UNL A   1      32.962  22.455  23.397  1.00  0.00     0.224 C 
ATOM      4  O   UNL A   1      32.863  22.543  22.172  1.00  0.00    -0.275 OA
ATOM      5  H   UNL A   1      34.739  21.557  23.245  1.00  0.00     0.163 HD
BRANCH   3   6
ATOM      6  C   UNL A   1      31.928  23.075  24.324  1.00  0.00     0.135 C 
BRANCH   6   7
ATOM      7  C   UNL A   1      32.354  24.393  24.923  1.00  0.00    -0.039 A 
ATOM      8  C   UNL A   1      33.028  26.936  25.929  1.00  0.00     0.000 A 
ATOM      9  C   UNL A   1      33.792  26.343  24.914  1.00  0.00     0.010 A 
ATOM     10  C   UNL A   1      31.962  26.220  26.480  1.00  0.00     0.010 A 
ATOM     11  C   UNL A   1      33.458  25.085  24.411  1.00  0.00     0.005 A 
ATOM     12  C   UNL A   1      31.636  24.955  25.988  1.00  0.00     0.005 A 
BRANCH   8  13
ATOM     13  C   UNL A   1      33.366  28.265  26.439  1.00  0.00     0.075 A 
ATOM     14  N   UNL A   1      32.893  29.470  25.933  1.00  0.00    -0.233 N 
ATOM     15  N   UNL A   1      33.594  30.530  26.402  1.00  0.00    -0.163 NA
ATOM     16  C   UNL A   1      34.353  30.026  27.396  1.00  0.00     0.167 A 
ATOM     17  C   UNL A   1      34.260  28.613  27.431  1.00  0.00     0.064 A 
BRANCH  14  18
ATOM     18  C   UNL A   1      31.778  29.674  25.084  1.00  0.00     0.065 A 
ATOM     19  C   UNL A   1      29.515  30.020  23.501  1.00  0.00     0.067 A 
ATOM     20  C   UNL A   1      29.860  30.983  24.449  1.00  0.00     0.022 A 
ATOM     21  C   UNL A   1      30.356  28.930  23.272  1.00  0.00     0.022 A 
ATOM     22  C   UNL A   1      30.953  30.785  25.289  1.00  0.00     0.030 A 
ATOM     23  C   UNL A   1      31.519  28.780  24.038  1.00  0.00     0.030 A 
BRANCH  19  24
ATOM     24  S   UNL A   1      28.022  30.239  22.554  1.00  0.00     0.175 S 
ATOM     25  C   UNL A   1      27.740  31.991  22.567  1.00  0.00     0.163 C 
ATOM     26  O   UNL A   1      26.938  29.618  23.288  1.00  0.00    -0.224 OA
ATOM     27  O   UNL A   1      28.326  29.851  21.189  1.00  0.00    -0.224 OA
ENDBRANCH  19  24
ENDBRANCH  14  18
BRANCH  16  28
ATOM     28  C   UNL A   1      35.189  30.878  28.314  1.00  0.00     0.435 C 
ATOM     29  F   UNL A   1      35.875  30.155  29.235  1.00  0.00    -0.164 F 
ATOM     30  F   UNL A   1      36.095  31.625  27.628  1.00  0.00    -0.164 F 
ATOM     31  F   UNL A   1      34.419  31.762  29.010  1.00  0.00    -0.164 F 
ENDBRANCH  16  28
ENDBRANCH   8  13
ENDBRANCH   6   7
ENDBRANCH   3   6
ENDBRANCH   1   2
BRANCH   1  32
ATOM     32  C   UNL A   1      35.516  22.304  25.842  1.00  0.00     0.023 C 
BRANCH  32  33
ATOM     33  C   UNL A   1      36.807  22.248  25.018  1.00  0.00     0.023 C 
BRANCH  33  34
ATOM     34  C   UNL A   1      37.989  22.980  25.611  1.00  0.00     0.116 C 
BRANCH  34  35
ATOM     35  N   UNL A   1      38.814  22.157  26.502  1.00  0.00    -0.352 N 
ATOM     36  C   UNL A   1      39.934  22.562  27.223  1.00  0.00     0.251 C 
ATOM     37  H   UNL A   1      38.546  21.215  26.601  1.00  0.00     0.163 HD
ATOM     38  O   UNL A   1      40.743  21.772  27.661  1.00  0.00    -0.269 OA
BRANCH  36  39
ATOM     39  C   UNL A   1      40.091  24.011  27.442  1.00  0.00     0.039 A 
ATOM     40  C   UNL A   1      39.008  24.892  27.468  1.00  0.00     0.014 A 
ATOM     41  C   UNL A   1      41.368  24.433  27.777  1.00  0.00     0.014 A 
ATOM     42  C   UNL A   1      39.220  26.186  27.945  1.00  0.00     0.010 A 
ATOM     43  C   UNL A   1      41.505  25.593  28.484  1.00  0.00     0.010 A 
ATOM     44  C   UNL A   1      40.474  26.522  28.482  1.00  0.00    -0.014 A 
BRANCH  44  45
ATOM     45  C   UNL A   1      40.740  27.823  29.085  1.00  0.00     0.031 A 
ATOM     46  C   UNL A   1      41.825  28.633  28.460  1.00  0.00     0.074 A 
ATOM     47  C   UNL A   1      39.927  28.350  30.029  1.00  0.00     0.049 A 
ATOM     48  N   UNL A   1      42.919  29.051  29.008  1.00  0.00    -0.248 NA
ATOM     49  C   UNL A   1      41.722  28.953  27.027  1.00  0.00     0.031 C 
ATOM     50  C   UNL A   1      38.649  27.843  30.558  1.00  0.00     0.029 A 
ATOM     51  N   UNL A   1      40.047  29.543  30.670  1.00  0.00    -0.354 N 
ATOM     52  C   UNL A   1      43.586  29.803  28.043  1.00  0.00     0.074 A 
ATOM     53  C   UNL A   1      42.861  29.616  26.812  1.00  0.00     0.031 C 
ATOM     54  C   UNL A   1      38.010  28.818  31.238  1.00  0.00     0.029 A 
ATOM     55  C   UNL A   1      38.920  29.935  31.378  1.00  0.00     0.049 A 
ATOM     56  H   UNL A   1      40.868  30.085  30.635  1.00  0.00     0.167 HD
ATOM     57  C   UNL A   1      44.596  30.659  28.373  1.00  0.00     0.037 A 
ATOM     58  C   UNL A   1      38.745  31.102  32.040  1.00  0.00     0.037 A 
ATOM     59  C   UNL A   1      45.118  30.366  29.682  1.00  0.00     0.049 A 
ATOM     60  C   UNL A   1      40.096  31.660  32.293  1.00  0.00     0.074 A 
ATOM     61  C   UNL A   1      45.772  29.281  30.234  1.00  0.00     0.029 A 
ATOM     62  N   UNL A   1      44.660  31.097  30.750  1.00  0.00    -0.354 N 
ATOM     63  N   UNL A   1      40.968  31.106  33.089  1.00  0.00    -0.248 NA
ATOM     64  C   UNL A   1      40.641  32.567  31.296  1.00  0.00     0.031 C 
ATOM     65  C   UNL A   1      45.224  29.151  31.544  1.00  0.00     0.029 A 
ATOM     66  C   UNL A   1      44.326  30.202  31.737  1.00  0.00     0.049 A 
ATOM     67  H   UNL A   1      44.584  32.077  30.800  1.00  0.00     0.167 HD
ATOM     68  C   UNL A   1      42.185  31.257  32.441  1.00  0.00     0.074 A 
ATOM     69  C   UNL A   1      41.931  32.231  31.380  1.00  0.00     0.031 C 
ATOM     70  C   UNL A   1      43.211  30.377  32.639  1.00  0.00     0.037 A 
BRANCH  57  71
ATOM     71  C   UNL A   1      44.930  31.930  27.636  1.00  0.00     0.064 A 
ATOM     72  C   UNL A   1      46.181  32.064  26.999  1.00  0.00     0.173 A 
ATOM     73  C   UNL A   1      44.183  33.120  27.764  1.00  0.00     0.173 A 
ATOM     74  F   UNL A   1      46.987  31.004  26.842  1.00  0.00    -0.203 F 
ATOM     75  C   UNL A   1      46.668  33.307  26.579  1.00  0.00     0.198 A 
ATOM     76  C   UNL A   1      44.651  34.349  27.299  1.00  0.00     0.198 A 
ATOM     77  F   UNL A   1      43.028  33.161  28.439  1.00  0.00    -0.203 F 
ATOM     78  F   UNL A   1      47.909  33.402  26.083  1.00  0.00    -0.200 F 
ATOM     79  C   UNL A   1      45.905  34.449  26.733  1.00  0.00     0.200 A 
ATOM     80  F   UNL A   1      43.903  35.449  27.475  1.00  0.00    -0.200 F 
ATOM     81  F   UNL A   1      46.391  35.646  26.385  1.00  0.00    -0.200 F 
ENDBRANCH  57  71
BRANCH  58  82
ATOM     82  C   UNL A   1      37.505  31.895  32.161  1.00  0.00     0.064 A 
ATOM     83  C   UNL A   1      36.947  32.180  33.415  1.00  0.00     0.173 A 
ATOM     84  C   UNL A   1      37.002  32.624  31.066  1.00  0.00     0.173 A 
ATOM     85  F   UNL A   1      37.401  31.555  34.511  1.00  0.00    -0.203 F 
ATOM     86  C   UNL A   1      35.964  33.162  33.571  1.00  0.00     0.198 A 
ATOM     87  C   UNL A   1      36.020  33.603  31.222  1.00  0.00     0.198 A 
ATOM     88  F   UNL A   1      37.524  32.469  29.840  1.00  0.00    -0.203 F 
ATOM     89  F   UNL A   1      35.497  33.453  34.793  1.00  0.00    -0.200 F 
ATOM     90  C   UNL A   1      35.512  33.882  32.477  1.00  0.00     0.200 A 
ATOM     91  F   UNL A   1      35.617  34.316  30.160  1.00  0.00    -0.200 F 
ATOM     92  F   UNL A   1      34.618  34.869  32.636  1.00  0.00    -0.200 F 
ENDBRANCH  58  82
BRANCH  70  93
ATOM     93  C   UNL A   1      43.057  29.357  33.739  1.00  0.00     0.064 A 
ATOM     94  C   UNL A   1      42.540  28.063  33.547  1.00  0.00     0.173 A 
ATOM     95  C   UNL A   1      43.593  29.647  35.001  1.00  0.00     0.173 A 
ATOM     96  F   UNL A   1      42.102  27.666  32.348  1.00  0.00    -0.203 F 
ATOM     97  C   UNL A   1      42.521  27.124  34.577  1.00  0.00     0.198 A 
ATOM     98  C   UNL A   1      43.607  28.695  36.019  1.00  0.00     0.198 A 
ATOM     99  F   UNL A   1      44.154  30.843  35.232  1.00  0.00    -0.203 F 
ATOM    100  F   UNL A   1      42.012  25.900  34.364  1.00  0.00    -0.200 F 
ATOM    101  C   UNL A   1      43.061  27.439  35.811  1.00  0.00     0.200 A 
ATOM    102  F   UNL A   1      44.176  28.989  37.196  1.00  0.00    -0.200 F 
ATOM    103  F   UNL A   1      43.082  26.524  36.791  1.00  0.00    -0.200 F 
ENDBRANCH  70  93
ENDBRANCH  44  45
ENDBRANCH  36  39
ENDBRANCH  34  35
ENDBRANCH  33  34
ENDBRANCH  32  33
ENDBRANCH   1  32
TORSDOF 16
ENDMDL
MODEL 2
REMARK VINA RESULT:     -13.1      6.057     10.596
REMARK SMILES CS(=O)(=O)c1ccc(-n2nc(C(F)(F)F)cc2-c2ccc(CC(=O)NCCCCNC(=O)c3ccc(-c4c5nc(c(-c6c(F)c(F)c(F)c(F)c6F)c6ccc([nH]6)c(-c6c(F)c(F)c(F)c(F)c6F)c6nc(c(-c7c(F)c(F)c(F)c(F)c7F)c7ccc4[nH]7)C=C6)C=C5)cc3)cc2)cc1
REMARK SMILES IDX 26 1 25 2 23 3 24 4 22 6 21 7 18 8 19 9 97 10 20 11 96 12
REMARK SMILES IDX 17 13 9 14 10 15 11 16 16 17 8 18 5 19 6 20 99 21 7 22 98 23
REMARK SMILES IDX 2 24 1 25 3 26 4 27 12 28 13 29 14 30 15 31 27 32 28 33
REMARK SMILES IDX 29 34 30 35 31 36 32 38 33 39 34 40 95 41 35 42 94 43 36 44
REMARK SMILES IDX 37 45 38 46 88 47 39 48 93 49 87 50 89 51 40 52 92 53 86 54
REMARK SMILES IDX 85 55 41 57 73 58 53 59 72 60 54 61 57 62 71 63 90 64 55 65
REMARK SMILES IDX 56 66 70 68 91 69 58 70 42 71 43 72 51 73 44 74 45 75 49 76
REMARK SMILES IDX 52 77 46 78 47 79 50 80 48 81 74 82 75 83 83 84 76 85 77 86
REMARK SMILES IDX 81 87 84 88 78 89 79 90 82 91 80 92 59 93 60 94 68 95 61 96
REMARK SMILES IDX 62 97 66 98 69 99 63 100 64 101 67 102 65 103
REMARK H PARENT 25 5 30 37 89 56 57 67
REMARK Flexibility Score: inf
ROOT
ATOM      1  C   UNL A   1      41.502  28.569  35.485  1.00  0.00     0.116 C 
ENDROOT
BRANCH   1   2
ATOM      2  N   UNL A   1      42.617  29.188  34.793  1.00  0.00    -0.356 N 
ATOM      3  C   UNL A   1      43.022  29.041  33.496  1.00  0.00     0.224 C 
ATOM      4  O   UNL A   1      44.076  29.580  33.154  1.00  0.00    -0.275 OA
ATOM      5  H   UNL A   1      43.162  29.802  35.336  1.00  0.00     0.163 HD
BRANCH   3   6
ATOM      6  C   UNL A   1      42.164  28.274  32.501  1.00  0.00     0.135 C 
BRANCH   6   7
ATOM      7  C   UNL A   1      41.020  29.076  31.931  1.00  0.00    -0.039 A 
ATOM      8  C   UNL A   1      38.916  30.698  30.996  1.00  0.00     0.000 A 
ATOM      9  C   UNL A   1      38.663  29.632  31.871  1.00  0.00     0.010 A 
ATOM     10  C   UNL A   1      40.221  30.907  30.543  1.00  0.00     0.010 A 
ATOM     11  C   UNL A   1      39.704  28.830  32.339  1.00  0.00     0.005 A 
ATOM     12  C   UNL A   1      41.262  30.095  30.998  1.00  0.00     0.005 A 
BRANCH   8  13
ATOM     13  C   UNL A   1      37.826  31.553  30.525  1.00  0.00     0.075 A 
ATOM     14  N   UNL A   1      37.217  32.564  31.258  1.00  0.00    -0.233 N 
ATOM     15  N   UNL A   1      36.061  32.982  30.688  1.00  0.00    -0.163 NA
ATOM     16  C   UNL A   1      36.057  32.413  29.466  1.00  0.00     0.167 A 
ATOM     17  C   UNL A   1      37.126  31.493  29.337  1.00  0.00     0.064 A 
BRANCH  14  18
ATOM     18  C   UNL A   1      37.701  33.197  32.429  1.00  0.00     0.065 A 
ATOM     19  C   UNL A   1      38.746  34.358  34.733  1.00  0.00     0.067 A 
ATOM     20  C   UNL A   1      39.179  34.783  33.476  1.00  0.00     0.022 A 
ATOM     21  C   UNL A   1      37.716  33.422  34.839  1.00  0.00     0.022 A 
ATOM     22  C   UNL A   1      38.709  34.161  32.323  1.00  0.00     0.030 A 
ATOM     23  C   UNL A   1      37.160  32.871  33.678  1.00  0.00     0.030 A 
BRANCH  19  24
ATOM     24  S   UNL A   1      39.487  35.073  36.186  1.00  0.00     0.175 S 
ATOM     25  C   UNL A   1      41.109  34.354  36.259  1.00  0.00     0.163 C 
ATOM     26  O   UNL A   1      38.748  34.598  37.338  1.00  0.00    -0.224 OA
ATOM     27  O   UNL A   1      39.646  36.492  35.925  1.00  0.00    -0.224 OA
ENDBRANCH  19  24
ENDBRANCH  14  18
BRANCH  16  28
ATOM     28  C   UNL A   1      35.028  32.723  28.411  1.00  0.00     0.435 C 
ATOM     29  F   UNL A   1      34.590  31.620  27.753  1.00  0.00    -0.164 F 
ATOM     30  F   UNL A   1      33.937  33.344  28.932  1.00  0.00    -0.164 F 
ATOM     31  F   UNL A   1      35.527  33.566  27.463  1.00  0.00    -0.164 F 
ENDBRANCH  16  28
ENDBRANCH   8  13
ENDBRANCH   6   7
ENDBRANCH   3   6
ENDBRANCH   1   2
BRANCH   1  32
ATOM     32  C   UNL A   1      41.878  27.200  36.061  1.00  0.00     0.023 C 
BRANCH  32  33
ATOM     33  C   UNL A   1      41.342  26.003  35.269  1.00  0.00     0.023 C 
BRANCH  33  34
ATOM     34  C   UNL A   1      41.764  24.643  35.779  1.00  0.00     0.116 C 
BRANCH  34  35
ATOM     35  N   UNL A   1      42.824  24.690  36.792  1.00  0.00    -0.352 N 
ATOM     36  C   UNL A   1      44.179  24.431  36.603  1.00  0.00     0.251 C 
ATOM     37  H   UNL A   1      42.547  24.932  37.705  1.00  0.00     0.163 HD
ATOM     38  O   UNL A   1      44.921  24.165  37.524  1.00  0.00    -0.269 OA
BRANCH  36  39
ATOM     39  C   UNL A   1      44.679  24.503  35.218  1.00  0.00     0.039 A 
ATOM     40  C   UNL A   1      44.740  23.388  34.380  1.00  0.00     0.014 A 
ATOM     41  C   UNL A   1      44.941  25.777  34.740  1.00  0.00     0.014 A 
ATOM     42  C   UNL A   1      44.969  23.597  33.019  1.00  0.00     0.010 A 
ATOM     43  C   UNL A   1      44.893  25.988  33.392  1.00  0.00     0.010 A 
ATOM     44  C   UNL A   1      45.014  24.911  32.526  1.00  0.00    -0.014 A 
BRANCH  44  45
ATOM     45  C   UNL A   1      45.153  25.205  31.103  1.00  0.00     0.031 A 
ATOM     46  C   UNL A   1      46.189  26.211  30.733  1.00  0.00     0.074 A 
ATOM     47  C   UNL A   1      44.519  24.471  30.159  1.00  0.00     0.049 A 
ATOM     48  N   UNL A   1      46.017  27.343  30.130  1.00  0.00    -0.248 NA
ATOM     49  C   UNL A   1      47.579  25.971  31.153  1.00  0.00     0.031 C 
ATOM     50  C   UNL A   1      43.698  23.257  30.308  1.00  0.00     0.029 A 
ATOM     51  N   UNL A   1      44.559  24.624  28.810  1.00  0.00    -0.354 N 
ATOM     52  C   UNL A   1      47.282  27.903  29.965  1.00  0.00     0.074 A 
ATOM     53  C   UNL A   1      48.193  27.072  30.711  1.00  0.00     0.031 C 
ATOM     54  C   UNL A   1      43.528  22.664  29.108  1.00  0.00     0.029 A 
ATOM     55  C   UNL A   1      44.036  23.559  28.091  1.00  0.00     0.049 A 
ATOM     56  H   UNL A   1      44.929  25.428  28.377  1.00  0.00     0.167 HD
ATOM     57  C   UNL A   1      47.505  28.921  29.085  1.00  0.00     0.037 A 
ATOM     58  C   UNL A   1      44.018  23.422  26.745  1.00  0.00     0.037 A 
ATOM     59  C   UNL A   1      46.274  29.566  28.714  1.00  0.00     0.049 A 
ATOM     60  C   UNL A   1      44.193  24.779  26.171  1.00  0.00     0.074 A 
ATOM     61  C   UNL A   1      45.323  30.290  29.407  1.00  0.00     0.029 A 
ATOM     62  N   UNL A   1      45.665  29.193  27.542  1.00  0.00    -0.354 N 
ATOM     63  N   UNL A   1      43.310  25.731  26.288  1.00  0.00    -0.248 NA
ATOM     64  C   UNL A   1      45.551  25.212  25.884  1.00  0.00     0.031 C 
ATOM     65  C   UNL A   1      44.074  29.867  28.864  1.00  0.00     0.029 A 
ATOM     66  C   UNL A   1      44.341  28.969  27.829  1.00  0.00     0.049 A 
ATOM     67  H   UNL A   1      46.096  29.102  26.661  1.00  0.00     0.167 HD
ATOM     68  C   UNL A   1      44.055  26.881  26.507  1.00  0.00     0.074 A 
ATOM     69  C   UNL A   1      45.429  26.511  26.170  1.00  0.00     0.031 C 
ATOM     70  C   UNL A   1      43.544  27.938  27.205  1.00  0.00     0.037 A 
BRANCH  57  71
ATOM     71  C   UNL A   1      48.797  29.160  28.348  1.00  0.00     0.064 A 
ATOM     72  C   UNL A   1      49.266  28.206  27.421  1.00  0.00     0.173 A 
ATOM     73  C   UNL A   1      49.727  30.156  28.716  1.00  0.00     0.173 A 
ATOM     74  F   UNL A   1      48.477  27.200  27.017  1.00  0.00    -0.203 F 
ATOM     75  C   UNL A   1      50.583  28.216  26.951  1.00  0.00     0.198 A 
ATOM     76  C   UNL A   1      51.024  30.192  28.206  1.00  0.00     0.198 A 
ATOM     77  F   UNL A   1      49.455  31.063  29.662  1.00  0.00    -0.203 F 
ATOM     78  F   UNL A   1      51.016  27.223  26.161  1.00  0.00    -0.200 F 
ATOM     79  C   UNL A   1      51.463  29.206  27.346  1.00  0.00     0.200 A 
ATOM     80  F   UNL A   1      51.869  31.150  28.616  1.00  0.00    -0.200 F 
ATOM     81  F   UNL A   1      52.739  29.186  26.942  1.00  0.00    -0.200 F 
ENDBRANCH  57  71
BRANCH  58  82
ATOM     82  C   UNL A   1      44.190  22.183  25.961  1.00  0.00     0.064 A 
ATOM     83  C   UNL A   1      45.464  21.740  25.575  1.00  0.00     0.173 A 
ATOM     84  C   UNL A   1      43.133  21.262  25.820  1.00  0.00     0.173 A 
ATOM     85  F   UNL A   1      46.526  22.546  25.716  1.00  0.00    -0.203 F 
ATOM     86  C   UNL A   1      45.674  20.441  25.104  1.00  0.00     0.198 A 
ATOM     87  C   UNL A   1      43.343  19.966  25.348  1.00  0.00     0.198 A 
ATOM     88  F   UNL A   1      41.893  21.573  26.228  1.00  0.00    -0.203 F 
ATOM     89  F   UNL A   1      46.914  20.032  24.803  1.00  0.00    -0.200 F 
ATOM     90  C   UNL A   1      44.617  19.551  25.004  1.00  0.00     0.200 A 
ATOM     91  F   UNL A   1      42.317  19.105  25.291  1.00  0.00    -0.200 F 
ATOM     92  F   UNL A   1      44.829  18.285  24.617  1.00  0.00    -0.200 F 
ENDBRANCH  58  82
BRANCH  70  93
ATOM     93  C   UNL A   1      42.077  27.907  27.551  1.00  0.00     0.064 A 
ATOM     94  C   UNL A   1      41.543  27.225  28.659  1.00  0.00     0.173 A 
ATOM     95  C   UNL A   1      41.199  28.720  26.822  1.00  0.00     0.173 A 
ATOM     96  F   UNL A   1      42.327  26.508  29.470  1.00  0.00    -0.203 F 
ATOM     97  C   UNL A   1      40.193  27.318  28.994  1.00  0.00     0.198 A 
ATOM     98  C   UNL A   1      39.858  28.842  27.179  1.00  0.00     0.198 A 
ATOM     99  F   UNL A   1      41.657  29.442  25.789  1.00  0.00    -0.203 F 
ATOM    100  F   UNL A   1      39.713  26.647  30.053  1.00  0.00    -0.200 F 
ATOM    101  C   UNL A   1      39.352  28.133  28.256  1.00  0.00     0.200 A 
ATOM    102  F   UNL A   1      39.060  29.671  26.492  1.00  0.00    -0.200 F 
ATOM    103  F   UNL A   1      38.063  28.258  28.601  1.00  0.00    -0.200 F 
ENDBRANCH  70  93
ENDBRANCH  44  45
ENDBRANCH  36  39
ENDBRANCH  34  35
ENDBRANCH  33  34
ENDBRANCH  32  33
ENDBRANCH   1  32
TORSDOF 16
ENDMDL
MODEL 3
REMARK VINA RESULT:     -12.7      5.543     10.773
REMARK SMILES CS(=O)(=O)c1ccc(-n2nc(C(F)(F)F)cc2-c2ccc(CC(=O)NCCCCNC(=O)c3ccc(-c4c5nc(c(-c6c(F)c(F)c(F)c(F)c6F)c6ccc([nH]6)c(-c6c(F)c(F)c(F)c(F)c6F)c6nc(c(-c7c(F)c(F)c(F)c(F)c7F)c7ccc4[nH]7)C=C6)C=C5)cc3)cc2)cc1
REMARK SMILES IDX 26 1 25 2 23 3 24 4 22 6 21 7 18 8 19 9 97 10 20 11 96 12
REMARK SMILES IDX 17 13 9 14 10 15 11 16 16 17 8 18 5 19 6 20 99 21 7 22 98 23
REMARK SMILES IDX 2 24 1 25 3 26 4 27 12 28 13 29 14 30 15 31 27 32 28 33
REMARK SMILES IDX 29 34 30 35 31 36 32 38 33 39 34 40 95 41 35 42 94 43 36 44
REMARK SMILES IDX 37 45 38 46 88 47 39 48 93 49 87 50 89 51 40 52 92 53 86 54
REMARK SMILES IDX 85 55 41 57 73 58 53 59 72 60 54 61 57 62 71 63 90 64 55 65
REMARK SMILES IDX 56 66 70 68 91 69 58 70 42 71 43 72 51 73 44 74 45 75 49 76
REMARK SMILES IDX 52 77 46 78 47 79 50 80 48 81 74 82 75 83 83 84 76 85 77 86
REMARK SMILES IDX 81 87 84 88 78 89 79 90 82 91 80 92 59 93 60 94 68 95 61 96
REMARK SMILES IDX 62 97 66 98 69 99 63 100 64 101 67 102 65 103
REMARK H PARENT 25 5 30 37 89 56 57 67
REMARK Flexibility Score: inf
ROOT
ATOM      1  C   UNL A   1      45.989  31.390  26.768  1.00  0.00     0.116 C 
ENDROOT
BRANCH   1   2
ATOM      2  N   UNL A   1      45.013  30.475  26.205  1.00  0.00    -0.356 N 
ATOM      3  C   UNL A   1      44.016  29.779  26.830  1.00  0.00     0.224 C 
ATOM      4  O   UNL A   1      43.375  28.963  26.165  1.00  0.00    -0.275 OA
ATOM      5  H   UNL A   1      45.079  30.333  25.234  1.00  0.00     0.163 HD
BRANCH   3   6
ATOM      6  C   UNL A   1      43.683  30.049  28.290  1.00  0.00     0.135 C 
BRANCH   6   7
ATOM      7  C   UNL A   1      43.826  28.842  29.185  1.00  0.00    -0.039 A 
ATOM      8  C   UNL A   1      44.171  26.503  30.714  1.00  0.00     0.000 A 
ATOM      9  C   UNL A   1      42.955  26.761  30.067  1.00  0.00     0.010 A 
ATOM     10  C   UNL A   1      45.192  27.454  30.641  1.00  0.00     0.010 A 
ATOM     11  C   UNL A   1      42.782  27.918  29.305  1.00  0.00     0.005 A 
ATOM     12  C   UNL A   1      45.016  28.619  29.892  1.00  0.00     0.005 A 
BRANCH   8  13
ATOM     13  C   UNL A   1      44.358  25.279  31.493  1.00  0.00     0.075 A 
ATOM     14  N   UNL A   1      44.190  23.984  31.017  1.00  0.00    -0.233 N 
ATOM     15  N   UNL A   1      44.140  23.074  32.020  1.00  0.00    -0.163 NA
ATOM     16  C   UNL A   1      44.523  23.755  33.119  1.00  0.00     0.167 A 
ATOM     17  C   UNL A   1      44.639  25.138  32.837  1.00  0.00     0.064 A 
BRANCH  14  18
ATOM     18  C   UNL A   1      44.140  23.557  29.668  1.00  0.00     0.065 A 
ATOM     19  C   UNL A   1      44.009  22.834  26.983  1.00  0.00     0.067 A 
ATOM     20  C   UNL A   1      45.200  23.329  27.517  1.00  0.00     0.022 A 
ATOM     21  C   UNL A   1      42.911  22.605  27.813  1.00  0.00     0.022 A 
ATOM     22  C   UNL A   1      45.252  23.754  28.842  1.00  0.00     0.030 A 
ATOM     23  C   UNL A   1      42.992  22.927  29.173  1.00  0.00     0.030 A 
BRANCH  19  24
ATOM     24  S   UNL A   1      43.941  22.448  25.245  1.00  0.00     0.175 S 
ATOM     25  C   UNL A   1      45.194  21.212  25.014  1.00  0.00     0.163 C 
ATOM     26  O   UNL A   1      44.354  23.628  24.514  1.00  0.00    -0.224 OA
ATOM     27  O   UNL A   1      42.654  21.823  25.001  1.00  0.00    -0.224 OA
ENDBRANCH  19  24
ENDBRANCH  14  18
BRANCH  16  28
ATOM     28  C   UNL A   1      44.764  23.104  34.455  1.00  0.00     0.435 C 
ATOM     29  F   UNL A   1      45.349  21.883  34.355  1.00  0.00    -0.164 F 
ATOM     30  F   UNL A   1      45.555  23.866  35.257  1.00  0.00    -0.164 F 
ATOM     31  F   UNL A   1      43.599  22.920  35.136  1.00  0.00    -0.164 F 
ENDBRANCH  16  28
ENDBRANCH   8  13
ENDBRANCH   6   7
ENDBRANCH   3   6
ENDBRANCH   1   2
BRANCH   1  32
ATOM     32  C   UNL A   1      45.783  32.822  26.265  1.00  0.00     0.023 C 
BRANCH  32  33
ATOM     33  C   UNL A   1      44.366  33.129  25.769  1.00  0.00     0.023 C 
BRANCH  33  34
ATOM     34  C   UNL A   1      44.024  34.597  25.645  1.00  0.00     0.116 C 
BRANCH  34  35
ATOM     35  N   UNL A   1      45.085  35.497  26.107  1.00  0.00    -0.352 N 
ATOM     36  C   UNL A   1      45.069  36.305  27.240  1.00  0.00     0.251 C 
ATOM     37  H   UNL A   1      45.899  35.533  25.554  1.00  0.00     0.163 HD
ATOM     38  O   UNL A   1      45.819  37.248  27.375  1.00  0.00    -0.269 OA
BRANCH  36  39
ATOM     39  C   UNL A   1      44.093  35.954  28.288  1.00  0.00     0.039 A 
ATOM     40  C   UNL A   1      42.852  36.582  28.404  1.00  0.00     0.014 A 
ATOM     41  C   UNL A   1      44.414  34.850  29.062  1.00  0.00     0.014 A 
ATOM     42  C   UNL A   1      41.897  36.008  29.244  1.00  0.00     0.010 A 
ATOM     43  C   UNL A   1      43.401  34.157  29.659  1.00  0.00     0.010 A 
ATOM     44  C   UNL A   1      42.171  34.770  29.848  1.00  0.00    -0.014 A 
BRANCH  44  45
ATOM     45  C   UNL A   1      41.186  34.065  30.661  1.00  0.00     0.031 A 
ATOM     46  C   UNL A   1      41.594  33.731  32.055  1.00  0.00     0.074 A 
ATOM     47  C   UNL A   1      39.909  33.894  30.243  1.00  0.00     0.049 A 
ATOM     48  N   UNL A   1      41.693  32.559  32.594  1.00  0.00    -0.248 NA
ATOM     49  C   UNL A   1      42.021  34.827  32.940  1.00  0.00     0.031 C 
ATOM     50  C   UNL A   1      39.239  34.410  29.038  1.00  0.00     0.029 A 
ATOM     51  N   UNL A   1      38.892  33.268  30.890  1.00  0.00    -0.354 N 
ATOM     52  C   UNL A   1      42.060  32.762  33.923  1.00  0.00     0.074 A 
ATOM     53  C   UNL A   1      42.357  34.166  34.051  1.00  0.00     0.031 C 
ATOM     54  C   UNL A   1      37.901  34.285  29.164  1.00  0.00     0.029 A 
ATOM     55  C   UNL A   1      37.636  33.492  30.345  1.00  0.00     0.049 A 
ATOM     56  H   UNL A   1      39.034  32.700  31.681  1.00  0.00     0.167 HD
ATOM     57  C   UNL A   1      41.931  31.779  34.859  1.00  0.00     0.037 A 
ATOM     58  C   UNL A   1      36.452  33.051  30.831  1.00  0.00     0.037 A 
ATOM     59  C   UNL A   1      41.792  30.487  34.241  1.00  0.00     0.049 A 
ATOM     60  C   UNL A   1      36.753  31.912  31.731  1.00  0.00     0.074 A 
ATOM     61  C   UNL A   1      42.612  29.709  33.446  1.00  0.00     0.029 A 
ATOM     62  N   UNL A   1      40.530  29.972  34.076  1.00  0.00    -0.354 N 
ATOM     63  N   UNL A   1      37.236  30.774  31.318  1.00  0.00    -0.248 NA
ATOM     64  C   UNL A   1      36.964  32.211  33.139  1.00  0.00     0.031 C 
ATOM     65  C   UNL A   1      41.741  29.134  32.474  1.00  0.00     0.029 A 
ATOM     66  C   UNL A   1      40.440  29.535  32.776  1.00  0.00     0.049 A 
ATOM     67  H   UNL A   1      39.823  29.923  34.759  1.00  0.00     0.167 HD
ATOM     68  C   UNL A   1      38.162  30.409  32.284  1.00  0.00     0.074 A 
ATOM     69  C   UNL A   1      37.894  31.293  33.418  1.00  0.00     0.031 C 
ATOM     70  C   UNL A   1      39.237  29.624  31.980  1.00  0.00     0.037 A 
BRANCH  57  71
ATOM     71  C   UNL A   1      41.656  32.007  36.323  1.00  0.00     0.064 A 
ATOM     72  C   UNL A   1      40.471  32.657  36.723  1.00  0.00     0.173 A 
ATOM     73  C   UNL A   1      42.635  31.858  37.329  1.00  0.00     0.173 A 
ATOM     74  F   UNL A   1      39.480  32.875  35.845  1.00  0.00    -0.203 F 
ATOM     75  C   UNL A   1      40.308  33.173  38.013  1.00  0.00     0.198 A 
ATOM     76  C   UNL A   1      42.449  32.329  38.628  1.00  0.00     0.198 A 
ATOM     77  F   UNL A   1      43.847  31.354  37.066  1.00  0.00    -0.203 F 
ATOM     78  F   UNL A   1      39.212  33.883  38.313  1.00  0.00    -0.200 F 
ATOM     79  C   UNL A   1      41.298  33.011  38.964  1.00  0.00     0.200 A 
ATOM     80  F   UNL A   1      43.429  32.179  39.531  1.00  0.00    -0.200 F 
ATOM     81  F   UNL A   1      41.169  33.552  40.182  1.00  0.00    -0.200 F 
ENDBRANCH  57  71
BRANCH  58  82
ATOM     82  C   UNL A   1      35.154  33.755  30.821  1.00  0.00     0.064 A 
ATOM     83  C   UNL A   1      34.806  34.650  31.843  1.00  0.00     0.173 A 
ATOM     84  C   UNL A   1      34.350  33.777  29.664  1.00  0.00     0.173 A 
ATOM     85  F   UNL A   1      35.547  34.715  32.959  1.00  0.00    -0.203 F 
ATOM     86  C   UNL A   1      33.736  35.539  31.704  1.00  0.00     0.198 A 
ATOM     87  C   UNL A   1      33.281  34.663  29.526  1.00  0.00     0.198 A 
ATOM     88  F   UNL A   1      34.648  33.006  28.607  1.00  0.00    -0.203 F 
ATOM     89  F   UNL A   1      33.471  36.424  32.676  1.00  0.00    -0.200 F 
ATOM     90  C   UNL A   1      32.984  35.554  30.541  1.00  0.00     0.200 A 
ATOM     91  F   UNL A   1      32.584  34.691  28.381  1.00  0.00    -0.200 F 
ATOM     92  F   UNL A   1      32.000  36.451  30.380  1.00  0.00    -0.200 F 
ENDBRANCH  58  82
BRANCH  70  93
ATOM     93  C   UNL A   1      39.279  28.991  30.612  1.00  0.00     0.064 A 
ATOM     94  C   UNL A   1      39.746  29.642  29.456  1.00  0.00     0.173 A 
ATOM     95  C   UNL A   1      38.977  27.628  30.495  1.00  0.00     0.173 A 
ATOM     96  F   UNL A   1      40.154  30.915  29.499  1.00  0.00    -0.203 F 
ATOM     97  C   UNL A   1      39.863  28.975  28.237  1.00  0.00     0.198 A 
ATOM     98  C   UNL A   1      39.129  26.953  29.285  1.00  0.00     0.198 A 
ATOM     99  F   UNL A   1      38.581  26.935  31.573  1.00  0.00    -0.203 F 
ATOM    100  F   UNL A   1      40.304  29.628  27.151  1.00  0.00    -0.200 F 
ATOM    101  C   UNL A   1      39.561  27.627  28.155  1.00  0.00     0.200 A 
ATOM    102  F   UNL A   1      38.882  25.637  29.223  1.00  0.00    -0.200 F 
ATOM    103  F   UNL A   1      39.712  26.972  26.995  1.00  0.00    -0.200 F 
ENDBRANCH  70  93
ENDBRANCH  44  45
ENDBRANCH  36  39
ENDBRANCH  34  35
ENDBRANCH  33  34
ENDBRANCH  32  33
ENDBRANCH   1  32
TORSDOF 16
ENDMDL
