MODEL 1
REMARK VINA RESULT:     -12.2      0.000      0.000
REMARK SMILES Cc1ccc(/C=C/C(=O)N[C@](C)(C(=O)NCCCCNC(=O)c2ccc(-c3c4nc(c(-c5c(F)c(F)c(F)c(F)c5F)c5ccc([nH]5)c(-c5c(F)c(F)c(F)c(F)c5F)c5nc(c(-c6c(F)c(F)c(F)c(F)c6F)c6ccc3[nH]6)C=C5)C=C4)cc2)C(F)(F)F)o1
REMARK SMILES IDX 17 1 16 2 15 3 13 4 14 5 11 7 12 8 10 9 8 10 9 11 7 13 6 14
REMARK SMILES IDX 5 15 1 16 2 17 3 18 90 19 4 20 86 21 87 22 88 23 89 24 18 25
REMARK SMILES IDX 19 26 20 27 21 28 22 30 23 31 24 32 85 33 25 34 84 35 26 36
REMARK SMILES IDX 27 37 28 38 78 39 29 40 83 41 77 42 79 43 30 44 82 45 76 46
REMARK SMILES IDX 75 47 31 49 63 50 43 51 62 52 44 53 47 54 61 55 80 56 45 57
REMARK SMILES IDX 46 58 60 60 81 61 48 62 32 63 33 64 41 65 34 66 35 67 39 68
REMARK SMILES IDX 42 69 36 70 37 71 40 72 38 73 64 74 65 75 73 76 66 77 67 78
REMARK SMILES IDX 71 79 74 80 68 81 69 82 72 83 70 84 49 85 50 86 58 87 51 88
REMARK SMILES IDX 52 89 56 90 59 91 53 92 54 93 57 94 55 95
REMARK H PARENT 15 6 10 12 20 29 79 48 47 59
REMARK Flexibility Score: inf
ROOT
ATOM      1  C   UNL A   1      37.311  21.708  24.519  1.00  0.00     0.023 C 
ENDROOT
BRANCH   1   2
ATOM      2  C   UNL A   1      36.803  22.724  25.549  1.00  0.00     0.116 C 
BRANCH   2   3
ATOM      3  N   UNL A   1      35.872  22.098  26.475  1.00  0.00    -0.354 N 
ATOM      4  C   UNL A   1      34.539  21.834  26.483  1.00  0.00     0.254 C 
ATOM      5  O   UNL A   1      34.124  21.457  27.588  1.00  0.00    -0.272 OA
ATOM      6  H   UNL A   1      36.317  21.791  27.297  1.00  0.00     0.163 HD
BRANCH   4   7
ATOM      7  C   UNL A   1      33.533  22.056  25.316  1.00  0.00     0.212 C 
ATOM      8  C   UNL A   1      32.142  22.399  25.891  1.00  0.00     0.056 C 
BRANCH   7   9
ATOM      9  N   UNL A   1      33.966  22.976  24.200  1.00  0.00    -0.331 N 
ATOM     10  C   UNL A   1      33.804  24.252  23.787  1.00  0.00     0.245 C 
ATOM     11  O   UNL A   1      34.283  24.544  22.689  1.00  0.00    -0.270 OA
ATOM     12  H   UNL A   1      34.553  22.492  23.575  1.00  0.00     0.165 HD
BRANCH  10  13
ATOM     13  C   UNL A   1      33.133  25.325  24.549  1.00  0.00     0.075 C 
ATOM     14  C   UNL A   1      33.719  25.990  25.543  1.00  0.00     0.053 C 
BRANCH  14  15
ATOM     15  C   UNL A   1      33.184  27.139  26.169  1.00  0.00     0.127 A 
ATOM     16  C   UNL A   1      33.615  30.469  27.437  1.00  0.00     0.087 C 
ATOM     17  C   UNL A   1      33.059  29.146  27.093  1.00  0.00     0.101 A 
ATOM     18  C   UNL A   1      31.889  28.508  27.424  1.00  0.00     0.046 A 
ATOM     19  O   UNL A   1      33.834  28.341  26.314  1.00  0.00    -0.462 OA
ATOM     20  C   UNL A   1      31.970  27.228  26.838  1.00  0.00     0.050 A 
ENDBRANCH  14  15
ENDBRANCH  10  13
ENDBRANCH   7   9
BRANCH   7  21
ATOM     21  C   UNL A   1      33.393  20.626  24.703  1.00  0.00     0.420 C 
ATOM     22  F   UNL A   1      34.523  19.893  24.706  1.00  0.00    -0.168 F 
ATOM     23  F   UNL A   1      32.472  19.912  25.407  1.00  0.00    -0.168 F 
ATOM     24  F   UNL A   1      32.934  20.688  23.430  1.00  0.00    -0.168 F 
ENDBRANCH   7  21
ENDBRANCH   4   7
ENDBRANCH   2   3
ENDBRANCH   1   2
BRANCH   1  25
ATOM     25  C   UNL A   1      37.913  20.430  25.091  1.00  0.00     0.023 C 
BRANCH  25  26
ATOM     26  C   UNL A   1      39.250  20.611  25.790  1.00  0.00     0.116 C 
BRANCH  26  27
ATOM     27  N   UNL A   1      40.078  19.414  25.807  1.00  0.00    -0.352 N 
ATOM     28  C   UNL A   1      41.426  19.313  26.070  1.00  0.00     0.251 C 
ATOM     29  H   UNL A   1      39.616  18.569  25.606  1.00  0.00     0.163 HD
ATOM     30  O   UNL A   1      42.007  18.237  25.981  1.00  0.00    -0.269 OA
BRANCH  28  31
ATOM     31  C   UNL A   1      42.181  20.538  26.403  1.00  0.00     0.039 A 
ATOM     32  C   UNL A   1      42.706  21.311  25.366  1.00  0.00     0.014 A 
ATOM     33  C   UNL A   1      42.286  20.964  27.729  1.00  0.00     0.014 A 
ATOM     34  C   UNL A   1      43.252  22.563  25.650  1.00  0.00     0.010 A 
ATOM     35  C   UNL A   1      42.748  22.244  28.000  1.00  0.00     0.010 A 
ATOM     36  C   UNL A   1      43.229  23.060  26.962  1.00  0.00    -0.014 A 
BRANCH  36  37
ATOM     37  C   UNL A   1      43.694  24.430  27.287  1.00  0.00     0.031 A 
ATOM     38  C   UNL A   1      42.709  25.457  27.767  1.00  0.00     0.074 A 
ATOM     39  C   UNL A   1      44.971  24.779  27.039  1.00  0.00     0.049 A 
ATOM     40  N   UNL A   1      42.879  26.738  27.969  1.00  0.00    -0.248 NA
ATOM     41  C   UNL A   1      41.337  24.986  28.013  1.00  0.00     0.031 C 
ATOM     42  C   UNL A   1      46.005  23.891  26.504  1.00  0.00     0.029 A 
ATOM     43  N   UNL A   1      45.612  25.986  27.181  1.00  0.00    -0.354 N 
ATOM     44  C   UNL A   1      41.631  27.230  28.325  1.00  0.00     0.074 A 
ATOM     45  C   UNL A   1      40.705  26.120  28.270  1.00  0.00     0.031 C 
ATOM     46  C   UNL A   1      47.152  24.578  26.377  1.00  0.00     0.029 A 
ATOM     47  C   UNL A   1      46.926  25.961  26.786  1.00  0.00     0.049 A 
ATOM     48  H   UNL A   1      45.170  26.792  27.534  1.00  0.00     0.167 HD
ATOM     49  C   UNL A   1      41.293  28.490  28.686  1.00  0.00     0.037 A 
ATOM     50  C   UNL A   1      47.844  26.946  26.750  1.00  0.00     0.037 A 
ATOM     51  C   UNL A   1      42.229  29.576  28.795  1.00  0.00     0.049 A 
ATOM     52  C   UNL A   1      47.459  28.325  27.209  1.00  0.00     0.074 A 
ATOM     53  C   UNL A   1      42.009  30.863  29.252  1.00  0.00     0.029 A 
ATOM     54  N   UNL A   1      43.569  29.498  28.446  1.00  0.00    -0.354 N 
ATOM     55  N   UNL A   1      46.294  28.762  27.620  1.00  0.00    -0.248 NA
ATOM     56  C   UNL A   1      48.515  29.347  27.202  1.00  0.00     0.031 C 
ATOM     57  C   UNL A   1      43.209  31.574  29.147  1.00  0.00     0.029 A 
ATOM     58  C   UNL A   1      44.186  30.718  28.661  1.00  0.00     0.049 A 
ATOM     59  H   UNL A   1      44.017  28.692  28.098  1.00  0.00     0.167 HD
ATOM     60  C   UNL A   1      46.480  30.099  27.943  1.00  0.00     0.074 A 
ATOM     61  C   UNL A   1      47.874  30.400  27.689  1.00  0.00     0.031 C 
ATOM     62  C   UNL A   1      45.577  30.995  28.408  1.00  0.00     0.037 A 
BRANCH  49  63
ATOM     63  C   UNL A   1      39.850  28.756  28.994  1.00  0.00     0.064 A 
ATOM     64  C   UNL A   1      38.961  29.223  28.014  1.00  0.00     0.173 A 
ATOM     65  C   UNL A   1      39.346  28.531  30.284  1.00  0.00     0.173 A 
ATOM     66  F   UNL A   1      39.396  29.467  26.769  1.00  0.00    -0.203 F 
ATOM     67  C   UNL A   1      37.630  29.487  28.322  1.00  0.00     0.198 A 
ATOM     68  C   UNL A   1      38.007  28.768  30.581  1.00  0.00     0.198 A 
ATOM     69  F   UNL A   1      40.154  28.082  31.257  1.00  0.00    -0.203 F 
ATOM     70  F   UNL A   1      36.812  29.985  27.383  1.00  0.00    -0.200 F 
ATOM     71  C   UNL A   1      37.152  29.254  29.603  1.00  0.00     0.200 A 
ATOM     72  F   UNL A   1      37.545  28.534  31.818  1.00  0.00    -0.200 F 
ATOM     73  F   UNL A   1      35.869  29.508  29.899  1.00  0.00    -0.200 F 
ENDBRANCH  49  63
BRANCH  50  74
ATOM     74  C   UNL A   1      49.224  26.650  26.288  1.00  0.00     0.064 A 
ATOM     75  C   UNL A   1      49.609  26.919  24.967  1.00  0.00     0.173 A 
ATOM     76  C   UNL A   1      50.187  26.117  27.156  1.00  0.00     0.173 A 
ATOM     77  F   UNL A   1      48.717  27.412  24.097  1.00  0.00    -0.203 F 
ATOM     78  C   UNL A   1      50.904  26.654  24.529  1.00  0.00     0.198 A 
ATOM     79  C   UNL A   1      51.488  25.873  26.722  1.00  0.00     0.198 A 
ATOM     80  F   UNL A   1      49.868  25.850  28.430  1.00  0.00    -0.203 F 
ATOM     81  F   UNL A   1      51.239  26.890  23.252  1.00  0.00    -0.200 F 
ATOM     82  C   UNL A   1      51.845  26.137  25.407  1.00  0.00     0.200 A 
ATOM     83  F   UNL A   1      52.397  25.386  27.577  1.00  0.00    -0.200 F 
ATOM     84  F   UNL A   1      53.092  25.890  24.987  1.00  0.00    -0.200 F 
ENDBRANCH  50  74
BRANCH  62  85
ATOM     85  C   UNL A   1      46.068  32.382  28.698  1.00  0.00     0.064 A 
ATOM     86  C   UNL A   1      46.026  33.391  27.727  1.00  0.00     0.173 A 
ATOM     87  C   UNL A   1      46.531  32.716  29.979  1.00  0.00     0.173 A 
ATOM     88  F   UNL A   1      45.606  33.114  26.483  1.00  0.00    -0.203 F 
ATOM     89  C   UNL A   1      46.441  34.686  28.025  1.00  0.00     0.198 A 
ATOM     90  C   UNL A   1      46.922  34.018  30.281  1.00  0.00     0.198 A 
ATOM     91  F   UNL A   1      46.586  31.785  30.944  1.00  0.00    -0.203 F 
ATOM     92  F   UNL A   1      46.422  35.629  27.074  1.00  0.00    -0.200 F 
ATOM     93  C   UNL A   1      46.880  35.000  29.303  1.00  0.00     0.200 A 
ATOM     94  F   UNL A   1      47.336  34.322  31.518  1.00  0.00    -0.200 F 
ATOM     95  F   UNL A   1      47.267  36.250  29.592  1.00  0.00    -0.200 F 
ENDBRANCH  62  85
ENDBRANCH  36  37
ENDBRANCH  28  31
ENDBRANCH  26  27
ENDBRANCH  25  26
ENDBRANCH   1  25
TORSDOF 15
ENDMDL
MODEL 2
REMARK VINA RESULT:     -12.2      5.766     11.267
REMARK SMILES Cc1ccc(/C=C/C(=O)N[C@](C)(C(=O)NCCCCNC(=O)c2ccc(-c3c4nc(c(-c5c(F)c(F)c(F)c(F)c5F)c5ccc([nH]5)c(-c5c(F)c(F)c(F)c(F)c5F)c5nc(c(-c6c(F)c(F)c(F)c(F)c6F)c6ccc3[nH]6)C=C5)C=C4)cc2)C(F)(F)F)o1
REMARK SMILES IDX 17 1 16 2 15 3 13 4 14 5 11 7 12 8 10 9 8 10 9 11 7 13 6 14
REMARK SMILES IDX 5 15 1 16 2 17 3 18 90 19 4 20 86 21 87 22 88 23 89 24 18 25
REMARK SMILES IDX 19 26 20 27 21 28 22 30 23 31 24 32 85 33 25 34 84 35 26 36
REMARK SMILES IDX 27 37 28 38 78 39 29 40 83 41 77 42 79 43 30 44 82 45 76 46
REMARK SMILES IDX 75 47 31 49 63 50 43 51 62 52 44 53 47 54 61 55 80 56 45 57
REMARK SMILES IDX 46 58 60 60 81 61 48 62 32 63 33 64 41 65 34 66 35 67 39 68
REMARK SMILES IDX 42 69 36 70 37 71 40 72 38 73 64 74 65 75 73 76 66 77 67 78
REMARK SMILES IDX 71 79 74 80 68 81 69 82 72 83 70 84 49 85 50 86 58 87 51 88
REMARK SMILES IDX 52 89 56 90 59 91 53 92 54 93 57 94 55 95
REMARK H PARENT 15 6 10 12 20 29 79 48 47 59
REMARK Flexibility Score: inf
ROOT
ATOM      1  C   UNL A   1      32.012  30.153  26.954  1.00  0.00     0.023 C 
ENDROOT
BRANCH   1   2
ATOM      2  C   UNL A   1      33.259  29.396  26.483  1.00  0.00     0.116 C 
BRANCH   2   3
ATOM      3  N   UNL A   1      33.445  29.549  25.049  1.00  0.00    -0.354 N 
ATOM      4  C   UNL A   1      32.984  28.919  23.936  1.00  0.00     0.254 C 
ATOM      5  O   UNL A   1      33.573  29.263  22.902  1.00  0.00    -0.272 OA
ATOM      6  H   UNL A   1      34.054  30.290  24.830  1.00  0.00     0.163 HD
BRANCH   4   7
ATOM      7  C   UNL A   1      31.913  27.792  23.875  1.00  0.00     0.212 C 
ATOM      8  C   UNL A   1      32.207  26.864  22.677  1.00  0.00     0.056 C 
BRANCH   7   9
ATOM      9  N   UNL A   1      31.624  27.046  25.156  1.00  0.00    -0.331 N 
ATOM     10  C   UNL A   1      32.139  26.059  25.920  1.00  0.00     0.245 C 
ATOM     11  O   UNL A   1      31.458  25.684  26.875  1.00  0.00    -0.270 OA
ATOM     12  H   UNL A   1      30.796  27.389  25.564  1.00  0.00     0.165 HD
BRANCH  10  13
ATOM     13  C   UNL A   1      33.456  25.418  25.724  1.00  0.00     0.075 C 
ATOM     14  C   UNL A   1      33.604  24.192  25.225  1.00  0.00     0.053 C 
BRANCH  14  15
ATOM     15  C   UNL A   1      34.841  23.618  24.850  1.00  0.00     0.127 A 
ATOM     16  C   UNL A   1      38.118  22.452  25.734  1.00  0.00     0.087 C 
ATOM     17  C   UNL A   1      36.913  22.853  24.982  1.00  0.00     0.101 A 
ATOM     18  C   UNL A   1      36.644  22.979  23.641  1.00  0.00     0.046 A 
ATOM     19  O   UNL A   1      35.824  23.209  25.719  1.00  0.00    -0.462 OA
ATOM     20  C   UNL A   1      35.325  23.469  23.557  1.00  0.00     0.050 A 
ENDBRANCH  14  15
ENDBRANCH  10  13
ENDBRANCH   7   9
BRANCH   7  21
ATOM     21  C   UNL A   1      30.613  28.569  23.493  1.00  0.00     0.420 C 
ATOM     22  F   UNL A   1      30.526  29.815  24.000  1.00  0.00    -0.168 F 
ATOM     23  F   UNL A   1      30.535  28.700  22.140  1.00  0.00    -0.168 F 
ATOM     24  F   UNL A   1      29.508  27.881  23.872  1.00  0.00    -0.168 F 
ENDBRANCH   7  21
ENDBRANCH   4   7
ENDBRANCH   2   3
ENDBRANCH   1   2
BRANCH   1  25
ATOM     25  C   UNL A   1      31.983  31.643  26.638  1.00  0.00     0.023 C 
BRANCH  25  26
ATOM     26  C   UNL A   1      32.923  32.492  27.477  1.00  0.00     0.116 C 
BRANCH  26  27
ATOM     27  N   UNL A   1      32.460  33.855  27.691  1.00  0.00    -0.352 N 
ATOM     28  C   UNL A   1      32.972  34.806  28.546  1.00  0.00     0.251 C 
ATOM     29  H   UNL A   1      31.681  34.134  27.157  1.00  0.00     0.163 HD
ATOM     30  O   UNL A   1      32.433  35.899  28.670  1.00  0.00    -0.269 OA
BRANCH  28  31
ATOM     31  C   UNL A   1      34.155  34.466  29.362  1.00  0.00     0.039 A 
ATOM     32  C   UNL A   1      33.965  33.914  30.631  1.00  0.00     0.014 A 
ATOM     33  C   UNL A   1      35.441  34.608  28.836  1.00  0.00     0.014 A 
ATOM     34  C   UNL A   1      35.060  33.413  31.334  1.00  0.00     0.010 A 
ATOM     35  C   UNL A   1      36.517  34.030  29.496  1.00  0.00     0.010 A 
ATOM     36  C   UNL A   1      36.336  33.419  30.749  1.00  0.00    -0.014 A 
BRANCH  36  37
ATOM     37  C   UNL A   1      37.504  32.793  31.414  1.00  0.00     0.031 A 
ATOM     38  C   UNL A   1      38.194  31.628  30.766  1.00  0.00     0.074 A 
ATOM     39  C   UNL A   1      37.866  33.195  32.648  1.00  0.00     0.049 A 
ATOM     40  N   UNL A   1      39.135  30.853  31.240  1.00  0.00    -0.248 NA
ATOM     41  C   UNL A   1      37.734  31.259  29.418  1.00  0.00     0.031 C 
ATOM     42  C   UNL A   1      37.228  34.269  33.411  1.00  0.00     0.029 A 
ATOM     43  N   UNL A   1      38.848  32.730  33.488  1.00  0.00    -0.354 N 
ATOM     44  C   UNL A   1      39.349  29.886  30.269  1.00  0.00     0.074 A 
ATOM     45  C   UNL A   1      38.411  30.144  29.198  1.00  0.00     0.031 C 
ATOM     46  C   UNL A   1      37.841  34.388  34.600  1.00  0.00     0.029 A 
ATOM     47  C   UNL A   1      38.892  33.379  34.696  1.00  0.00     0.049 A 
ATOM     48  H   UNL A   1      39.462  31.999  33.245  1.00  0.00     0.167 HD
ATOM     49  C   UNL A   1      40.260  28.885  30.262  1.00  0.00     0.037 A 
ATOM     50  C   UNL A   1      39.685  33.176  35.766  1.00  0.00     0.037 A 
ATOM     51  C   UNL A   1      41.228  28.668  31.303  1.00  0.00     0.049 A 
ATOM     52  C   UNL A   1      40.727  32.093  35.712  1.00  0.00     0.074 A 
ATOM     53  C   UNL A   1      42.261  27.749  31.343  1.00  0.00     0.029 A 
ATOM     54  N   UNL A   1      41.284  29.387  32.487  1.00  0.00    -0.354 N 
ATOM     55  N   UNL A   1      40.975  31.234  34.754  1.00  0.00    -0.248 NA
ATOM     56  C   UNL A   1      41.602  31.955  36.885  1.00  0.00     0.031 C 
ATOM     57  C   UNL A   1      42.921  27.889  32.568  1.00  0.00     0.029 A 
ATOM     58  C   UNL A   1      42.323  28.922  33.274  1.00  0.00     0.049 A 
ATOM     59  H   UNL A   1      40.674  30.122  32.732  1.00  0.00     0.167 HD
ATOM     60  C   UNL A   1      42.045  30.469  35.195  1.00  0.00     0.074 A 
ATOM     61  C   UNL A   1      42.408  30.973  36.505  1.00  0.00     0.031 C 
ATOM     62  C   UNL A   1      42.672  29.442  34.572  1.00  0.00     0.037 A 
BRANCH  49  63
ATOM     63  C   UNL A   1      40.253  27.953  29.087  1.00  0.00     0.064 A 
ATOM     64  C   UNL A   1      39.510  26.763  29.094  1.00  0.00     0.173 A 
ATOM     65  C   UNL A   1      40.991  28.260  27.933  1.00  0.00     0.173 A 
ATOM     66  F   UNL A   1      38.800  26.417  30.178  1.00  0.00    -0.203 F 
ATOM     67  C   UNL A   1      39.533  25.898  28.004  1.00  0.00     0.198 A 
ATOM     68  C   UNL A   1      40.988  27.406  26.833  1.00  0.00     0.198 A 
ATOM     69  F   UNL A   1      41.717  29.387  27.873  1.00  0.00    -0.203 F 
ATOM     70  F   UNL A   1      38.859  24.740  28.055  1.00  0.00    -0.200 F 
ATOM     71  C   UNL A   1      40.266  26.222  26.872  1.00  0.00     0.200 A 
ATOM     72  F   UNL A   1      41.690  27.725  25.737  1.00  0.00    -0.200 F 
ATOM     73  F   UNL A   1      40.287  25.388  25.823  1.00  0.00    -0.200 F 
ENDBRANCH  49  63
BRANCH  50  74
ATOM     74  C   UNL A   1      39.538  34.039  36.965  1.00  0.00     0.064 A 
ATOM     75  C   UNL A   1      38.773  33.618  38.061  1.00  0.00     0.173 A 
ATOM     76  C   UNL A   1      40.175  35.286  37.050  1.00  0.00     0.173 A 
ATOM     77  F   UNL A   1      38.132  32.442  38.017  1.00  0.00    -0.203 F 
ATOM     78  C   UNL A   1      38.639  34.418  39.194  1.00  0.00     0.198 A 
ATOM     79  C   UNL A   1      40.058  36.075  38.192  1.00  0.00     0.198 A 
ATOM     80  F   UNL A   1      40.923  35.729  36.030  1.00  0.00    -0.203 F 
ATOM     81  F   UNL A   1      37.876  34.007  40.215  1.00  0.00    -0.200 F 
ATOM     82  C   UNL A   1      39.287  35.643  39.261  1.00  0.00     0.200 A 
ATOM     83  F   UNL A   1      40.695  37.252  38.259  1.00  0.00    -0.200 F 
ATOM     84  F   UNL A   1      39.164  36.408  40.355  1.00  0.00    -0.200 F 
ENDBRANCH  50  74
BRANCH  62  85
ATOM     85  C   UNL A   1      43.829  28.807  35.282  1.00  0.00     0.064 A 
ATOM     86  C   UNL A   1      43.647  27.733  36.163  1.00  0.00     0.173 A 
ATOM     87  C   UNL A   1      45.139  29.242  35.032  1.00  0.00     0.173 A 
ATOM     88  F   UNL A   1      42.412  27.293  36.445  1.00  0.00    -0.203 F 
ATOM     89  C   UNL A   1      44.737  27.122  36.777  1.00  0.00     0.198 A 
ATOM     90  C   UNL A   1      46.228  28.614  35.630  1.00  0.00     0.198 A 
ATOM     91  F   UNL A   1      45.364  30.265  34.193  1.00  0.00    -0.203 F 
ATOM     92  F   UNL A   1      44.540  26.116  37.640  1.00  0.00    -0.200 F 
ATOM     93  C   UNL A   1      46.025  27.557  36.504  1.00  0.00     0.200 A 
ATOM     94  F   UNL A   1      47.472  29.029  35.356  1.00  0.00    -0.200 F 
ATOM     95  F   UNL A   1      47.074  26.960  37.087  1.00  0.00    -0.200 F 
ENDBRANCH  62  85
ENDBRANCH  36  37
ENDBRANCH  28  31
ENDBRANCH  26  27
ENDBRANCH  25  26
ENDBRANCH   1  25
TORSDOF 15
ENDMDL
MODEL 3
REMARK VINA RESULT:     -12.2      4.978      8.322
REMARK SMILES Cc1ccc(/C=C/C(=O)N[C@](C)(C(=O)NCCCCNC(=O)c2ccc(-c3c4nc(c(-c5c(F)c(F)c(F)c(F)c5F)c5ccc([nH]5)c(-c5c(F)c(F)c(F)c(F)c5F)c5nc(c(-c6c(F)c(F)c(F)c(F)c6F)c6ccc3[nH]6)C=C5)C=C4)cc2)C(F)(F)F)o1
REMARK SMILES IDX 17 1 16 2 15 3 13 4 14 5 11 7 12 8 10 9 8 10 9 11 7 13 6 14
REMARK SMILES IDX 5 15 1 16 2 17 3 18 90 19 4 20 86 21 87 22 88 23 89 24 18 25
REMARK SMILES IDX 19 26 20 27 21 28 22 30 23 31 24 32 85 33 25 34 84 35 26 36
REMARK SMILES IDX 27 37 28 38 78 39 29 40 83 41 77 42 79 43 30 44 82 45 76 46
REMARK SMILES IDX 75 47 31 49 63 50 43 51 62 52 44 53 47 54 61 55 80 56 45 57
REMARK SMILES IDX 46 58 60 60 81 61 48 62 32 63 33 64 41 65 34 66 35 67 39 68
REMARK SMILES IDX 42 69 36 70 37 71 40 72 38 73 64 74 65 75 73 76 66 77 67 78
REMARK SMILES IDX 71 79 74 80 68 81 69 82 72 83 70 84 49 85 50 86 58 87 51 88
REMARK SMILES IDX 52 89 56 90 59 91 53 92 54 93 57 94 55 95
REMARK H PARENT 15 6 10 12 20 29 79 48 47 59
REMARK Flexibility Score: inf
ROOT
ATOM      1  C   UNL A   1      33.334  29.055  24.997  1.00  0.00     0.023 C 
ENDROOT
BRANCH   1   2
ATOM      2  C   UNL A   1      33.913  27.705  25.437  1.00  0.00     0.116 C 
BRANCH   2   3
ATOM      3  N   UNL A   1      32.886  26.879  26.051  1.00  0.00    -0.354 N 
ATOM      4  C   UNL A   1      32.354  25.651  25.813  1.00  0.00     0.254 C 
ATOM      5  O   UNL A   1      31.337  25.422  26.482  1.00  0.00    -0.272 OA
ATOM      6  H   UNL A   1      32.474  27.317  26.830  1.00  0.00     0.163 HD
BRANCH   4   7
ATOM      7  C   UNL A   1      32.830  24.614  24.754  1.00  0.00     0.212 C 
ATOM      8  C   UNL A   1      31.832  23.438  24.696  1.00  0.00     0.056 C 
BRANCH   7   9
ATOM      9  N   UNL A   1      33.212  25.146  23.393  1.00  0.00    -0.331 N 
ATOM     10  C   UNL A   1      32.676  25.835  22.362  1.00  0.00     0.245 C 
ATOM     11  O   UNL A   1      33.369  25.943  21.348  1.00  0.00    -0.270 OA
ATOM     12  H   UNL A   1      34.148  24.917  23.194  1.00  0.00     0.165 HD
BRANCH  10  13
ATOM     13  C   UNL A   1      31.354  26.493  22.360  1.00  0.00     0.075 C 
ATOM     14  C   UNL A   1      31.187  27.797  22.571  1.00  0.00     0.053 C 
BRANCH  14  15
ATOM     15  C   UNL A   1      29.968  28.492  22.394  1.00  0.00     0.127 A 
ATOM     16  C   UNL A   1      28.140  31.254  21.010  1.00  0.00     0.087 C 
ATOM     17  C   UNL A   1      28.523  30.047  21.768  1.00  0.00     0.101 A 
ATOM     18  C   UNL A   1      27.872  29.287  22.709  1.00  0.00     0.046 A 
ATOM     19  O   UNL A   1      29.776  29.560  21.551  1.00  0.00    -0.462 OA
ATOM     20  C   UNL A   1      28.794  28.298  23.111  1.00  0.00     0.050 A 
ENDBRANCH  14  15
ENDBRANCH  10  13
ENDBRANCH   7   9
BRANCH   7  21
ATOM     21  C   UNL A   1      34.128  24.031  25.399  1.00  0.00     0.420 C 
ATOM     22  F   UNL A   1      35.254  24.723  25.135  1.00  0.00    -0.168 F 
ATOM     23  F   UNL A   1      34.000  24.010  26.754  1.00  0.00    -0.168 F 
ATOM     24  F   UNL A   1      34.323  22.746  25.016  1.00  0.00    -0.168 F 
ENDBRANCH   7  21
ENDBRANCH   4   7
ENDBRANCH   2   3
ENDBRANCH   1   2
BRANCH   1  25
ATOM     25  C   UNL A   1      32.117  29.538  25.775  1.00  0.00     0.023 C 
BRANCH  25  26
ATOM     26  C   UNL A   1      32.427  30.152  27.130  1.00  0.00     0.116 C 
BRANCH  26  27
ATOM     27  N   UNL A   1      32.487  31.606  27.123  1.00  0.00    -0.352 N 
ATOM     28  C   UNL A   1      33.533  32.419  27.499  1.00  0.00     0.251 C 
ATOM     29  H   UNL A   1      31.676  32.068  26.810  1.00  0.00     0.163 HD
ATOM     30  O   UNL A   1      33.414  33.639  27.504  1.00  0.00    -0.269 OA
BRANCH  28  31
ATOM     31  C   UNL A   1      34.790  31.795  27.957  1.00  0.00     0.039 A 
ATOM     32  C   UNL A   1      35.895  32.610  28.212  1.00  0.00     0.014 A 
ATOM     33  C   UNL A   1      34.844  30.424  28.219  1.00  0.00     0.014 A 
ATOM     34  C   UNL A   1      37.025  32.066  28.825  1.00  0.00     0.010 A 
ATOM     35  C   UNL A   1      35.932  29.903  28.907  1.00  0.00     0.010 A 
ATOM     36  C   UNL A   1      37.029  30.720  29.224  1.00  0.00    -0.014 A 
BRANCH  36  37
ATOM     37  C   UNL A   1      38.163  30.134  29.979  1.00  0.00     0.031 A 
ATOM     38  C   UNL A   1      38.413  30.559  31.397  1.00  0.00     0.074 A 
ATOM     39  C   UNL A   1      39.030  29.314  29.355  1.00  0.00     0.049 A 
ATOM     40  N   UNL A   1      39.420  30.278  32.182  1.00  0.00    -0.248 NA
ATOM     41  C   UNL A   1      37.413  31.455  32.000  1.00  0.00     0.031 C 
ATOM     42  C   UNL A   1      38.935  28.883  27.958  1.00  0.00     0.029 A 
ATOM     43  N   UNL A   1      40.178  28.713  29.809  1.00  0.00    -0.354 N 
ATOM     44  C   UNL A   1      39.196  30.993  33.350  1.00  0.00     0.074 A 
ATOM     45  C   UNL A   1      37.981  31.753  33.157  1.00  0.00     0.031 C 
ATOM     46  C   UNL A   1      39.973  28.079  27.674  1.00  0.00     0.029 A 
ATOM     47  C   UNL A   1      40.823  27.965  28.856  1.00  0.00     0.049 A 
ATOM     48  H   UNL A   1      40.508  28.810  30.732  1.00  0.00     0.167 HD
ATOM     49  C   UNL A   1      39.928  30.998  34.489  1.00  0.00     0.037 A 
ATOM     50  C   UNL A   1      41.976  27.272  28.924  1.00  0.00     0.037 A 
ATOM     51  C   UNL A   1      41.104  30.195  34.696  1.00  0.00     0.049 A 
ATOM     52  C   UNL A   1      42.742  27.248  30.218  1.00  0.00     0.074 A 
ATOM     53  C   UNL A   1      41.856  30.048  35.847  1.00  0.00     0.029 A 
ATOM     54  N   UNL A   1      41.693  29.399  33.726  1.00  0.00    -0.354 N 
ATOM     55  N   UNL A   1      42.478  27.864  31.344  1.00  0.00    -0.248 NA
ATOM     56  C   UNL A   1      43.962  26.429  30.252  1.00  0.00     0.031 C 
ATOM     57  C   UNL A   1      42.922  29.188  35.563  1.00  0.00     0.029 A 
ATOM     58  C   UNL A   1      42.811  28.770  34.246  1.00  0.00     0.049 A 
ATOM     59  H   UNL A   1      41.365  29.295  32.803  1.00  0.00     0.167 HD
ATOM     60  C   UNL A   1      43.483  27.493  32.227  1.00  0.00     0.074 A 
ATOM     61  C   UNL A   1      44.356  26.587  31.508  1.00  0.00     0.031 C 
ATOM     62  C   UNL A   1      43.664  27.867  33.516  1.00  0.00     0.037 A 
BRANCH  49  63
ATOM     63  C   UNL A   1      39.471  31.897  35.599  1.00  0.00     0.064 A 
ATOM     64  C   UNL A   1      38.524  31.477  36.545  1.00  0.00     0.173 A 
ATOM     65  C   UNL A   1      39.997  33.192  35.726  1.00  0.00     0.173 A 
ATOM     66  F   UNL A   1      37.981  30.253  36.460  1.00  0.00    -0.203 F 
ATOM     67  C   UNL A   1      38.095  32.332  37.556  1.00  0.00     0.198 A 
ATOM     68  C   UNL A   1      39.586  34.033  36.755  1.00  0.00     0.198 A 
ATOM     69  F   UNL A   1      40.908  33.641  34.849  1.00  0.00    -0.203 F 
ATOM     70  F   UNL A   1      37.148  31.928  38.415  1.00  0.00    -0.200 F 
ATOM     71  C   UNL A   1      38.629  33.607  37.665  1.00  0.00     0.200 A 
ATOM     72  F   UNL A   1      40.111  35.262  36.864  1.00  0.00    -0.200 F 
ATOM     73  F   UNL A   1      38.215  34.429  38.639  1.00  0.00    -0.200 F 
ENDBRANCH  49  63
BRANCH  50  74
ATOM     74  C   UNL A   1      42.456  26.522  27.736  1.00  0.00     0.064 A 
ATOM     75  C   UNL A   1      43.382  27.095  26.853  1.00  0.00     0.173 A 
ATOM     76  C   UNL A   1      42.020  25.216  27.470  1.00  0.00     0.173 A 
ATOM     77  F   UNL A   1      43.812  28.348  27.057  1.00  0.00    -0.203 F 
ATOM     78  C   UNL A   1      43.844  26.395  25.742  1.00  0.00     0.198 A 
ATOM     79  C   UNL A   1      42.500  24.508  26.371  1.00  0.00     0.198 A 
ATOM     80  F   UNL A   1      41.140  24.622  28.289  1.00  0.00    -0.203 F 
ATOM     81  F   UNL A   1      44.705  26.978  24.896  1.00  0.00    -0.200 F 
ATOM     82  C   UNL A   1      43.408  25.100  25.505  1.00  0.00     0.200 A 
ATOM     83  F   UNL A   1      42.087  23.253  26.152  1.00  0.00    -0.200 F 
ATOM     84  F   UNL A   1      43.860  24.423  24.440  1.00  0.00    -0.200 F 
ENDBRANCH  50  74
BRANCH  62  85
ATOM     85  C   UNL A   1      44.836  27.283  34.245  1.00  0.00     0.064 A 
ATOM     86  C   UNL A   1      46.066  27.952  34.310  1.00  0.00     0.173 A 
ATOM     87  C   UNL A   1      44.707  26.069  34.935  1.00  0.00     0.173 A 
ATOM     88  F   UNL A   1      46.240  29.109  33.653  1.00  0.00    -0.203 F 
ATOM     89  C   UNL A   1      47.130  27.420  35.032  1.00  0.00     0.198 A 
ATOM     90  C   UNL A   1      45.767  25.551  35.675  1.00  0.00     0.198 A 
ATOM     91  F   UNL A   1      43.548  25.392  34.906  1.00  0.00    -0.203 F 
ATOM     92  F   UNL A   1      48.307  28.060  35.056  1.00  0.00    -0.200 F 
ATOM     93  C   UNL A   1      46.978  26.226  35.720  1.00  0.00     0.200 A 
ATOM     94  F   UNL A   1      45.614  24.403  36.349  1.00  0.00    -0.200 F 
ATOM     95  F   UNL A   1      48.000  25.721  36.424  1.00  0.00    -0.200 F 
ENDBRANCH  62  85
ENDBRANCH  36  37
ENDBRANCH  28  31
ENDBRANCH  26  27
ENDBRANCH  25  26
ENDBRANCH   1  25
TORSDOF 15
ENDMDL
