MODEL 1
REMARK VINA RESULT:     -12.4      0.000      0.000
REMARK SMILES CC[C@H](NC(=O)Cc1c(C)c2cc(Cl)c(OC)cc2oc1=O)C(=O)NCCCCNC(=O)c1ccc(-c2c3nc(c(-c4c(F)c(F)c(F)c(F)c4F)c4ccc([nH]4)c(-c4c(F)c(F)c(F)c(F)c4F)c4nc(c(-c5c(F)c(F)c(F)c(F)c5F)c5ccc2[nH]5)C=C4)C=C3)cc1
REMARK SMILES IDX 26 1 25 2 23 3 24 4 3 6 2 7 1 8 4 9 5 10 6 12 7 13 8 14 9 15
REMARK SMILES IDX 21 16 10 17 11 18 20 19 22 20 12 21 19 22 13 23 18 24 14 25
REMARK SMILES IDX 15 26 16 27 17 28 27 29 28 30 29 31 30 32 31 33 32 35 33 36
REMARK SMILES IDX 34 37 95 38 35 39 94 40 36 41 37 42 38 43 88 44 39 45 93 46
REMARK SMILES IDX 87 47 89 48 40 49 92 50 86 51 85 52 41 54 73 55 53 56 72 57
REMARK SMILES IDX 54 58 57 59 71 60 90 61 55 62 56 63 70 65 91 66 58 67 42 68
REMARK SMILES IDX 43 69 51 70 44 71 45 72 49 73 52 74 46 75 47 76 50 77 48 78
REMARK SMILES IDX 74 79 75 80 83 81 76 82 77 83 81 84 84 85 78 86 79 87 82 88
REMARK SMILES IDX 80 89 59 90 60 91 68 92 61 93 62 94 66 95 69 96 63 97 64 98
REMARK SMILES IDX 67 99 65 100
REMARK H PARENT 25 5 4 11 30 34 89 53 57 64
REMARK Flexibility Score: inf
ROOT
ATOM      1  C   UNL A   1      35.158  23.556  23.855  1.00  0.00     0.116 C 
ENDROOT
BRANCH   1   2
ATOM      2  N   UNL A   1      34.232  22.646  23.207  1.00  0.00    -0.354 N 
ATOM      3  C   UNL A   1      32.877  22.708  23.043  1.00  0.00     0.242 C 
ATOM      4  O   UNL A   1      32.349  21.846  22.336  1.00  0.00    -0.273 OA
ATOM      5  H   UNL A   1      34.653  21.845  22.816  1.00  0.00     0.163 HD
BRANCH   3   6
ATOM      6  C   UNL A   1      32.045  23.885  23.599  1.00  0.00     0.171 C 
BRANCH   6   7
ATOM      7  C   UNL A   1      30.747  23.338  24.218  1.00  0.00     0.031 C 
ATOM      8  C   UNL A   1      30.914  22.761  25.610  1.00  0.00     0.006 C 
ENDBRANCH   6   7
BRANCH   6   9
ATOM      9  N   UNL A   1      31.834  24.875  22.542  1.00  0.00    -0.344 N 
ATOM     10  C   UNL A   1      31.330  26.138  22.652  1.00  0.00     0.225 C 
ATOM     11  H   UNL A   1      32.090  24.593  21.634  1.00  0.00     0.164 HD
ATOM     12  O   UNL A   1      31.561  26.928  21.734  1.00  0.00    -0.275 OA
BRANCH  10  13
ATOM     13  C   UNL A   1      30.458  26.528  23.838  1.00  0.00     0.143 C 
BRANCH  13  14
ATOM     14  C   UNL A   1      31.059  27.586  24.746  1.00  0.00     0.051 A 
ATOM     15  C   UNL A   1      31.900  27.392  25.787  1.00  0.00    -0.029 A 
ATOM     16  C   UNL A   1      30.617  28.966  24.378  1.00  0.00     0.340 A 
ATOM     17  C   UNL A   1      32.168  26.059  26.437  1.00  0.00     0.046 C 
ATOM     18  C   UNL A   1      32.630  28.553  26.321  1.00  0.00     0.023 A 
ATOM     19  O   UNL A   1      31.112  30.021  25.128  1.00  0.00    -0.422 OA
ATOM     20  O   UNL A   1      29.797  29.161  23.489  1.00  0.00    -0.246 OA
ATOM     21  C   UNL A   1      33.809  28.440  27.067  1.00  0.00     0.036 A 
ATOM     22  C   UNL A   1      32.194  29.831  25.997  1.00  0.00     0.142 A 
ATOM     23  C   UNL A   1      34.496  29.582  27.497  1.00  0.00     0.083 A 
ATOM     24  C   UNL A   1      32.838  30.983  26.458  1.00  0.00     0.095 A 
ATOM     25  Cl  UNL A   1      35.980  29.357  28.356  1.00  0.00    -0.080 Cl
ATOM     26  C   UNL A   1      33.995  30.861  27.226  1.00  0.00     0.141 A 
BRANCH  26  27
ATOM     27  O   UNL A   1      34.717  31.936  27.674  1.00  0.00    -0.495 OA
ATOM     28  C   UNL A   1      33.946  33.045  28.122  1.00  0.00     0.278 C 
ENDBRANCH  26  27
ENDBRANCH  13  14
ENDBRANCH  10  13
ENDBRANCH   6   9
ENDBRANCH   3   6
ENDBRANCH   1   2
BRANCH   1  29
ATOM     29  C   UNL A   1      36.615  23.184  23.598  1.00  0.00     0.023 C 
BRANCH  29  30
ATOM     30  C   UNL A   1      37.021  21.810  24.126  1.00  0.00     0.023 C 
BRANCH  30  31
ATOM     31  C   UNL A   1      37.584  21.799  25.541  1.00  0.00     0.116 C 
BRANCH  31  32
ATOM     32  N   UNL A   1      38.621  20.800  25.764  1.00  0.00    -0.352 N 
ATOM     33  C   UNL A   1      39.824  20.976  26.415  1.00  0.00     0.251 C 
ATOM     34  H   UNL A   1      38.442  19.898  25.410  1.00  0.00     0.163 HD
ATOM     35  O   UNL A   1      40.643  20.075  26.504  1.00  0.00    -0.269 OA
BRANCH  33  36
ATOM     36  C   UNL A   1      40.114  22.320  26.951  1.00  0.00     0.039 A 
ATOM     37  C   UNL A   1      39.555  23.442  26.338  1.00  0.00     0.014 A 
ATOM     38  C   UNL A   1      41.082  22.448  27.949  1.00  0.00     0.014 A 
ATOM     39  C   UNL A   1      40.094  24.695  26.603  1.00  0.00     0.010 A 
ATOM     40  C   UNL A   1      41.572  23.716  28.262  1.00  0.00     0.010 A 
ATOM     41  C   UNL A   1      41.126  24.839  27.546  1.00  0.00    -0.014 A 
BRANCH  41  42
ATOM     42  C   UNL A   1      41.768  26.163  27.727  1.00  0.00     0.031 A 
ATOM     43  C   UNL A   1      41.106  27.224  28.564  1.00  0.00     0.074 A 
ATOM     44  C   UNL A   1      42.983  26.383  27.197  1.00  0.00     0.049 A 
ATOM     45  N   UNL A   1      41.507  28.444  28.821  1.00  0.00    -0.248 NA
ATOM     46  C   UNL A   1      39.826  26.869  29.197  1.00  0.00     0.031 C 
ATOM     47  C   UNL A   1      43.742  25.415  26.405  1.00  0.00     0.029 A 
ATOM     48  N   UNL A   1      43.807  27.476  27.272  1.00  0.00    -0.354 N 
ATOM     49  C   UNL A   1      40.522  29.008  29.622  1.00  0.00     0.074 A 
ATOM     50  C   UNL A   1      39.494  28.003  29.797  1.00  0.00     0.031 C 
ATOM     51  C   UNL A   1      44.944  25.932  26.117  1.00  0.00     0.029 A 
ATOM     52  C   UNL A   1      45.014  27.291  26.649  1.00  0.00     0.049 A 
ATOM     53  H   UNL A   1      43.556  28.312  27.727  1.00  0.00     0.167 HD
ATOM     54  C   UNL A   1      40.484  30.247  30.166  1.00  0.00     0.037 A 
ATOM     55  C   UNL A   1      46.059  28.127  26.510  1.00  0.00     0.037 A 
ATOM     56  C   UNL A   1      41.518  31.237  30.009  1.00  0.00     0.049 A 
ATOM     57  C   UNL A   1      45.971  29.512  27.081  1.00  0.00     0.074 A 
ATOM     58  C   UNL A   1      41.568  32.525  30.514  1.00  0.00     0.029 A 
ATOM     59  N   UNL A   1      42.693  31.042  29.297  1.00  0.00    -0.354 N 
ATOM     60  N   UNL A   1      45.010  30.054  27.787  1.00  0.00    -0.248 NA
ATOM     61  C   UNL A   1      47.104  30.407  26.813  1.00  0.00     0.031 C 
ATOM     62  C   UNL A   1      42.761  33.119  30.083  1.00  0.00     0.029 A 
ATOM     63  C   UNL A   1      43.469  32.189  29.339  1.00  0.00     0.049 A 
ATOM     64  H   UNL A   1      42.939  30.209  28.831  1.00  0.00     0.167 HD
ATOM     65  C   UNL A   1      45.415  31.355  28.043  1.00  0.00     0.074 A 
ATOM     66  C   UNL A   1      46.724  31.512  27.440  1.00  0.00     0.031 C 
ATOM     67  C   UNL A   1      44.758  32.334  28.712  1.00  0.00     0.037 A 
BRANCH  54  68
ATOM     68  C   UNL A   1      39.271  30.613  30.970  1.00  0.00     0.064 A 
ATOM     69  C   UNL A   1      39.175  30.306  32.336  1.00  0.00     0.173 A 
ATOM     70  C   UNL A   1      38.206  31.304  30.375  1.00  0.00     0.173 A 
ATOM     71  F   UNL A   1      40.159  29.631  32.947  1.00  0.00    -0.203 F 
ATOM     72  C   UNL A   1      38.046  30.663  33.072  1.00  0.00     0.198 A 
ATOM     73  C   UNL A   1      37.089  31.679  31.118  1.00  0.00     0.198 A 
ATOM     74  F   UNL A   1      38.250  31.622  29.072  1.00  0.00    -0.203 F 
ATOM     75  F   UNL A   1      37.958  30.327  34.365  1.00  0.00    -0.200 F 
ATOM     76  C   UNL A   1      37.008  31.354  32.464  1.00  0.00     0.200 A 
ATOM     77  F   UNL A   1      36.090  32.352  30.531  1.00  0.00    -0.200 F 
ATOM     78  F   UNL A   1      35.924  31.698  33.173  1.00  0.00    -0.200 F 
ENDBRANCH  54  68
BRANCH  55  79
ATOM     79  C   UNL A   1      47.272  27.656  25.801  1.00  0.00     0.064 A 
ATOM     80  C   UNL A   1      47.352  27.725  24.404  1.00  0.00     0.173 A 
ATOM     81  C   UNL A   1      48.392  27.191  26.504  1.00  0.00     0.173 A 
ATOM     82  F   UNL A   1      46.297  28.147  23.693  1.00  0.00    -0.203 F 
ATOM     83  C   UNL A   1      48.516  27.353  23.736  1.00  0.00     0.198 A 
ATOM     84  C   UNL A   1      49.563  26.840  25.835  1.00  0.00     0.198 A 
ATOM     85  F   UNL A   1      48.361  27.113  27.842  1.00  0.00    -0.203 F 
ATOM     86  F   UNL A   1      48.568  27.417  22.398  1.00  0.00    -0.200 F 
ATOM     87  C   UNL A   1      49.623  26.922  24.452  1.00  0.00     0.200 A 
ATOM     88  F   UNL A   1      50.635  26.440  26.532  1.00  0.00    -0.200 F 
ATOM     89  F   UNL A   1      50.750  26.587  23.809  1.00  0.00    -0.200 F 
ENDBRANCH  55  79
BRANCH  67  90
ATOM     90  C   UNL A   1      45.440  33.662  28.812  1.00  0.00     0.064 A 
ATOM     91  C   UNL A   1      45.226  34.662  27.851  1.00  0.00     0.173 A 
ATOM     92  C   UNL A   1      46.293  33.951  29.887  1.00  0.00     0.173 A 
ATOM     93  F   UNL A   1      44.432  34.425  26.796  1.00  0.00    -0.203 F 
ATOM     94  C   UNL A   1      45.858  35.899  27.955  1.00  0.00     0.198 A 
ATOM     95  C   UNL A   1      46.905  35.195  29.999  1.00  0.00     0.198 A 
ATOM     96  F   UNL A   1      46.524  33.028  30.832  1.00  0.00    -0.203 F 
ATOM     97  F   UNL A   1      45.670  36.826  27.006  1.00  0.00    -0.200 F 
ATOM     98  C   UNL A   1      46.691  36.166  29.030  1.00  0.00     0.200 A 
ATOM     99  F   UNL A   1      47.706  35.455  31.041  1.00  0.00    -0.200 F 
ATOM    100  F   UNL A   1      47.298  37.357  29.129  1.00  0.00    -0.200 F 
ENDBRANCH  67  90
ENDBRANCH  41  42
ENDBRANCH  33  36
ENDBRANCH  31  32
ENDBRANCH  30  31
ENDBRANCH  29  30
ENDBRANCH   1  29
TORSDOF 16
ENDMDL
MODEL 2
REMARK VINA RESULT:     -12.1      5.047      9.176
REMARK SMILES CC[C@H](NC(=O)Cc1c(C)c2cc(Cl)c(OC)cc2oc1=O)C(=O)NCCCCNC(=O)c1ccc(-c2c3nc(c(-c4c(F)c(F)c(F)c(F)c4F)c4ccc([nH]4)c(-c4c(F)c(F)c(F)c(F)c4F)c4nc(c(-c5c(F)c(F)c(F)c(F)c5F)c5ccc2[nH]5)C=C4)C=C3)cc1
REMARK SMILES IDX 26 1 25 2 23 3 24 4 3 6 2 7 1 8 4 9 5 10 6 12 7 13 8 14 9 15
REMARK SMILES IDX 21 16 10 17 11 18 20 19 22 20 12 21 19 22 13 23 18 24 14 25
REMARK SMILES IDX 15 26 16 27 17 28 27 29 28 30 29 31 30 32 31 33 32 35 33 36
REMARK SMILES IDX 34 37 95 38 35 39 94 40 36 41 37 42 38 43 88 44 39 45 93 46
REMARK SMILES IDX 87 47 89 48 40 49 92 50 86 51 85 52 41 54 73 55 53 56 72 57
REMARK SMILES IDX 54 58 57 59 71 60 90 61 55 62 56 63 70 65 91 66 58 67 42 68
REMARK SMILES IDX 43 69 51 70 44 71 45 72 49 73 52 74 46 75 47 76 50 77 48 78
REMARK SMILES IDX 74 79 75 80 83 81 76 82 77 83 81 84 84 85 78 86 79 87 82 88
REMARK SMILES IDX 80 89 59 90 60 91 68 92 61 93 62 94 66 95 69 96 63 97 64 98
REMARK SMILES IDX 67 99 65 100
REMARK H PARENT 25 5 4 11 30 34 89 53 57 64
REMARK Flexibility Score: inf
ROOT
ATOM      1  C   UNL A   1      31.831  29.276  26.185  1.00  0.00     0.116 C 
ENDROOT
BRANCH   1   2
ATOM      2  N   UNL A   1      31.897  29.550  24.761  1.00  0.00    -0.354 N 
ATOM      3  C   UNL A   1      32.270  28.759  23.711  1.00  0.00     0.242 C 
ATOM      4  O   UNL A   1      32.115  29.212  22.574  1.00  0.00    -0.273 OA
ATOM      5  H   UNL A   1      31.626  30.462  24.508  1.00  0.00     0.163 HD
BRANCH   3   6
ATOM      6  C   UNL A   1      32.737  27.301  23.917  1.00  0.00     0.171 C 
BRANCH   6   7
ATOM      7  C   UNL A   1      33.019  26.662  22.547  1.00  0.00     0.031 C 
ATOM      8  C   UNL A   1      31.784  26.146  21.833  1.00  0.00     0.006 C 
ENDBRANCH   6   7
BRANCH   6   9
ATOM      9  N   UNL A   1      31.748  26.582  24.721  1.00  0.00    -0.344 N 
ATOM     10  C   UNL A   1      31.951  25.556  25.597  1.00  0.00     0.225 C 
ATOM     11  H   UNL A   1      30.815  26.877  24.618  1.00  0.00     0.164 HD
ATOM     12  O   UNL A   1      31.070  25.329  26.428  1.00  0.00    -0.275 OA
BRANCH  10  13
ATOM     13  C   UNL A   1      33.197  24.685  25.500  1.00  0.00     0.143 C 
BRANCH  13  14
ATOM     14  C   UNL A   1      32.924  23.193  25.425  1.00  0.00     0.051 A 
ATOM     15  C   UNL A   1      32.284  22.525  24.440  1.00  0.00    -0.029 A 
ATOM     16  C   UNL A   1      33.452  22.459  26.616  1.00  0.00     0.340 A 
ATOM     17  C   UNL A   1      31.452  23.174  23.362  1.00  0.00     0.046 C 
ATOM     18  C   UNL A   1      32.417  21.060  24.387  1.00  0.00     0.023 A 
ATOM     19  O   UNL A   1      33.275  21.086  26.656  1.00  0.00    -0.422 OA
ATOM     20  O   UNL A   1      33.967  23.051  27.557  1.00  0.00    -0.246 OA
ATOM     21  C   UNL A   1      32.190  20.310  23.227  1.00  0.00     0.036 A 
ATOM     22  C   UNL A   1      32.881  20.385  25.508  1.00  0.00     0.142 A 
ATOM     23  C   UNL A   1      32.392  18.925  23.219  1.00  0.00     0.083 A 
ATOM     24  C   UNL A   1      33.043  18.997  25.535  1.00  0.00     0.095 A 
ATOM     25  Cl  UNL A   1      32.154  18.082  21.728  1.00  0.00    -0.080 Cl
ATOM     26  C   UNL A   1      32.785  18.255  24.384  1.00  0.00     0.141 A 
BRANCH  26  27
ATOM     27  O   UNL A   1      32.966  16.899  24.307  1.00  0.00    -0.495 OA
ATOM     28  C   UNL A   1      34.215  16.480  23.767  1.00  0.00     0.278 C 
ENDBRANCH  26  27
ENDBRANCH  13  14
ENDBRANCH  10  13
ENDBRANCH   6   9
ENDBRANCH   3   6
ENDBRANCH   1   2
BRANCH   1  29
ATOM     29  C   UNL A   1      32.674  30.249  27.003  1.00  0.00     0.023 C 
BRANCH  29  30
ATOM     30  C   UNL A   1      32.166  31.689  26.998  1.00  0.00     0.023 C 
BRANCH  30  31
ATOM     31  C   UNL A   1      33.140  32.722  27.547  1.00  0.00     0.116 C 
BRANCH  31  32
ATOM     32  N   UNL A   1      32.557  34.040  27.761  1.00  0.00    -0.352 N 
ATOM     33  C   UNL A   1      32.996  35.016  28.630  1.00  0.00     0.251 C 
ATOM     34  H   UNL A   1      31.759  34.257  27.225  1.00  0.00     0.163 HD
ATOM     35  O   UNL A   1      32.399  36.073  28.763  1.00  0.00    -0.269 OA
BRANCH  33  36
ATOM     36  C   UNL A   1      34.188  34.712  29.446  1.00  0.00     0.039 A 
ATOM     37  C   UNL A   1      35.459  34.831  28.881  1.00  0.00     0.014 A 
ATOM     38  C   UNL A   1      34.008  34.144  30.708  1.00  0.00     0.014 A 
ATOM     39  C   UNL A   1      36.536  34.218  29.509  1.00  0.00     0.010 A 
ATOM     40  C   UNL A   1      35.106  33.591  31.368  1.00  0.00     0.010 A 
ATOM     41  C   UNL A   1      36.363  33.569  30.743  1.00  0.00    -0.014 A 
BRANCH  41  42
ATOM     42  C   UNL A   1      37.498  32.821  31.338  1.00  0.00     0.031 A 
ATOM     43  C   UNL A   1      37.968  33.131  32.732  1.00  0.00     0.074 A 
ATOM     44  C   UNL A   1      38.054  31.812  30.645  1.00  0.00     0.049 A 
ATOM     45  N   UNL A   1      38.953  32.596  33.411  1.00  0.00    -0.248 NA
ATOM     46  C   UNL A   1      37.238  34.178  33.464  1.00  0.00     0.031 C 
ATOM     47  C   UNL A   1      37.652  31.391  29.304  1.00  0.00     0.029 A 
ATOM     48  N   UNL A   1      39.053  30.939  30.988  1.00  0.00    -0.354 N 
ATOM     49  C   UNL A   1      38.975  33.254  34.634  1.00  0.00     0.074 A 
ATOM     50  C   UNL A   1      37.917  34.241  34.600  1.00  0.00     0.031 C 
ATOM     51  C   UNL A   1      38.355  30.303  28.959  1.00  0.00     0.029 A 
ATOM     52  C   UNL A   1      39.299  29.990  30.028  1.00  0.00     0.049 A 
ATOM     53  H   UNL A   1      39.546  30.987  31.839  1.00  0.00     0.167 HD
ATOM     54  C   UNL A   1      39.799  33.049  35.688  1.00  0.00     0.037 A 
ATOM     55  C   UNL A   1      40.195  28.987  30.006  1.00  0.00     0.037 A 
ATOM     56  C   UNL A   1      40.837  32.051  35.727  1.00  0.00     0.049 A 
ATOM     57  C   UNL A   1      41.129  28.811  31.166  1.00  0.00     0.074 A 
ATOM     58  C   UNL A   1      41.731  31.770  36.746  1.00  0.00     0.029 A 
ATOM     59  N   UNL A   1      41.113  31.162  34.699  1.00  0.00    -0.354 N 
ATOM     60  N   UNL A   1      41.180  29.477  32.293  1.00  0.00    -0.248 NA
ATOM     61  C   UNL A   1      42.146  27.759  31.039  1.00  0.00     0.031 C 
ATOM     62  C   UNL A   1      42.567  30.729  36.322  1.00  0.00     0.029 A 
ATOM     63  C   UNL A   1      42.170  30.339  35.053  1.00  0.00     0.049 A 
ATOM     64  H   UNL A   1      40.628  31.121  33.842  1.00  0.00     0.167 HD
ATOM     65  C   UNL A   1      42.236  28.933  33.008  1.00  0.00     0.074 A 
ATOM     66  C   UNL A   1      42.781  27.862  32.198  1.00  0.00     0.031 C 
ATOM     67  C   UNL A   1      42.714  29.295  34.224  1.00  0.00     0.037 A 
BRANCH  54  68
ATOM     68  C   UNL A   1      39.626  33.936  36.886  1.00  0.00     0.064 A 
ATOM     69  C   UNL A   1      38.835  33.548  37.979  1.00  0.00     0.173 A 
ATOM     70  C   UNL A   1      40.281  35.173  36.954  1.00  0.00     0.173 A 
ATOM     71  F   UNL A   1      38.174  32.382  37.954  1.00  0.00    -0.203 F 
ATOM     72  C   UNL A   1      38.693  34.379  39.088  1.00  0.00     0.198 A 
ATOM     73  C   UNL A   1      40.155  35.991  38.075  1.00  0.00     0.198 A 
ATOM     74  F   UNL A   1      41.050  35.589  35.936  1.00  0.00    -0.203 F 
ATOM     75  F   UNL A   1      37.903  34.007  40.104  1.00  0.00    -0.200 F 
ATOM     76  C   UNL A   1      39.358  35.596  39.138  1.00  0.00     0.200 A 
ATOM     77  F   UNL A   1      40.803  37.164  38.124  1.00  0.00    -0.200 F 
ATOM     78  F   UNL A   1      39.221  36.392  40.208  1.00  0.00    -0.200 F 
ENDBRANCH  54  68
BRANCH  55  79
ATOM     79  C   UNL A   1      40.232  28.078  28.836  1.00  0.00     0.064 A 
ATOM     80  C   UNL A   1      40.978  28.410  27.699  1.00  0.00     0.173 A 
ATOM     81  C   UNL A   1      39.577  26.838  28.856  1.00  0.00     0.173 A 
ATOM     82  F   UNL A   1      41.605  29.594  27.631  1.00  0.00    -0.203 F 
ATOM     83  C   UNL A   1      41.077  27.528  26.625  1.00  0.00     0.198 A 
ATOM     84  C   UNL A   1      39.695  25.948  27.792  1.00  0.00     0.198 A 
ATOM     85  F   UNL A   1      38.855  26.477  29.927  1.00  0.00    -0.203 F 
ATOM     86  F   UNL A   1      41.789  27.870  25.543  1.00  0.00    -0.200 F 
ATOM     87  C   UNL A   1      40.445  26.294  26.678  1.00  0.00     0.200 A 
ATOM     88  F   UNL A   1      39.096  24.751  27.852  1.00  0.00    -0.200 F 
ATOM     89  F   UNL A   1      40.561  25.437  25.654  1.00  0.00    -0.200 F 
ENDBRANCH  55  79
BRANCH  67  90
ATOM     90  C   UNL A   1      43.895  28.533  34.741  1.00  0.00     0.064 A 
ATOM     91  C   UNL A   1      45.205  28.983  34.517  1.00  0.00     0.173 A 
ATOM     92  C   UNL A   1      43.718  27.359  35.489  1.00  0.00     0.173 A 
ATOM     93  F   UNL A   1      45.422  30.091  33.793  1.00  0.00    -0.203 F 
ATOM     94  C   UNL A   1      46.297  28.274  35.009  1.00  0.00     0.198 A 
ATOM     95  C   UNL A   1      44.812  26.665  35.996  1.00  0.00     0.198 A 
ATOM     96  F   UNL A   1      42.485  26.893  35.731  1.00  0.00    -0.203 F 
ATOM     97  F   UNL A   1      47.541  28.700  34.750  1.00  0.00    -0.200 F 
ATOM     98  C   UNL A   1      46.100  27.120  35.751  1.00  0.00     0.200 A 
ATOM     99  F   UNL A   1      44.621  25.553  36.719  1.00  0.00    -0.200 F 
ATOM    100  F   UNL A   1      47.153  26.438  36.223  1.00  0.00    -0.200 F 
ENDBRANCH  67  90
ENDBRANCH  41  42
ENDBRANCH  33  36
ENDBRANCH  31  32
ENDBRANCH  30  31
ENDBRANCH  29  30
ENDBRANCH   1  29
TORSDOF 16
ENDMDL
MODEL 3
REMARK VINA RESULT:     -11.9      5.006     10.767
REMARK SMILES CC[C@H](NC(=O)Cc1c(C)c2cc(Cl)c(OC)cc2oc1=O)C(=O)NCCCCNC(=O)c1ccc(-c2c3nc(c(-c4c(F)c(F)c(F)c(F)c4F)c4ccc([nH]4)c(-c4c(F)c(F)c(F)c(F)c4F)c4nc(c(-c5c(F)c(F)c(F)c(F)c5F)c5ccc2[nH]5)C=C4)C=C3)cc1
REMARK SMILES IDX 26 1 25 2 23 3 24 4 3 6 2 7 1 8 4 9 5 10 6 12 7 13 8 14 9 15
REMARK SMILES IDX 21 16 10 17 11 18 20 19 22 20 12 21 19 22 13 23 18 24 14 25
REMARK SMILES IDX 15 26 16 27 17 28 27 29 28 30 29 31 30 32 31 33 32 35 33 36
REMARK SMILES IDX 34 37 95 38 35 39 94 40 36 41 37 42 38 43 88 44 39 45 93 46
REMARK SMILES IDX 87 47 89 48 40 49 92 50 86 51 85 52 41 54 73 55 53 56 72 57
REMARK SMILES IDX 54 58 57 59 71 60 90 61 55 62 56 63 70 65 91 66 58 67 42 68
REMARK SMILES IDX 43 69 51 70 44 71 45 72 49 73 52 74 46 75 47 76 50 77 48 78
REMARK SMILES IDX 74 79 75 80 83 81 76 82 77 83 81 84 84 85 78 86 79 87 82 88
REMARK SMILES IDX 80 89 59 90 60 91 68 92 61 93 62 94 66 95 69 96 63 97 64 98
REMARK SMILES IDX 67 99 65 100
REMARK H PARENT 25 5 4 11 30 34 89 53 57 64
REMARK Flexibility Score: inf
ROOT
ATOM      1  C   UNL A   1      31.813  29.006  26.386  1.00  0.00     0.116 C 
ENDROOT
BRANCH   1   2
ATOM      2  N   UNL A   1      31.950  29.372  24.988  1.00  0.00    -0.354 N 
ATOM      3  C   UNL A   1      32.345  28.641  23.904  1.00  0.00     0.242 C 
ATOM      4  O   UNL A   1      32.252  29.173  22.794  1.00  0.00    -0.273 OA
ATOM      5  H   UNL A   1      31.716  30.307  24.786  1.00  0.00     0.163 HD
BRANCH   3   6
ATOM      6  C   UNL A   1      32.761  27.159  24.030  1.00  0.00     0.171 C 
BRANCH   6   7
ATOM      7  C   UNL A   1      33.047  26.592  22.629  1.00  0.00     0.031 C 
ATOM      8  C   UNL A   1      31.828  26.032  21.921  1.00  0.00     0.006 C 
ENDBRANCH   6   7
BRANCH   6   9
ATOM      9  N   UNL A   1      31.735  26.426  24.774  1.00  0.00    -0.344 N 
ATOM     10  C   UNL A   1      31.899  25.406  25.665  1.00  0.00     0.225 C 
ATOM     11  H   UNL A   1      30.805  26.707  24.612  1.00  0.00     0.164 HD
ATOM     12  O   UNL A   1      30.971  25.168  26.441  1.00  0.00    -0.275 OA
BRANCH  10  13
ATOM     13  C   UNL A   1      33.162  24.554  25.648  1.00  0.00     0.143 C 
BRANCH  13  14
ATOM     14  C   UNL A   1      32.916  23.059  25.550  1.00  0.00     0.051 A 
ATOM     15  C   UNL A   1      32.286  22.395  24.555  1.00  0.00    -0.029 A 
ATOM     16  C   UNL A   1      33.461  22.316  26.727  1.00  0.00     0.340 A 
ATOM     17  C   UNL A   1      31.439  23.046  23.490  1.00  0.00     0.046 C 
ATOM     18  C   UNL A   1      32.446  20.934  24.478  1.00  0.00     0.023 A 
ATOM     19  O   UNL A   1      33.309  20.939  26.745  1.00  0.00    -0.422 OA
ATOM     20  O   UNL A   1      33.967  22.902  27.677  1.00  0.00    -0.246 OA
ATOM     21  C   UNL A   1      32.230  20.199  23.307  1.00  0.00     0.036 A 
ATOM     22  C   UNL A   1      32.925  20.249  25.587  1.00  0.00     0.142 A 
ATOM     23  C   UNL A   1      32.459  18.818  23.276  1.00  0.00     0.083 A 
ATOM     24  C   UNL A   1      33.113  18.864  25.591  1.00  0.00     0.095 A 
ATOM     25  Cl  UNL A   1      32.232  17.995  21.772  1.00  0.00    -0.080 Cl
ATOM     26  C   UNL A   1      32.866  18.136  24.429  1.00  0.00     0.141 A 
BRANCH  26  27
ATOM     27  O   UNL A   1      33.073  16.785  24.329  1.00  0.00    -0.495 OA
ATOM     28  C   UNL A   1      33.694  16.178  25.457  1.00  0.00     0.278 C 
ENDBRANCH  26  27
ENDBRANCH  13  14
ENDBRANCH  10  13
ENDBRANCH   6   9
ENDBRANCH   3   6
ENDBRANCH   1   2
BRANCH   1  29
ATOM     29  C   UNL A   1      32.436  30.039  27.320  1.00  0.00     0.023 C 
BRANCH  29  30
ATOM     30  C   UNL A   1      32.468  31.461  26.763  1.00  0.00     0.023 C 
BRANCH  30  31
ATOM     31  C   UNL A   1      33.322  32.447  27.549  1.00  0.00     0.116 C 
BRANCH  31  32
ATOM     32  N   UNL A   1      32.719  33.763  27.712  1.00  0.00    -0.352 N 
ATOM     33  C   UNL A   1      33.107  34.756  28.586  1.00  0.00     0.251 C 
ATOM     34  H   UNL A   1      31.949  33.965  27.133  1.00  0.00     0.163 HD
ATOM     35  O   UNL A   1      32.497  35.811  28.671  1.00  0.00    -0.269 OA
BRANCH  33  36
ATOM     36  C   UNL A   1      34.258  34.474  29.466  1.00  0.00     0.039 A 
ATOM     37  C   UNL A   1      35.555  34.627  28.975  1.00  0.00     0.014 A 
ATOM     38  C   UNL A   1      34.021  33.893  30.713  1.00  0.00     0.014 A 
ATOM     39  C   UNL A   1      36.610  34.035  29.658  1.00  0.00     0.010 A 
ATOM     40  C   UNL A   1      35.093  33.362  31.430  1.00  0.00     0.010 A 
ATOM     41  C   UNL A   1      36.384  33.373  30.877  1.00  0.00    -0.014 A 
BRANCH  41  42
ATOM     42  C   UNL A   1      37.500  32.648  31.531  1.00  0.00     0.031 A 
ATOM     43  C   UNL A   1      38.215  31.538  30.809  1.00  0.00     0.074 A 
ATOM     44  C   UNL A   1      37.915  33.040  32.747  1.00  0.00     0.049 A 
ATOM     45  N   UNL A   1      39.200  30.781  31.225  1.00  0.00    -0.248 NA
ATOM     46  C   UNL A   1      37.769  31.240  29.439  1.00  0.00     0.031 C 
ATOM     47  C   UNL A   1      37.329  34.131  33.524  1.00  0.00     0.029 A 
ATOM     48  N   UNL A   1      38.948  32.588  33.527  1.00  0.00    -0.354 N 
ATOM     49  C   UNL A   1      39.473  29.905  30.182  1.00  0.00     0.074 A 
ATOM     50  C   UNL A   1      38.541  30.211  29.118  1.00  0.00     0.031 C 
ATOM     51  C   UNL A   1      38.046  34.305  34.643  1.00  0.00     0.029 A 
ATOM     52  C   UNL A   1      39.102  33.297  34.691  1.00  0.00     0.049 A 
ATOM     53  H   UNL A   1      39.523  31.828  33.277  1.00  0.00     0.167 HD
ATOM     54  C   UNL A   1      40.420  28.939  30.118  1.00  0.00     0.037 A 
ATOM     55  C   UNL A   1      39.987  33.144  35.692  1.00  0.00     0.037 A 
ATOM     56  C   UNL A   1      41.361  28.651  31.169  1.00  0.00     0.049 A 
ATOM     57  C   UNL A   1      40.994  32.035  35.618  1.00  0.00     0.074 A 
ATOM     58  C   UNL A   1      42.353  27.686  31.204  1.00  0.00     0.029 A 
ATOM     59  N   UNL A   1      41.431  29.337  32.373  1.00  0.00    -0.354 N 
ATOM     60  N   UNL A   1      41.205  31.175  34.653  1.00  0.00    -0.248 NA
ATOM     61  C   UNL A   1      41.869  31.862  36.785  1.00  0.00     0.031 C 
ATOM     62  C   UNL A   1      43.004  27.770  32.440  1.00  0.00     0.029 A 
ATOM     63  C   UNL A   1      42.441  28.810  33.162  1.00  0.00     0.049 A 
ATOM     64  H   UNL A   1      40.847  30.089  32.629  1.00  0.00     0.167 HD
ATOM     65  C   UNL A   1      42.231  30.353  35.095  1.00  0.00     0.074 A 
ATOM     66  C   UNL A   1      42.618  30.836  36.406  1.00  0.00     0.031 C 
ATOM     67  C   UNL A   1      42.795  29.289  34.473  1.00  0.00     0.037 A 
BRANCH  54  68
ATOM     68  C   UNL A   1      40.474  28.104  28.872  1.00  0.00     0.064 A 
ATOM     69  C   UNL A   1      41.247  28.486  27.765  1.00  0.00     0.173 A 
ATOM     70  C   UNL A   1      39.769  26.895  28.796  1.00  0.00     0.173 A 
ATOM     71  F   UNL A   1      41.925  29.642  27.782  1.00  0.00    -0.203 F 
ATOM     72  C   UNL A   1      41.295  27.695  26.619  1.00  0.00     0.198 A 
ATOM     73  C   UNL A   1      39.837  26.095  27.658  1.00  0.00     0.198 A 
ATOM     74  F   UNL A   1      39.017  26.484  29.828  1.00  0.00    -0.203 F 
ATOM     75  F   UNL A   1      42.008  28.096  25.559  1.00  0.00    -0.200 F 
ATOM     76  C   UNL A   1      40.596  26.497  26.569  1.00  0.00     0.200 A 
ATOM     77  F   UNL A   1      39.166  24.935  27.614  1.00  0.00    -0.200 F 
ATOM     78  F   UNL A   1      40.646  25.736  25.467  1.00  0.00    -0.200 F 
ENDBRANCH  54  68
BRANCH  55  79
ATOM     79  C   UNL A   1      39.947  34.080  36.840  1.00  0.00     0.064 A 
ATOM     80  C   UNL A   1      39.138  33.810  37.951  1.00  0.00     0.173 A 
ATOM     81  C   UNL A   1      40.758  35.223  36.877  1.00  0.00     0.173 A 
ATOM     82  F   UNL A   1      38.333  32.737  37.950  1.00  0.00    -0.203 F 
ATOM     83  C   UNL A   1      39.150  34.646  39.065  1.00  0.00     0.198 A 
ATOM     84  C   UNL A   1      40.786  36.046  38.000  1.00  0.00     0.198 A 
ATOM     85  F   UNL A   1      41.551  35.517  35.837  1.00  0.00    -0.203 F 
ATOM     86  F   UNL A   1      38.361  34.374  40.114  1.00  0.00    -0.200 F 
ATOM     87  C   UNL A   1      39.982  35.757  39.093  1.00  0.00     0.200 A 
ATOM     88  F   UNL A   1      41.602  37.108  38.030  1.00  0.00    -0.200 F 
ATOM     89  F   UNL A   1      40.010  36.547  40.175  1.00  0.00    -0.200 F 
ENDBRANCH  55  79
BRANCH  67  90
ATOM     90  C   UNL A   1      43.880  28.569  35.213  1.00  0.00     0.064 A 
ATOM     91  C   UNL A   1      43.602  27.429  35.981  1.00  0.00     0.173 A 
ATOM     92  C   UNL A   1      45.211  29.003  35.132  1.00  0.00     0.173 A 
ATOM     93  F   UNL A   1      42.341  26.987  36.101  1.00  0.00    -0.203 F 
ATOM     94  C   UNL A   1      44.618  26.760  36.658  1.00  0.00     0.198 A 
ATOM     95  C   UNL A   1      46.226  28.319  35.793  1.00  0.00     0.198 A 
ATOM     96  F   UNL A   1      45.525  30.086  34.406  1.00  0.00    -0.203 F 
ATOM     97  F   UNL A   1      44.325  25.696  37.419  1.00  0.00    -0.200 F 
ATOM     98  C   UNL A   1      45.928  27.202  36.560  1.00  0.00     0.200 A 
ATOM     99  F   UNL A   1      47.493  28.743  35.693  1.00  0.00    -0.200 F 
ATOM    100  F   UNL A   1      46.905  26.557  37.213  1.00  0.00    -0.200 F 
ENDBRANCH  67  90
ENDBRANCH  41  42
ENDBRANCH  33  36
ENDBRANCH  31  32
ENDBRANCH  30  31
ENDBRANCH  29  30
ENDBRANCH   1  29
TORSDOF 16
ENDMDL
