MODEL 1
REMARK VINA RESULT:     -11.8      0.000      0.000
REMARK SMILES C[C@H](C(=O)NCCCCNC(=O)c1ccc(-c2c3nc(c(-c4c(F)c(F)c(F)c(F)c4F)c4ccc([nH]4)c(-c4c(F)c(F)c(F)c(F)c4F)c4nc(c(-c5c(F)c(F)c(F)c(F)c5F)c5ccc2[nH]5)C=C4)C=C3)cc1)[C@@H](C)[NH2+]Cc1ccc(F)c(F)c1
REMARK SMILES IDX 6 1 5 2 3 3 4 4 2 6 1 7 76 8 77 9 78 10 79 13 80 14 81 15
REMARK SMILES IDX 87 16 82 17 85 18 83 19 86 20 84 21 7 22 8 23 9 24 10 25
REMARK SMILES IDX 11 26 12 28 13 29 14 30 75 31 15 32 74 33 16 34 17 35 18 36
REMARK SMILES IDX 68 37 19 38 73 39 67 40 69 41 20 42 72 43 66 44 65 45 21 47
REMARK SMILES IDX 53 48 33 49 52 50 34 51 37 52 51 53 70 54 35 55 36 56 50 58
REMARK SMILES IDX 71 59 38 60 22 61 23 62 31 63 24 64 25 65 29 66 32 67 26 68
REMARK SMILES IDX 27 69 30 70 28 71 54 72 55 73 63 74 56 75 57 76 61 77 64 78
REMARK SMILES IDX 58 79 59 80 62 81 60 82 39 83 40 84 48 85 41 86 42 87 46 88
REMARK SMILES IDX 49 89 43 90 44 91 47 92 45 93
REMARK H PARENT 5 5 78 11 78 12 10 27 69 46 37 57
REMARK Flexibility Score: inf
ROOT
ATOM      1  C   UNL A   1      32.185  26.551  26.353  1.00  0.00     0.116 C 
ENDROOT
BRANCH   1   2
ATOM      2  N   UNL A   1      31.381  25.440  26.838  1.00  0.00    -0.356 N 
ATOM      3  C   UNL A   1      31.660  24.100  26.868  1.00  0.00     0.228 C 
ATOM      4  O   UNL A   1      30.778  23.335  27.257  1.00  0.00    -0.275 OA
ATOM      5  H   UNL A   1      30.502  25.691  27.200  1.00  0.00     0.163 HD
BRANCH   3   6
ATOM      6  C   UNL A   1      33.037  23.603  26.429  1.00  0.00     0.133 C 
ATOM      7  C   UNL A   1      33.464  22.443  27.344  1.00  0.00     0.024 C 
BRANCH   6   8
ATOM      8  C   UNL A   1      33.127  23.167  24.932  1.00  0.00     0.191 C 
ATOM      9  C   UNL A   1      31.783  22.888  24.261  1.00  0.00     0.076 C 
BRANCH   8  10
ATOM     10  N   UNL A   1      34.000  24.127  24.219  1.00  0.00    -0.340 N 
ATOM     11  H   UNL A   1      34.329  24.800  24.911  1.00  0.00     0.346 HD
ATOM     12  H   UNL A   1      33.403  24.487  23.474  1.00  0.00     0.346 HD
BRANCH  10  13
ATOM     13  C   UNL A   1      35.177  23.637  23.510  1.00  0.00     0.297 C 
BRANCH  13  14
ATOM     14  C   UNL A   1      36.302  23.114  24.389  1.00  0.00     0.009 A 
ATOM     15  C   UNL A   1      36.936  23.911  25.361  1.00  0.00     0.013 A 
ATOM     16  C   UNL A   1      36.716  21.777  24.249  1.00  0.00     0.052 A 
ATOM     17  C   UNL A   1      37.991  23.404  26.127  1.00  0.00     0.043 A 
ATOM     18  C   UNL A   1      37.763  21.278  25.020  1.00  0.00     0.159 A 
ATOM     19  C   UNL A   1      38.404  22.089  25.945  1.00  0.00     0.158 A 
ATOM     20  F   UNL A   1      38.151  20.006  24.854  1.00  0.00    -0.204 F 
ATOM     21  F   UNL A   1      39.424  21.613  26.671  1.00  0.00    -0.204 F 
ENDBRANCH  13  14
ENDBRANCH  10  13
ENDBRANCH   8  10
ENDBRANCH   6   8
ENDBRANCH   3   6
ENDBRANCH   1   2
BRANCH   1  22
ATOM     22  C   UNL A   1      31.956  27.816  27.180  1.00  0.00     0.023 C 
BRANCH  22  23
ATOM     23  C   UNL A   1      31.633  29.064  26.375  1.00  0.00     0.023 C 
BRANCH  23  24
ATOM     24  C   UNL A   1      32.828  29.951  26.074  1.00  0.00     0.116 C 
BRANCH  24  25
ATOM     25  N   UNL A   1      32.667  31.323  26.541  1.00  0.00    -0.352 N 
ATOM     26  C   UNL A   1      33.472  32.068  27.372  1.00  0.00     0.251 C 
ATOM     27  H   UNL A   1      31.862  31.785  26.212  1.00  0.00     0.163 HD
ATOM     28  O   UNL A   1      33.128  33.185  27.734  1.00  0.00    -0.269 OA
BRANCH  26  29
ATOM     29  C   UNL A   1      34.741  31.487  27.854  1.00  0.00     0.039 A 
ATOM     30  C   UNL A   1      35.853  32.318  28.012  1.00  0.00     0.014 A 
ATOM     31  C   UNL A   1      34.809  30.141  28.214  1.00  0.00     0.014 A 
ATOM     32  C   UNL A   1      37.001  31.817  28.628  1.00  0.00     0.010 A 
ATOM     33  C   UNL A   1      35.905  29.678  28.925  1.00  0.00     0.010 A 
ATOM     34  C   UNL A   1      37.015  30.508  29.138  1.00  0.00    -0.014 A 
BRANCH  34  35
ATOM     35  C   UNL A   1      38.179  29.973  29.888  1.00  0.00     0.031 A 
ATOM     36  C   UNL A   1      38.432  30.434  31.296  1.00  0.00     0.074 A 
ATOM     37  C   UNL A   1      39.055  29.154  29.274  1.00  0.00     0.049 A 
ATOM     38  N   UNL A   1      39.450  30.189  32.080  1.00  0.00    -0.248 NA
ATOM     39  C   UNL A   1      37.424  31.330  31.889  1.00  0.00     0.031 C 
ATOM     40  C   UNL A   1      38.960  28.692  27.888  1.00  0.00     0.029 A 
ATOM     41  N   UNL A   1      40.210  28.573  29.736  1.00  0.00    -0.354 N 
ATOM     42  C   UNL A   1      39.222  30.927  33.235  1.00  0.00     0.074 A 
ATOM     43  C   UNL A   1      38.002  31.674  33.029  1.00  0.00     0.031 C 
ATOM     44  C   UNL A   1      39.994  27.876  27.622  1.00  0.00     0.029 A 
ATOM     45  C   UNL A   1      40.843  27.786  28.805  1.00  0.00     0.049 A 
ATOM     46  H   UNL A   1      40.553  28.708  30.649  1.00  0.00     0.167 HD
ATOM     47  C   UNL A   1      39.948  30.953  34.376  1.00  0.00     0.037 A 
ATOM     48  C   UNL A   1      41.981  27.073  28.900  1.00  0.00     0.037 A 
ATOM     49  C   UNL A   1      41.128  30.162  34.599  1.00  0.00     0.049 A 
ATOM     50  C   UNL A   1      42.741  27.079  30.198  1.00  0.00     0.074 A 
ATOM     51  C   UNL A   1      41.892  30.053  35.746  1.00  0.00     0.029 A 
ATOM     52  N   UNL A   1      41.705  29.331  33.650  1.00  0.00    -0.354 N 
ATOM     53  N   UNL A   1      42.479  27.727  31.307  1.00  0.00    -0.248 NA
ATOM     54  C   UNL A   1      43.952  26.249  30.259  1.00  0.00     0.031 C 
ATOM     55  C   UNL A   1      42.950  29.177  35.484  1.00  0.00     0.029 A 
ATOM     56  C   UNL A   1      42.823  28.712  34.185  1.00  0.00     0.049 A 
ATOM     57  H   UNL A   1      41.371  29.201  32.734  1.00  0.00     0.167 HD
ATOM     58  C   UNL A   1      43.473  27.364  32.205  1.00  0.00     0.074 A 
ATOM     59  C   UNL A   1      44.337  26.427  31.515  1.00  0.00     0.031 C 
ATOM     60  C   UNL A   1      43.659  27.773  33.483  1.00  0.00     0.037 A 
BRANCH  47  61
ATOM     61  C   UNL A   1      39.470  31.851  35.479  1.00  0.00     0.064 A 
ATOM     62  C   UNL A   1      39.933  33.171  35.604  1.00  0.00     0.173 A 
ATOM     63  C   UNL A   1      38.525  31.398  36.410  1.00  0.00     0.173 A 
ATOM     64  F   UNL A   1      40.851  33.648  34.749  1.00  0.00    -0.203 F 
ATOM     65  C   UNL A   1      39.491  33.991  36.638  1.00  0.00     0.198 A 
ATOM     66  C   UNL A   1      38.062  32.231  37.425  1.00  0.00     0.198 A 
ATOM     67  F   UNL A   1      38.047  30.147  36.335  1.00  0.00    -0.203 F 
ATOM     68  F   UNL A   1      39.989  35.229  36.768  1.00  0.00    -0.200 F 
ATOM     69  C   UNL A   1      38.551  33.524  37.543  1.00  0.00     0.200 A 
ATOM     70  F   UNL A   1      37.145  31.782  38.293  1.00  0.00    -0.200 F 
ATOM     71  F   UNL A   1      38.124  34.316  38.536  1.00  0.00    -0.200 F 
ENDBRANCH  47  61
BRANCH  48  72
ATOM     72  C   UNL A   1      42.450  26.260  27.747  1.00  0.00     0.064 A 
ATOM     73  C   UNL A   1      41.931  24.978  27.519  1.00  0.00     0.173 A 
ATOM     74  C   UNL A   1      43.422  26.739  26.858  1.00  0.00     0.173 A 
ATOM     75  F   UNL A   1      41.013  24.469  28.354  1.00  0.00    -0.203 F 
ATOM     76  C   UNL A   1      42.383  24.195  26.458  1.00  0.00     0.198 A 
ATOM     77  C   UNL A   1      43.856  25.965  25.783  1.00  0.00     0.198 A 
ATOM     78  F   UNL A   1      43.946  27.961  27.029  1.00  0.00    -0.203 F 
ATOM     79  F   UNL A   1      41.904  22.955  26.291  1.00  0.00    -0.200 F 
ATOM     80  C   UNL A   1      43.342  24.691  25.588  1.00  0.00     0.200 A 
ATOM     81  F   UNL A   1      44.774  26.452  24.937  1.00  0.00    -0.200 F 
ATOM     82  F   UNL A   1      43.778  23.940  24.568  1.00  0.00    -0.200 F 
ENDBRANCH  48  72
BRANCH  60  83
ATOM     83  C   UNL A   1      44.818  27.183  34.229  1.00  0.00     0.064 A 
ATOM     84  C   UNL A   1      46.069  27.815  34.258  1.00  0.00     0.173 A 
ATOM     85  C   UNL A   1      44.660  25.995  34.957  1.00  0.00     0.173 A 
ATOM     86  F   UNL A   1      46.269  28.946  33.565  1.00  0.00    -0.203 F 
ATOM     87  C   UNL A   1      47.128  27.266  34.974  1.00  0.00     0.198 A 
ATOM     88  C   UNL A   1      45.716  25.462  35.693  1.00  0.00     0.198 A 
ATOM     89  F   UNL A   1      43.481  25.357  34.965  1.00  0.00    -0.203 F 
ATOM     90  F   UNL A   1      48.328  27.864  34.955  1.00  0.00    -0.200 F 
ATOM     91  C   UNL A   1      46.949  26.095  35.695  1.00  0.00     0.200 A 
ATOM     92  F   UNL A   1      45.537  24.338  36.400  1.00  0.00    -0.200 F 
ATOM     93  F   UNL A   1      47.969  25.572  36.389  1.00  0.00    -0.200 F 
ENDBRANCH  60  83
ENDBRANCH  34  35
ENDBRANCH  26  29
ENDBRANCH  24  25
ENDBRANCH  23  24
ENDBRANCH  22  23
ENDBRANCH   1  22
TORSDOF 15
ENDMDL
MODEL 2
REMARK VINA RESULT:     -11.6      2.004      3.099
REMARK SMILES C[C@H](C(=O)NCCCCNC(=O)c1ccc(-c2c3nc(c(-c4c(F)c(F)c(F)c(F)c4F)c4ccc([nH]4)c(-c4c(F)c(F)c(F)c(F)c4F)c4nc(c(-c5c(F)c(F)c(F)c(F)c5F)c5ccc2[nH]5)C=C4)C=C3)cc1)[C@@H](C)[NH2+]Cc1ccc(F)c(F)c1
REMARK SMILES IDX 6 1 5 2 3 3 4 4 2 6 1 7 76 8 77 9 78 10 79 13 80 14 81 15
REMARK SMILES IDX 87 16 82 17 85 18 83 19 86 20 84 21 7 22 8 23 9 24 10 25
REMARK SMILES IDX 11 26 12 28 13 29 14 30 75 31 15 32 74 33 16 34 17 35 18 36
REMARK SMILES IDX 68 37 19 38 73 39 67 40 69 41 20 42 72 43 66 44 65 45 21 47
REMARK SMILES IDX 53 48 33 49 52 50 34 51 37 52 51 53 70 54 35 55 36 56 50 58
REMARK SMILES IDX 71 59 38 60 22 61 23 62 31 63 24 64 25 65 29 66 32 67 26 68
REMARK SMILES IDX 27 69 30 70 28 71 54 72 55 73 63 74 56 75 57 76 61 77 64 78
REMARK SMILES IDX 58 79 59 80 62 81 60 82 39 83 40 84 48 85 41 86 42 87 46 88
REMARK SMILES IDX 49 89 43 90 44 91 47 92 45 93
REMARK H PARENT 5 5 78 11 78 12 10 27 69 46 37 57
REMARK Flexibility Score: inf
ROOT
ATOM      1  C   UNL A   1      32.170  26.682  26.395  1.00  0.00     0.116 C 
ENDROOT
BRANCH   1   2
ATOM      2  N   UNL A   1      31.403  25.560  26.911  1.00  0.00    -0.356 N 
ATOM      3  C   UNL A   1      31.620  24.215  26.785  1.00  0.00     0.228 C 
ATOM      4  O   UNL A   1      30.776  23.447  27.249  1.00  0.00    -0.275 OA
ATOM      5  H   UNL A   1      30.605  25.807  27.431  1.00  0.00     0.163 HD
BRANCH   3   6
ATOM      6  C   UNL A   1      32.884  23.713  26.089  1.00  0.00     0.133 C 
ATOM      7  C   UNL A   1      33.660  22.802  27.055  1.00  0.00     0.024 C 
BRANCH   6   8
ATOM      8  C   UNL A   1      32.634  22.973  24.737  1.00  0.00     0.191 C 
ATOM      9  C   UNL A   1      33.190  21.551  24.669  1.00  0.00     0.076 C 
BRANCH   8  10
ATOM     10  N   UNL A   1      31.201  23.106  24.390  1.00  0.00    -0.340 N 
ATOM     11  H   UNL A   1      30.757  23.614  25.154  1.00  0.00     0.346 HD
ATOM     12  H   UNL A   1      30.900  22.144  24.239  1.00  0.00     0.346 HD
BRANCH  10  13
ATOM     13  C   UNL A   1      30.823  23.783  23.153  1.00  0.00     0.297 C 
BRANCH  13  14
ATOM     14  C   UNL A   1      30.664  25.292  23.253  1.00  0.00     0.009 A 
ATOM     15  C   UNL A   1      29.527  25.897  23.822  1.00  0.00     0.013 A 
ATOM     16  C   UNL A   1      31.698  26.122  22.785  1.00  0.00     0.052 A 
ATOM     17  C   UNL A   1      29.402  27.290  23.864  1.00  0.00     0.043 A 
ATOM     18  C   UNL A   1      31.569  27.508  22.837  1.00  0.00     0.159 A 
ATOM     19  C   UNL A   1      30.425  28.088  23.363  1.00  0.00     0.158 A 
ATOM     20  F   UNL A   1      32.560  28.276  22.366  1.00  0.00    -0.204 F 
ATOM     21  F   UNL A   1      30.294  29.422  23.393  1.00  0.00    -0.204 F 
ENDBRANCH  13  14
ENDBRANCH  10  13
ENDBRANCH   8  10
ENDBRANCH   6   8
ENDBRANCH   3   6
ENDBRANCH   1   2
BRANCH   1  22
ATOM     22  C   UNL A   1      31.979  27.937  27.247  1.00  0.00     0.023 C 
BRANCH  22  23
ATOM     23  C   UNL A   1      31.656  29.202  26.471  1.00  0.00     0.023 C 
BRANCH  23  24
ATOM     24  C   UNL A   1      32.855  30.081  26.164  1.00  0.00     0.116 C 
BRANCH  24  25
ATOM     25  N   UNL A   1      32.711  31.451  26.642  1.00  0.00    -0.352 N 
ATOM     26  C   UNL A   1      33.523  32.176  27.485  1.00  0.00     0.251 C 
ATOM     27  H   UNL A   1      31.914  31.928  26.314  1.00  0.00     0.163 HD
ATOM     28  O   UNL A   1      33.193  33.294  27.856  1.00  0.00    -0.269 OA
BRANCH  26  29
ATOM     29  C   UNL A   1      34.781  31.573  27.968  1.00  0.00     0.039 A 
ATOM     30  C   UNL A   1      35.913  32.379  28.105  1.00  0.00     0.014 A 
ATOM     31  C   UNL A   1      34.818  30.232  28.350  1.00  0.00     0.014 A 
ATOM     32  C   UNL A   1      37.053  31.860  28.721  1.00  0.00     0.010 A 
ATOM     33  C   UNL A   1      35.908  29.754  29.062  1.00  0.00     0.010 A 
ATOM     34  C   UNL A   1      37.039  30.560  29.253  1.00  0.00    -0.014 A 
BRANCH  34  35
ATOM     35  C   UNL A   1      38.195  30.010  30.004  1.00  0.00     0.031 A 
ATOM     36  C   UNL A   1      38.436  30.445  31.422  1.00  0.00     0.074 A 
ATOM     37  C   UNL A   1      39.075  29.199  29.383  1.00  0.00     0.049 A 
ATOM     38  N   UNL A   1      39.447  30.185  32.211  1.00  0.00    -0.248 NA
ATOM     39  C   UNL A   1      37.424  31.333  32.022  1.00  0.00     0.031 C 
ATOM     40  C   UNL A   1      38.992  28.762  27.989  1.00  0.00     0.029 A 
ATOM     41  N   UNL A   1      40.224  28.608  29.846  1.00  0.00    -0.354 N 
ATOM     42  C   UNL A   1      39.209  30.903  33.376  1.00  0.00     0.074 A 
ATOM     43  C   UNL A   1      37.993  31.656  33.172  1.00  0.00     0.031 C 
ATOM     44  C   UNL A   1      40.026  27.949  27.719  1.00  0.00     0.029 A 
ATOM     45  C   UNL A   1      40.865  27.836  28.907  1.00  0.00     0.049 A 
ATOM     46  H   UNL A   1      40.559  28.727  30.765  1.00  0.00     0.167 HD
ATOM     47  C   UNL A   1      39.925  30.907  34.524  1.00  0.00     0.037 A 
ATOM     48  C   UNL A   1      42.000  27.119  29.000  1.00  0.00     0.037 A 
ATOM     49  C   UNL A   1      41.101  30.110  34.744  1.00  0.00     0.049 A 
ATOM     50  C   UNL A   1      42.748  27.101  30.305  1.00  0.00     0.074 A 
ATOM     51  C   UNL A   1      41.855  29.980  35.896  1.00  0.00     0.029 A 
ATOM     52  N   UNL A   1      41.686  29.295  33.786  1.00  0.00    -0.354 N 
ATOM     53  N   UNL A   1      42.477  27.730  31.422  1.00  0.00    -0.248 NA
ATOM     54  C   UNL A   1      43.957  26.268  30.362  1.00  0.00     0.031 C 
ATOM     55  C   UNL A   1      42.914  29.106  35.628  1.00  0.00     0.029 A 
ATOM     56  C   UNL A   1      42.797  28.664  34.320  1.00  0.00     0.049 A 
ATOM     57  H   UNL A   1      41.360  29.181  32.864  1.00  0.00     0.167 HD
ATOM     58  C   UNL A   1      43.463  27.349  32.323  1.00  0.00     0.074 A 
ATOM     59  C   UNL A   1      44.330  26.423  31.625  1.00  0.00     0.031 C 
ATOM     60  C   UNL A   1      43.637  27.735  33.610  1.00  0.00     0.037 A 
BRANCH  47  61
ATOM     61  C   UNL A   1      39.439  31.788  35.639  1.00  0.00     0.064 A 
ATOM     62  C   UNL A   1      39.912  33.100  35.797  1.00  0.00     0.173 A 
ATOM     63  C   UNL A   1      38.476  31.324  36.546  1.00  0.00     0.173 A 
ATOM     64  F   UNL A   1      40.847  33.586  34.966  1.00  0.00    -0.203 F 
ATOM     65  C   UNL A   1      39.463  33.903  36.842  1.00  0.00     0.198 A 
ATOM     66  C   UNL A   1      38.006  32.141  37.571  1.00  0.00     0.198 A 
ATOM     67  F   UNL A   1      37.989  30.079  36.438  1.00  0.00    -0.203 F 
ATOM     68  F   UNL A   1      39.969  35.133  37.004  1.00  0.00    -0.200 F 
ATOM     69  C   UNL A   1      38.505  33.426  37.723  1.00  0.00     0.200 A 
ATOM     70  F   UNL A   1      37.072  31.682  38.417  1.00  0.00    -0.200 F 
ATOM     71  F   UNL A   1      38.070  34.201  38.725  1.00  0.00    -0.200 F 
ENDBRANCH  47  61
BRANCH  48  72
ATOM     72  C   UNL A   1      42.477  26.326  27.837  1.00  0.00     0.064 A 
ATOM     73  C   UNL A   1      43.437  26.850  26.959  1.00  0.00     0.173 A 
ATOM     74  C   UNL A   1      41.987  25.039  27.575  1.00  0.00     0.173 A 
ATOM     75  F   UNL A   1      43.922  28.085  27.158  1.00  0.00    -0.203 F 
ATOM     76  C   UNL A   1      43.871  26.127  25.850  1.00  0.00     0.198 A 
ATOM     77  C   UNL A   1      42.440  24.306  26.479  1.00  0.00     0.198 A 
ATOM     78  F   UNL A   1      41.073  24.490  28.388  1.00  0.00    -0.203 F 
ATOM     79  F   UNL A   1      44.754  26.671  25.002  1.00  0.00    -0.200 F 
ATOM     80  C   UNL A   1      43.375  24.854  25.613  1.00  0.00     0.200 A 
ATOM     81  F   UNL A   1      41.968  23.072  26.260  1.00  0.00    -0.200 F 
ATOM     82  F   UNL A   1      43.792  24.158  24.547  1.00  0.00    -0.200 F 
ENDBRANCH  48  72
BRANCH  60  83
ATOM     83  C   UNL A   1      44.788  27.130  34.356  1.00  0.00     0.064 A 
ATOM     84  C   UNL A   1      46.040  27.759  34.407  1.00  0.00     0.173 A 
ATOM     85  C   UNL A   1      44.622  25.929  35.061  1.00  0.00     0.173 A 
ATOM     86  F   UNL A   1      46.249  28.901  33.736  1.00  0.00    -0.203 F 
ATOM     87  C   UNL A   1      47.092  27.195  35.123  1.00  0.00     0.198 A 
ATOM     88  C   UNL A   1      45.669  25.381  35.797  1.00  0.00     0.198 A 
ATOM     89  F   UNL A   1      43.441  25.294  35.047  1.00  0.00    -0.203 F 
ATOM     90  F   UNL A   1      48.293  27.791  35.125  1.00  0.00    -0.200 F 
ATOM     91  C   UNL A   1      46.904  26.012  35.821  1.00  0.00     0.200 A 
ATOM     92  F   UNL A   1      45.482  24.245  36.481  1.00  0.00    -0.200 F 
ATOM     93  F   UNL A   1      47.917  25.475  36.515  1.00  0.00    -0.200 F 
ENDBRANCH  60  83
ENDBRANCH  34  35
ENDBRANCH  26  29
ENDBRANCH  24  25
ENDBRANCH  23  24
ENDBRANCH  22  23
ENDBRANCH   1  22
TORSDOF 15
ENDMDL
MODEL 3
REMARK VINA RESULT:     -11.6      3.102      4.422
REMARK SMILES C[C@H](C(=O)NCCCCNC(=O)c1ccc(-c2c3nc(c(-c4c(F)c(F)c(F)c(F)c4F)c4ccc([nH]4)c(-c4c(F)c(F)c(F)c(F)c4F)c4nc(c(-c5c(F)c(F)c(F)c(F)c5F)c5ccc2[nH]5)C=C4)C=C3)cc1)[C@@H](C)[NH2+]Cc1ccc(F)c(F)c1
REMARK SMILES IDX 6 1 5 2 3 3 4 4 2 6 1 7 76 8 77 9 78 10 79 13 80 14 81 15
REMARK SMILES IDX 87 16 82 17 85 18 83 19 86 20 84 21 7 22 8 23 9 24 10 25
REMARK SMILES IDX 11 26 12 28 13 29 14 30 75 31 15 32 74 33 16 34 17 35 18 36
REMARK SMILES IDX 68 37 19 38 73 39 67 40 69 41 20 42 72 43 66 44 65 45 21 47
REMARK SMILES IDX 53 48 33 49 52 50 34 51 37 52 51 53 70 54 35 55 36 56 50 58
REMARK SMILES IDX 71 59 38 60 22 61 23 62 31 63 24 64 25 65 29 66 32 67 26 68
REMARK SMILES IDX 27 69 30 70 28 71 54 72 55 73 63 74 56 75 57 76 61 77 64 78
REMARK SMILES IDX 58 79 59 80 62 81 60 82 39 83 40 84 48 85 41 86 42 87 46 88
REMARK SMILES IDX 49 89 43 90 44 91 47 92 45 93
REMARK H PARENT 5 5 78 11 78 12 10 27 69 46 37 57
REMARK Flexibility Score: inf
ROOT
ATOM      1  C   UNL A   1      31.499  27.161  26.434  1.00  0.00     0.116 C 
ENDROOT
BRANCH   1   2
ATOM      2  N   UNL A   1      32.715  26.515  25.969  1.00  0.00    -0.356 N 
ATOM      3  C   UNL A   1      33.352  26.604  24.761  1.00  0.00     0.228 C 
ATOM      4  O   UNL A   1      34.337  25.890  24.572  1.00  0.00    -0.275 OA
ATOM      5  H   UNL A   1      33.147  25.921  26.624  1.00  0.00     0.163 HD
BRANCH   3   6
ATOM      6  C   UNL A   1      32.833  27.575  23.701  1.00  0.00     0.133 C 
ATOM      7  C   UNL A   1      34.030  28.263  23.024  1.00  0.00     0.024 C 
BRANCH   6   8
ATOM      8  C   UNL A   1      31.904  26.931  22.624  1.00  0.00     0.191 C 
ATOM      9  C   UNL A   1      31.114  25.713  23.102  1.00  0.00     0.076 C 
BRANCH   8  10
ATOM     10  N   UNL A   1      31.094  28.004  22.004  1.00  0.00    -0.340 N 
ATOM     11  H   UNL A   1      30.972  27.754  21.023  1.00  0.00     0.346 HD
ATOM     12  H   UNL A   1      31.626  28.851  22.202  1.00  0.00     0.346 HD
BRANCH  10  13
ATOM     13  C   UNL A   1      29.767  28.299  22.536  1.00  0.00     0.297 C 
BRANCH  13  14
ATOM     14  C   UNL A   1      29.438  29.775  22.695  1.00  0.00     0.009 A 
ATOM     15  C   UNL A   1      29.696  30.485  23.883  1.00  0.00     0.013 A 
ATOM     16  C   UNL A   1      28.877  30.472  21.610  1.00  0.00     0.052 A 
ATOM     17  C   UNL A   1      29.346  31.834  24.002  1.00  0.00     0.043 A 
ATOM     18  C   UNL A   1      28.539  31.818  21.734  1.00  0.00     0.159 A 
ATOM     19  C   UNL A   1      28.761  32.492  22.925  1.00  0.00     0.158 A 
ATOM     20  F   UNL A   1      27.987  32.454  20.692  1.00  0.00    -0.204 F 
ATOM     21  F   UNL A   1      28.416  33.780  23.050  1.00  0.00    -0.204 F 
ENDBRANCH  13  14
ENDBRANCH  10  13
ENDBRANCH   8  10
ENDBRANCH   6   8
ENDBRANCH   3   6
ENDBRANCH   1   2
BRANCH   1  22
ATOM     22  C   UNL A   1      31.790  28.202  27.515  1.00  0.00     0.023 C 
BRANCH  22  23
ATOM     23  C   UNL A   1      31.471  29.637  27.132  1.00  0.00     0.023 C 
BRANCH  23  24
ATOM     24  C   UNL A   1      32.638  30.409  26.541  1.00  0.00     0.116 C 
BRANCH  24  25
ATOM     25  N   UNL A   1      32.626  31.829  26.875  1.00  0.00    -0.352 N 
ATOM     26  C   UNL A   1      33.543  32.571  27.583  1.00  0.00     0.251 C 
ATOM     27  H   UNL A   1      31.845  32.330  26.544  1.00  0.00     0.163 HD
ATOM     28  O   UNL A   1      33.320  33.745  27.849  1.00  0.00    -0.269 OA
BRANCH  26  29
ATOM     29  C   UNL A   1      34.784  31.924  28.053  1.00  0.00     0.039 A 
ATOM     30  C   UNL A   1      35.942  32.692  28.188  1.00  0.00     0.014 A 
ATOM     31  C   UNL A   1      34.780  30.580  28.426  1.00  0.00     0.014 A 
ATOM     32  C   UNL A   1      37.069  32.132  28.793  1.00  0.00     0.010 A 
ATOM     33  C   UNL A   1      35.858  30.062  29.127  1.00  0.00     0.010 A 
ATOM     34  C   UNL A   1      37.016  30.829  29.316  1.00  0.00    -0.014 A 
BRANCH  34  35
ATOM     35  C   UNL A   1      38.158  30.236  30.055  1.00  0.00     0.031 A 
ATOM     36  C   UNL A   1      38.412  30.639  31.481  1.00  0.00     0.074 A 
ATOM     37  C   UNL A   1      39.017  29.415  29.419  1.00  0.00     0.049 A 
ATOM     38  N   UNL A   1      39.417  30.340  32.263  1.00  0.00    -0.248 NA
ATOM     39  C   UNL A   1      37.424  31.542  32.098  1.00  0.00     0.031 C 
ATOM     40  C   UNL A   1      38.922  29.006  28.017  1.00  0.00     0.029 A 
ATOM     41  N   UNL A   1      40.152  28.787  29.868  1.00  0.00    -0.354 N 
ATOM     42  C   UNL A   1      39.198  31.041  33.442  1.00  0.00     0.074 A 
ATOM     43  C   UNL A   1      38.001  31.829  33.253  1.00  0.00     0.031 C 
ATOM     44  C   UNL A   1      39.935  28.172  27.730  1.00  0.00     0.029 A 
ATOM     45  C   UNL A   1      40.772  28.017  28.915  1.00  0.00     0.049 A 
ATOM     46  H   UNL A   1      40.490  28.880  30.789  1.00  0.00     0.167 HD
ATOM     47  C   UNL A   1      39.915  31.007  34.589  1.00  0.00     0.037 A 
ATOM     48  C   UNL A   1      41.889  27.269  28.993  1.00  0.00     0.037 A 
ATOM     49  C   UNL A   1      41.071  30.177  34.792  1.00  0.00     0.049 A 
ATOM     50  C   UNL A   1      42.638  27.208  30.296  1.00  0.00     0.074 A 
ATOM     51  C   UNL A   1      41.822  30.006  35.940  1.00  0.00     0.029 A 
ATOM     52  N   UNL A   1      41.634  29.364  33.818  1.00  0.00    -0.354 N 
ATOM     53  N   UNL A   1      42.384  27.823  31.425  1.00  0.00    -0.248 NA
ATOM     54  C   UNL A   1      43.825  26.344  30.337  1.00  0.00     0.031 C 
ATOM     55  C   UNL A   1      42.858  29.111  35.656  1.00  0.00     0.029 A 
ATOM     56  C   UNL A   1      42.729  28.696  34.340  1.00  0.00     0.049 A 
ATOM     57  H   UNL A   1      41.304  29.276  32.895  1.00  0.00     0.167 HD
ATOM     58  C   UNL A   1      43.360  27.401  32.317  1.00  0.00     0.074 A 
ATOM     59  C   UNL A   1      44.203  26.467  31.602  1.00  0.00     0.031 C 
ATOM     60  C   UNL A   1      43.545  27.760  33.611  1.00  0.00     0.037 A 
BRANCH  47  61
ATOM     61  C   UNL A   1      39.453  31.878  35.719  1.00  0.00     0.064 A 
ATOM     62  C   UNL A   1      39.963  33.173  35.905  1.00  0.00     0.173 A 
ATOM     63  C   UNL A   1      38.475  31.425  36.616  1.00  0.00     0.173 A 
ATOM     64  F   UNL A   1      40.913  33.648  35.084  1.00  0.00    -0.203 F 
ATOM     65  C   UNL A   1      39.535  33.968  36.964  1.00  0.00     0.198 A 
ATOM     66  C   UNL A   1      38.026  32.235  37.657  1.00  0.00     0.198 A 
ATOM     67  F   UNL A   1      37.952  30.197  36.483  1.00  0.00    -0.203 F 
ATOM     68  F   UNL A   1      40.077  35.179  37.152  1.00  0.00    -0.200 F 
ATOM     69  C   UNL A   1      38.562  33.502  37.835  1.00  0.00     0.200 A 
ATOM     70  F   UNL A   1      37.078  31.787  38.491  1.00  0.00    -0.200 F 
ATOM     71  F   UNL A   1      38.148  34.269  38.852  1.00  0.00    -0.200 F 
ENDBRANCH  47  61
BRANCH  48  72
ATOM     72  C   UNL A   1      42.345  26.486  27.816  1.00  0.00     0.064 A 
ATOM     73  C   UNL A   1      41.814  25.214  27.553  1.00  0.00     0.173 A 
ATOM     74  C   UNL A   1      43.317  26.981  26.935  1.00  0.00     0.173 A 
ATOM     75  F   UNL A   1      40.895  24.691  28.378  1.00  0.00    -0.203 F 
ATOM     76  C   UNL A   1      42.254  24.458  26.469  1.00  0.00     0.198 A 
ATOM     77  C   UNL A   1      43.740  26.234  25.837  1.00  0.00     0.198 A 
ATOM     78  F   UNL A   1      43.852  28.193  27.138  1.00  0.00    -0.203 F 
ATOM     79  F   UNL A   1      41.763  23.228  26.269  1.00  0.00    -0.200 F 
ATOM     80  C   UNL A   1      43.214  24.970  25.609  1.00  0.00     0.200 A 
ATOM     81  F   UNL A   1      44.658  26.737  25.001  1.00  0.00    -0.200 F 
ATOM     82  F   UNL A   1      43.637  24.244  24.566  1.00  0.00    -0.200 F 
ENDBRANCH  48  72
BRANCH  60  83
ATOM     83  C   UNL A   1      44.681  27.112  34.344  1.00  0.00     0.064 A 
ATOM     84  C   UNL A   1      45.953  27.700  34.392  1.00  0.00     0.173 A 
ATOM     85  C   UNL A   1      44.481  25.911  35.042  1.00  0.00     0.173 A 
ATOM     86  F   UNL A   1      46.194  28.840  33.728  1.00  0.00    -0.203 F 
ATOM     87  C   UNL A   1      46.991  27.097  35.096  1.00  0.00     0.198 A 
ATOM     88  C   UNL A   1      45.516  25.325  35.766  1.00  0.00     0.198 A 
ATOM     89  F   UNL A   1      43.280  25.315  35.031  1.00  0.00    -0.203 F 
ATOM     90  F   UNL A   1      48.210  27.654  35.094  1.00  0.00    -0.200 F 
ATOM     91  C   UNL A   1      46.770  25.915  35.786  1.00  0.00     0.200 A 
ATOM     92  F   UNL A   1      45.297  24.190  36.443  1.00  0.00    -0.200 F 
ATOM     93  F   UNL A   1      47.770  25.340  36.469  1.00  0.00    -0.200 F 
ENDBRANCH  60  83
ENDBRANCH  34  35
ENDBRANCH  26  29
ENDBRANCH  24  25
ENDBRANCH  23  24
ENDBRANCH  22  23
ENDBRANCH   1  22
TORSDOF 15
ENDMDL
