MODEL 1
REMARK VINA RESULT:     -13.0      0.000      0.000
REMARK SMILES CC1(C)C(NC(=O)c2cc(F)c(F)cc2C(=O)NCCCCNC(=O)c2ccc(-c3c4nc(c(-c5c(F)c(F)c(F)c(F)c5F)c5ccc([nH]5)c(-c5c(F)c(F)c(F)c(F)c5F)c5nc(c(-c6c(F)c(F)c(F)c(F)c6F)c6ccc3[nH]6)C=C5)C=C4)cc2)C1(C)C
REMARK SMILES IDX 20 1 19 2 18 3 16 4 17 5 15 7 8 8 9 9 10 10 14 11 11 12
REMARK SMILES IDX 12 13 13 14 6 15 5 16 7 18 4 19 1 20 2 21 3 22 89 23 90 24
REMARK SMILES IDX 91 25 21 26 22 27 23 28 24 29 25 31 26 32 27 33 88 34 28 35
REMARK SMILES IDX 87 36 29 37 30 38 31 39 81 40 32 41 86 42 80 43 82 44 33 45
REMARK SMILES IDX 85 46 79 47 78 48 34 50 66 51 46 52 65 53 47 54 50 55 64 56
REMARK SMILES IDX 83 57 48 58 49 59 63 61 84 62 51 63 35 64 36 65 44 66 37 67
REMARK SMILES IDX 38 68 42 69 45 70 39 71 40 72 43 73 41 74 67 75 68 76 76 77
REMARK SMILES IDX 69 78 70 79 74 80 77 81 71 82 72 83 75 84 73 85 52 86 53 87
REMARK SMILES IDX 61 88 54 89 55 90 59 91 62 92 56 93 57 94 60 95 58 96
REMARK H PARENT 18 6 5 17 23 30 82 49 50 60
REMARK Flexibility Score: inf
ROOT
ATOM      1  C   UNL A   1      31.693  30.706  26.287  1.00  0.00     0.023 C 
ENDROOT
BRANCH   1   2
ATOM      2  C   UNL A   1      32.993  30.020  26.687  1.00  0.00     0.116 C 
BRANCH   2   3
ATOM      3  N   UNL A   1      33.780  29.498  25.598  1.00  0.00    -0.352 N 
ATOM      4  C   UNL A   1      33.436  28.727  24.519  1.00  0.00     0.252 C 
ATOM      5  O   UNL A   1      34.332  28.484  23.706  1.00  0.00    -0.269 OA
ATOM      6  H   UNL A   1      34.734  29.738  25.637  1.00  0.00     0.163 HD
BRANCH   4   7
ATOM      7  C   UNL A   1      32.113  28.081  24.286  1.00  0.00     0.055 A 
ATOM      8  C   UNL A   1      31.468  27.115  25.074  1.00  0.00     0.055 A 
ATOM      9  C   UNL A   1      30.126  26.760  24.824  1.00  0.00     0.057 A 
ATOM     10  C   UNL A   1      29.455  27.297  23.737  1.00  0.00     0.159 A 
ATOM     11  C   UNL A   1      31.393  28.621  23.196  1.00  0.00     0.057 A 
ATOM     12  F   UNL A   1      28.198  26.911  23.483  1.00  0.00    -0.204 F 
ATOM     13  C   UNL A   1      30.089  28.217  22.920  1.00  0.00     0.159 A 
ATOM     14  F   UNL A   1      29.445  28.737  21.866  1.00  0.00    -0.204 F 
BRANCH   8  15
ATOM     15  C   UNL A   1      32.088  26.451  26.226  1.00  0.00     0.252 C 
ATOM     16  N   UNL A   1      33.034  25.465  25.993  1.00  0.00    -0.348 N 
ATOM     17  H   UNL A   1      33.480  25.104  26.793  1.00  0.00     0.164 HD
ATOM     18  O   UNL A   1      31.772  26.788  27.361  1.00  0.00    -0.269 OA
BRANCH  16  19
ATOM     19  C   UNL A   1      33.448  24.899  24.740  1.00  0.00     0.094 C 
ATOM     20  C   UNL A   1      35.067  23.381  23.372  1.00  0.00     0.014 C 
ATOM     21  C   UNL A   1      34.062  23.528  24.504  1.00  0.00    -0.007 C 
ATOM     22  C   UNL A   1      34.386  22.629  25.673  1.00  0.00     0.014 C 
ATOM     23  C   UNL A   1      32.599  23.812  24.113  1.00  0.00    -0.007 C 
ATOM     24  C   UNL A   1      32.196  24.077  22.678  1.00  0.00     0.014 C 
ATOM     25  C   UNL A   1      31.484  23.153  24.898  1.00  0.00     0.014 C 
ENDBRANCH  16  19
ENDBRANCH   8  15
ENDBRANCH   4   7
ENDBRANCH   2   3
ENDBRANCH   1   2
BRANCH   1  26
ATOM     26  C   UNL A   1      31.456  32.109  26.847  1.00  0.00     0.023 C 
BRANCH  26  27
ATOM     27  C   UNL A   1      32.689  32.915  27.255  1.00  0.00     0.116 C 
BRANCH  27  28
ATOM     28  N   UNL A   1      32.403  34.279  27.679  1.00  0.00    -0.352 N 
ATOM     29  C   UNL A   1      32.994  35.074  28.635  1.00  0.00     0.251 C 
ATOM     30  H   UNL A   1      31.657  34.706  27.199  1.00  0.00     0.163 HD
ATOM     31  O   UNL A   1      32.529  36.185  28.875  1.00  0.00    -0.269 OA
BRANCH  29  32
ATOM     32  C   UNL A   1      34.150  34.583  29.416  1.00  0.00     0.039 A 
ATOM     33  C   UNL A   1      33.922  34.022  30.677  1.00  0.00     0.014 A 
ATOM     34  C   UNL A   1      35.449  34.650  28.913  1.00  0.00     0.014 A 
ATOM     35  C   UNL A   1      34.972  33.416  31.370  1.00  0.00     0.010 A 
ATOM     36  C   UNL A   1      36.477  33.969  29.559  1.00  0.00     0.010 A 
ATOM     37  C   UNL A   1      36.244  33.323  30.784  1.00  0.00    -0.014 A 
BRANCH  37  38
ATOM     38  C   UNL A   1      37.331  32.513  31.396  1.00  0.00     0.031 A 
ATOM     39  C   UNL A   1      37.855  32.849  32.762  1.00  0.00     0.074 A 
ATOM     40  C   UNL A   1      37.922  31.542  30.673  1.00  0.00     0.049 A 
ATOM     41  N   UNL A   1      38.888  32.355  33.397  1.00  0.00    -0.248 NA
ATOM     42  C   UNL A   1      37.148  33.907  33.498  1.00  0.00     0.031 C 
ATOM     43  C   UNL A   1      37.551  31.155  29.311  1.00  0.00     0.029 A 
ATOM     44  N   UNL A   1      38.977  30.715  30.974  1.00  0.00    -0.354 N 
ATOM     45  C   UNL A   1      38.976  33.065  34.586  1.00  0.00     0.074 A 
ATOM     46  C   UNL A   1      37.914  34.048  34.570  1.00  0.00     0.031 C 
ATOM     47  C   UNL A   1      38.346  30.155  28.904  1.00  0.00     0.029 A 
ATOM     48  C   UNL A   1      39.312  29.856  29.956  1.00  0.00     0.049 A 
ATOM     49  H   UNL A   1      39.449  30.736  31.837  1.00  0.00     0.167 HD
ATOM     50  C   UNL A   1      39.850  32.899  35.607  1.00  0.00     0.037 A 
ATOM     51  C   UNL A   1      40.292  28.936  29.872  1.00  0.00     0.037 A 
ATOM     52  C   UNL A   1      40.875  31.888  35.644  1.00  0.00     0.049 A 
ATOM     53  C   UNL A   1      41.226  28.743  31.031  1.00  0.00     0.074 A 
ATOM     54  C   UNL A   1      41.751  31.586  36.672  1.00  0.00     0.029 A 
ATOM     55  N   UNL A   1      41.158  31.011  34.607  1.00  0.00    -0.354 N 
ATOM     56  N   UNL A   1      41.266  29.384  32.173  1.00  0.00    -0.248 NA
ATOM     57  C   UNL A   1      42.251  27.699  30.892  1.00  0.00     0.031 C 
ATOM     58  C   UNL A   1      42.588  30.551  36.243  1.00  0.00     0.029 A 
ATOM     59  C   UNL A   1      42.208  30.180  34.964  1.00  0.00     0.049 A 
ATOM     60  H   UNL A   1      40.684  30.985  33.744  1.00  0.00     0.167 HD
ATOM     61  C   UNL A   1      42.307  28.818  32.894  1.00  0.00     0.074 A 
ATOM     62  C   UNL A   1      42.866  27.768  32.067  1.00  0.00     0.031 C 
ATOM     63  C   UNL A   1      42.759  29.143  34.129  1.00  0.00     0.037 A 
BRANCH  50  64
ATOM     64  C   UNL A   1      39.733  33.830  36.778  1.00  0.00     0.064 A 
ATOM     65  C   UNL A   1      38.905  33.506  37.863  1.00  0.00     0.173 A 
ATOM     66  C   UNL A   1      40.410  35.057  36.813  1.00  0.00     0.173 A 
ATOM     67  F   UNL A   1      38.228  32.347  37.876  1.00  0.00    -0.203 F 
ATOM     68  C   UNL A   1      38.760  34.378  38.940  1.00  0.00     0.198 A 
ATOM     69  C   UNL A   1      40.286  35.914  37.904  1.00  0.00     0.198 A 
ATOM     70  F   UNL A   1      41.222  35.409  35.805  1.00  0.00    -0.203 F 
ATOM     71  F   UNL A   1      37.948  34.057  39.956  1.00  0.00    -0.200 F 
ATOM     72  C   UNL A   1      39.456  35.576  38.963  1.00  0.00     0.200 A 
ATOM     73  F   UNL A   1      40.980  37.060  37.936  1.00  0.00    -0.200 F 
ATOM     74  F   UNL A   1      39.333  36.405  40.009  1.00  0.00    -0.200 F 
ENDBRANCH  50  64
BRANCH  51  75
ATOM     75  C   UNL A   1      40.403  28.104  28.647  1.00  0.00     0.064 A 
ATOM     76  C   UNL A   1      39.785  26.849  28.556  1.00  0.00     0.173 A 
ATOM     77  C   UNL A   1      41.182  28.531  27.564  1.00  0.00     0.173 A 
ATOM     78  F   UNL A   1      39.035  26.394  29.571  1.00  0.00    -0.203 F 
ATOM     79  C   UNL A   1      39.962  26.042  27.435  1.00  0.00     0.198 A 
ATOM     80  C   UNL A   1      41.341  27.733  26.435  1.00  0.00     0.198 A 
ATOM     81  F   UNL A   1      41.776  29.733  27.601  1.00  0.00    -0.203 F 
ATOM     82  F   UNL A   1      39.392  24.830  27.386  1.00  0.00    -0.200 F 
ATOM     83  C   UNL A   1      40.739  26.485  26.375  1.00  0.00     0.200 A 
ATOM     84  F   UNL A   1      42.078  28.171  25.405  1.00  0.00    -0.200 F 
ATOM     85  F   UNL A   1      40.910  25.708  25.296  1.00  0.00    -0.200 F 
ENDBRANCH  51  75
BRANCH  63  86
ATOM     86  C   UNL A   1      43.912  28.354  34.674  1.00  0.00     0.064 A 
ATOM     87  C   UNL A   1      43.687  27.180  35.409  1.00  0.00     0.173 A 
ATOM     88  C   UNL A   1      45.234  28.796  34.526  1.00  0.00     0.173 A 
ATOM     89  F   UNL A   1      42.439  26.720  35.583  1.00  0.00    -0.203 F 
ATOM     90  C   UNL A   1      44.745  26.485  35.987  1.00  0.00     0.198 A 
ATOM     91  C   UNL A   1      46.293  28.084  35.086  1.00  0.00     0.198 A 
ATOM     92  F   UNL A   1      45.501  29.905  33.820  1.00  0.00    -0.203 F 
ATOM     93  F   UNL A   1      44.504  25.382  36.711  1.00  0.00    -0.200 F 
ATOM     94  C   UNL A   1      46.046  26.936  35.824  1.00  0.00     0.200 A 
ATOM     95  F   UNL A   1      47.551  28.508  34.908  1.00  0.00    -0.200 F 
ATOM     96  F   UNL A   1      47.064  26.259  36.374  1.00  0.00    -0.200 F 
ENDBRANCH  63  86
ENDBRANCH  37  38
ENDBRANCH  29  32
ENDBRANCH  27  28
ENDBRANCH  26  27
ENDBRANCH   1  26
TORSDOF 13
ENDMDL
MODEL 2
REMARK VINA RESULT:     -13.0      0.232      1.591
REMARK SMILES CC1(C)C(NC(=O)c2cc(F)c(F)cc2C(=O)NCCCCNC(=O)c2ccc(-c3c4nc(c(-c5c(F)c(F)c(F)c(F)c5F)c5ccc([nH]5)c(-c5c(F)c(F)c(F)c(F)c5F)c5nc(c(-c6c(F)c(F)c(F)c(F)c6F)c6ccc3[nH]6)C=C5)C=C4)cc2)C1(C)C
REMARK SMILES IDX 20 1 19 2 18 3 16 4 17 5 15 7 8 8 9 9 10 10 14 11 11 12
REMARK SMILES IDX 12 13 13 14 6 15 5 16 7 18 4 19 1 20 2 21 3 22 89 23 90 24
REMARK SMILES IDX 91 25 21 26 22 27 23 28 24 29 25 31 26 32 27 33 88 34 28 35
REMARK SMILES IDX 87 36 29 37 30 38 31 39 81 40 32 41 86 42 80 43 82 44 33 45
REMARK SMILES IDX 85 46 79 47 78 48 34 50 66 51 46 52 65 53 47 54 50 55 64 56
REMARK SMILES IDX 83 57 48 58 49 59 63 61 84 62 51 63 35 64 36 65 44 66 37 67
REMARK SMILES IDX 38 68 42 69 45 70 39 71 40 72 43 73 41 74 67 75 68 76 76 77
REMARK SMILES IDX 69 78 70 79 74 80 77 81 71 82 72 83 75 84 73 85 52 86 53 87
REMARK SMILES IDX 61 88 54 89 55 90 59 91 62 92 56 93 57 94 60 95 58 96
REMARK H PARENT 18 6 5 17 23 30 82 49 50 60
REMARK Flexibility Score: inf
ROOT
ATOM      1  C   UNL A   1      31.657  30.583  26.422  1.00  0.00     0.023 C 
ENDROOT
BRANCH   1   2
ATOM      2  C   UNL A   1      32.984  29.956  26.831  1.00  0.00     0.116 C 
BRANCH   2   3
ATOM      3  N   UNL A   1      33.794  29.456  25.749  1.00  0.00    -0.352 N 
ATOM      4  C   UNL A   1      33.465  28.751  24.621  1.00  0.00     0.252 C 
ATOM      5  O   UNL A   1      34.383  28.512  23.831  1.00  0.00    -0.269 OA
ATOM      6  H   UNL A   1      34.755  29.656  25.836  1.00  0.00     0.163 HD
BRANCH   4   7
ATOM      7  C   UNL A   1      32.129  28.170  24.306  1.00  0.00     0.055 A 
ATOM      8  C   UNL A   1      31.414  27.198  25.024  1.00  0.00     0.055 A 
ATOM      9  C   UNL A   1      30.071  26.908  24.704  1.00  0.00     0.057 A 
ATOM     10  C   UNL A   1      29.469  27.518  23.616  1.00  0.00     0.159 A 
ATOM     11  C   UNL A   1      31.477  28.785  23.213  1.00  0.00     0.057 A 
ATOM     12  F   UNL A   1      28.209  27.194  23.295  1.00  0.00    -0.204 F 
ATOM     13  C   UNL A   1      30.172  28.446  22.867  1.00  0.00     0.159 A 
ATOM     14  F   UNL A   1      29.593  29.035  21.812  1.00  0.00    -0.204 F 
BRANCH   8  15
ATOM     15  C   UNL A   1      31.960  26.461  26.170  1.00  0.00     0.252 C 
ATOM     16  N   UNL A   1      32.916  25.485  25.936  1.00  0.00    -0.348 N 
ATOM     17  H   UNL A   1      33.311  25.074  26.739  1.00  0.00     0.164 HD
ATOM     18  O   UNL A   1      31.573  26.729  27.301  1.00  0.00    -0.269 OA
BRANCH  16  19
ATOM     19  C   UNL A   1      33.408  24.995  24.679  1.00  0.00     0.094 C 
ATOM     20  C   UNL A   1      35.026  23.459  23.330  1.00  0.00     0.014 C 
ATOM     21  C   UNL A   1      33.926  23.599  24.372  1.00  0.00    -0.007 C 
ATOM     22  C   UNL A   1      34.052  22.575  25.474  1.00  0.00     0.014 C 
ATOM     23  C   UNL A   1      32.539  24.050  23.873  1.00  0.00    -0.007 C 
ATOM     24  C   UNL A   1      32.310  24.476  22.439  1.00  0.00     0.014 C 
ATOM     25  C   UNL A   1      31.298  23.431  24.483  1.00  0.00     0.014 C 
ENDBRANCH  16  19
ENDBRANCH   8  15
ENDBRANCH   4   7
ENDBRANCH   2   3
ENDBRANCH   1   2
BRANCH   1  26
ATOM     26  C   UNL A   1      31.515  32.090  26.637  1.00  0.00     0.023 C 
BRANCH  26  27
ATOM     27  C   UNL A   1      32.680  32.812  27.313  1.00  0.00     0.116 C 
BRANCH  27  28
ATOM     28  N   UNL A   1      32.393  34.187  27.699  1.00  0.00    -0.352 N 
ATOM     29  C   UNL A   1      32.982  35.008  28.633  1.00  0.00     0.251 C 
ATOM     30  H   UNL A   1      31.648  34.601  27.206  1.00  0.00     0.163 HD
ATOM     31  O   UNL A   1      32.516  36.126  28.843  1.00  0.00    -0.269 OA
BRANCH  29  32
ATOM     32  C   UNL A   1      34.137  34.540  29.430  1.00  0.00     0.039 A 
ATOM     33  C   UNL A   1      33.910  34.045  30.718  1.00  0.00     0.014 A 
ATOM     34  C   UNL A   1      35.433  34.563  28.915  1.00  0.00     0.014 A 
ATOM     35  C   UNL A   1      34.957  33.458  31.433  1.00  0.00     0.010 A 
ATOM     36  C   UNL A   1      36.456  33.899  29.587  1.00  0.00     0.010 A 
ATOM     37  C   UNL A   1      36.223  33.318  30.843  1.00  0.00    -0.014 A 
BRANCH  37  38
ATOM     38  C   UNL A   1      37.303  32.522  31.487  1.00  0.00     0.031 A 
ATOM     39  C   UNL A   1      37.794  32.876  32.861  1.00  0.00     0.074 A 
ATOM     40  C   UNL A   1      37.918  31.550  30.786  1.00  0.00     0.049 A 
ATOM     41  N   UNL A   1      38.817  32.397  33.524  1.00  0.00    -0.248 NA
ATOM     42  C   UNL A   1      37.062  33.935  33.571  1.00  0.00     0.031 C 
ATOM     43  C   UNL A   1      37.580  31.147  29.420  1.00  0.00     0.029 A 
ATOM     44  N   UNL A   1      38.973  30.735  31.119  1.00  0.00    -0.354 N 
ATOM     45  C   UNL A   1      38.872  33.118  34.707  1.00  0.00     0.074 A 
ATOM     46  C   UNL A   1      37.803  34.093  34.658  1.00  0.00     0.031 C 
ATOM     47  C   UNL A   1      38.393  30.150  29.041  1.00  0.00     0.029 A 
ATOM     48  C   UNL A   1      39.338  29.870  30.117  1.00  0.00     0.049 A 
ATOM     49  H   UNL A   1      39.426  30.769  31.992  1.00  0.00     0.167 HD
ATOM     50  C   UNL A   1      39.725  32.970  35.749  1.00  0.00     0.037 A 
ATOM     51  C   UNL A   1      40.327  28.957  30.063  1.00  0.00     0.037 A 
ATOM     52  C   UNL A   1      40.757  31.968  35.818  1.00  0.00     0.049 A 
ATOM     53  C   UNL A   1      41.237  28.783  31.245  1.00  0.00     0.074 A 
ATOM     54  C   UNL A   1      41.612  31.684  36.868  1.00  0.00     0.029 A 
ATOM     55  N   UNL A   1      41.070  31.084  34.796  1.00  0.00    -0.354 N 
ATOM     56  N   UNL A   1      41.246  29.435  32.381  1.00  0.00    -0.248 NA
ATOM     57  C   UNL A   1      42.274  27.747  31.138  1.00  0.00     0.031 C 
ATOM     58  C   UNL A   1      42.468  30.652  36.468  1.00  0.00     0.029 A 
ATOM     59  C   UNL A   1      42.119  30.265  35.184  1.00  0.00     0.049 A 
ATOM     60  H   UNL A   1      40.616  31.045  33.924  1.00  0.00     0.167 HD
ATOM     61  C   UNL A   1      42.276  28.885  33.130  1.00  0.00     0.074 A 
ATOM     62  C   UNL A   1      42.861  27.832  32.325  1.00  0.00     0.031 C 
ATOM     63  C   UNL A   1      42.698  29.225  34.372  1.00  0.00     0.037 A 
BRANCH  50  64
ATOM     64  C   UNL A   1      39.574  33.911  36.908  1.00  0.00     0.064 A 
ATOM     65  C   UNL A   1      40.221  35.156  36.902  1.00  0.00     0.173 A 
ATOM     66  C   UNL A   1      38.821  33.569  38.040  1.00  0.00     0.173 A 
ATOM     67  F   UNL A   1      40.961  35.529  35.846  1.00  0.00    -0.203 F 
ATOM     68  C   UNL A   1      40.118  36.023  37.987  1.00  0.00     0.198 A 
ATOM     69  C   UNL A   1      38.696  34.450  39.111  1.00  0.00     0.198 A 
ATOM     70  F   UNL A   1      38.174  32.394  38.091  1.00  0.00    -0.203 F 
ATOM     71  F   UNL A   1      40.760  37.199  37.967  1.00  0.00    -0.200 F 
ATOM     72  C   UNL A   1      39.349  35.673  39.086  1.00  0.00     0.200 A 
ATOM     73  F   UNL A   1      37.931  34.120  40.161  1.00  0.00    -0.200 F 
ATOM     74  F   UNL A   1      39.233  36.517  40.121  1.00  0.00    -0.200 F 
ENDBRANCH  50  64
BRANCH  51  75
ATOM     75  C   UNL A   1      40.472  28.115  28.849  1.00  0.00     0.064 A 
ATOM     76  C   UNL A   1      41.247  28.532  27.757  1.00  0.00     0.173 A 
ATOM     77  C   UNL A   1      39.787  26.898  28.741  1.00  0.00     0.173 A 
ATOM     78  F   UNL A   1      41.914  29.693  27.812  1.00  0.00    -0.203 F 
ATOM     79  C   UNL A   1      41.311  27.771  26.592  1.00  0.00     0.198 A 
ATOM     80  C   UNL A   1      39.869  26.128  27.584  1.00  0.00     0.198 A 
ATOM     81  F   UNL A   1      39.050  26.452  29.768  1.00  0.00    -0.203 F 
ATOM     82  F   UNL A   1      42.027  28.208  25.547  1.00  0.00    -0.200 F 
ATOM     83  C   UNL A   1      40.622  26.570  26.506  1.00  0.00     0.200 A 
ATOM     84  F   UNL A   1      39.217  24.960  27.511  1.00  0.00    -0.200 F 
ATOM     85  F   UNL A   1      40.684  25.838  25.384  1.00  0.00    -0.200 F 
ENDBRANCH  51  75
BRANCH  63  86
ATOM     86  C   UNL A   1      43.844  28.451  34.950  1.00  0.00     0.064 A 
ATOM     87  C   UNL A   1      43.614  27.280  35.687  1.00  0.00     0.173 A 
ATOM     88  C   UNL A   1      45.166  28.906  34.831  1.00  0.00     0.173 A 
ATOM     89  F   UNL A   1      42.367  26.808  35.833  1.00  0.00    -0.203 F 
ATOM     90  C   UNL A   1      44.664  26.599  36.295  1.00  0.00     0.198 A 
ATOM     91  C   UNL A   1      46.217  28.208  35.421  1.00  0.00     0.198 A 
ATOM     92  F   UNL A   1      45.439  30.013  34.124  1.00  0.00    -0.203 F 
ATOM     93  F   UNL A   1      44.417  25.498  37.019  1.00  0.00    -0.200 F 
ATOM     94  C   UNL A   1      45.964  27.062  36.160  1.00  0.00     0.200 A 
ATOM     95  F   UNL A   1      47.475  28.644  35.271  1.00  0.00    -0.200 F 
ATOM     96  F   UNL A   1      46.975  26.400  36.739  1.00  0.00    -0.200 F 
ENDBRANCH  63  86
ENDBRANCH  37  38
ENDBRANCH  29  32
ENDBRANCH  27  28
ENDBRANCH  26  27
ENDBRANCH   1  26
TORSDOF 13
ENDMDL
MODEL 3
REMARK VINA RESULT:     -12.9      1.838      7.681
REMARK SMILES CC1(C)C(NC(=O)c2cc(F)c(F)cc2C(=O)NCCCCNC(=O)c2ccc(-c3c4nc(c(-c5c(F)c(F)c(F)c(F)c5F)c5ccc([nH]5)c(-c5c(F)c(F)c(F)c(F)c5F)c5nc(c(-c6c(F)c(F)c(F)c(F)c6F)c6ccc3[nH]6)C=C5)C=C4)cc2)C1(C)C
REMARK SMILES IDX 20 1 19 2 18 3 16 4 17 5 15 7 8 8 9 9 10 10 14 11 11 12
REMARK SMILES IDX 12 13 13 14 6 15 5 16 7 18 4 19 1 20 2 21 3 22 89 23 90 24
REMARK SMILES IDX 91 25 21 26 22 27 23 28 24 29 25 31 26 32 27 33 88 34 28 35
REMARK SMILES IDX 87 36 29 37 30 38 31 39 81 40 32 41 86 42 80 43 82 44 33 45
REMARK SMILES IDX 85 46 79 47 78 48 34 50 66 51 46 52 65 53 47 54 50 55 64 56
REMARK SMILES IDX 83 57 48 58 49 59 63 61 84 62 51 63 35 64 36 65 44 66 37 67
REMARK SMILES IDX 38 68 42 69 45 70 39 71 40 72 43 73 41 74 67 75 68 76 76 77
REMARK SMILES IDX 69 78 70 79 74 80 77 81 71 82 72 83 75 84 73 85 52 86 53 87
REMARK SMILES IDX 61 88 54 89 55 90 59 91 62 92 56 93 57 94 60 95 58 96
REMARK H PARENT 18 6 5 17 23 30 82 49 50 60
REMARK Flexibility Score: inf
ROOT
ATOM      1  C   UNL A   1      32.250  29.309  23.209  1.00  0.00     0.023 C 
ENDROOT
BRANCH   1   2
ATOM      2  C   UNL A   1      33.641  28.724  22.999  1.00  0.00     0.116 C 
BRANCH   2   3
ATOM      3  N   UNL A   1      33.689  27.487  22.261  1.00  0.00    -0.352 N 
ATOM      4  C   UNL A   1      32.975  26.325  22.392  1.00  0.00     0.252 C 
ATOM      5  O   UNL A   1      33.199  25.441  21.559  1.00  0.00    -0.269 OA
ATOM      6  H   UNL A   1      34.353  27.475  21.534  1.00  0.00     0.163 HD
BRANCH   4   7
ATOM      7  C   UNL A   1      32.028  25.994  23.495  1.00  0.00     0.055 A 
ATOM      8  C   UNL A   1      32.324  25.715  24.839  1.00  0.00     0.055 A 
ATOM      9  C   UNL A   1      31.295  25.626  25.800  1.00  0.00     0.057 A 
ATOM     10  C   UNL A   1      29.969  25.725  25.410  1.00  0.00     0.159 A 
ATOM     11  C   UNL A   1      30.665  26.106  23.136  1.00  0.00     0.057 A 
ATOM     12  F   UNL A   1      29.002  25.587  26.327  1.00  0.00    -0.204 F 
ATOM     13  C   UNL A   1      29.655  25.954  24.082  1.00  0.00     0.159 A 
ATOM     14  F   UNL A   1      28.374  26.047  23.701  1.00  0.00    -0.204 F 
BRANCH   8  15
ATOM     15  C   UNL A   1      33.686  25.553  25.361  1.00  0.00     0.252 C 
ATOM     16  N   UNL A   1      34.249  24.287  25.362  1.00  0.00    -0.348 N 
ATOM     17  H   UNL A   1      35.190  24.238  25.647  1.00  0.00     0.164 HD
ATOM     18  O   UNL A   1      34.298  26.533  25.767  1.00  0.00    -0.269 OA
BRANCH  16  19
ATOM     19  C   UNL A   1      33.641  23.035  25.006  1.00  0.00     0.094 C 
ATOM     20  C   UNL A   1      33.861  20.511  24.392  1.00  0.00     0.014 C 
ATOM     21  C   UNL A   1      34.114  21.639  25.381  1.00  0.00    -0.007 C 
ATOM     22  C   UNL A   1      35.406  21.453  26.139  1.00  0.00     0.014 C 
ATOM     23  C   UNL A   1      32.883  22.263  26.067  1.00  0.00    -0.007 C 
ATOM     24  C   UNL A   1      31.473  21.875  25.675  1.00  0.00     0.014 C 
ATOM     25  C   UNL A   1      32.973  22.660  27.525  1.00  0.00     0.014 C 
ENDBRANCH  16  19
ENDBRANCH   8  15
ENDBRANCH   4   7
ENDBRANCH   2   3
ENDBRANCH   1   2
BRANCH   1  26
ATOM     26  C   UNL A   1      31.723  29.328  24.645  1.00  0.00     0.023 C 
BRANCH  26  27
ATOM     27  C   UNL A   1      32.702  29.743  25.743  1.00  0.00     0.116 C 
BRANCH  27  28
ATOM     28  N   UNL A   1      32.408  31.031  26.355  1.00  0.00    -0.352 N 
ATOM     29  C   UNL A   1      33.131  31.801  27.238  1.00  0.00     0.251 C 
ATOM     30  H   UNL A   1      31.542  31.419  26.091  1.00  0.00     0.163 HD
ATOM     31  O   UNL A   1      32.643  32.836  27.684  1.00  0.00    -0.269 OA
BRANCH  29  32
ATOM     32  C   UNL A   1      34.468  31.368  27.699  1.00  0.00     0.039 A 
ATOM     33  C   UNL A   1      35.497  32.312  27.762  1.00  0.00     0.014 A 
ATOM     34  C   UNL A   1      34.712  30.051  28.090  1.00  0.00     0.014 A 
ATOM     35  C   UNL A   1      36.724  31.969  28.334  1.00  0.00     0.010 A 
ATOM     36  C   UNL A   1      35.900  29.732  28.742  1.00  0.00     0.010 A 
ATOM     37  C   UNL A   1      36.910  30.694  28.893  1.00  0.00    -0.014 A 
BRANCH  37  38
ATOM     38  C   UNL A   1      38.122  30.357  29.687  1.00  0.00     0.031 A 
ATOM     39  C   UNL A   1      39.150  29.407  29.144  1.00  0.00     0.074 A 
ATOM     40  C   UNL A   1      38.239  30.821  30.947  1.00  0.00     0.049 A 
ATOM     41  N   UNL A   1      40.190  28.882  29.742  1.00  0.00    -0.248 NA
ATOM     42  C   UNL A   1      38.965  28.957  27.757  1.00  0.00     0.031 C 
ATOM     43  C   UNL A   1      37.281  31.702  31.617  1.00  0.00     0.029 A 
ATOM     44  N   UNL A   1      39.205  30.601  31.898  1.00  0.00    -0.354 N 
ATOM     45  C   UNL A   1      40.759  28.016  28.819  1.00  0.00     0.074 A 
ATOM     46  C   UNL A   1      39.930  28.058  27.634  1.00  0.00     0.031 C 
ATOM     47  C   UNL A   1      37.717  31.965  32.858  1.00  0.00     0.029 A 
ATOM     48  C   UNL A   1      38.962  31.239  33.089  1.00  0.00     0.049 A 
ATOM     49  H   UNL A   1      39.997  30.037  31.741  1.00  0.00     0.167 HD
ATOM     50  C   UNL A   1      41.882  27.269  28.942  1.00  0.00     0.037 A 
ATOM     51  C   UNL A   1      39.655  31.236  34.243  1.00  0.00     0.037 A 
ATOM     52  C   UNL A   1      42.733  27.266  30.104  1.00  0.00     0.049 A 
ATOM     53  C   UNL A   1      40.919  30.430  34.345  1.00  0.00     0.074 A 
ATOM     54  C   UNL A   1      43.937  26.609  30.287  1.00  0.00     0.029 A 
ATOM     55  N   UNL A   1      42.471  27.956  31.278  1.00  0.00    -0.354 N 
ATOM     56  N   UNL A   1      41.476  29.656  33.446  1.00  0.00    -0.248 NA
ATOM     57  C   UNL A   1      41.649  30.496  35.618  1.00  0.00     0.031 C 
ATOM     58  C   UNL A   1      44.386  26.873  31.585  1.00  0.00     0.029 A 
ATOM     59  C   UNL A   1      43.483  27.727  32.197  1.00  0.00     0.049 A 
ATOM     60  H   UNL A   1      41.683  28.524  31.435  1.00  0.00     0.167 HD
ATOM     61  C   UNL A   1      42.626  29.152  34.036  1.00  0.00     0.074 A 
ATOM     62  C   UNL A   1      42.697  29.721  35.367  1.00  0.00     0.031 C 
ATOM     63  C   UNL A   1      43.539  28.294  33.521  1.00  0.00     0.037 A 
BRANCH  50  64
ATOM     64  C   UNL A   1      42.262  26.393  27.785  1.00  0.00     0.064 A 
ATOM     65  C   UNL A   1      41.700  25.115  27.647  1.00  0.00     0.173 A 
ATOM     66  C   UNL A   1      43.207  26.801  26.833  1.00  0.00     0.173 A 
ATOM     67  F   UNL A   1      40.796  24.672  28.535  1.00  0.00    -0.203 F 
ATOM     68  C   UNL A   1      42.071  24.278  26.596  1.00  0.00     0.198 A 
ATOM     69  C   UNL A   1      43.553  25.974  25.767  1.00  0.00     0.198 A 
ATOM     70  F   UNL A   1      43.765  28.018  26.914  1.00  0.00    -0.203 F 
ATOM     71  F   UNL A   1      41.536  23.054  26.495  1.00  0.00    -0.200 F 
ATOM     72  C   UNL A   1      42.991  24.712  25.654  1.00  0.00     0.200 A 
ATOM     73  F   UNL A   1      44.424  26.405  24.843  1.00  0.00    -0.200 F 
ATOM     74  F   UNL A   1      43.332  23.915  24.631  1.00  0.00    -0.200 F 
ENDBRANCH  50  64
BRANCH  51  75
ATOM     75  C   UNL A   1      39.176  32.062  35.380  1.00  0.00     0.064 A 
ATOM     76  C   UNL A   1      39.522  33.416  35.498  1.00  0.00     0.173 A 
ATOM     77  C   UNL A   1      38.408  31.490  36.402  1.00  0.00     0.173 A 
ATOM     78  F   UNL A   1      40.262  34.005  34.548  1.00  0.00    -0.203 F 
ATOM     79  C   UNL A   1      39.134  34.160  36.610  1.00  0.00     0.198 A 
ATOM     80  C   UNL A   1      38.004  32.240  37.503  1.00  0.00     0.198 A 
ATOM     81  F   UNL A   1      38.040  30.203  36.321  1.00  0.00    -0.203 F 
ATOM     82  F   UNL A   1      39.507  35.443  36.719  1.00  0.00    -0.200 F 
ATOM     83  C   UNL A   1      38.375  33.572  37.611  1.00  0.00     0.200 A 
ATOM     84  F   UNL A   1      37.255  31.674  38.459  1.00  0.00    -0.200 F 
ATOM     85  F   UNL A   1      38.003  34.289  38.681  1.00  0.00    -0.200 F 
ENDBRANCH  51  75
BRANCH  63  86
ATOM     86  C   UNL A   1      44.702  27.916  34.388  1.00  0.00     0.064 A 
ATOM     87  C   UNL A   1      45.878  28.679  34.373  1.00  0.00     0.173 A 
ATOM     88  C   UNL A   1      44.675  26.761  35.182  1.00  0.00     0.173 A 
ATOM     89  F   UNL A   1      45.955  29.790  33.625  1.00  0.00    -0.203 F 
ATOM     90  C   UNL A   1      46.992  28.291  35.113  1.00  0.00     0.198 A 
ATOM     91  C   UNL A   1      45.783  26.389  35.940  1.00  0.00     0.198 A 
ATOM     92  F   UNL A   1      43.567  26.006  35.241  1.00  0.00    -0.203 F 
ATOM     93  F   UNL A   1      48.116  29.020  35.061  1.00  0.00    -0.200 F 
ATOM     94  C   UNL A   1      46.942  27.149  35.897  1.00  0.00     0.200 A 
ATOM     95  F   UNL A   1      45.726  25.297  36.715  1.00  0.00    -0.200 F 
ATOM     96  F   UNL A   1      48.012  26.782  36.616  1.00  0.00    -0.200 F 
ENDBRANCH  63  86
ENDBRANCH  37  38
ENDBRANCH  29  32
ENDBRANCH  27  28
ENDBRANCH  26  27
ENDBRANCH   1  26
TORSDOF 13
ENDMDL
