MODEL 1
REMARK VINA RESULT:     -12.6      0.000      0.000
REMARK SMILES C[C@H]1Cc2cc(C(=O)[C@H](Br)CC(=O)NCCCCNC(=O)c3ccc(-c4c5nc(c(-c6c(F)c(F)c(F)c(F)c6F)c6ccc([nH]6)c(-c6c(F)c(F)c(F)c(F)c6F)c6nc(c(-c7c(F)c(F)c(F)c(F)c7F)c7ccc4[nH]7)C=C6)C=C5)cc3)ccc2O1
REMARK SMILES IDX 16 1 15 2 14 3 12 4 13 5 11 7 9 8 10 9 7 10 8 11 6 12 1 13
REMARK SMILES IDX 2 14 3 15 88 16 4 17 87 18 5 19 86 20 85 21 17 22 18 23
REMARK SMILES IDX 19 24 20 25 21 27 22 28 23 29 84 30 24 31 83 32 25 33 26 34
REMARK SMILES IDX 27 35 77 36 28 37 82 38 76 39 78 40 29 41 81 42 75 43 74 44
REMARK SMILES IDX 30 46 62 47 42 48 61 49 43 50 46 51 60 52 79 53 44 54 45 55
REMARK SMILES IDX 59 57 80 58 47 59 31 60 32 61 40 62 33 63 34 64 38 65 41 66
REMARK SMILES IDX 35 67 36 68 39 69 37 70 63 71 64 72 72 73 65 74 66 75 70 76
REMARK SMILES IDX 73 77 67 78 68 79 71 80 69 81 48 82 49 83 57 84 50 85 51 86
REMARK SMILES IDX 55 87 58 88 52 89 53 90 56 91 54 92
REMARK H PARENT 14 6 19 26 78 45 46 56
REMARK Flexibility Score: inf
ROOT
ATOM      1  C   UNL A   1      32.812  30.203  26.829  1.00  0.00     0.023 C 
ENDROOT
BRANCH   1   2
ATOM      2  C   UNL A   1      32.215  29.347  25.711  1.00  0.00     0.116 C 
BRANCH   2   3
ATOM      3  N   UNL A   1      33.015  29.470  24.503  1.00  0.00    -0.356 N 
ATOM      4  C   UNL A   1      33.766  28.527  23.863  1.00  0.00     0.221 C 
ATOM      5  O   UNL A   1      34.554  28.886  22.990  1.00  0.00    -0.275 OA
ATOM      6  H   UNL A   1      33.014  30.361  24.087  1.00  0.00     0.163 HD
BRANCH   4   7
ATOM      7  C   UNL A   1      33.559  27.067  24.184  1.00  0.00     0.123 C 
BRANCH   7   8
ATOM      8  C   UNL A   1      32.678  26.322  23.199  1.00  0.00     0.138 C 
ATOM      9  Br  UNL A   1      33.405  24.670  22.470  1.00  0.00    -0.080 Br
BRANCH   8  10
ATOM     10  C   UNL A   1      31.306  25.948  23.742  1.00  0.00     0.176 C 
ATOM     11  O   UNL A   1      31.178  24.924  24.419  1.00  0.00    -0.293 OA
BRANCH  10  12
ATOM     12  C   UNL A   1      30.078  26.793  23.506  1.00  0.00     0.019 A 
ATOM     13  C   UNL A   1      27.712  31.723  23.356  1.00  0.00     0.053 C 
ATOM     14  C   UNL A   1      27.676  30.584  22.341  1.00  0.00     0.174 C 
ATOM     15  C   UNL A   1      29.085  30.134  21.918  1.00  0.00     0.084 C 
ATOM     16  O   UNL A   1      26.963  29.457  22.915  1.00  0.00    -0.490 OA
ATOM     17  C   UNL A   1      29.176  28.856  22.659  1.00  0.00    -0.001 A 
ATOM     18  C   UNL A   1      27.926  28.514  23.135  1.00  0.00     0.123 A 
ATOM     19  C   UNL A   1      30.265  28.019  22.844  1.00  0.00     0.019 A 
ATOM     20  C   UNL A   1      27.693  27.308  23.748  1.00  0.00     0.047 A 
ATOM     21  C   UNL A   1      28.774  26.433  23.906  1.00  0.00     0.015 A 
ENDBRANCH  10  12
ENDBRANCH   8  10
ENDBRANCH   7   8
ENDBRANCH   4   7
ENDBRANCH   2   3
ENDBRANCH   1   2
BRANCH   1  22
ATOM     22  C   UNL A   1      32.289  31.632  26.864  1.00  0.00     0.023 C 
BRANCH  22  23
ATOM     23  C   UNL A   1      33.221  32.613  27.552  1.00  0.00     0.116 C 
BRANCH  23  24
ATOM     24  N   UNL A   1      32.638  33.936  27.743  1.00  0.00    -0.352 N 
ATOM     25  C   UNL A   1      33.039  34.922  28.624  1.00  0.00     0.251 C 
ATOM     26  H   UNL A   1      31.865  34.154  27.174  1.00  0.00     0.163 HD
ATOM     27  O   UNL A   1      32.416  35.959  28.747  1.00  0.00    -0.269 OA
BRANCH  25  28
ATOM     28  C   UNL A   1      34.225  34.644  29.461  1.00  0.00     0.039 A 
ATOM     29  C   UNL A   1      35.499  34.789  28.913  1.00  0.00     0.014 A 
ATOM     30  C   UNL A   1      34.045  34.072  30.721  1.00  0.00     0.014 A 
ATOM     31  C   UNL A   1      36.571  34.160  29.528  1.00  0.00     0.010 A 
ATOM     32  C   UNL A   1      35.146  33.532  31.388  1.00  0.00     0.010 A 
ATOM     33  C   UNL A   1      36.403  33.509  30.764  1.00  0.00    -0.014 A 
BRANCH  33  34
ATOM     34  C   UNL A   1      37.553  32.779  31.358  1.00  0.00     0.031 A 
ATOM     35  C   UNL A   1      38.023  33.079  32.757  1.00  0.00     0.074 A 
ATOM     36  C   UNL A   1      38.123  31.781  30.656  1.00  0.00     0.049 A 
ATOM     37  N   UNL A   1      39.010  32.539  33.430  1.00  0.00    -0.248 NA
ATOM     38  C   UNL A   1      37.297  34.121  33.502  1.00  0.00     0.031 C 
ATOM     39  C   UNL A   1      37.734  31.380  29.302  1.00  0.00     0.029 A 
ATOM     40  N   UNL A   1      39.118  30.901  30.991  1.00  0.00    -0.354 N 
ATOM     41  C   UNL A   1      39.044  33.195  34.653  1.00  0.00     0.074 A 
ATOM     42  C   UNL A   1      37.988  34.184  34.633  1.00  0.00     0.031 C 
ATOM     43  C   UNL A   1      38.431  30.292  28.951  1.00  0.00     0.029 A 
ATOM     44  C   UNL A   1      39.369  29.966  30.020  1.00  0.00     0.049 A 
ATOM     45  H   UNL A   1      39.604  30.936  31.846  1.00  0.00     0.167 HD
ATOM     46  C   UNL A   1      39.877  32.984  35.700  1.00  0.00     0.037 A 
ATOM     47  C   UNL A   1      40.266  28.963  29.984  1.00  0.00     0.037 A 
ATOM     48  C   UNL A   1      40.898  31.969  35.735  1.00  0.00     0.049 A 
ATOM     49  C   UNL A   1      41.192  28.768  31.147  1.00  0.00     0.074 A 
ATOM     50  C   UNL A   1      41.778  31.665  36.759  1.00  0.00     0.029 A 
ATOM     51  N   UNL A   1      41.166  31.084  34.701  1.00  0.00    -0.354 N 
ATOM     52  N   UNL A   1      41.234  29.418  32.284  1.00  0.00    -0.248 NA
ATOM     53  C   UNL A   1      42.209  27.718  31.013  1.00  0.00     0.031 C 
ATOM     54  C   UNL A   1      42.601  30.618  36.333  1.00  0.00     0.029 A 
ATOM     55  C   UNL A   1      42.209  30.244  35.058  1.00  0.00     0.049 A 
ATOM     56  H   UNL A   1      40.688  31.057  33.842  1.00  0.00     0.167 HD
ATOM     57  C   UNL A   1      42.281  28.859  33.001  1.00  0.00     0.074 A 
ATOM     58  C   UNL A   1      42.831  27.798  32.181  1.00  0.00     0.031 C 
ATOM     59  C   UNL A   1      42.749  29.202  34.225  1.00  0.00     0.037 A 
BRANCH  46  60
ATOM     60  C   UNL A   1      39.737  33.872  36.902  1.00  0.00     0.064 A 
ATOM     61  C   UNL A   1      40.363  35.124  36.970  1.00  0.00     0.173 A 
ATOM     62  C   UNL A   1      38.902  33.497  37.966  1.00  0.00     0.173 A 
ATOM     63  F   UNL A   1      41.180  35.524  35.983  1.00  0.00    -0.203 F 
ATOM     64  C   UNL A   1      40.167  35.965  38.064  1.00  0.00     0.198 A 
ATOM     65  C   UNL A   1      38.690  34.347  39.047  1.00  0.00     0.198 A 
ATOM     66  F   UNL A   1      38.274  32.310  37.946  1.00  0.00    -0.203 F 
ATOM     67  F   UNL A   1      40.796  37.147  38.120  1.00  0.00    -0.200 F 
ATOM     68  C   UNL A   1      39.324  35.580  39.096  1.00  0.00     0.200 A 
ATOM     69  F   UNL A   1      37.866  33.979  40.038  1.00  0.00    -0.200 F 
ATOM     70  F   UNL A   1      39.125  36.396  40.141  1.00  0.00    -0.200 F 
ENDBRANCH  46  60
BRANCH  47  71
ATOM     71  C   UNL A   1      40.321  28.081  28.793  1.00  0.00     0.064 A 
ATOM     72  C   UNL A   1      41.076  28.439  27.669  1.00  0.00     0.173 A 
ATOM     73  C   UNL A   1      39.666  26.840  28.775  1.00  0.00     0.173 A 
ATOM     74  F   UNL A   1      41.706  29.623  27.634  1.00  0.00    -0.203 F 
ATOM     75  C   UNL A   1      41.175  27.587  26.572  1.00  0.00     0.198 A 
ATOM     76  C   UNL A   1      39.788  25.978  27.689  1.00  0.00     0.198 A 
ATOM     77  F   UNL A   1      38.937  26.452  29.832  1.00  0.00    -0.203 F 
ATOM     78  F   UNL A   1      41.888  27.960  25.499  1.00  0.00    -0.200 F 
ATOM     79  C   UNL A   1      40.540  26.354  26.586  1.00  0.00     0.200 A 
ATOM     80  F   UNL A   1      39.189  24.780  27.717  1.00  0.00    -0.200 F 
ATOM     81  F   UNL A   1      40.654  25.526  25.539  1.00  0.00    -0.200 F 
ENDBRANCH  47  71
BRANCH  59  82
ATOM     82  C   UNL A   1      43.918  28.426  34.751  1.00  0.00     0.064 A 
ATOM     83  C   UNL A   1      45.232  28.873  34.556  1.00  0.00     0.173 A 
ATOM     84  C   UNL A   1      43.721  27.259  35.502  1.00  0.00     0.173 A 
ATOM     85  F   UNL A   1      45.469  29.977  33.833  1.00  0.00    -0.203 F 
ATOM     86  C   UNL A   1      46.311  28.168  35.083  1.00  0.00     0.198 A 
ATOM     87  C   UNL A   1      44.799  26.569  36.047  1.00  0.00     0.198 A 
ATOM     88  F   UNL A   1      42.479  26.795  35.718  1.00  0.00    -0.203 F 
ATOM     89  F   UNL A   1      47.561  28.595  34.860  1.00  0.00    -0.200 F 
ATOM     90  C   UNL A   1      46.093  27.022  35.834  1.00  0.00     0.200 A 
ATOM     91  F   UNL A   1      44.588  25.467  36.778  1.00  0.00    -0.200 F 
ATOM     92  F   UNL A   1      47.132  26.350  36.348  1.00  0.00    -0.200 F 
ENDBRANCH  59  82
ENDBRANCH  33  34
ENDBRANCH  25  28
ENDBRANCH  23  24
ENDBRANCH  22  23
ENDBRANCH   1  22
TORSDOF 14
ENDMDL
MODEL 2
REMARK VINA RESULT:     -12.6      0.702      7.379
REMARK SMILES C[C@H]1Cc2cc(C(=O)[C@H](Br)CC(=O)NCCCCNC(=O)c3ccc(-c4c5nc(c(-c6c(F)c(F)c(F)c(F)c6F)c6ccc([nH]6)c(-c6c(F)c(F)c(F)c(F)c6F)c6nc(c(-c7c(F)c(F)c(F)c(F)c7F)c7ccc4[nH]7)C=C6)C=C5)cc3)ccc2O1
REMARK SMILES IDX 16 1 15 2 14 3 12 4 13 5 11 7 9 8 10 9 7 10 8 11 6 12 1 13
REMARK SMILES IDX 2 14 3 15 88 16 4 17 87 18 5 19 86 20 85 21 17 22 18 23
REMARK SMILES IDX 19 24 20 25 21 27 22 28 23 29 84 30 24 31 83 32 25 33 26 34
REMARK SMILES IDX 27 35 77 36 28 37 82 38 76 39 78 40 29 41 81 42 75 43 74 44
REMARK SMILES IDX 30 46 62 47 42 48 61 49 43 50 46 51 60 52 79 53 44 54 45 55
REMARK SMILES IDX 59 57 80 58 47 59 31 60 32 61 40 62 33 63 34 64 38 65 41 66
REMARK SMILES IDX 35 67 36 68 39 69 37 70 63 71 64 72 72 73 65 74 66 75 70 76
REMARK SMILES IDX 73 77 67 78 68 79 71 80 69 81 48 82 49 83 57 84 50 85 51 86
REMARK SMILES IDX 55 87 58 88 52 89 53 90 56 91 54 92
REMARK H PARENT 14 6 19 26 78 45 46 56
REMARK Flexibility Score: inf
ROOT
ATOM      1  C   UNL A   1      32.520  30.084  27.249  1.00  0.00     0.023 C 
ENDROOT
BRANCH   1   2
ATOM      2  C   UNL A   1      33.893  29.498  26.917  1.00  0.00     0.116 C 
BRANCH   2   3
ATOM      3  N   UNL A   1      34.048  29.365  25.477  1.00  0.00    -0.356 N 
ATOM      4  C   UNL A   1      33.729  28.315  24.666  1.00  0.00     0.221 C 
ATOM      5  O   UNL A   1      34.151  28.306  23.511  1.00  0.00    -0.275 OA
ATOM      6  H   UNL A   1      34.437  30.146  25.022  1.00  0.00     0.163 HD
BRANCH   4   7
ATOM      7  C   UNL A   1      32.809  27.233  25.176  1.00  0.00     0.123 C 
BRANCH   7   8
ATOM      8  C   UNL A   1      32.798  25.967  24.341  1.00  0.00     0.138 C 
ATOM      9  Br  UNL A   1      32.320  24.325  25.271  1.00  0.00    -0.080 Br
BRANCH   8  10
ATOM     10  C   UNL A   1      31.878  26.020  23.130  1.00  0.00     0.176 C 
ATOM     11  O   UNL A   1      32.209  25.447  22.088  1.00  0.00    -0.293 OA
BRANCH  10  12
ATOM     12  C   UNL A   1      30.547  26.732  23.148  1.00  0.00     0.019 A 
ATOM     13  C   UNL A   1      27.691  31.369  23.660  1.00  0.00     0.053 C 
ATOM     14  C   UNL A   1      27.599  30.269  22.607  1.00  0.00     0.174 C 
ATOM     15  C   UNL A   1      28.953  29.994  21.930  1.00  0.00     0.084 C 
ATOM     16  O   UNL A   1      27.117  29.051  23.232  1.00  0.00    -0.490 OA
ATOM     17  C   UNL A   1      29.303  28.709  22.576  1.00  0.00    -0.001 A 
ATOM     18  C   UNL A   1      28.196  28.214  23.236  1.00  0.00     0.123 A 
ATOM     19  C   UNL A   1      30.488  27.993  22.531  1.00  0.00     0.019 A 
ATOM     20  C   UNL A   1      28.199  26.968  23.815  1.00  0.00     0.047 A 
ATOM     21  C   UNL A   1      29.376  26.215  23.742  1.00  0.00     0.015 A 
ENDBRANCH  10  12
ENDBRANCH   8  10
ENDBRANCH   7   8
ENDBRANCH   4   7
ENDBRANCH   2   3
ENDBRANCH   1   2
BRANCH   1  22
ATOM     22  C   UNL A   1      32.355  31.544  26.852  1.00  0.00     0.023 C 
BRANCH  22  23
ATOM     23  C   UNL A   1      33.251  32.498  27.623  1.00  0.00     0.116 C 
BRANCH  23  24
ATOM     24  N   UNL A   1      32.698  33.841  27.753  1.00  0.00    -0.352 N 
ATOM     25  C   UNL A   1      33.091  34.840  28.623  1.00  0.00     0.251 C 
ATOM     26  H   UNL A   1      31.955  34.063  27.147  1.00  0.00     0.163 HD
ATOM     27  O   UNL A   1      32.493  35.897  28.692  1.00  0.00    -0.269 OA
BRANCH  25  28
ATOM     28  C   UNL A   1      34.233  34.554  29.516  1.00  0.00     0.039 A 
ATOM     29  C   UNL A   1      35.531  34.617  29.009  1.00  0.00     0.014 A 
ATOM     30  C   UNL A   1      33.984  34.053  30.794  1.00  0.00     0.014 A 
ATOM     31  C   UNL A   1      36.552  33.975  29.693  1.00  0.00     0.010 A 
ATOM     32  C   UNL A   1      35.037  33.501  31.526  1.00  0.00     0.010 A 
ATOM     33  C   UNL A   1      36.313  33.394  30.951  1.00  0.00    -0.014 A 
BRANCH  33  34
ATOM     34  C   UNL A   1      37.408  32.646  31.622  1.00  0.00     0.031 A 
ATOM     35  C   UNL A   1      38.159  31.559  30.900  1.00  0.00     0.074 A 
ATOM     36  C   UNL A   1      37.777  33.010  32.865  1.00  0.00     0.049 A 
ATOM     37  N   UNL A   1      39.140  30.805  31.336  1.00  0.00    -0.248 NA
ATOM     38  C   UNL A   1      37.762  31.274  29.512  1.00  0.00     0.031 C 
ATOM     39  C   UNL A   1      37.141  34.067  33.653  1.00  0.00     0.029 A 
ATOM     40  N   UNL A   1      38.793  32.561  33.667  1.00  0.00    -0.354 N 
ATOM     41  C   UNL A   1      39.450  29.941  30.293  1.00  0.00     0.074 A 
ATOM     42  C   UNL A   1      38.549  30.250  29.206  1.00  0.00     0.031 C 
ATOM     43  C   UNL A   1      37.824  34.234  34.793  1.00  0.00     0.029 A 
ATOM     44  C   UNL A   1      38.896  33.246  34.851  1.00  0.00     0.049 A 
ATOM     45  H   UNL A   1      39.392  31.821  33.418  1.00  0.00     0.167 HD
ATOM     46  C   UNL A   1      40.406  28.982  30.250  1.00  0.00     0.037 A 
ATOM     47  C   UNL A   1      39.748  33.088  35.881  1.00  0.00     0.037 A 
ATOM     48  C   UNL A   1      41.331  28.707  31.319  1.00  0.00     0.049 A 
ATOM     49  C   UNL A   1      40.781  32.003  35.815  1.00  0.00     0.074 A 
ATOM     50  C   UNL A   1      42.349  27.770  31.359  1.00  0.00     0.029 A 
ATOM     51  N   UNL A   1      41.358  29.380  32.531  1.00  0.00    -0.354 N 
ATOM     52  N   UNL A   1      41.041  31.172  34.836  1.00  0.00    -0.248 NA
ATOM     53  C   UNL A   1      41.623  31.819  37.004  1.00  0.00     0.031 C 
ATOM     54  C   UNL A   1      42.971  27.852  32.609  1.00  0.00     0.029 A 
ATOM     55  C   UNL A   1      42.365  28.866  33.333  1.00  0.00     0.049 A 
ATOM     56  H   UNL A   1      40.752  30.112  32.785  1.00  0.00     0.167 HD
ATOM     57  C   UNL A   1      42.073  30.364  35.289  1.00  0.00     0.074 A 
ATOM     58  C   UNL A   1      42.410  30.823  36.622  1.00  0.00     0.031 C 
ATOM     59  C   UNL A   1      42.678  29.329  34.659  1.00  0.00     0.037 A 
BRANCH  46  60
ATOM     60  C   UNL A   1      40.504  28.142  29.010  1.00  0.00     0.064 A 
ATOM     61  C   UNL A   1      39.775  26.954  28.866  1.00  0.00     0.173 A 
ATOM     62  C   UNL A   1      41.280  28.573  27.923  1.00  0.00     0.173 A 
ATOM     63  F   UNL A   1      39.028  26.494  29.881  1.00  0.00    -0.203 F 
ATOM     64  C   UNL A   1      39.826  26.222  27.681  1.00  0.00     0.198 A 
ATOM     65  C   UNL A   1      41.311  27.852  26.732  1.00  0.00     0.198 A 
ATOM     66  F   UNL A   1      41.992  29.708  28.008  1.00  0.00    -0.203 F 
ATOM     67  F   UNL A   1      39.140  25.075  27.574  1.00  0.00    -0.200 F 
ATOM     68  C   UNL A   1      40.586  26.675  26.614  1.00  0.00     0.200 A 
ATOM     69  F   UNL A   1      42.037  28.297  25.697  1.00  0.00    -0.200 F 
ATOM     70  F   UNL A   1      40.622  25.978  25.469  1.00  0.00    -0.200 F 
ENDBRANCH  46  60
BRANCH  47  71
ATOM     71  C   UNL A   1      39.641  33.985  37.057  1.00  0.00     0.064 A 
ATOM     72  C   UNL A   1      40.277  35.233  37.068  1.00  0.00     0.173 A 
ATOM     73  C   UNL A   1      38.859  33.637  38.169  1.00  0.00     0.173 A 
ATOM     74  F   UNL A   1      41.048  35.601  36.035  1.00  0.00    -0.203 F 
ATOM     75  C   UNL A   1      40.132  36.101  38.148  1.00  0.00     0.198 A 
ATOM     76  C   UNL A   1      38.694  34.517  39.235  1.00  0.00     0.198 A 
ATOM     77  F   UNL A   1      38.226  32.455  38.201  1.00  0.00    -0.203 F 
ATOM     78  F   UNL A   1      40.766  37.282  38.144  1.00  0.00    -0.200 F 
ATOM     79  C   UNL A   1      39.333  35.747  39.225  1.00  0.00     0.200 A 
ATOM     80  F   UNL A   1      37.905  34.178  40.264  1.00  0.00    -0.200 F 
ATOM     81  F   UNL A   1      39.178  36.592  40.253  1.00  0.00    -0.200 F 
ENDBRANCH  47  71
BRANCH  59  82
ATOM     82  C   UNL A   1      43.766  28.618  35.406  1.00  0.00     0.064 A 
ATOM     83  C   UNL A   1      45.106  29.011  35.284  1.00  0.00     0.173 A 
ATOM     84  C   UNL A   1      43.461  27.572  36.289  1.00  0.00     0.173 A 
ATOM     85  F   UNL A   1      45.446  29.997  34.440  1.00  0.00    -0.203 F 
ATOM     86  C   UNL A   1      46.106  28.372  36.012  1.00  0.00     0.198 A 
ATOM     87  C   UNL A   1      44.459  26.951  37.032  1.00  0.00     0.198 A 
ATOM     88  F   UNL A   1      42.191  27.164  36.441  1.00  0.00    -0.203 F 
ATOM     89  F   UNL A   1      47.384  28.742  35.858  1.00  0.00    -0.200 F 
ATOM     90  C   UNL A   1      45.781  27.349  36.890  1.00  0.00     0.200 A 
ATOM     91  F   UNL A   1      44.145  25.968  37.887  1.00  0.00    -0.200 F 
ATOM     92  F   UNL A   1      46.744  26.741  37.596  1.00  0.00    -0.200 F 
ENDBRANCH  59  82
ENDBRANCH  33  34
ENDBRANCH  25  28
ENDBRANCH  23  24
ENDBRANCH  22  23
ENDBRANCH   1  22
TORSDOF 14
ENDMDL
MODEL 3
REMARK VINA RESULT:     -12.5      6.103     11.291
REMARK SMILES C[C@H]1Cc2cc(C(=O)[C@H](Br)CC(=O)NCCCCNC(=O)c3ccc(-c4c5nc(c(-c6c(F)c(F)c(F)c(F)c6F)c6ccc([nH]6)c(-c6c(F)c(F)c(F)c(F)c6F)c6nc(c(-c7c(F)c(F)c(F)c(F)c7F)c7ccc4[nH]7)C=C6)C=C5)cc3)ccc2O1
REMARK SMILES IDX 16 1 15 2 14 3 12 4 13 5 11 7 9 8 10 9 7 10 8 11 6 12 1 13
REMARK SMILES IDX 2 14 3 15 88 16 4 17 87 18 5 19 86 20 85 21 17 22 18 23
REMARK SMILES IDX 19 24 20 25 21 27 22 28 23 29 84 30 24 31 83 32 25 33 26 34
REMARK SMILES IDX 27 35 77 36 28 37 82 38 76 39 78 40 29 41 81 42 75 43 74 44
REMARK SMILES IDX 30 46 62 47 42 48 61 49 43 50 46 51 60 52 79 53 44 54 45 55
REMARK SMILES IDX 59 57 80 58 47 59 31 60 32 61 40 62 33 63 34 64 38 65 41 66
REMARK SMILES IDX 35 67 36 68 39 69 37 70 63 71 64 72 72 73 65 74 66 75 70 76
REMARK SMILES IDX 73 77 67 78 68 79 71 80 69 81 48 82 49 83 57 84 50 85 51 86
REMARK SMILES IDX 55 87 58 88 52 89 53 90 56 91 54 92
REMARK H PARENT 14 6 19 26 78 45 46 56
REMARK Flexibility Score: inf
ROOT
ATOM      1  C   UNL A   1      37.280  22.415  24.623  1.00  0.00     0.023 C 
ENDROOT
BRANCH   1   2
ATOM      2  C   UNL A   1      36.897  23.357  25.766  1.00  0.00     0.116 C 
BRANCH   2   3
ATOM      3  N   UNL A   1      35.755  22.826  26.493  1.00  0.00    -0.356 N 
ATOM      4  C   UNL A   1      34.554  23.413  26.765  1.00  0.00     0.221 C 
ATOM      5  O   UNL A   1      33.809  22.889  27.592  1.00  0.00    -0.275 OA
ATOM      6  H   UNL A   1      35.865  21.910  26.837  1.00  0.00     0.163 HD
BRANCH   4   7
ATOM      7  C   UNL A   1      34.134  24.641  25.996  1.00  0.00     0.123 C 
BRANCH   7   8
ATOM      8  C   UNL A   1      33.109  24.385  24.907  1.00  0.00     0.138 C 
ATOM      9  Br  UNL A   1      32.306  25.960  24.092  1.00  0.00    -0.080 Br
BRANCH   8  10
ATOM     10  C   UNL A   1      33.624  23.553  23.741  1.00  0.00     0.176 C 
ATOM     11  O   UNL A   1      34.505  24.012  23.009  1.00  0.00    -0.293 OA
BRANCH  10  12
ATOM     12  C   UNL A   1      33.118  22.162  23.448  1.00  0.00     0.019 A 
ATOM     13  C   UNL A   1      33.987  16.763  23.315  1.00  0.00     0.053 C 
ATOM     14  C   UNL A   1      32.816  17.556  23.888  1.00  0.00     0.174 C 
ATOM     15  C   UNL A   1      33.273  18.621  24.900  1.00  0.00     0.084 C 
ATOM     16  O   UNL A   1      32.100  18.200  22.802  1.00  0.00    -0.490 OA
ATOM     17  C   UNL A   1      33.100  19.841  24.080  1.00  0.00    -0.001 A 
ATOM     18  C   UNL A   1      32.375  19.530  22.947  1.00  0.00     0.123 A 
ATOM     19  C   UNL A   1      33.492  21.144  24.342  1.00  0.00     0.019 A 
ATOM     20  C   UNL A   1      31.954  20.500  22.071  1.00  0.00     0.047 A 
ATOM     21  C   UNL A   1      32.306  21.827  22.343  1.00  0.00     0.015 A 
ENDBRANCH  10  12
ENDBRANCH   8  10
ENDBRANCH   7   8
ENDBRANCH   4   7
ENDBRANCH   2   3
ENDBRANCH   1   2
BRANCH   1  22
ATOM     22  C   UNL A   1      37.792  21.058  25.081  1.00  0.00     0.023 C 
BRANCH  22  23
ATOM     23  C   UNL A   1      39.136  21.111  25.785  1.00  0.00     0.116 C 
BRANCH  23  24
ATOM     24  N   UNL A   1      39.822  19.825  25.833  1.00  0.00    -0.352 N 
ATOM     25  C   UNL A   1      41.160  19.585  26.080  1.00  0.00     0.251 C 
ATOM     26  H   UNL A   1      39.263  19.031  25.671  1.00  0.00     0.163 HD
ATOM     27  O   UNL A   1      41.629  18.465  26.012  1.00  0.00    -0.269 OA
BRANCH  25  28
ATOM     28  C   UNL A   1      42.018  20.751  26.373  1.00  0.00     0.039 A 
ATOM     29  C   UNL A   1      42.315  21.068  27.698  1.00  0.00     0.014 A 
ATOM     30  C   UNL A   1      42.363  21.615  25.333  1.00  0.00     0.014 A 
ATOM     31  C   UNL A   1      42.757  22.347  28.001  1.00  0.00     0.010 A 
ATOM     32  C   UNL A   1      42.908  22.864  25.636  1.00  0.00     0.010 A 
ATOM     33  C   UNL A   1      43.042  23.265  26.975  1.00  0.00    -0.014 A 
BRANCH  33  34
ATOM     34  C   UNL A   1      43.439  24.651  27.334  1.00  0.00     0.031 A 
ATOM     35  C   UNL A   1      44.826  25.161  27.043  1.00  0.00     0.074 A 
ATOM     36  C   UNL A   1      42.512  25.479  27.854  1.00  0.00     0.049 A 
ATOM     37  N   UNL A   1      45.340  26.341  27.292  1.00  0.00    -0.248 NA
ATOM     38  C   UNL A   1      45.762  24.230  26.392  1.00  0.00     0.031 C 
ATOM     39  C   UNL A   1      41.129  25.106  28.154  1.00  0.00     0.029 A 
ATOM     40  N   UNL A   1      42.579  26.806  28.186  1.00  0.00    -0.354 N 
ATOM     41  C   UNL A   1      46.659  26.282  26.861  1.00  0.00     0.074 A 
ATOM     42  C   UNL A   1      46.877  24.948  26.346  1.00  0.00     0.031 C 
ATOM     43  C   UNL A   1      40.460  26.194  28.557  1.00  0.00     0.029 A 
ATOM     44  C   UNL A   1      41.383  27.321  28.619  1.00  0.00     0.049 A 
ATOM     45  H   UNL A   1      43.404  27.339  28.119  1.00  0.00     0.167 HD
ATOM     46  C   UNL A   1      47.599  27.257  26.888  1.00  0.00     0.037 A 
ATOM     47  C   UNL A   1      41.066  28.560  29.036  1.00  0.00     0.037 A 
ATOM     48  C   UNL A   1      47.367  28.597  27.361  1.00  0.00     0.049 A 
ATOM     49  C   UNL A   1      42.132  29.613  29.078  1.00  0.00     0.074 A 
ATOM     50  C   UNL A   1      48.251  29.661  27.408  1.00  0.00     0.029 A 
ATOM     51  N   UNL A   1      46.157  29.060  27.856  1.00  0.00    -0.354 N 
ATOM     52  N   UNL A   1      43.384  29.534  28.699  1.00  0.00    -0.248 NA
ATOM     53  C   UNL A   1      41.750  30.921  29.627  1.00  0.00     0.031 C 
ATOM     54  C   UNL A   1      47.587  30.759  27.963  1.00  0.00     0.029 A 
ATOM     55  C   UNL A   1      46.277  30.391  28.227  1.00  0.00     0.049 A 
ATOM     56  H   UNL A   1      45.336  28.525  27.934  1.00  0.00     0.167 HD
ATOM     57  C   UNL A   1      43.941  30.776  28.964  1.00  0.00     0.074 A 
ATOM     58  C   UNL A   1      42.882  31.600  29.513  1.00  0.00     0.031 C 
ATOM     59  C   UNL A   1      45.217  31.191  28.780  1.00  0.00     0.037 A 
BRANCH  46  60
ATOM     60  C   UNL A   1      48.978  26.919  26.404  1.00  0.00     0.064 A 
ATOM     61  C   UNL A   1      49.947  26.373  27.259  1.00  0.00     0.173 A 
ATOM     62  C   UNL A   1      49.310  27.071  25.048  1.00  0.00     0.173 A 
ATOM     63  F   UNL A   1      49.682  26.219  28.565  1.00  0.00    -0.203 F 
ATOM     64  C   UNL A   1      51.200  26.002  26.776  1.00  0.00     0.198 A 
ATOM     65  C   UNL A   1      50.555  26.678  24.565  1.00  0.00     0.198 A 
ATOM     66  F   UNL A   1      48.416  27.582  24.188  1.00  0.00    -0.203 F 
ATOM     67  F   UNL A   1      52.120  25.507  27.617  1.00  0.00    -0.200 F 
ATOM     68  C   UNL A   1      51.500  26.147  25.430  1.00  0.00     0.200 A 
ATOM     69  F   UNL A   1      50.839  26.807  23.262  1.00  0.00    -0.200 F 
ATOM     70  F   UNL A   1      52.701  25.775  24.965  1.00  0.00    -0.200 F 
ENDBRANCH  46  60
BRANCH  47  71
ATOM     71  C   UNL A   1      39.672  28.853  29.450  1.00  0.00     0.064 A 
ATOM     72  C   UNL A   1      38.737  29.340  28.528  1.00  0.00     0.173 A 
ATOM     73  C   UNL A   1      39.233  28.601  30.759  1.00  0.00     0.173 A 
ATOM     74  F   UNL A   1      39.115  29.611  27.270  1.00  0.00    -0.203 F 
ATOM     75  C   UNL A   1      37.413  29.562  28.900  1.00  0.00     0.198 A 
ATOM     76  C   UNL A   1      37.904  28.798  31.122  1.00  0.00     0.198 A 
ATOM     77  F   UNL A   1      40.091  28.127  31.675  1.00  0.00    -0.203 F 
ATOM     78  F   UNL A   1      36.541  30.048  28.005  1.00  0.00    -0.200 F 
ATOM     79  C   UNL A   1      36.995  29.282  30.192  1.00  0.00     0.200 A 
ATOM     80  F   UNL A   1      37.501  28.507  32.366  1.00  0.00    -0.200 F 
ATOM     81  F   UNL A   1      35.717  29.476  30.543  1.00  0.00    -0.200 F 
ENDBRANCH  47  71
BRANCH  59  82
ATOM     82  C   UNL A   1      45.541  32.598  29.177  1.00  0.00     0.064 A 
ATOM     83  C   UNL A   1      46.059  32.893  30.446  1.00  0.00     0.173 A 
ATOM     84  C   UNL A   1      45.386  33.652  28.265  1.00  0.00     0.173 A 
ATOM     85  F   UNL A   1      46.211  31.918  31.355  1.00  0.00    -0.203 F 
ATOM     86  C   UNL A   1      46.397  34.198  30.793  1.00  0.00     0.198 A 
ATOM     87  C   UNL A   1      45.746  34.951  28.607  1.00  0.00     0.198 A 
ATOM     88  F   UNL A   1      44.898  33.417  27.037  1.00  0.00    -0.203 F 
ATOM     89  F   UNL A   1      46.860  34.463  32.022  1.00  0.00    -0.200 F 
ATOM     90  C   UNL A   1      46.247  35.224  29.872  1.00  0.00     0.200 A 
ATOM     91  F   UNL A   1      45.609  35.941  27.715  1.00  0.00    -0.200 F 
ATOM     92  F   UNL A   1      46.581  36.478  30.205  1.00  0.00    -0.200 F 
ENDBRANCH  59  82
ENDBRANCH  33  34
ENDBRANCH  25  28
ENDBRANCH  23  24
ENDBRANCH  22  23
ENDBRANCH   1  22
TORSDOF 14
ENDMDL
