MODEL 1
REMARK VINA RESULT:     -12.1      0.000      0.000
REMARK SMILES O=C(NCCCCNC(=O)c1cncc(Nc2ccc(Cl)cc2C(F)(F)F)n1)c1ccc(-c2c3nc(c(-c4c(F)c(F)c(F)c(F)c4F)c4ccc([nH]4)c(-c4c(F)c(F)c(F)c(F)c4F)c4nc(c(-c5c(F)c(F)c(F)c(F)c5F)c5ccc2[nH]5)C=C4)C=C3)cc1
REMARK SMILES IDX 6 1 5 2 4 3 3 4 1 5 2 6 29 8 30 9 91 10 31 11 90 12 32 13
REMARK SMILES IDX 33 14 34 15 84 16 35 17 89 18 83 19 85 20 36 21 88 22 82 23
REMARK SMILES IDX 81 24 37 26 69 27 49 28 68 29 50 30 53 31 67 32 86 33 51 34
REMARK SMILES IDX 52 35 66 37 87 38 54 39 38 40 39 41 47 42 40 43 41 44 45 45
REMARK SMILES IDX 48 46 42 47 43 48 46 49 44 50 70 51 71 52 79 53 72 54 73 55
REMARK SMILES IDX 77 56 80 57 74 58 75 59 78 60 76 61 55 62 56 63 64 64 57 65
REMARK SMILES IDX 58 66 62 67 65 68 59 69 60 70 63 71 61 72 7 73 8 74 9 75
REMARK SMILES IDX 10 77 11 78 12 79 28 80 13 81 15 82 14 83 16 84 17 86 18 87
REMARK SMILES IDX 23 88 19 89 22 90 20 91 21 92 24 93 25 94 26 95 27 96
REMARK H PARENT 3 7 85 25 53 36 8 76 16 85
REMARK Flexibility Score: inf
ROOT
ATOM      1  C   UNL A   1      37.390  21.088  24.604  1.00  0.00     0.023 C 
ENDROOT
BRANCH   1   2
ATOM      2  C   UNL A   1      38.207  19.837  24.919  1.00  0.00     0.023 C 
BRANCH   2   3
ATOM      3  C   UNL A   1      39.186  19.977  26.078  1.00  0.00     0.116 C 
BRANCH   3   4
ATOM      4  N   UNL A   1      40.358  19.127  25.934  1.00  0.00    -0.352 N 
ATOM      5  O   UNL A   1      42.551  18.639  25.721  1.00  0.00    -0.269 OA
ATOM      6  C   UNL A   1      41.687  19.461  26.015  1.00  0.00     0.251 C 
ATOM      7  H   UNL A   1      40.171  18.178  25.751  1.00  0.00     0.163 HD
BRANCH   6   8
ATOM      8  C   UNL A   1      42.081  20.822  26.437  1.00  0.00     0.039 A 
ATOM      9  C   UNL A   1      42.322  21.820  25.489  1.00  0.00     0.014 A 
ATOM     10  C   UNL A   1      42.202  21.103  27.801  1.00  0.00     0.014 A 
ATOM     11  C   UNL A   1      42.809  23.057  25.898  1.00  0.00     0.010 A 
ATOM     12  C   UNL A   1      42.612  22.373  28.213  1.00  0.00     0.010 A 
ATOM     13  C   UNL A   1      42.942  23.353  27.263  1.00  0.00    -0.014 A 
BRANCH  13  14
ATOM     14  C   UNL A   1      43.344  24.719  27.678  1.00  0.00     0.031 A 
ATOM     15  C   UNL A   1      42.321  25.761  28.030  1.00  0.00     0.074 A 
ATOM     16  C   UNL A   1      44.658  25.011  27.732  1.00  0.00     0.049 A 
ATOM     17  N   UNL A   1      42.505  27.007  28.389  1.00  0.00    -0.248 NA
ATOM     18  C   UNL A   1      40.907  25.359  27.964  1.00  0.00     0.031 C 
ATOM     19  C   UNL A   1      45.738  24.081  27.396  1.00  0.00     0.029 A 
ATOM     20  N   UNL A   1      45.310  26.163  28.089  1.00  0.00    -0.354 N 
ATOM     21  C   UNL A   1      41.237  27.542  28.571  1.00  0.00     0.074 A 
ATOM     22  C   UNL A   1      40.288  26.492  28.267  1.00  0.00     0.031 C 
ATOM     23  C   UNL A   1      46.917  24.689  27.588  1.00  0.00     0.029 A 
ATOM     24  C   UNL A   1      46.677  26.067  27.999  1.00  0.00     0.049 A 
ATOM     25  H   UNL A   1      44.844  26.979  28.381  1.00  0.00     0.167 HD
ATOM     26  C   UNL A   1      40.903  28.796  28.962  1.00  0.00     0.037 A 
ATOM     27  C   UNL A   1      47.632  26.994  28.195  1.00  0.00     0.037 A 
ATOM     28  C   UNL A   1      41.857  29.827  29.285  1.00  0.00     0.049 A 
ATOM     29  C   UNL A   1      47.227  28.381  28.600  1.00  0.00     0.074 A 
ATOM     30  C   UNL A   1      41.616  31.106  29.759  1.00  0.00     0.029 A 
ATOM     31  N   UNL A   1      43.232  29.700  29.159  1.00  0.00    -0.354 N 
ATOM     32  N   UNL A   1      46.027  28.858  28.824  1.00  0.00    -0.248 NA
ATOM     33  C   UNL A   1      48.308  29.361  28.774  1.00  0.00     0.031 C 
ATOM     34  C   UNL A   1      42.843  31.770  29.867  1.00  0.00     0.029 A 
ATOM     35  C   UNL A   1      43.851  30.891  29.509  1.00  0.00     0.049 A 
ATOM     36  H   UNL A   1      43.700  28.886  28.863  1.00  0.00     0.167 HD
ATOM     37  C   UNL A   1      46.207  30.188  29.175  1.00  0.00     0.074 A 
ATOM     38  C   UNL A   1      47.634  30.436  29.158  1.00  0.00     0.031 C 
ATOM     39  C   UNL A   1      45.273  31.120  29.480  1.00  0.00     0.037 A 
BRANCH  26  40
ATOM     40  C   UNL A   1      39.444  29.141  29.050  1.00  0.00     0.064 A 
ATOM     41  C   UNL A   1      38.689  29.457  27.912  1.00  0.00     0.173 A 
ATOM     42  C   UNL A   1      38.778  29.082  30.285  1.00  0.00     0.173 A 
ATOM     43  F   UNL A   1      39.279  29.534  26.711  1.00  0.00    -0.203 F 
ATOM     44  C   UNL A   1      37.324  29.718  28.009  1.00  0.00     0.198 A 
ATOM     45  C   UNL A   1      37.409  29.319  30.374  1.00  0.00     0.198 A 
ATOM     46  F   UNL A   1      39.452  28.775  31.403  1.00  0.00    -0.203 F 
ATOM     47  F   UNL A   1      36.628  30.050  26.912  1.00  0.00    -0.200 F 
ATOM     48  C   UNL A   1      36.683  29.641  29.237  1.00  0.00     0.200 A 
ATOM     49  F   UNL A   1      36.790  29.230  31.560  1.00  0.00    -0.200 F 
ATOM     50  F   UNL A   1      35.367  29.879  29.325  1.00  0.00    -0.200 F 
ENDBRANCH  26  40
BRANCH  27  51
ATOM     51  C   UNL A   1      49.057  26.636  27.985  1.00  0.00     0.064 A 
ATOM     52  C   UNL A   1      49.894  26.332  29.066  1.00  0.00     0.173 A 
ATOM     53  C   UNL A   1      49.608  26.576  26.695  1.00  0.00     0.173 A 
ATOM     54  F   UNL A   1      49.418  26.393  30.319  1.00  0.00    -0.203 F 
ATOM     55  C   UNL A   1      51.231  25.995  28.867  1.00  0.00     0.198 A 
ATOM     56  C   UNL A   1      50.935  26.210  26.495  1.00  0.00     0.198 A 
ATOM     57  F   UNL A   1      48.846  26.853  25.627  1.00  0.00    -0.203 F 
ATOM     58  F   UNL A   1      52.021  25.748  29.921  1.00  0.00    -0.200 F 
ATOM     59  C   UNL A   1      51.749  25.928  27.582  1.00  0.00     0.200 A 
ATOM     60  F   UNL A   1      51.426  26.129  25.250  1.00  0.00    -0.200 F 
ATOM     61  F   UNL A   1      53.033  25.595  27.391  1.00  0.00    -0.200 F 
ENDBRANCH  27  51
BRANCH  39  62
ATOM     62  C   UNL A   1      45.768  32.491  29.831  1.00  0.00     0.064 A 
ATOM     63  C   UNL A   1      46.123  32.828  31.145  1.00  0.00     0.173 A 
ATOM     64  C   UNL A   1      45.924  33.468  28.835  1.00  0.00     0.173 A 
ATOM     65  F   UNL A   1      45.973  31.934  32.134  1.00  0.00    -0.203 F 
ATOM     66  C   UNL A   1      46.596  34.100  31.454  1.00  0.00     0.198 A 
ATOM     67  C   UNL A   1      46.423  34.729  29.143  1.00  0.00     0.198 A 
ATOM     68  F   UNL A   1      45.602  33.193  27.562  1.00  0.00    -0.203 F 
ATOM     69  F   UNL A   1      46.887  34.414  32.724  1.00  0.00    -0.200 F 
ATOM     70  C   UNL A   1      46.753  35.047  30.452  1.00  0.00     0.200 A 
ATOM     71  F   UNL A   1      46.586  35.640  28.172  1.00  0.00    -0.200 F 
ATOM     72  F   UNL A   1      47.216  36.268  30.750  1.00  0.00    -0.200 F 
ENDBRANCH  39  62
ENDBRANCH  13  14
ENDBRANCH   6   8
ENDBRANCH   3   4
ENDBRANCH   2   3
ENDBRANCH   1   2
BRANCH   1  73
ATOM     73  C   UNL A   1      36.221  21.356  25.546  1.00  0.00     0.116 C 
BRANCH  73  74
ATOM     74  N   UNL A   1      35.051  20.551  25.230  1.00  0.00    -0.351 N 
ATOM     75  C   UNL A   1      33.862  20.963  24.667  1.00  0.00     0.271 C 
ATOM     76  H   UNL A   1      35.117  19.593  25.444  1.00  0.00     0.163 HD
ATOM     77  O   UNL A   1      32.944  20.165  24.507  1.00  0.00    -0.267 OA
BRANCH  75  78
ATOM     78  C   UNL A   1      33.728  22.367  24.230  1.00  0.00     0.148 A 
ATOM     79  C   UNL A   1      34.399  22.780  23.090  1.00  0.00     0.145 A 
ATOM     80  N   UNL A   1      33.030  23.212  25.034  1.00  0.00    -0.222 NA
ATOM     81  N   UNL A   1      34.447  24.075  22.724  1.00  0.00    -0.258 NA
ATOM     82  C   UNL A   1      33.030  24.511  24.666  1.00  0.00     0.149 A 
ATOM     83  C   UNL A   1      33.762  24.918  23.541  1.00  0.00     0.158 A 
BRANCH  82  84
ATOM     84  N   UNL A   1      32.329  25.389  25.495  1.00  0.00    -0.338 N 
ATOM     85  H   UNL A   1      31.635  24.959  26.044  1.00  0.00     0.168 HD
BRANCH  84  86
ATOM     86  C   UNL A   1      32.438  26.774  25.685  1.00  0.00     0.052 A 
ATOM     87  C   UNL A   1      33.442  27.301  26.517  1.00  0.00     0.028 A 
ATOM     88  C   UNL A   1      31.484  27.658  25.144  1.00  0.00     0.080 A 
ATOM     89  C   UNL A   1      33.465  28.650  26.874  1.00  0.00     0.022 A 
ATOM     90  C   UNL A   1      31.505  29.017  25.524  1.00  0.00     0.035 A 
ATOM     91  C   UNL A   1      32.479  29.499  26.392  1.00  0.00     0.041 A 
ATOM     92  Cl  UNL A   1      32.457  31.147  26.880  1.00  0.00    -0.084 Cl
BRANCH  88  93
ATOM     93  C   UNL A   1      30.386  27.202  24.216  1.00  0.00     0.418 C 
ATOM     94  F   UNL A   1      30.869  26.592  23.099  1.00  0.00    -0.166 F 
ATOM     95  F   UNL A   1      29.553  26.295  24.803  1.00  0.00    -0.166 F 
ATOM     96  F   UNL A   1      29.574  28.207  23.777  1.00  0.00    -0.166 F 
ENDBRANCH  88  93
ENDBRANCH  84  86
ENDBRANCH  82  84
ENDBRANCH  75  78
ENDBRANCH  73  74
ENDBRANCH   1  73
TORSDOF 14
ENDMDL
MODEL 2
REMARK VINA RESULT:     -12.1      5.662     10.639
REMARK SMILES O=C(NCCCCNC(=O)c1cncc(Nc2ccc(Cl)cc2C(F)(F)F)n1)c1ccc(-c2c3nc(c(-c4c(F)c(F)c(F)c(F)c4F)c4ccc([nH]4)c(-c4c(F)c(F)c(F)c(F)c4F)c4nc(c(-c5c(F)c(F)c(F)c(F)c5F)c5ccc2[nH]5)C=C4)C=C3)cc1
REMARK SMILES IDX 6 1 5 2 4 3 3 4 1 5 2 6 29 8 30 9 91 10 31 11 90 12 32 13
REMARK SMILES IDX 33 14 34 15 84 16 35 17 89 18 83 19 85 20 36 21 88 22 82 23
REMARK SMILES IDX 81 24 37 26 69 27 49 28 68 29 50 30 53 31 67 32 86 33 51 34
REMARK SMILES IDX 52 35 66 37 87 38 54 39 38 40 39 41 47 42 40 43 41 44 45 45
REMARK SMILES IDX 48 46 42 47 43 48 46 49 44 50 70 51 71 52 79 53 72 54 73 55
REMARK SMILES IDX 77 56 80 57 74 58 75 59 78 60 76 61 55 62 56 63 64 64 57 65
REMARK SMILES IDX 58 66 62 67 65 68 59 69 60 70 63 71 61 72 7 73 8 74 9 75
REMARK SMILES IDX 10 77 11 78 12 79 28 80 13 81 15 82 14 83 16 84 17 86 18 87
REMARK SMILES IDX 23 88 19 89 22 90 20 91 21 92 24 93 25 94 26 95 27 96
REMARK H PARENT 3 7 85 25 53 36 8 76 16 85
REMARK Flexibility Score: inf
ROOT
ATOM      1  C   UNL A   1      31.451  30.969  26.119  1.00  0.00     0.023 C 
ENDROOT
BRANCH   1   2
ATOM      2  C   UNL A   1      31.302  32.322  26.812  1.00  0.00     0.023 C 
BRANCH   2   3
ATOM      3  C   UNL A   1      32.609  33.041  27.118  1.00  0.00     0.116 C 
BRANCH   3   4
ATOM      4  N   UNL A   1      32.407  34.371  27.672  1.00  0.00    -0.352 N 
ATOM      5  O   UNL A   1      32.633  36.053  29.159  1.00  0.00    -0.269 OA
ATOM      6  C   UNL A   1      33.033  34.972  28.735  1.00  0.00     0.251 C 
ATOM      7  H   UNL A   1      31.723  34.916  27.220  1.00  0.00     0.163 HD
BRANCH   6   8
ATOM      8  C   UNL A   1      34.181  34.307  29.387  1.00  0.00     0.039 A 
ATOM      9  C   UNL A   1      33.984  33.444  30.469  1.00  0.00     0.014 A 
ATOM     10  C   UNL A   1      35.471  34.544  28.902  1.00  0.00     0.014 A 
ATOM     11  C   UNL A   1      35.082  32.925  31.146  1.00  0.00     0.010 A 
ATOM     12  C   UNL A   1      36.568  33.954  29.533  1.00  0.00     0.010 A 
ATOM     13  C   UNL A   1      36.384  33.158  30.675  1.00  0.00    -0.014 A 
BRANCH  13  14
ATOM     14  C   UNL A   1      37.531  32.492  31.339  1.00  0.00     0.031 A 
ATOM     15  C   UNL A   1      38.259  31.355  30.683  1.00  0.00     0.074 A 
ATOM     16  C   UNL A   1      37.909  32.930  32.556  1.00  0.00     0.049 A 
ATOM     17  N   UNL A   1      39.266  30.650  31.137  1.00  0.00    -0.248 NA
ATOM     18  C   UNL A   1      37.798  30.947  29.347  1.00  0.00     0.031 C 
ATOM     19  C   UNL A   1      37.262  34.017  33.294  1.00  0.00     0.029 A 
ATOM     20  N   UNL A   1      38.922  32.523  33.383  1.00  0.00    -0.354 N 
ATOM     21  C   UNL A   1      39.544  29.707  30.157  1.00  0.00     0.074 A 
ATOM     22  C   UNL A   1      38.590  29.915  29.088  1.00  0.00     0.031 C 
ATOM     23  C   UNL A   1      37.909  34.208  34.451  1.00  0.00     0.029 A 
ATOM     24  C   UNL A   1      38.975  33.220  34.565  1.00  0.00     0.049 A 
ATOM     25  H   UNL A   1      39.552  31.802  33.153  1.00  0.00     0.167 HD
ATOM     26  C   UNL A   1      40.512  28.759  30.155  1.00  0.00     0.037 A 
ATOM     27  C   UNL A   1      39.773  33.062  35.637  1.00  0.00     0.037 A 
ATOM     28  C   UNL A   1      41.471  28.576  31.215  1.00  0.00     0.049 A 
ATOM     29  C   UNL A   1      40.817  31.984  35.614  1.00  0.00     0.074 A 
ATOM     30  C   UNL A   1      42.535  27.690  31.272  1.00  0.00     0.029 A 
ATOM     31  N   UNL A   1      41.478  29.284  32.407  1.00  0.00    -0.354 N 
ATOM     32  N   UNL A   1      41.107  31.136  34.658  1.00  0.00    -0.248 NA
ATOM     33  C   UNL A   1      41.642  31.837  36.821  1.00  0.00     0.031 C 
ATOM     34  C   UNL A   1      43.151  27.825  32.521  1.00  0.00     0.029 A 
ATOM     35  C   UNL A   1      42.504  28.829  33.222  1.00  0.00     0.049 A 
ATOM     36  H   UNL A   1      40.847  30.003  32.641  1.00  0.00     0.167 HD
ATOM     37  C   UNL A   1      42.152  30.362  35.141  1.00  0.00     0.074 A 
ATOM     38  C   UNL A   1      42.462  30.857  36.466  1.00  0.00     0.031 C 
ATOM     39  C   UNL A   1      42.794  29.331  34.541  1.00  0.00     0.037 A 
BRANCH  26  40
ATOM     40  C   UNL A   1      40.583  27.827  28.980  1.00  0.00     0.064 A 
ATOM     41  C   UNL A   1      39.765  26.693  28.885  1.00  0.00     0.173 A 
ATOM     42  C   UNL A   1      41.432  28.116  27.899  1.00  0.00     0.173 A 
ATOM     43  F   UNL A   1      38.942  26.368  29.893  1.00  0.00    -0.203 F 
ATOM     44  C   UNL A   1      39.805  25.873  27.759  1.00  0.00     0.198 A 
ATOM     45  C   UNL A   1      41.452  27.308  26.766  1.00  0.00     0.198 A 
ATOM     46  F   UNL A   1      42.229  29.195  27.935  1.00  0.00    -0.203 F 
ATOM     47  F   UNL A   1      39.037  24.776  27.704  1.00  0.00    -0.200 F 
ATOM     48  C   UNL A   1      40.641  26.185  26.698  1.00  0.00     0.200 A 
ATOM     49  F   UNL A   1      42.251  27.621  25.735  1.00  0.00    -0.200 F 
ATOM     50  F   UNL A   1      40.669  25.402  25.610  1.00  0.00    -0.200 F 
ENDBRANCH  26  40
BRANCH  27  51
ATOM     51  C   UNL A   1      39.590  33.935  36.824  1.00  0.00     0.064 A 
ATOM     52  C   UNL A   1      38.814  33.520  37.914  1.00  0.00     0.173 A 
ATOM     53  C   UNL A   1      40.201  35.195  36.899  1.00  0.00     0.173 A 
ATOM     54  F   UNL A   1      38.195  32.330  37.881  1.00  0.00    -0.203 F 
ATOM     55  C   UNL A   1      38.644  34.340  39.027  1.00  0.00     0.198 A 
ATOM     56  C   UNL A   1      40.056  36.001  38.025  1.00  0.00     0.198 A 
ATOM     57  F   UNL A   1      40.960  35.635  35.884  1.00  0.00    -0.203 F 
ATOM     58  F   UNL A   1      37.863  33.937  40.040  1.00  0.00    -0.200 F 
ATOM     59  C   UNL A   1      39.271  35.576  39.085  1.00  0.00     0.200 A 
ATOM     60  F   UNL A   1      40.678  37.187  38.084  1.00  0.00    -0.200 F 
ATOM     61  F   UNL A   1      39.113  36.359  40.161  1.00  0.00    -0.200 F 
ENDBRANCH  27  51
BRANCH  39  62
ATOM     62  C   UNL A   1      43.902  28.678  35.311  1.00  0.00     0.064 A 
ATOM     63  C   UNL A   1      45.236  29.087  35.163  1.00  0.00     0.173 A 
ATOM     64  C   UNL A   1      43.624  27.659  36.234  1.00  0.00     0.173 A 
ATOM     65  F   UNL A   1      45.553  30.045  34.279  1.00  0.00    -0.203 F 
ATOM     66  C   UNL A   1      46.254  28.483  35.895  1.00  0.00     0.198 A 
ATOM     67  C   UNL A   1      44.641  27.076  36.984  1.00  0.00     0.198 A 
ATOM     68  F   UNL A   1      42.363  27.235  36.414  1.00  0.00    -0.203 F 
ATOM     69  F   UNL A   1      47.526  28.858  35.706  1.00  0.00    -0.200 F 
ATOM     70  C   UNL A   1      45.955  27.484  36.810  1.00  0.00     0.200 A 
ATOM     71  F   UNL A   1      44.349  26.119  37.876  1.00  0.00    -0.200 F 
ATOM     72  F   UNL A   1      46.935  26.910  37.520  1.00  0.00    -0.200 F 
ENDBRANCH  39  62
ENDBRANCH  13  14
ENDBRANCH   6   8
ENDBRANCH   3   4
ENDBRANCH   2   3
ENDBRANCH   1   2
BRANCH   1  73
ATOM     73  C   UNL A   1      31.782  29.799  27.040  1.00  0.00     0.116 C 
BRANCH  73  74
ATOM     74  N   UNL A   1      33.179  29.786  27.448  1.00  0.00    -0.351 N 
ATOM     75  C   UNL A   1      34.197  28.984  26.976  1.00  0.00     0.271 C 
ATOM     76  H   UNL A   1      33.429  30.431  28.148  1.00  0.00     0.163 HD
ATOM     77  O   UNL A   1      35.321  29.061  27.461  1.00  0.00    -0.267 OA
BRANCH  75  78
ATOM     78  C   UNL A   1      33.917  28.062  25.857  1.00  0.00     0.148 A 
ATOM     79  C   UNL A   1      33.926  28.558  24.563  1.00  0.00     0.145 A 
ATOM     80  N   UNL A   1      33.561  26.787  26.167  1.00  0.00    -0.222 NA
ATOM     81  N   UNL A   1      33.529  27.812  23.514  1.00  0.00    -0.258 NA
ATOM     82  C   UNL A   1      33.196  26.008  25.127  1.00  0.00     0.149 A 
ATOM     83  C   UNL A   1      33.158  26.543  23.832  1.00  0.00     0.158 A 
BRANCH  82  84
ATOM     84  N   UNL A   1      32.814  24.701  25.438  1.00  0.00    -0.338 N 
ATOM     85  H   UNL A   1      31.879  24.612  25.731  1.00  0.00     0.168 HD
BRANCH  84  86
ATOM     86  C   UNL A   1      33.525  23.492  25.405  1.00  0.00     0.052 A 
ATOM     87  C   UNL A   1      34.591  23.271  26.296  1.00  0.00     0.028 A 
ATOM     88  C   UNL A   1      33.266  22.524  24.416  1.00  0.00     0.080 A 
ATOM     89  C   UNL A   1      35.433  22.165  26.169  1.00  0.00     0.022 A 
ATOM     90  C   UNL A   1      34.133  21.418  24.286  1.00  0.00     0.035 A 
ATOM     91  C   UNL A   1      35.213  21.253  25.147  1.00  0.00     0.041 A 
ATOM     92  Cl  UNL A   1      36.284  19.926  24.940  1.00  0.00    -0.084 Cl
BRANCH  88  93
ATOM     93  C   UNL A   1      32.128  22.649  23.433  1.00  0.00     0.418 C 
ATOM     94  F   UNL A   1      30.951  22.964  24.038  1.00  0.00    -0.166 F 
ATOM     95  F   UNL A   1      32.345  23.629  22.509  1.00  0.00    -0.166 F 
ATOM     96  F   UNL A   1      31.891  21.517  22.709  1.00  0.00    -0.166 F 
ENDBRANCH  88  93
ENDBRANCH  84  86
ENDBRANCH  82  84
ENDBRANCH  75  78
ENDBRANCH  73  74
ENDBRANCH   1  73
TORSDOF 14
ENDMDL
MODEL 3
REMARK VINA RESULT:     -12.1      5.465     10.449
REMARK SMILES O=C(NCCCCNC(=O)c1cncc(Nc2ccc(Cl)cc2C(F)(F)F)n1)c1ccc(-c2c3nc(c(-c4c(F)c(F)c(F)c(F)c4F)c4ccc([nH]4)c(-c4c(F)c(F)c(F)c(F)c4F)c4nc(c(-c5c(F)c(F)c(F)c(F)c5F)c5ccc2[nH]5)C=C4)C=C3)cc1
REMARK SMILES IDX 6 1 5 2 4 3 3 4 1 5 2 6 29 8 30 9 91 10 31 11 90 12 32 13
REMARK SMILES IDX 33 14 34 15 84 16 35 17 89 18 83 19 85 20 36 21 88 22 82 23
REMARK SMILES IDX 81 24 37 26 69 27 49 28 68 29 50 30 53 31 67 32 86 33 51 34
REMARK SMILES IDX 52 35 66 37 87 38 54 39 38 40 39 41 47 42 40 43 41 44 45 45
REMARK SMILES IDX 48 46 42 47 43 48 46 49 44 50 70 51 71 52 79 53 72 54 73 55
REMARK SMILES IDX 77 56 80 57 74 58 75 59 78 60 76 61 55 62 56 63 64 64 57 65
REMARK SMILES IDX 58 66 62 67 65 68 59 69 60 70 63 71 61 72 7 73 8 74 9 75
REMARK SMILES IDX 10 77 11 78 12 79 28 80 13 81 15 82 14 83 16 84 17 86 18 87
REMARK SMILES IDX 23 88 19 89 22 90 20 91 21 92 24 93 25 94 26 95 27 96
REMARK H PARENT 3 7 85 25 53 36 8 76 16 85
REMARK Flexibility Score: inf
ROOT
ATOM      1  C   UNL A   1      31.778  30.450  26.876  1.00  0.00     0.023 C 
ENDROOT
BRANCH   1   2
ATOM      2  C   UNL A   1      31.512  31.953  26.874  1.00  0.00     0.023 C 
BRANCH   2   3
ATOM      3  C   UNL A   1      32.757  32.832  26.896  1.00  0.00     0.116 C 
BRANCH   3   4
ATOM      4  N   UNL A   1      32.519  34.133  27.501  1.00  0.00    -0.352 N 
ATOM      5  O   UNL A   1      32.688  35.755  29.061  1.00  0.00    -0.269 OA
ATOM      6  C   UNL A   1      33.116  34.701  28.600  1.00  0.00     0.251 C 
ATOM      7  H   UNL A   1      31.833  34.684  27.061  1.00  0.00     0.163 HD
BRANCH   6   8
ATOM      8  C   UNL A   1      34.265  34.030  29.243  1.00  0.00     0.039 A 
ATOM      9  C   UNL A   1      35.574  34.431  28.961  1.00  0.00     0.014 A 
ATOM     10  C   UNL A   1      34.028  32.993  30.150  1.00  0.00     0.014 A 
ATOM     11  C   UNL A   1      36.644  33.710  29.480  1.00  0.00     0.010 A 
ATOM     12  C   UNL A   1      35.105  32.324  30.736  1.00  0.00     0.010 A 
ATOM     13  C   UNL A   1      36.422  32.662  30.387  1.00  0.00    -0.014 A 
BRANCH  13  14
ATOM     14  C   UNL A   1      37.581  31.990  31.023  1.00  0.00     0.031 A 
ATOM     15  C   UNL A   1      38.382  30.953  30.290  1.00  0.00     0.074 A 
ATOM     16  C   UNL A   1      37.904  32.330  32.287  1.00  0.00     0.049 A 
ATOM     17  N   UNL A   1      39.408  30.256  30.710  1.00  0.00    -0.248 NA
ATOM     18  C   UNL A   1      37.978  30.651  28.908  1.00  0.00     0.031 C 
ATOM     19  C   UNL A   1      37.185  33.313  33.100  1.00  0.00     0.029 A 
ATOM     20  N   UNL A   1      38.913  31.895  33.106  1.00  0.00    -0.354 N 
ATOM     21  C   UNL A   1      39.758  29.421  29.658  1.00  0.00     0.074 A 
ATOM     22  C   UNL A   1      38.825  29.684  28.582  1.00  0.00     0.031 C 
ATOM     23  C   UNL A   1      37.790  33.426  34.290  1.00  0.00     0.029 A 
ATOM     24  C   UNL A   1      38.899  32.481  34.347  1.00  0.00     0.049 A 
ATOM     25  H   UNL A   1      39.582  31.228  32.831  1.00  0.00     0.167 HD
ATOM     26  C   UNL A   1      40.771  28.523  29.600  1.00  0.00     0.037 A 
ATOM     27  C   UNL A   1      39.674  32.261  35.425  1.00  0.00     0.037 A 
ATOM     28  C   UNL A   1      41.709  28.287  30.669  1.00  0.00     0.049 A 
ATOM     29  C   UNL A   1      40.769  31.239  35.338  1.00  0.00     0.074 A 
ATOM     30  C   UNL A   1      42.812  27.449  30.678  1.00  0.00     0.029 A 
ATOM     31  N   UNL A   1      41.648  28.881  31.920  1.00  0.00    -0.354 N 
ATOM     32  N   UNL A   1      41.126  30.498  34.318  1.00  0.00    -0.248 NA
ATOM     33  C   UNL A   1      41.567  31.019  36.552  1.00  0.00     0.031 C 
ATOM     34  C   UNL A   1      43.386  27.496  31.953  1.00  0.00     0.029 A 
ATOM     35  C   UNL A   1      42.672  28.400  32.723  1.00  0.00     0.049 A 
ATOM     36  H   UNL A   1      40.977  29.546  32.199  1.00  0.00     0.167 HD
ATOM     37  C   UNL A   1      42.193  29.730  34.762  1.00  0.00     0.074 A 
ATOM     38  C   UNL A   1      42.442  30.114  36.135  1.00  0.00     0.031 C 
ATOM     39  C   UNL A   1      42.901  28.790  34.090  1.00  0.00     0.037 A 
BRANCH  26  40
ATOM     40  C   UNL A   1      40.919  27.708  28.347  1.00  0.00     0.064 A 
ATOM     41  C   UNL A   1      41.746  28.118  27.292  1.00  0.00     0.173 A 
ATOM     42  C   UNL A   1      40.280  26.463  28.235  1.00  0.00     0.173 A 
ATOM     43  F   UNL A   1      42.373  29.302  27.346  1.00  0.00    -0.203 F 
ATOM     44  C   UNL A   1      41.914  27.319  26.163  1.00  0.00     0.198 A 
ATOM     45  C   UNL A   1      40.470  25.657  27.117  1.00  0.00     0.198 A 
ATOM     46  F   UNL A   1      39.485  26.020  29.221  1.00  0.00    -0.203 F 
ATOM     47  F   UNL A   1      42.684  27.745  25.152  1.00  0.00    -0.200 F 
ATOM     48  C   UNL A   1      41.284  26.086  26.080  1.00  0.00     0.200 A 
ATOM     49  F   UNL A   1      39.870  24.460  27.045  1.00  0.00    -0.200 F 
ATOM     50  F   UNL A   1      41.457  25.313  24.998  1.00  0.00    -0.200 F 
ENDBRANCH  26  40
BRANCH  27  51
ATOM     51  C   UNL A   1      39.416  33.011  36.681  1.00  0.00     0.064 A 
ATOM     52  C   UNL A   1      40.102  34.198  36.968  1.00  0.00     0.173 A 
ATOM     53  C   UNL A   1      38.467  32.563  37.612  1.00  0.00     0.173 A 
ATOM     54  F   UNL A   1      41.032  34.657  36.117  1.00  0.00    -0.203 F 
ATOM     55  C   UNL A   1      39.858  34.900  38.146  1.00  0.00     0.198 A 
ATOM     56  C   UNL A   1      38.202  33.281  38.774  1.00  0.00     0.198 A 
ATOM     57  F   UNL A   1      37.779  31.435  37.380  1.00  0.00    -0.203 F 
ATOM     58  F   UNL A   1      40.557  36.012  38.417  1.00  0.00    -0.200 F 
ATOM     59  C   UNL A   1      38.904  34.446  39.044  1.00  0.00     0.200 A 
ATOM     60  F   UNL A   1      37.266  32.848  39.629  1.00  0.00    -0.200 F 
ATOM     61  F   UNL A   1      38.664  35.128  40.172  1.00  0.00    -0.200 F 
ENDBRANCH  27  51
BRANCH  39  62
ATOM     62  C   UNL A   1      44.018  28.120  34.833  1.00  0.00     0.064 A 
ATOM     63  C   UNL A   1      43.821  26.913  35.519  1.00  0.00     0.173 A 
ATOM     64  C   UNL A   1      45.308  28.672  34.827  1.00  0.00     0.173 A 
ATOM     65  F   UNL A   1      42.600  26.358  35.569  1.00  0.00    -0.203 F 
ATOM     66  C   UNL A   1      44.869  26.294  36.192  1.00  0.00     0.198 A 
ATOM     67  C   UNL A   1      46.360  28.036  35.478  1.00  0.00     0.198 A 
ATOM     68  F   UNL A   1      45.548  29.824  34.182  1.00  0.00    -0.203 F 
ATOM     69  F   UNL A   1      44.649  25.164  36.879  1.00  0.00    -0.200 F 
ATOM     70  C   UNL A   1      46.140  26.851  36.164  1.00  0.00     0.200 A 
ATOM     71  F   UNL A   1      47.590  28.569  35.440  1.00  0.00    -0.200 F 
ATOM     72  F   UNL A   1      47.150  26.249  36.806  1.00  0.00    -0.200 F 
ENDBRANCH  39  62
ENDBRANCH  13  14
ENDBRANCH   6   8
ENDBRANCH   3   4
ENDBRANCH   2   3
ENDBRANCH   1   2
BRANCH   1  73
ATOM     73  C   UNL A   1      32.341  29.887  25.575  1.00  0.00     0.116 C 
BRANCH  73  74
ATOM     74  N   UNL A   1      31.314  29.670  24.568  1.00  0.00    -0.351 N 
ATOM     75  C   UNL A   1      30.804  28.471  24.116  1.00  0.00     0.271 C 
ATOM     76  H   UNL A   1      30.934  30.481  24.159  1.00  0.00     0.163 HD
ATOM     77  O   UNL A   1      29.968  28.453  23.218  1.00  0.00    -0.267 OA
BRANCH  75  78
ATOM     78  C   UNL A   1      31.257  27.218  24.754  1.00  0.00     0.148 A 
ATOM     79  C   UNL A   1      30.840  26.937  26.044  1.00  0.00     0.145 A 
ATOM     80  N   UNL A   1      32.148  26.451  24.071  1.00  0.00    -0.222 NA
ATOM     81  N   UNL A   1      31.337  25.895  26.740  1.00  0.00    -0.258 NA
ATOM     82  C   UNL A   1      32.631  25.379  24.734  1.00  0.00     0.149 A 
ATOM     83  C   UNL A   1      32.240  25.142  26.059  1.00  0.00     0.158 A 
BRANCH  82  84
ATOM     84  N   UNL A   1      33.559  24.594  24.046  1.00  0.00    -0.338 N 
ATOM     85  H   UNL A   1      33.503  24.666  23.066  1.00  0.00     0.168 HD
BRANCH  84  86
ATOM     86  C   UNL A   1      34.559  23.723  24.503  1.00  0.00     0.052 A 
ATOM     87  C   UNL A   1      35.771  24.232  25.004  1.00  0.00     0.028 A 
ATOM     88  C   UNL A   1      34.423  22.328  24.370  1.00  0.00     0.080 A 
ATOM     89  C   UNL A   1      36.852  23.398  25.292  1.00  0.00     0.022 A 
ATOM     90  C   UNL A   1      35.527  21.494  24.647  1.00  0.00     0.035 A 
ATOM     91  C   UNL A   1      36.732  22.031  25.089  1.00  0.00     0.041 A 
ATOM     92  Cl  UNL A   1      38.078  21.002  25.375  1.00  0.00    -0.084 Cl
BRANCH  88  93
ATOM     93  C   UNL A   1      33.155  21.678  23.873  1.00  0.00     0.418 C 
ATOM     94  F   UNL A   1      33.230  20.320  23.876  1.00  0.00    -0.166 F 
ATOM     95  F   UNL A   1      32.073  21.992  24.643  1.00  0.00    -0.166 F 
ATOM     96  F   UNL A   1      32.808  22.035  22.602  1.00  0.00    -0.166 F 
ENDBRANCH  88  93
ENDBRANCH  84  86
ENDBRANCH  82  84
ENDBRANCH  75  78
ENDBRANCH  73  74
ENDBRANCH   1  73
TORSDOF 14
ENDMDL
