MODEL 1
REMARK VINA RESULT:     -12.4      0.000      0.000
REMARK SMILES O=C(NCCCCNC(=O)c1cc(NC(=S)NC(=O)c2ccccc2Cl)c(Cl)cc1Cl)c1ccc(-c2c3nc(c(-c4c(F)c(F)c(F)c(F)c4F)c4ccc([nH]4)c(-c4c(F)c(F)c(F)c(F)c4F)c4nc(c(-c5c(F)c(F)c(F)c(F)c5F)c5ccc2[nH]5)C=C4)C=C3)cc1
REMARK SMILES IDX 6 1 5 2 4 3 3 4 1 5 2 6 32 8 33 9 94 10 34 11 93 12 35 13
REMARK SMILES IDX 36 14 37 15 87 16 38 17 92 18 86 19 88 20 39 21 91 22 85 23
REMARK SMILES IDX 84 24 40 26 72 27 52 28 71 29 53 30 56 31 70 32 89 33 54 34
REMARK SMILES IDX 55 35 69 37 90 38 57 39 41 40 42 41 50 42 43 43 44 44 48 45
REMARK SMILES IDX 51 46 45 47 46 48 49 49 47 50 73 51 74 52 82 53 75 54 76 55
REMARK SMILES IDX 80 56 83 57 77 58 78 59 81 60 79 61 58 62 59 63 67 64 60 65
REMARK SMILES IDX 61 66 65 67 68 68 62 69 63 70 66 71 64 72 7 73 8 74 9 75
REMARK SMILES IDX 10 77 11 78 12 79 30 80 13 81 29 82 31 83 27 84 28 85 14 86
REMARK SMILES IDX 15 88 16 89 17 90 18 91 19 93 20 94 21 95 25 96 22 97 24 98
REMARK SMILES IDX 26 99 23 100
REMARK H PARENT 3 7 88 25 56 36 8 76 14 87 17 92
REMARK Flexibility Score: inf
ROOT
ATOM      1  C   UNL A   1      34.512  32.446  28.886  1.00  0.00     0.023 C 
ENDROOT
BRANCH   1   2
ATOM      2  C   UNL A   1      33.658  33.673  28.617  1.00  0.00     0.023 C 
BRANCH   2   3
ATOM      3  C   UNL A   1      34.015  34.890  29.456  1.00  0.00     0.116 C 
BRANCH   3   4
ATOM      4  N   UNL A   1      32.903  35.516  30.170  1.00  0.00    -0.352 N 
ATOM      5  O   UNL A   1      31.752  36.156  32.035  1.00  0.00    -0.269 OA
ATOM      6  C   UNL A   1      32.742  35.632  31.542  1.00  0.00     0.251 C 
ATOM      7  H   UNL A   1      32.187  35.899  29.614  1.00  0.00     0.163 HD
BRANCH   6   8
ATOM      8  C   UNL A   1      33.787  35.038  32.403  1.00  0.00     0.039 A 
ATOM      9  C   UNL A   1      34.987  35.726  32.565  1.00  0.00     0.014 A 
ATOM     10  C   UNL A   1      33.658  33.714  32.828  1.00  0.00     0.014 A 
ATOM     11  C   UNL A   1      36.127  35.004  32.876  1.00  0.00     0.010 A 
ATOM     12  C   UNL A   1      34.787  33.035  33.299  1.00  0.00     0.010 A 
ATOM     13  C   UNL A   1      36.047  33.652  33.257  1.00  0.00    -0.014 A 
BRANCH  13  14
ATOM     14  C   UNL A   1      37.297  32.936  33.631  1.00  0.00     0.031 A 
ATOM     15  C   UNL A   1      37.970  31.957  32.702  1.00  0.00     0.074 A 
ATOM     16  C   UNL A   1      37.855  33.222  34.824  1.00  0.00     0.049 A 
ATOM     17  N   UNL A   1      39.066  31.262  32.890  1.00  0.00    -0.248 NA
ATOM     18  C   UNL A   1      37.332  31.714  31.399  1.00  0.00     0.031 C 
ATOM     19  C   UNL A   1      37.296  34.151  35.811  1.00  0.00     0.029 A 
ATOM     20  N   UNL A   1      39.021  32.793  35.402  1.00  0.00    -0.354 N 
ATOM     21  C   UNL A   1      39.226  30.474  31.755  1.00  0.00     0.074 A 
ATOM     22  C   UNL A   1      38.103  30.763  30.888  1.00  0.00     0.031 C 
ATOM     23  C   UNL A   1      38.153  34.284  36.830  1.00  0.00     0.029 A 
ATOM     24  C   UNL A   1      39.266  33.368  36.624  1.00  0.00     0.049 A 
ATOM     25  H   UNL A   1      39.624  32.138  34.982  1.00  0.00     0.167 HD
ATOM     26  C   UNL A   1      40.218  29.595  31.467  1.00  0.00     0.037 A 
ATOM     27  C   UNL A   1      40.258  33.162  37.508  1.00  0.00     0.037 A 
ATOM     28  C   UNL A   1      41.345  29.334  32.331  1.00  0.00     0.049 A 
ATOM     29  C   UNL A   1      41.322  32.160  37.173  1.00  0.00     0.074 A 
ATOM     30  C   UNL A   1      42.423  28.493  32.115  1.00  0.00     0.029 A 
ATOM     31  N   UNL A   1      41.534  29.905  33.583  1.00  0.00    -0.354 N 
ATOM     32  N   UNL A   1      41.471  31.441  36.087  1.00  0.00    -0.248 NA
ATOM     33  C   UNL A   1      42.355  31.941  38.190  1.00  0.00     0.031 C 
ATOM     34  C   UNL A   1      43.226  28.503  33.260  1.00  0.00     0.029 A 
ATOM     35  C   UNL A   1      42.695  29.412  34.161  1.00  0.00     0.049 A 
ATOM     36  H   UNL A   1      40.932  30.565  33.999  1.00  0.00     0.167 HD
ATOM     37  C   UNL A   1      42.632  30.706  36.277  1.00  0.00     0.074 A 
ATOM     38  C   UNL A   1      43.156  31.085  37.573  1.00  0.00     0.031 C 
ATOM     39  C   UNL A   1      43.211  29.802  35.449  1.00  0.00     0.037 A 
BRANCH  26  40
ATOM     40  C   UNL A   1      40.123  28.816  30.181  1.00  0.00     0.064 A 
ATOM     41  C   UNL A   1      40.707  29.267  28.987  1.00  0.00     0.173 A 
ATOM     42  C   UNL A   1      39.478  27.568  30.157  1.00  0.00     0.173 A 
ATOM     43  F   UNL A   1      41.333  30.453  28.948  1.00  0.00    -0.203 F 
ATOM     44  C   UNL A   1      40.620  28.517  27.815  1.00  0.00     0.198 A 
ATOM     45  C   UNL A   1      39.424  26.805  28.993  1.00  0.00     0.198 A 
ATOM     46  F   UNL A   1      38.911  27.077  31.270  1.00  0.00    -0.203 F 
ATOM     47  F   UNL A   1      41.140  28.994  26.676  1.00  0.00    -0.200 F 
ATOM     48  C   UNL A   1      39.985  27.284  27.821  1.00  0.00     0.200 A 
ATOM     49  F   UNL A   1      38.826  25.605  29.006  1.00  0.00    -0.200 F 
ATOM     50  F   UNL A   1      39.910  26.561  26.694  1.00  0.00    -0.200 F 
ENDBRANCH  26  40
BRANCH  27  51
ATOM     51  C   UNL A   1      40.273  33.911  38.790  1.00  0.00     0.064 A 
ATOM     52  C   UNL A   1      40.997  35.105  38.917  1.00  0.00     0.173 A 
ATOM     53  C   UNL A   1      39.559  33.458  39.909  1.00  0.00     0.173 A 
ATOM     54  F   UNL A   1      41.705  35.572  37.879  1.00  0.00    -0.203 F 
ATOM     55  C   UNL A   1      41.027  35.800  40.123  1.00  0.00     0.198 A 
ATOM     56  C   UNL A   1      39.557  34.176  41.101  1.00  0.00     0.198 A 
ATOM     57  F   UNL A   1      38.840  32.328  39.837  1.00  0.00    -0.203 F 
ATOM     58  F   UNL A   1      41.770  36.910  40.233  1.00  0.00    -0.200 F 
ATOM     59  C   UNL A   1      40.301  35.340  41.212  1.00  0.00     0.200 A 
ATOM     60  F   UNL A   1      38.833  33.740  42.141  1.00  0.00    -0.200 F 
ATOM     61  F   UNL A   1      40.324  36.015  42.369  1.00  0.00    -0.200 F 
ENDBRANCH  27  51
BRANCH  39  62
ATOM     62  C   UNL A   1      44.515  29.206  35.901  1.00  0.00     0.064 A 
ATOM     63  C   UNL A   1      44.575  28.017  36.643  1.00  0.00     0.173 A 
ATOM     64  C   UNL A   1      45.725  29.841  35.581  1.00  0.00     0.173 A 
ATOM     65  F   UNL A   1      43.445  27.380  36.991  1.00  0.00    -0.203 F 
ATOM     66  C   UNL A   1      45.793  27.511  37.087  1.00  0.00     0.198 A 
ATOM     67  C   UNL A   1      46.944  29.309  35.991  1.00  0.00     0.198 A 
ATOM     68  F   UNL A   1      45.727  30.977  34.868  1.00  0.00    -0.203 F 
ATOM     69  F   UNL A   1      45.819  26.414  37.857  1.00  0.00    -0.200 F 
ATOM     70  C   UNL A   1      46.977  28.153  36.755  1.00  0.00     0.200 A 
ATOM     71  F   UNL A   1      48.088  29.921  35.654  1.00  0.00    -0.200 F 
ATOM     72  F   UNL A   1      48.149  27.663  37.181  1.00  0.00    -0.200 F 
ENDBRANCH  39  62
ENDBRANCH  13  14
ENDBRANCH   6   8
ENDBRANCH   3   4
ENDBRANCH   2   3
ENDBRANCH   1   2
BRANCH   1  73
ATOM     73  C   UNL A   1      34.790  31.589  27.642  1.00  0.00     0.116 C 
BRANCH  73  74
ATOM     74  N   UNL A   1      34.102  30.282  27.643  1.00  0.00    -0.352 N 
ATOM     75  C   UNL A   1      33.279  29.415  26.958  1.00  0.00     0.252 C 
ATOM     76  H   UNL A   1      34.329  29.844  28.496  1.00  0.00     0.163 HD
ATOM     77  O   UNL A   1      33.228  28.351  27.593  1.00  0.00    -0.269 OA
BRANCH  75  78
ATOM     78  C   UNL A   1      32.494  29.422  25.574  1.00  0.00     0.060 A 
ATOM     79  C   UNL A   1      32.418  28.348  23.860  1.00  0.00     0.043 A 
ATOM     80  C   UNL A   1      31.216  30.748  25.649  1.00  0.00     0.055 A 
ATOM     81  C   UNL A   1      31.227  28.502  22.680  1.00  0.00     0.060 A 
ATOM     82  C   UNL A   1      30.068  30.913  24.273  1.00  0.00     0.044 A 
ATOM     83  Cl  UNL A   1      31.028  31.954  26.868  1.00  0.00    -0.083 Cl
ATOM     84  C   UNL A   1      30.091  29.810  22.859  1.00  0.00     0.066 A 
ATOM     85  Cl  UNL A   1      28.828  29.962  21.696  1.00  0.00    -0.082 Cl
BRANCH  81  86
ATOM     86  N   UNL A   1      31.096  27.270  22.001  1.00  0.00    -0.331 N 
ATOM     87  H   UNL A   1      30.860  27.350  21.049  1.00  0.00     0.169 HD
BRANCH  86  88
ATOM     88  C   UNL A   1      31.242  25.966  22.450  1.00  0.00     0.177 C 
ATOM     89  S   UNL A   1      30.278  25.519  23.755  1.00  0.00    -0.040 S 
BRANCH  88  90
ATOM     90  N   UNL A   1      32.117  24.929  21.973  1.00  0.00    -0.299 N 
ATOM     91  C   UNL A   1      33.152  23.869  22.128  1.00  0.00     0.258 C 
ATOM     92  H   UNL A   1      31.925  24.907  21.008  1.00  0.00     0.172 HD
ATOM     93  O   UNL A   1      33.653  23.328  21.147  1.00  0.00    -0.269 OA
BRANCH  91  94
ATOM     94  C   UNL A   1      33.675  23.492  23.485  1.00  0.00     0.058 A 
ATOM     95  C   UNL A   1      34.086  24.974  24.462  1.00  0.00     0.015 A 
ATOM     96  C   UNL A   1      32.607  22.247  24.038  1.00  0.00     0.053 A 
ATOM     97  C   UNL A   1      33.278  25.395  25.988  1.00  0.00     0.001 A 
ATOM     98  C   UNL A   1      31.685  22.563  25.504  1.00  0.00     0.021 A 
ATOM     99  Cl  UNL A   1      32.153  20.920  23.047  1.00  0.00    -0.083 Cl
ATOM    100  C   UNL A   1      31.986  24.278  26.548  1.00  0.00     0.002 A 
ENDBRANCH  91  94
ENDBRANCH  88  90
ENDBRANCH  86  88
ENDBRANCH  81  86
ENDBRANCH  75  78
ENDBRANCH  73  74
ENDBRANCH   1  73
TORSDOF 15
ENDMDL
MODEL 2
REMARK VINA RESULT:     -12.4      6.292     11.595
REMARK SMILES O=C(NCCCCNC(=O)c1cc(NC(=S)NC(=O)c2ccccc2Cl)c(Cl)cc1Cl)c1ccc(-c2c3nc(c(-c4c(F)c(F)c(F)c(F)c4F)c4ccc([nH]4)c(-c4c(F)c(F)c(F)c(F)c4F)c4nc(c(-c5c(F)c(F)c(F)c(F)c5F)c5ccc2[nH]5)C=C4)C=C3)cc1
REMARK SMILES IDX 6 1 5 2 4 3 3 4 1 5 2 6 32 8 33 9 94 10 34 11 93 12 35 13
REMARK SMILES IDX 36 14 37 15 87 16 38 17 92 18 86 19 88 20 39 21 91 22 85 23
REMARK SMILES IDX 84 24 40 26 72 27 52 28 71 29 53 30 56 31 70 32 89 33 54 34
REMARK SMILES IDX 55 35 69 37 90 38 57 39 41 40 42 41 50 42 43 43 44 44 48 45
REMARK SMILES IDX 51 46 45 47 46 48 49 49 47 50 73 51 74 52 82 53 75 54 76 55
REMARK SMILES IDX 80 56 83 57 77 58 78 59 81 60 79 61 58 62 59 63 67 64 60 65
REMARK SMILES IDX 61 66 65 67 68 68 62 69 63 70 66 71 64 72 7 73 8 74 9 75
REMARK SMILES IDX 10 77 11 78 12 79 30 80 13 81 29 82 31 83 27 84 28 85 14 86
REMARK SMILES IDX 15 88 16 89 17 90 18 91 19 93 20 94 21 95 25 96 22 97 24 98
REMARK SMILES IDX 26 99 23 100
REMARK H PARENT 3 7 88 25 56 36 8 76 14 87 17 92
REMARK Flexibility Score: inf
ROOT
ATOM      1  C   UNL A   1      39.762  22.878  26.147  1.00  0.00     0.023 C 
ENDROOT
BRANCH   1   2
ATOM      2  C   UNL A   1      39.402  21.427  25.877  1.00  0.00     0.023 C 
BRANCH   2   3
ATOM      3  C   UNL A   1      39.953  20.437  26.891  1.00  0.00     0.116 C 
BRANCH   3   4
ATOM      4  N   UNL A   1      40.692  19.305  26.335  1.00  0.00    -0.352 N 
ATOM      5  O   UNL A   1      42.565  18.233  25.588  1.00  0.00    -0.269 OA
ATOM      6  C   UNL A   1      42.054  19.229  26.084  1.00  0.00     0.251 C 
ATOM      7  H   UNL A   1      40.163  18.505  26.113  1.00  0.00     0.163 HD
BRANCH   6   8
ATOM      8  C   UNL A   1      42.868  20.426  26.378  1.00  0.00     0.039 A 
ATOM      9  C   UNL A   1      42.884  20.916  27.682  1.00  0.00     0.014 A 
ATOM     10  C   UNL A   1      43.395  21.176  25.325  1.00  0.00     0.014 A 
ATOM     11  C   UNL A   1      43.154  22.260  27.880  1.00  0.00     0.010 A 
ATOM     12  C   UNL A   1      43.823  22.486  25.566  1.00  0.00     0.010 A 
ATOM     13  C   UNL A   1      43.636  23.065  26.830  1.00  0.00    -0.014 A 
BRANCH  13  14
ATOM     14  C   UNL A   1      43.959  24.491  27.109  1.00  0.00     0.031 A 
ATOM     15  C   UNL A   1      42.933  25.455  27.648  1.00  0.00     0.074 A 
ATOM     16  C   UNL A   1      45.229  24.901  26.913  1.00  0.00     0.049 A 
ATOM     17  N   UNL A   1      43.072  26.726  27.944  1.00  0.00    -0.248 NA
ATOM     18  C   UNL A   1      41.575  24.940  27.875  1.00  0.00     0.031 C 
ATOM     19  C   UNL A   1      46.311  24.059  26.394  1.00  0.00     0.029 A 
ATOM     20  N   UNL A   1      45.836  26.105  27.151  1.00  0.00    -0.354 N 
ATOM     21  C   UNL A   1      41.818  27.169  28.351  1.00  0.00     0.074 A 
ATOM     22  C   UNL A   1      40.923  26.035  28.247  1.00  0.00     0.031 C 
ATOM     23  C   UNL A   1      47.459  24.744  26.427  1.00  0.00     0.029 A 
ATOM     24  C   UNL A   1      47.178  26.104  26.862  1.00  0.00     0.049 A 
ATOM     25  H   UNL A   1      45.357  26.894  27.494  1.00  0.00     0.167 HD
ATOM     26  C   UNL A   1      41.452  28.406  28.772  1.00  0.00     0.037 A 
ATOM     27  C   UNL A   1      48.086  27.095  26.908  1.00  0.00     0.037 A 
ATOM     28  C   UNL A   1      42.359  29.522  28.892  1.00  0.00     0.049 A 
ATOM     29  C   UNL A   1      47.642  28.457  27.347  1.00  0.00     0.074 A 
ATOM     30  C   UNL A   1      42.097  30.803  29.346  1.00  0.00     0.029 A 
ATOM     31  N   UNL A   1      43.704  29.491  28.548  1.00  0.00    -0.354 N 
ATOM     32  N   UNL A   1      46.459  28.854  27.750  1.00  0.00    -0.248 NA
ATOM     33  C   UNL A   1      48.661  29.511  27.335  1.00  0.00     0.031 C 
ATOM     34  C   UNL A   1      43.263  31.564  29.213  1.00  0.00     0.029 A 
ATOM     35  C   UNL A   1      44.276  30.739  28.753  1.00  0.00     0.049 A 
ATOM     36  H   UNL A   1      44.182  28.699  28.211  1.00  0.00     0.167 HD
ATOM     37  C   UNL A   1      46.598  30.196  28.069  1.00  0.00     0.074 A 
ATOM     38  C   UNL A   1      47.986  30.537  27.832  1.00  0.00     0.031 C 
ATOM     39  C   UNL A   1      45.661  31.065  28.521  1.00  0.00     0.037 A 
BRANCH  26  40
ATOM     40  C   UNL A   1      40.000  28.641  29.102  1.00  0.00     0.064 A 
ATOM     41  C   UNL A   1      39.483  28.435  30.390  1.00  0.00     0.173 A 
ATOM     42  C   UNL A   1      39.122  29.130  28.121  1.00  0.00     0.173 A 
ATOM     43  F   UNL A   1      40.271  27.965  31.368  1.00  0.00    -0.203 F 
ATOM     44  C   UNL A   1      38.139  28.678  30.673  1.00  0.00     0.198 A 
ATOM     45  C   UNL A   1      37.789  29.406  28.415  1.00  0.00     0.198 A 
ATOM     46  F   UNL A   1      39.561  29.358  26.873  1.00  0.00    -0.203 F 
ATOM     47  F   UNL A   1      37.657  28.424  31.897  1.00  0.00    -0.200 F 
ATOM     48  C   UNL A   1      37.296  29.170  29.688  1.00  0.00     0.200 A 
ATOM     49  F   UNL A   1      36.981  29.899  27.466  1.00  0.00    -0.200 F 
ATOM     50  F   UNL A   1      36.006  29.411  29.965  1.00  0.00    -0.200 F 
ENDBRANCH  26  40
BRANCH  27  51
ATOM     51  C   UNL A   1      49.492  26.826  26.513  1.00  0.00     0.064 A 
ATOM     52  C   UNL A   1      49.898  26.935  25.176  1.00  0.00     0.173 A 
ATOM     53  C   UNL A   1      50.461  26.465  27.462  1.00  0.00     0.173 A 
ATOM     54  F   UNL A   1      49.006  27.266  24.231  1.00  0.00    -0.203 F 
ATOM     55  C   UNL A   1      51.212  26.667  24.801  1.00  0.00     0.198 A 
ATOM     56  C   UNL A   1      51.782  26.237  27.091  1.00  0.00     0.198 A 
ATOM     57  F   UNL A   1      50.128  26.359  28.757  1.00  0.00    -0.203 F 
ATOM     58  F   UNL A   1      51.560  26.727  23.509  1.00  0.00    -0.200 F 
ATOM     59  C   UNL A   1      52.155  26.327  25.759  1.00  0.00     0.200 A 
ATOM     60  F   UNL A   1      52.695  25.934  28.025  1.00  0.00    -0.200 F 
ATOM     61  F   UNL A   1      53.420  26.077  25.397  1.00  0.00    -0.200 F 
ENDBRANCH  27  51
BRANCH  39  62
ATOM     62  C   UNL A   1      46.126  32.457  28.846  1.00  0.00     0.064 A 
ATOM     63  C   UNL A   1      46.102  33.492  27.899  1.00  0.00     0.173 A 
ATOM     64  C   UNL A   1      46.603  32.755  30.132  1.00  0.00     0.173 A 
ATOM     65  F   UNL A   1      45.672  33.255  26.649  1.00  0.00    -0.203 F 
ATOM     66  C   UNL A   1      46.580  34.761  28.214  1.00  0.00     0.198 A 
ATOM     67  C   UNL A   1      47.042  34.036  30.454  1.00  0.00     0.198 A 
ATOM     68  F   UNL A   1      46.643  31.805  31.077  1.00  0.00    -0.203 F 
ATOM     69  F   UNL A   1      46.616  35.713  27.271  1.00  0.00    -0.200 F 
ATOM     70  C   UNL A   1      47.043  35.033  29.493  1.00  0.00     0.200 A 
ATOM     71  F   UNL A   1      47.472  34.302  31.695  1.00  0.00    -0.200 F 
ATOM     72  F   UNL A   1      47.501  36.256  29.794  1.00  0.00    -0.200 F 
ENDBRANCH  39  62
ENDBRANCH  13  14
ENDBRANCH   6   8
ENDBRANCH   3   4
ENDBRANCH   2   3
ENDBRANCH   1   2
BRANCH   1  73
ATOM     73  C   UNL A   1      38.560  23.834  26.146  1.00  0.00     0.116 C 
BRANCH  73  74
ATOM     74  N   UNL A   1      37.612  23.611  25.036  1.00  0.00    -0.352 N 
ATOM     75  C   UNL A   1      36.291  23.540  24.647  1.00  0.00     0.252 C 
ATOM     76  H   UNL A   1      38.154  23.442  24.231  1.00  0.00     0.163 HD
ATOM     77  O   UNL A   1      36.260  23.424  23.414  1.00  0.00    -0.269 OA
BRANCH  75  78
ATOM     78  C   UNL A   1      34.874  23.658  25.359  1.00  0.00     0.060 A 
ATOM     79  C   UNL A   1      33.639  25.098  26.066  1.00  0.00     0.043 A 
ATOM     80  C   UNL A   1      34.133  21.972  25.439  1.00  0.00     0.055 A 
ATOM     81  C   UNL A   1      32.039  24.851  26.527  1.00  0.00     0.060 A 
ATOM     82  C   UNL A   1      32.457  21.800  26.072  1.00  0.00     0.044 A 
ATOM     83  Cl  UNL A   1      34.897  20.473  25.060  1.00  0.00    -0.083 Cl
ATOM     84  C   UNL A   1      31.468  23.207  26.580  1.00  0.00     0.066 A 
ATOM     85  Cl  UNL A   1      29.819  22.925  26.998  1.00  0.00    -0.082 Cl
BRANCH  81  86
ATOM     86  N   UNL A   1      31.323  26.058  26.354  1.00  0.00    -0.331 N 
ATOM     87  H   UNL A   1      30.348  25.947  26.272  1.00  0.00     0.169 HD
BRANCH  86  88
ATOM     88  C   UNL A   1      31.761  27.371  26.279  1.00  0.00     0.177 C 
ATOM     89  S   UNL A   1      31.605  28.285  27.683  1.00  0.00    -0.040 S 
BRANCH  88  90
ATOM     90  N   UNL A   1      32.322  28.084  25.163  1.00  0.00    -0.299 N 
ATOM     91  C   UNL A   1      32.582  28.322  23.716  1.00  0.00     0.258 C 
ATOM     92  H   UNL A   1      32.799  28.828  25.595  1.00  0.00     0.172 HD
ATOM     93  O   UNL A   1      33.373  29.186  23.351  1.00  0.00    -0.269 OA
BRANCH  91  94
ATOM     94  C   UNL A   1      31.950  27.455  22.664  1.00  0.00     0.058 A 
ATOM     95  C   UNL A   1      32.855  25.884  22.482  1.00  0.00     0.015 A 
ATOM     96  C   UNL A   1      30.250  27.549  22.978  1.00  0.00     0.053 A 
ATOM     97  C   UNL A   1      32.131  24.294  22.810  1.00  0.00     0.001 A 
ATOM     98  C   UNL A   1      29.419  26.054  23.390  1.00  0.00     0.021 A 
ATOM     99  Cl  UNL A   1      29.450  29.044  23.256  1.00  0.00    -0.083 Cl
ATOM    100  C   UNL A   1      30.420  24.288  23.362  1.00  0.00     0.002 A 
ENDBRANCH  91  94
ENDBRANCH  88  90
ENDBRANCH  86  88
ENDBRANCH  81  86
ENDBRANCH  75  78
ENDBRANCH  73  74
ENDBRANCH   1  73
TORSDOF 15
ENDMDL
MODEL 3
REMARK VINA RESULT:     -12.4      2.231      7.872
REMARK SMILES O=C(NCCCCNC(=O)c1cc(NC(=S)NC(=O)c2ccccc2Cl)c(Cl)cc1Cl)c1ccc(-c2c3nc(c(-c4c(F)c(F)c(F)c(F)c4F)c4ccc([nH]4)c(-c4c(F)c(F)c(F)c(F)c4F)c4nc(c(-c5c(F)c(F)c(F)c(F)c5F)c5ccc2[nH]5)C=C4)C=C3)cc1
REMARK SMILES IDX 6 1 5 2 4 3 3 4 1 5 2 6 32 8 33 9 94 10 34 11 93 12 35 13
REMARK SMILES IDX 36 14 37 15 87 16 38 17 92 18 86 19 88 20 39 21 91 22 85 23
REMARK SMILES IDX 84 24 40 26 72 27 52 28 71 29 53 30 56 31 70 32 89 33 54 34
REMARK SMILES IDX 55 35 69 37 90 38 57 39 41 40 42 41 50 42 43 43 44 44 48 45
REMARK SMILES IDX 51 46 45 47 46 48 49 49 47 50 73 51 74 52 82 53 75 54 76 55
REMARK SMILES IDX 80 56 83 57 77 58 78 59 81 60 79 61 58 62 59 63 67 64 60 65
REMARK SMILES IDX 61 66 65 67 68 68 62 69 63 70 66 71 64 72 7 73 8 74 9 75
REMARK SMILES IDX 10 77 11 78 12 79 30 80 13 81 29 82 31 83 27 84 28 85 14 86
REMARK SMILES IDX 15 88 16 89 17 90 18 91 19 93 20 94 21 95 25 96 22 97 24 98
REMARK SMILES IDX 26 99 23 100
REMARK H PARENT 3 7 88 25 56 36 8 76 14 87 17 92
REMARK Flexibility Score: inf
ROOT
ATOM      1  C   UNL A   1      34.495  30.273  28.179  1.00  0.00     0.023 C 
ENDROOT
BRANCH   1   2
ATOM      2  C   UNL A   1      33.448  31.234  27.643  1.00  0.00     0.023 C 
BRANCH   2   3
ATOM      3  C   UNL A   1      33.975  32.619  27.301  1.00  0.00     0.116 C 
BRANCH   3   4
ATOM      4  N   UNL A   1      33.125  33.738  27.707  1.00  0.00    -0.352 N 
ATOM      5  O   UNL A   1      32.480  35.442  29.083  1.00  0.00    -0.269 OA
ATOM      6  C   UNL A   1      33.271  34.544  28.825  1.00  0.00     0.251 C 
ATOM      7  H   UNL A   1      32.362  33.942  27.120  1.00  0.00     0.163 HD
BRANCH   6   8
ATOM      8  C   UNL A   1      34.390  34.241  29.742  1.00  0.00     0.039 A 
ATOM      9  C   UNL A   1      35.680  34.602  29.359  1.00  0.00     0.014 A 
ATOM     10  C   UNL A   1      34.178  33.397  30.833  1.00  0.00     0.014 A 
ATOM     11  C   UNL A   1      36.748  33.890  29.879  1.00  0.00     0.010 A 
ATOM     12  C   UNL A   1      35.277  32.805  31.464  1.00  0.00     0.010 A 
ATOM     13  C   UNL A   1      36.567  32.987  30.944  1.00  0.00    -0.014 A 
BRANCH  13  14
ATOM     14  C   UNL A   1      37.756  32.286  31.500  1.00  0.00     0.031 A 
ATOM     15  C   UNL A   1      38.288  32.581  32.881  1.00  0.00     0.074 A 
ATOM     16  C   UNL A   1      38.332  31.326  30.750  1.00  0.00     0.049 A 
ATOM     17  N   UNL A   1      39.313  32.046  33.501  1.00  0.00    -0.248 NA
ATOM     18  C   UNL A   1      37.596  33.614  33.665  1.00  0.00     0.031 C 
ATOM     19  C   UNL A   1      37.908  30.950  29.397  1.00  0.00     0.029 A 
ATOM     20  N   UNL A   1      39.368  30.471  31.016  1.00  0.00    -0.354 N 
ATOM     21  C   UNL A   1      39.412  32.700  34.724  1.00  0.00     0.074 A 
ATOM     22  C   UNL A   1      38.353  33.688  34.752  1.00  0.00     0.031 C 
ATOM     23  C   UNL A   1      38.619  29.895  28.987  1.00  0.00     0.029 A 
ATOM     24  C   UNL A   1      39.623  29.589  29.995  1.00  0.00     0.049 A 
ATOM     25  H   UNL A   1      39.881  30.487  31.857  1.00  0.00     0.167 HD
ATOM     26  C   UNL A   1      40.303  32.494  35.726  1.00  0.00     0.037 A 
ATOM     27  C   UNL A   1      40.580  28.654  29.862  1.00  0.00     0.037 A 
ATOM     28  C   UNL A   1      41.340  31.490  35.693  1.00  0.00     0.049 A 
ATOM     29  C   UNL A   1      41.569  28.473  30.974  1.00  0.00     0.074 A 
ATOM     30  C   UNL A   1      42.267  31.173  36.671  1.00  0.00     0.029 A 
ATOM     31  N   UNL A   1      41.592  30.645  34.620  1.00  0.00    -0.354 N 
ATOM     32  N   UNL A   1      41.634  29.083  32.132  1.00  0.00    -0.248 NA
ATOM     33  C   UNL A   1      42.618  27.471  30.758  1.00  0.00     0.031 C 
ATOM     34  C   UNL A   1      43.120  30.187  36.167  1.00  0.00     0.029 A 
ATOM     35  C   UNL A   1      42.678  29.829  34.903  1.00  0.00     0.049 A 
ATOM     36  H   UNL A   1      41.075  30.626  33.783  1.00  0.00     0.167 HD
ATOM     37  C   UNL A   1      42.713  28.519  32.796  1.00  0.00     0.074 A 
ATOM     38  C   UNL A   1      43.256  27.503  31.917  1.00  0.00     0.031 C 
ATOM     39  C   UNL A   1      43.206  28.815  34.024  1.00  0.00     0.037 A 
BRANCH  26  40
ATOM     40  C   UNL A   1      40.229  33.390  36.935  1.00  0.00     0.064 A 
ATOM     41  C   UNL A   1      39.361  33.131  38.006  1.00  0.00     0.173 A 
ATOM     42  C   UNL A   1      41.083  34.500  37.045  1.00  0.00     0.173 A 
ATOM     43  F   UNL A   1      38.519  32.088  37.958  1.00  0.00    -0.203 F 
ATOM     44  C   UNL A   1      39.326  33.967  39.122  1.00  0.00     0.198 A 
ATOM     45  C   UNL A   1      41.071  35.312  38.176  1.00  0.00     0.198 A 
ATOM     46  F   UNL A   1      41.944  34.792  36.058  1.00  0.00    -0.203 F 
ATOM     47  F   UNL A   1      38.451  33.729  40.109  1.00  0.00    -0.200 F 
ATOM     48  C   UNL A   1      40.185  35.052  39.209  1.00  0.00     0.200 A 
ATOM     49  F   UNL A   1      41.916  36.349  38.265  1.00  0.00    -0.200 F 
ATOM     50  F   UNL A   1      40.157  35.848  40.287  1.00  0.00    -0.200 F 
ENDBRANCH  26  40
BRANCH  27  51
ATOM     51  C   UNL A   1      40.647  27.838  28.623  1.00  0.00     0.064 A 
ATOM     52  C   UNL A   1      39.947  26.628  28.519  1.00  0.00     0.173 A 
ATOM     53  C   UNL A   1      41.402  28.252  27.515  1.00  0.00     0.173 A 
ATOM     54  F   UNL A   1      39.222  26.183  29.556  1.00  0.00    -0.203 F 
ATOM     55  C   UNL A   1      40.022  25.852  27.365  1.00  0.00     0.198 A 
ATOM     56  C   UNL A   1      41.442  27.496  26.348  1.00  0.00     0.198 A 
ATOM     57  F   UNL A   1      42.079  29.409  27.557  1.00  0.00    -0.203 F 
ATOM     58  F   UNL A   1      39.387  24.674  27.313  1.00  0.00    -0.200 F 
ATOM     59  C   UNL A   1      40.762  26.290  26.277  1.00  0.00     0.200 A 
ATOM     60  F   UNL A   1      42.138  27.937  25.290  1.00  0.00    -0.200 F 
ATOM     61  F   UNL A   1      40.827  25.547  25.165  1.00  0.00    -0.200 F 
ENDBRANCH  27  51
BRANCH  39  62
ATOM     62  C   UNL A   1      44.358  27.983  34.512  1.00  0.00     0.064 A 
ATOM     63  C   UNL A   1      45.692  28.364  34.309  1.00  0.00     0.173 A 
ATOM     64  C   UNL A   1      44.116  26.781  35.196  1.00  0.00     0.173 A 
ATOM     65  F   UNL A   1      45.979  29.495  33.644  1.00  0.00    -0.203 F 
ATOM     66  C   UNL A   1      46.741  27.552  34.732  1.00  0.00     0.198 A 
ATOM     67  C   UNL A   1      45.168  25.993  35.654  1.00  0.00     0.198 A 
ATOM     68  F   UNL A   1      42.860  26.371  35.423  1.00  0.00    -0.203 F 
ATOM     69  F   UNL A   1      48.007  27.901  34.462  1.00  0.00    -0.200 F 
ATOM     70  C   UNL A   1      46.478  26.371  35.411  1.00  0.00     0.200 A 
ATOM     71  F   UNL A   1      44.911  24.861  36.325  1.00  0.00    -0.200 F 
ATOM     72  F   UNL A   1      47.489  25.592  35.819  1.00  0.00    -0.200 F 
ENDBRANCH  39  62
ENDBRANCH  13  14
ENDBRANCH   6   8
ENDBRANCH   3   4
ENDBRANCH   2   3
ENDBRANCH   1   2
BRANCH   1  73
ATOM     73  C   UNL A   1      35.003  29.256  27.146  1.00  0.00     0.116 C 
BRANCH  73  74
ATOM     74  N   UNL A   1      34.313  29.324  25.843  1.00  0.00    -0.352 N 
ATOM     75  C   UNL A   1      33.485  28.684  24.945  1.00  0.00     0.252 C 
ATOM     76  H   UNL A   1      34.539  30.197  25.447  1.00  0.00     0.163 HD
ATOM     77  O   UNL A   1      33.217  29.482  24.035  1.00  0.00    -0.269 OA
BRANCH  75  78
ATOM     78  C   UNL A   1      32.757  27.273  24.852  1.00  0.00     0.060 A 
ATOM     79  C   UNL A   1      32.731  25.648  23.644  1.00  0.00     0.043 A 
ATOM     80  C   UNL A   1      31.735  27.056  26.371  1.00  0.00     0.055 A 
ATOM     81  C   UNL A   1      32.007  24.178  24.027  1.00  0.00     0.060 A 
ATOM     82  C   UNL A   1      30.895  25.486  26.624  1.00  0.00     0.044 A 
ATOM     83  Cl  UNL A   1      31.393  28.237  27.581  1.00  0.00    -0.083 Cl
ATOM     84  C   UNL A   1      31.051  24.112  25.481  1.00  0.00     0.066 A 
ATOM     85  Cl  UNL A   1      30.341  22.605  25.927  1.00  0.00    -0.082 Cl
BRANCH  81  86
ATOM     86  N   UNL A   1      32.677  23.145  23.331  1.00  0.00    -0.331 N 
ATOM     87  H   UNL A   1      33.392  23.453  22.730  1.00  0.00     0.169 HD
BRANCH  86  88
ATOM     88  C   UNL A   1      32.497  21.770  23.353  1.00  0.00     0.177 C 
ATOM     89  S   UNL A   1      31.907  21.078  21.937  1.00  0.00    -0.040 S 
BRANCH  88  90
ATOM     90  N   UNL A   1      32.724  20.837  24.423  1.00  0.00    -0.299 N 
ATOM     91  C   UNL A   1      33.496  20.258  25.558  1.00  0.00     0.258 C 
ATOM     92  H   UNL A   1      31.928  20.260  24.384  1.00  0.00     0.172 HD
ATOM     93  O   UNL A   1      33.151  19.204  26.084  1.00  0.00    -0.269 OA
BRANCH  91  94
ATOM     94  C   UNL A   1      34.766  20.902  26.038  1.00  0.00     0.058 A 
ATOM     95  C   UNL A   1      36.021  20.932  24.717  1.00  0.00     0.015 A 
ATOM     96  C   UNL A   1      34.249  22.312  26.899  1.00  0.00     0.053 A 
ATOM     97  C   UNL A   1      36.690  22.433  24.038  1.00  0.00     0.001 A 
ATOM     98  C   UNL A   1      34.780  23.874  26.288  1.00  0.00     0.021 A 
ATOM     99  Cl  UNL A   1      32.983  22.264  28.059  1.00  0.00    -0.083 Cl
ATOM    100  C   UNL A   1      36.055  23.973  24.711  1.00  0.00     0.002 A 
ENDBRANCH  91  94
ENDBRANCH  88  90
ENDBRANCH  86  88
ENDBRANCH  81  86
ENDBRANCH  75  78
ENDBRANCH  73  74
ENDBRANCH   1  73
TORSDOF 15
ENDMDL
