MODEL 1
REMARK VINA RESULT:     -12.9      0.000      0.000
REMARK SMILES C[C@@H]1CCC[C@@H](N(C)C(=O)N2CCC(CC(=O)NCCCCNC(=O)c3ccc(-c4c5nc(c(-c6c(F)c(F)c(F)c(F)c6F)c6ccc([nH]6)c(-c6c(F)c(F)c(F)c(F)c6F)c6nc(c(-c7c(F)c(F)c(F)c(F)c7F)c7ccc4[nH]7)C=C6)C=C5)cc3)CC2)C1
REMARK SMILES IDX 20 1 19 2 18 3 16 4 17 5 15 7 14 8 9 9 10 10 11 11 12 12
REMARK SMILES IDX 90 13 13 14 89 15 7 16 8 17 6 18 1 19 2 20 3 21 91 22 4 23
REMARK SMILES IDX 5 24 21 25 22 26 23 27 24 28 25 30 26 31 27 32 88 33 28 34
REMARK SMILES IDX 87 35 29 36 30 37 31 38 81 39 32 40 86 41 80 42 82 43 33 44
REMARK SMILES IDX 85 45 79 46 78 47 34 49 66 50 46 51 65 52 47 53 50 54 64 55
REMARK SMILES IDX 83 56 48 57 49 58 63 60 84 61 51 62 35 63 36 64 44 65 37 66
REMARK SMILES IDX 38 67 42 68 45 69 39 70 40 71 43 72 41 73 67 74 68 75 76 76
REMARK SMILES IDX 69 77 70 78 74 79 77 80 71 81 72 82 75 83 73 84 52 85 53 86
REMARK SMILES IDX 61 87 54 88 55 89 59 90 62 91 56 92 57 93 60 94 58 95
REMARK H PARENT 18 6 23 29 82 48 50 59
REMARK Flexibility Score: inf
ROOT
ATOM      1  C   UNL A   1      31.838  30.568  26.719  1.00  0.00     0.023 C 
ENDROOT
BRANCH   1   2
ATOM      2  C   UNL A   1      33.222  30.026  26.344  1.00  0.00     0.116 C 
BRANCH   2   3
ATOM      3  N   UNL A   1      33.324  29.769  24.917  1.00  0.00    -0.356 N 
ATOM      4  C   UNL A   1      32.419  29.241  24.043  1.00  0.00     0.220 C 
ATOM      5  O   UNL A   1      32.784  29.044  22.882  1.00  0.00    -0.275 OA
ATOM      6  H   UNL A   1      34.188  30.017  24.515  1.00  0.00     0.163 HD
BRANCH   4   7
ATOM      7  C   UNL A   1      30.999  28.899  24.479  1.00  0.00     0.103 C 
BRANCH   7   8
ATOM      8  C   UNL A   1      30.767  27.395  24.743  1.00  0.00     0.002 C 
ATOM      9  C   UNL A   1      32.727  24.142  23.530  1.00  0.00     0.319 C 
ATOM     10  O   UNL A   1      33.161  24.688  22.519  1.00  0.00    -0.248 OA
ATOM     11  N   UNL A   1      31.655  24.667  24.229  1.00  0.00    -0.325 N 
ATOM     12  C   UNL A   1      30.504  25.148  23.511  1.00  0.00     0.121 C 
ATOM     13  C   UNL A   1      31.853  25.237  25.554  1.00  0.00     0.121 C 
ATOM     14  C   UNL A   1      30.495  26.658  23.434  1.00  0.00     0.026 C 
ATOM     15  C   UNL A   1      31.966  26.765  25.473  1.00  0.00     0.026 C 
BRANCH   9  16
ATOM     16  N   UNL A   1      33.226  22.957  24.055  1.00  0.00    -0.325 N 
ATOM     17  C   UNL A   1      32.442  21.728  24.044  1.00  0.00     0.149 C 
BRANCH  16  18
ATOM     18  C   UNL A   1      34.591  22.854  24.586  1.00  0.00     0.086 C 
ATOM     19  C   UNL A   1      37.195  21.045  24.685  1.00  0.00     0.008 C 
ATOM     20  C   UNL A   1      37.071  22.472  24.141  1.00  0.00    -0.012 C 
ATOM     21  C   UNL A   1      37.393  23.522  25.219  1.00  0.00     0.003 C 
ATOM     22  C   UNL A   1      35.687  22.724  23.516  1.00  0.00     0.028 C 
ATOM     23  C   UNL A   1      36.270  23.724  26.239  1.00  0.00     0.002 C 
ATOM     24  C   UNL A   1      34.923  23.986  25.565  1.00  0.00     0.025 C 
ENDBRANCH  16  18
ENDBRANCH   9  16
ENDBRANCH   7   8
ENDBRANCH   4   7
ENDBRANCH   2   3
ENDBRANCH   1   2
BRANCH   1  25
ATOM     25  C   UNL A   1      31.681  32.076  26.680  1.00  0.00     0.023 C 
BRANCH  25  26
ATOM     26  C   UNL A   1      32.753  32.830  27.434  1.00  0.00     0.116 C 
BRANCH  26  27
ATOM     27  N   UNL A   1      32.420  34.220  27.699  1.00  0.00    -0.352 N 
ATOM     28  C   UNL A   1      32.994  35.078  28.615  1.00  0.00     0.251 C 
ATOM     29  H   UNL A   1      31.691  34.597  27.156  1.00  0.00     0.163 HD
ATOM     30  O   UNL A   1      32.551  36.203  28.788  1.00  0.00    -0.269 OA
BRANCH  28  31
ATOM     31  C   UNL A   1      34.129  34.589  29.423  1.00  0.00     0.039 A 
ATOM     32  C   UNL A   1      33.875  34.029  30.675  1.00  0.00     0.014 A 
ATOM     33  C   UNL A   1      35.424  34.608  28.903  1.00  0.00     0.014 A 
ATOM     34  C   UNL A   1      34.918  33.421  31.375  1.00  0.00     0.010 A 
ATOM     35  C   UNL A   1      36.427  33.894  29.537  1.00  0.00     0.010 A 
ATOM     36  C   UNL A   1      36.192  33.314  30.792  1.00  0.00    -0.014 A 
BRANCH  36  37
ATOM     37  C   UNL A   1      37.310  32.644  31.496  1.00  0.00     0.031 A 
ATOM     38  C   UNL A   1      38.018  31.495  30.832  1.00  0.00     0.074 A 
ATOM     39  C   UNL A   1      37.641  33.022  32.745  1.00  0.00     0.049 A 
ATOM     40  N   UNL A   1      38.984  30.740  31.292  1.00  0.00    -0.248 NA
ATOM     41  C   UNL A   1      37.553  31.114  29.488  1.00  0.00     0.031 C 
ATOM     42  C   UNL A   1      36.972  34.071  33.520  1.00  0.00     0.029 A 
ATOM     43  N   UNL A   1      38.624  32.566  33.586  1.00  0.00    -0.354 N 
ATOM     44  C   UNL A   1      39.215  29.788  30.308  1.00  0.00     0.074 A 
ATOM     45  C   UNL A   1      38.245  30.010  29.261  1.00  0.00     0.031 C 
ATOM     46  C   UNL A   1      37.590  34.204  34.705  1.00  0.00     0.029 A 
ATOM     47  C   UNL A   1      38.677  33.233  34.785  1.00  0.00     0.049 A 
ATOM     48  H   UNL A   1      39.234  31.829  33.351  1.00  0.00     0.167 HD
ATOM     49  C   UNL A   1      40.177  28.837  30.261  1.00  0.00     0.037 A 
ATOM     50  C   UNL A   1      39.520  33.082  35.823  1.00  0.00     0.037 A 
ATOM     51  C   UNL A   1      41.172  28.657  31.283  1.00  0.00     0.049 A 
ATOM     52  C   UNL A   1      40.615  32.055  35.726  1.00  0.00     0.074 A 
ATOM     53  C   UNL A   1      42.234  27.771  31.310  1.00  0.00     0.029 A 
ATOM     54  N   UNL A   1      41.229  29.390  32.460  1.00  0.00    -0.354 N 
ATOM     55  N   UNL A   1      40.875  31.211  34.756  1.00  0.00    -0.248 NA
ATOM     56  C   UNL A   1      41.545  31.970  36.859  1.00  0.00     0.031 C 
ATOM     57  C   UNL A   1      42.914  27.945  32.520  1.00  0.00     0.029 A 
ATOM     58  C   UNL A   1      42.304  28.972  33.225  1.00  0.00     0.049 A 
ATOM     59  H   UNL A   1      40.598  30.102  32.714  1.00  0.00     0.167 HD
ATOM     60  C   UNL A   1      42.014  30.520  35.146  1.00  0.00     0.074 A 
ATOM     61  C   UNL A   1      42.404  31.054  36.434  1.00  0.00     0.031 C 
ATOM     62  C   UNL A   1      42.679  29.532  34.497  1.00  0.00     0.037 A 
BRANCH  49  63
ATOM     63  C   UNL A   1      40.207  27.940  29.058  1.00  0.00     0.064 A 
ATOM     64  C   UNL A   1      39.530  26.710  29.041  1.00  0.00     0.173 A 
ATOM     65  C   UNL A   1      40.907  28.318  27.904  1.00  0.00     0.173 A 
ATOM     66  F   UNL A   1      38.859  26.293  30.126  1.00  0.00    -0.203 F 
ATOM     67  C   UNL A   1      39.582  25.877  27.926  1.00  0.00     0.198 A 
ATOM     68  C   UNL A   1      40.929  27.498  26.778  1.00  0.00     0.198 A 
ATOM     69  F   UNL A   1      41.570  29.483  27.865  1.00  0.00    -0.203 F 
ATOM     70  F   UNL A   1      38.979  24.681  27.956  1.00  0.00    -0.200 F 
ATOM     71  C   UNL A   1      40.276  26.275  26.794  1.00  0.00     0.200 A 
ATOM     72  F   UNL A   1      41.592  27.888  25.680  1.00  0.00    -0.200 F 
ATOM     73  F   UNL A   1      40.322  25.475  25.720  1.00  0.00    -0.200 F 
ENDBRANCH  49  63
BRANCH  50  74
ATOM     74  C   UNL A   1      39.398  33.962  37.015  1.00  0.00     0.064 A 
ATOM     75  C   UNL A   1      39.984  35.236  37.029  1.00  0.00     0.173 A 
ATOM     76  C   UNL A   1      38.700  33.552  38.160  1.00  0.00     0.173 A 
ATOM     77  F   UNL A   1      40.676  35.666  35.965  1.00  0.00    -0.203 F 
ATOM     78  C   UNL A   1      39.896  36.057  38.152  1.00  0.00     0.198 A 
ATOM     79  C   UNL A   1      38.590  34.385  39.272  1.00  0.00     0.198 A 
ATOM     80  F   UNL A   1      38.115  32.346  38.195  1.00  0.00    -0.203 F 
ATOM     81  F   UNL A   1      40.505  37.250  38.155  1.00  0.00    -0.200 F 
ATOM     82  C   UNL A   1      39.196  35.633  39.271  1.00  0.00     0.200 A 
ATOM     83  F   UNL A   1      37.900  33.977  40.346  1.00  0.00    -0.200 F 
ATOM     84  F   UNL A   1      39.109  36.424  40.349  1.00  0.00    -0.200 F 
ENDBRANCH  50  74
BRANCH  62  85
ATOM     85  C   UNL A   1      43.921  29.000  35.149  1.00  0.00     0.064 A 
ATOM     86  C   UNL A   1      43.880  27.921  36.042  1.00  0.00     0.173 A 
ATOM     87  C   UNL A   1      45.172  29.561  34.848  1.00  0.00     0.173 A 
ATOM     88  F   UNL A   1      42.705  27.361  36.372  1.00  0.00    -0.203 F 
ATOM     89  C   UNL A   1      45.044  27.440  36.635  1.00  0.00     0.198 A 
ATOM     90  C   UNL A   1      46.336  29.057  35.418  1.00  0.00     0.198 A 
ATOM     91  F   UNL A   1      45.264  30.590  33.992  1.00  0.00    -0.203 F 
ATOM     92  F   UNL A   1      44.977  26.441  37.525  1.00  0.00    -0.200 F 
ATOM     93  C   UNL A   1      46.271  28.004  36.318  1.00  0.00     0.200 A 
ATOM     94  F   UNL A   1      47.522  29.594  35.100  1.00  0.00    -0.200 F 
ATOM     95  F   UNL A   1      47.391  27.536  36.885  1.00  0.00    -0.200 F 
ENDBRANCH  62  85
ENDBRANCH  36  37
ENDBRANCH  28  31
ENDBRANCH  26  27
ENDBRANCH  25  26
ENDBRANCH   1  25
TORSDOF 14
ENDMDL
MODEL 2
REMARK VINA RESULT:     -12.9      1.244      7.299
REMARK SMILES C[C@@H]1CCC[C@@H](N(C)C(=O)N2CCC(CC(=O)NCCCCNC(=O)c3ccc(-c4c5nc(c(-c6c(F)c(F)c(F)c(F)c6F)c6ccc([nH]6)c(-c6c(F)c(F)c(F)c(F)c6F)c6nc(c(-c7c(F)c(F)c(F)c(F)c7F)c7ccc4[nH]7)C=C6)C=C5)cc3)CC2)C1
REMARK SMILES IDX 20 1 19 2 18 3 16 4 17 5 15 7 14 8 9 9 10 10 11 11 12 12
REMARK SMILES IDX 90 13 13 14 89 15 7 16 8 17 6 18 1 19 2 20 3 21 91 22 4 23
REMARK SMILES IDX 5 24 21 25 22 26 23 27 24 28 25 30 26 31 27 32 88 33 28 34
REMARK SMILES IDX 87 35 29 36 30 37 31 38 81 39 32 40 86 41 80 42 82 43 33 44
REMARK SMILES IDX 85 45 79 46 78 47 34 49 66 50 46 51 65 52 47 53 50 54 64 55
REMARK SMILES IDX 83 56 48 57 49 58 63 60 84 61 51 62 35 63 36 64 44 65 37 66
REMARK SMILES IDX 38 67 42 68 45 69 39 70 40 71 43 72 41 73 67 74 68 75 76 76
REMARK SMILES IDX 69 77 70 78 74 79 77 80 71 81 72 82 75 83 73 84 52 85 53 86
REMARK SMILES IDX 61 87 54 88 55 89 59 90 62 91 56 92 57 93 60 94 58 95
REMARK H PARENT 18 6 23 29 82 48 50 59
REMARK Flexibility Score: inf
ROOT
ATOM      1  C   UNL A   1      31.054  31.377  25.641  1.00  0.00     0.023 C 
ENDROOT
BRANCH   1   2
ATOM      2  C   UNL A   1      31.147  29.983  25.011  1.00  0.00     0.116 C 
BRANCH   2   3
ATOM      3  N   UNL A   1      30.740  30.001  23.615  1.00  0.00    -0.356 N 
ATOM      4  C   UNL A   1      30.103  29.058  22.863  1.00  0.00     0.220 C 
ATOM      5  O   UNL A   1      29.946  29.287  21.662  1.00  0.00    -0.275 OA
ATOM      6  H   UNL A   1      30.960  30.832  23.134  1.00  0.00     0.163 HD
BRANCH   4   7
ATOM      7  C   UNL A   1      29.600  27.758  23.479  1.00  0.00     0.103 C 
BRANCH   7   8
ATOM      8  C   UNL A   1      30.543  26.554  23.262  1.00  0.00     0.002 C 
ATOM      9  C   UNL A   1      33.217  24.798  25.642  1.00  0.00     0.319 C 
ATOM     10  O   UNL A   1      33.407  25.814  26.305  1.00  0.00    -0.248 OA
ATOM     11  N   UNL A   1      32.620  24.851  24.395  1.00  0.00    -0.325 N 
ATOM     12  C   UNL A   1      33.019  25.869  23.459  1.00  0.00     0.121 C 
ATOM     13  C   UNL A   1      31.286  24.302  24.197  1.00  0.00     0.121 C 
ATOM     14  C   UNL A   1      32.002  26.986  23.393  1.00  0.00     0.026 C 
ATOM     15  C   UNL A   1      30.231  25.415  24.249  1.00  0.00     0.026 C 
BRANCH   9  16
ATOM     16  N   UNL A   1      33.594  23.522  26.040  1.00  0.00    -0.325 N 
ATOM     17  C   UNL A   1      32.880  22.809  27.093  1.00  0.00     0.149 C 
BRANCH  16  18
ATOM     18  C   UNL A   1      34.683  22.790  25.380  1.00  0.00     0.086 C 
ATOM     19  C   UNL A   1      36.729  22.838  22.956  1.00  0.00     0.008 C 
ATOM     20  C   UNL A   1      37.056  22.801  24.453  1.00  0.00    -0.012 C 
ATOM     21  C   UNL A   1      37.227  21.359  24.962  1.00  0.00     0.003 C 
ATOM     22  C   UNL A   1      36.007  23.563  25.283  1.00  0.00     0.028 C 
ATOM     23  C   UNL A   1      35.906  20.609  25.148  1.00  0.00     0.002 C 
ATOM     24  C   UNL A   1      34.909  21.403  25.992  1.00  0.00     0.025 C 
ENDBRANCH  16  18
ENDBRANCH   9  16
ENDBRANCH   7   8
ENDBRANCH   4   7
ENDBRANCH   2   3
ENDBRANCH   1   2
BRANCH   1  25
ATOM     25  C   UNL A   1      31.630  31.515  27.037  1.00  0.00     0.023 C 
BRANCH  25  26
ATOM     26  C   UNL A   1      32.820  32.443  27.128  1.00  0.00     0.116 C 
BRANCH  26  27
ATOM     27  N   UNL A   1      32.478  33.805  27.507  1.00  0.00    -0.352 N 
ATOM     28  C   UNL A   1      33.063  34.596  28.475  1.00  0.00     0.251 C 
ATOM     29  H   UNL A   1      31.733  34.214  27.010  1.00  0.00     0.163 HD
ATOM     30  O   UNL A   1      32.612  35.699  28.744  1.00  0.00    -0.269 OA
BRANCH  28  31
ATOM     31  C   UNL A   1      34.220  34.059  29.218  1.00  0.00     0.039 A 
ATOM     32  C   UNL A   1      34.001  33.107  30.214  1.00  0.00     0.014 A 
ATOM     33  C   UNL A   1      35.518  34.435  28.869  1.00  0.00     0.014 A 
ATOM     34  C   UNL A   1      35.095  32.478  30.810  1.00  0.00     0.010 A 
ATOM     35  C   UNL A   1      36.596  33.722  29.367  1.00  0.00     0.010 A 
ATOM     36  C   UNL A   1      36.398  32.753  30.361  1.00  0.00    -0.014 A 
BRANCH  36  37
ATOM     37  C   UNL A   1      37.576  32.076  30.951  1.00  0.00     0.031 A 
ATOM     38  C   UNL A   1      38.032  32.457  32.333  1.00  0.00     0.074 A 
ATOM     39  C   UNL A   1      38.267  31.174  30.227  1.00  0.00     0.049 A 
ATOM     40  N   UNL A   1      39.064  32.026  33.014  1.00  0.00    -0.248 NA
ATOM     41  C   UNL A   1      37.249  33.491  33.030  1.00  0.00     0.031 C 
ATOM     42  C   UNL A   1      37.966  30.784  28.847  1.00  0.00     0.029 A 
ATOM     43  N   UNL A   1      39.368  30.424  30.551  1.00  0.00    -0.354 N 
ATOM     44  C   UNL A   1      39.063  32.755  34.196  1.00  0.00     0.074 A 
ATOM     45  C   UNL A   1      37.978  33.705  34.112  1.00  0.00     0.031 C 
ATOM     46  C   UNL A   1      38.836  29.838  28.459  1.00  0.00     0.029 A 
ATOM     47  C   UNL A   1      39.771  29.576  29.549  1.00  0.00     0.049 A 
ATOM     48  H   UNL A   1      39.826  30.487  31.421  1.00  0.00     0.167 HD
ATOM     49  C   UNL A   1      39.870  32.618  35.274  1.00  0.00     0.037 A 
ATOM     50  C   UNL A   1      40.776  28.682  29.523  1.00  0.00     0.037 A 
ATOM     51  C   UNL A   1      40.914  31.635  35.369  1.00  0.00     0.049 A 
ATOM     52  C   UNL A   1      41.626  28.510  30.752  1.00  0.00     0.074 A 
ATOM     53  C   UNL A   1      41.749  31.361  36.437  1.00  0.00     0.029 A 
ATOM     54  N   UNL A   1      41.258  30.753  34.354  1.00  0.00    -0.354 N 
ATOM     55  N   UNL A   1      41.568  29.150  31.895  1.00  0.00    -0.248 NA
ATOM     56  C   UNL A   1      42.671  27.478  30.695  1.00  0.00     0.031 C 
ATOM     57  C   UNL A   1      42.621  30.336  36.055  1.00  0.00     0.029 A 
ATOM     58  C   UNL A   1      42.298  29.939  34.766  1.00  0.00     0.049 A 
ATOM     59  H   UNL A   1      40.825  30.714  33.470  1.00  0.00     0.167 HD
ATOM     60  C   UNL A   1      42.542  28.579  32.703  1.00  0.00     0.074 A 
ATOM     61  C   UNL A   1      43.166  27.530  31.923  1.00  0.00     0.031 C 
ATOM     62  C   UNL A   1      42.890  28.892  33.975  1.00  0.00     0.037 A 
BRANCH  49  63
ATOM     63  C   UNL A   1      39.637  33.540  36.435  1.00  0.00     0.064 A 
ATOM     64  C   UNL A   1      38.812  33.175  37.511  1.00  0.00     0.173 A 
ATOM     65  C   UNL A   1      40.256  34.798  36.481  1.00  0.00     0.173 A 
ATOM     66  F   UNL A   1      38.183  31.990  37.507  1.00  0.00    -0.203 F 
ATOM     67  C   UNL A   1      38.587  34.049  38.572  1.00  0.00     0.198 A 
ATOM     68  C   UNL A   1      40.056  35.655  37.560  1.00  0.00     0.198 A 
ATOM     69  F   UNL A   1      41.055  35.197  35.481  1.00  0.00    -0.203 F 
ATOM     70  F   UNL A   1      37.748  33.701  39.557  1.00  0.00    -0.200 F 
ATOM     71  C   UNL A   1      39.214  35.285  38.599  1.00  0.00     0.200 A 
ATOM     72  F   UNL A   1      40.670  36.846  37.591  1.00  0.00    -0.200 F 
ATOM     73  F   UNL A   1      39.001  36.123  39.623  1.00  0.00    -0.200 F 
ENDBRANCH  49  63
BRANCH  50  74
ATOM     74  C   UNL A   1      40.994  27.841  28.316  1.00  0.00     0.064 A 
ATOM     75  C   UNL A   1      41.871  28.255  27.302  1.00  0.00     0.173 A 
ATOM     76  C   UNL A   1      40.336  26.615  28.148  1.00  0.00     0.173 A 
ATOM     77  F   UNL A   1      42.510  29.429  27.409  1.00  0.00    -0.203 F 
ATOM     78  C   UNL A   1      42.062  27.486  26.157  1.00  0.00     0.198 A 
ATOM     79  C   UNL A   1      40.549  25.833  27.014  1.00  0.00     0.198 A 
ATOM     80  F   UNL A   1      39.494  26.169  29.092  1.00  0.00    -0.203 F 
ATOM     81  F   UNL A   1      42.869  27.928  25.183  1.00  0.00    -0.200 F 
ATOM     82  C   UNL A   1      41.404  26.273  26.015  1.00  0.00     0.200 A 
ATOM     83  F   UNL A   1      39.924  24.655  26.889  1.00  0.00    -0.200 F 
ATOM     84  F   UNL A   1      41.591  25.532  24.915  1.00  0.00    -0.200 F 
ENDBRANCH  50  74
BRANCH  62  85
ATOM     85  C   UNL A   1      43.962  28.062  34.616  1.00  0.00     0.064 A 
ATOM     86  C   UNL A   1      43.667  26.866  35.285  1.00  0.00     0.173 A 
ATOM     87  C   UNL A   1      45.307  28.455  34.529  1.00  0.00     0.173 A 
ATOM     88  F   UNL A   1      42.395  26.455  35.406  1.00  0.00    -0.203 F 
ATOM     89  C   UNL A   1      44.678  26.108  35.870  1.00  0.00     0.198 A 
ATOM     90  C   UNL A   1      46.316  27.679  35.089  1.00  0.00     0.198 A 
ATOM     91  F   UNL A   1      45.640  29.588  33.892  1.00  0.00    -0.203 F 
ATOM     92  F   UNL A   1      44.369  24.994  36.549  1.00  0.00    -0.200 F 
ATOM     93  C   UNL A   1      46.000  26.511  35.767  1.00  0.00     0.200 A 
ATOM     94  F   UNL A   1      47.595  28.063  34.975  1.00  0.00    -0.200 F 
ATOM     95  F   UNL A   1      46.972  25.778  36.327  1.00  0.00    -0.200 F 
ENDBRANCH  62  85
ENDBRANCH  36  37
ENDBRANCH  28  31
ENDBRANCH  26  27
ENDBRANCH  25  26
ENDBRANCH   1  25
TORSDOF 14
ENDMDL
MODEL 3
REMARK VINA RESULT:     -12.8      0.756      7.362
REMARK SMILES C[C@@H]1CCC[C@@H](N(C)C(=O)N2CCC(CC(=O)NCCCCNC(=O)c3ccc(-c4c5nc(c(-c6c(F)c(F)c(F)c(F)c6F)c6ccc([nH]6)c(-c6c(F)c(F)c(F)c(F)c6F)c6nc(c(-c7c(F)c(F)c(F)c(F)c7F)c7ccc4[nH]7)C=C6)C=C5)cc3)CC2)C1
REMARK SMILES IDX 20 1 19 2 18 3 16 4 17 5 15 7 14 8 9 9 10 10 11 11 12 12
REMARK SMILES IDX 90 13 13 14 89 15 7 16 8 17 6 18 1 19 2 20 3 21 91 22 4 23
REMARK SMILES IDX 5 24 21 25 22 26 23 27 24 28 25 30 26 31 27 32 88 33 28 34
REMARK SMILES IDX 87 35 29 36 30 37 31 38 81 39 32 40 86 41 80 42 82 43 33 44
REMARK SMILES IDX 85 45 79 46 78 47 34 49 66 50 46 51 65 52 47 53 50 54 64 55
REMARK SMILES IDX 83 56 48 57 49 58 63 60 84 61 51 62 35 63 36 64 44 65 37 66
REMARK SMILES IDX 38 67 42 68 45 69 39 70 40 71 43 72 41 73 67 74 68 75 76 76
REMARK SMILES IDX 69 77 70 78 74 79 77 80 71 81 72 82 75 83 73 84 52 85 53 86
REMARK SMILES IDX 61 87 54 88 55 89 59 90 62 91 56 92 57 93 60 94 58 95
REMARK H PARENT 18 6 23 29 82 48 50 59
REMARK Flexibility Score: inf
ROOT
ATOM      1  C   UNL A   1      31.546  30.964  26.086  1.00  0.00     0.023 C 
ENDROOT
BRANCH   1   2
ATOM      2  C   UNL A   1      32.824  30.120  26.017  1.00  0.00     0.116 C 
BRANCH   2   3
ATOM      3  N   UNL A   1      33.108  29.693  24.657  1.00  0.00    -0.356 N 
ATOM      4  C   UNL A   1      32.337  29.013  23.760  1.00  0.00     0.220 C 
ATOM      5  O   UNL A   1      32.848  28.693  22.685  1.00  0.00    -0.275 OA
ATOM      6  H   UNL A   1      34.005  29.935  24.329  1.00  0.00     0.163 HD
BRANCH   4   7
ATOM      7  C   UNL A   1      30.889  28.653  24.070  1.00  0.00     0.103 C 
BRANCH   7   8
ATOM      8  C   UNL A   1      30.682  27.181  24.488  1.00  0.00     0.002 C 
ATOM      9  C   UNL A   1      32.720  23.859  23.645  1.00  0.00     0.319 C 
ATOM     10  O   UNL A   1      33.157  24.305  22.587  1.00  0.00    -0.248 OA
ATOM     11  N   UNL A   1      31.629  24.432  24.274  1.00  0.00    -0.325 N 
ATOM     12  C   UNL A   1      30.479  24.812  23.497  1.00  0.00     0.121 C 
ATOM     13  C   UNL A   1      31.799  25.143  25.533  1.00  0.00     0.121 C 
ATOM     14  C   UNL A   1      30.441  26.305  23.261  1.00  0.00     0.026 C 
ATOM     15  C   UNL A   1      31.884  26.655  25.294  1.00  0.00     0.026 C 
BRANCH   9  16
ATOM     16  N   UNL A   1      33.235  22.746  24.298  1.00  0.00    -0.325 N 
ATOM     17  C   UNL A   1      32.430  21.551  24.517  1.00  0.00     0.149 C 
BRANCH  16  18
ATOM     18  C   UNL A   1      34.633  22.681  24.740  1.00  0.00     0.086 C 
ATOM     19  C   UNL A   1      37.192  20.817  24.950  1.00  0.00     0.008 C 
ATOM     20  C   UNL A   1      37.062  22.141  24.189  1.00  0.00    -0.012 C 
ATOM     21  C   UNL A   1      37.491  23.338  25.055  1.00  0.00     0.003 C 
ATOM     22  C   UNL A   1      35.641  22.339  23.631  1.00  0.00     0.028 C 
ATOM     23  C   UNL A   1      36.454  23.744  26.105  1.00  0.00     0.002 C 
ATOM     24  C   UNL A   1      35.067  23.943  25.494  1.00  0.00     0.025 C 
ENDBRANCH  16  18
ENDBRANCH   9  16
ENDBRANCH   7   8
ENDBRANCH   4   7
ENDBRANCH   2   3
ENDBRANCH   1   2
BRANCH   1  25
ATOM     25  C   UNL A   1      31.486  31.989  27.202  1.00  0.00     0.023 C 
BRANCH  25  26
ATOM     26  C   UNL A   1      32.708  32.875  27.297  1.00  0.00     0.116 C 
BRANCH  26  27
ATOM     27  N   UNL A   1      32.412  34.247  27.673  1.00  0.00    -0.352 N 
ATOM     28  C   UNL A   1      33.045  35.031  28.616  1.00  0.00     0.251 C 
ATOM     29  H   UNL A   1      31.664  34.672  27.194  1.00  0.00     0.163 HD
ATOM     30  O   UNL A   1      32.631  36.148  28.888  1.00  0.00    -0.269 OA
BRANCH  28  31
ATOM     31  C   UNL A   1      34.209  34.471  29.331  1.00  0.00     0.039 A 
ATOM     32  C   UNL A   1      33.992  33.677  30.457  1.00  0.00     0.014 A 
ATOM     33  C   UNL A   1      35.499  34.661  28.835  1.00  0.00     0.014 A 
ATOM     34  C   UNL A   1      35.070  33.014  31.044  1.00  0.00     0.010 A 
ATOM     35  C   UNL A   1      36.545  33.905  29.338  1.00  0.00     0.010 A 
ATOM     36  C   UNL A   1      36.348  33.092  30.463  1.00  0.00    -0.014 A 
BRANCH  36  37
ATOM     37  C   UNL A   1      37.505  32.371  31.043  1.00  0.00     0.031 A 
ATOM     38  C   UNL A   1      37.985  32.734  32.422  1.00  0.00     0.074 A 
ATOM     39  C   UNL A   1      38.156  31.446  30.313  1.00  0.00     0.049 A 
ATOM     40  N   UNL A   1      39.006  32.265  33.094  1.00  0.00    -0.248 NA
ATOM     41  C   UNL A   1      37.245  33.795  33.125  1.00  0.00     0.031 C 
ATOM     42  C   UNL A   1      37.831  31.069  28.935  1.00  0.00     0.029 A 
ATOM     43  N   UNL A   1      39.232  30.655  30.628  1.00  0.00    -0.354 N 
ATOM     44  C   UNL A   1      39.040  32.992  34.276  1.00  0.00     0.074 A 
ATOM     45  C   UNL A   1      37.990  33.981  34.202  1.00  0.00     0.031 C 
ATOM     46  C   UNL A   1      38.663  30.091  28.539  1.00  0.00     0.029 A 
ATOM     47  C   UNL A   1      39.596  29.795  29.621  1.00  0.00     0.049 A 
ATOM     48  H   UNL A   1      39.699  30.701  31.493  1.00  0.00     0.167 HD
ATOM     49  C   UNL A   1      39.850  32.824  35.348  1.00  0.00     0.037 A 
ATOM     50  C   UNL A   1      40.567  28.865  29.587  1.00  0.00     0.037 A 
ATOM     51  C   UNL A   1      40.858  31.804  35.435  1.00  0.00     0.049 A 
ATOM     52  C   UNL A   1      41.420  28.660  30.810  1.00  0.00     0.074 A 
ATOM     53  C   UNL A   1      41.691  31.498  36.496  1.00  0.00     0.029 A 
ATOM     54  N   UNL A   1      41.162  30.912  34.416  1.00  0.00    -0.354 N 
ATOM     55  N   UNL A   1      41.394  29.301  31.954  1.00  0.00    -0.248 NA
ATOM     56  C   UNL A   1      42.426  27.591  30.743  1.00  0.00     0.031 C 
ATOM     57  C   UNL A   1      42.523  30.442  36.106  1.00  0.00     0.029 A 
ATOM     58  C   UNL A   1      42.175  30.060  34.820  1.00  0.00     0.049 A 
ATOM     59  H   UNL A   1      40.721  30.889  33.535  1.00  0.00     0.167 HD
ATOM     60  C   UNL A   1      42.354  28.693  32.753  1.00  0.00     0.074 A 
ATOM     61  C   UNL A   1      42.933  27.624  31.967  1.00  0.00     0.031 C 
ATOM     62  C   UNL A   1      42.722  28.992  34.023  1.00  0.00     0.037 A 
BRANCH  49  63
ATOM     63  C   UNL A   1      39.660  33.753  36.512  1.00  0.00     0.064 A 
ATOM     64  C   UNL A   1      40.321  34.990  36.582  1.00  0.00     0.173 A 
ATOM     65  C   UNL A   1      38.798  33.411  37.563  1.00  0.00     0.173 A 
ATOM     66  F   UNL A   1      41.170  35.358  35.610  1.00  0.00    -0.203 F 
ATOM     67  C   UNL A   1      40.152  35.833  37.677  1.00  0.00     0.198 A 
ATOM     68  C   UNL A   1      38.605  34.272  38.641  1.00  0.00     0.198 A 
ATOM     69  F   UNL A   1      38.141  32.243  37.547  1.00  0.00    -0.203 F 
ATOM     70  F   UNL A   1      40.840  36.981  37.749  1.00  0.00    -0.200 F 
ATOM     71  C   UNL A   1      39.290  35.477  38.702  1.00  0.00     0.200 A 
ATOM     72  F   UNL A   1      37.764  33.931  39.627  1.00  0.00    -0.200 F 
ATOM     73  F   UNL A   1      39.125  36.291  39.754  1.00  0.00    -0.200 F 
ENDBRANCH  49  63
BRANCH  50  74
ATOM     74  C   UNL A   1      40.746  28.018  28.378  1.00  0.00     0.064 A 
ATOM     75  C   UNL A   1      41.548  28.450  27.311  1.00  0.00     0.173 A 
ATOM     76  C   UNL A   1      40.123  26.768  28.260  1.00  0.00     0.173 A 
ATOM     77  F   UNL A   1      42.150  29.646  27.370  1.00  0.00    -0.203 F 
ATOM     78  C   UNL A   1      41.700  27.674  26.164  1.00  0.00     0.198 A 
ATOM     79  C   UNL A   1      40.297  25.980  27.123  1.00  0.00     0.198 A 
ATOM     80  F   UNL A   1      39.353  26.304  29.256  1.00  0.00    -0.203 F 
ATOM     81  F   UNL A   1      42.434  28.133  25.141  1.00  0.00    -0.200 F 
ATOM     82  C   UNL A   1      41.078  26.438  26.072  1.00  0.00     0.200 A 
ATOM     83  F   UNL A   1      39.708  24.780  27.046  1.00  0.00    -0.200 F 
ATOM     84  F   UNL A   1      41.227  25.691  24.970  1.00  0.00    -0.200 F 
ENDBRANCH  50  74
BRANCH  62  85
ATOM     85  C   UNL A   1      43.768  28.123  34.655  1.00  0.00     0.064 A 
ATOM     86  C   UNL A   1      45.128  28.460  34.618  1.00  0.00     0.173 A 
ATOM     87  C   UNL A   1      43.396  26.953  35.336  1.00  0.00     0.173 A 
ATOM     88  F   UNL A   1      45.534  29.562  33.968  1.00  0.00    -0.203 F 
ATOM     89  C   UNL A   1      46.082  27.640  35.214  1.00  0.00     0.198 A 
ATOM     90  C   UNL A   1      44.350  26.153  35.956  1.00  0.00     0.198 A 
ATOM     91  F   UNL A   1      42.106  26.592  35.406  1.00  0.00    -0.203 F 
ATOM     92  F   UNL A   1      47.382  27.954  35.123  1.00  0.00    -0.200 F 
ATOM     93  C   UNL A   1      45.693  26.492  35.887  1.00  0.00     0.200 A 
ATOM     94  F   UNL A   1      43.970  25.052  36.618  1.00  0.00    -0.200 F 
ATOM     95  F   UNL A   1      46.613  25.707  36.464  1.00  0.00    -0.200 F 
ENDBRANCH  62  85
ENDBRANCH  36  37
ENDBRANCH  28  31
ENDBRANCH  26  27
ENDBRANCH  25  26
ENDBRANCH   1  25
TORSDOF 14
ENDMDL
