MODEL 1
REMARK VINA RESULT:     -12.2      0.000      0.000
REMARK SMILES O=C(NCCCCNC(=O)c1cc(-c2ccc(F)c(C(F)(F)F)c2)cnc1O)c1ccc(-c2c3nc(c(-c4c(F)c(F)c(F)c(F)c4F)c4ccc([nH]4)c(-c4c(F)c(F)c(F)c(F)c4F)c4nc(c(-c5c(F)c(F)c(F)c(F)c5F)c5ccc2[nH]5)C=C4)C=C3)cc1
REMARK SMILES IDX 5 1 4 2 3 3 1 4 2 5 29 7 30 8 91 9 31 10 90 11 32 12 33 13
REMARK SMILES IDX 34 14 84 15 35 16 89 17 83 18 85 19 36 20 88 21 82 22 81 23
REMARK SMILES IDX 37 25 69 26 49 27 68 28 50 29 53 30 67 31 86 32 51 33 52 34
REMARK SMILES IDX 66 36 87 37 54 38 38 39 39 40 47 41 40 42 41 43 45 44 48 45
REMARK SMILES IDX 42 46 43 47 46 48 44 49 70 50 71 51 79 52 72 53 73 54 77 55
REMARK SMILES IDX 80 56 74 57 75 58 78 59 76 60 55 61 56 62 64 63 57 64 58 65
REMARK SMILES IDX 62 66 65 67 59 68 60 69 63 70 61 71 6 72 7 73 8 74 9 75
REMARK SMILES IDX 10 77 11 78 12 79 27 80 13 81 26 82 25 83 28 84 14 86 15 87
REMARK SMILES IDX 24 88 16 89 19 90 17 91 18 92 20 93 21 94 22 95 23 96
REMARK H PARENT 3 6 85 24 53 35 8 76 28 85
REMARK Flexibility Score: inf
ROOT
ATOM      1  C   UNL A   1      32.433  28.428  25.307  1.00  0.00     0.023 C 
ENDROOT
BRANCH   1   2
ATOM      2  C   UNL A   1      33.590  29.300  25.780  1.00  0.00     0.116 C 
BRANCH   2   3
ATOM      3  N   UNL A   1      33.164  30.617  26.222  1.00  0.00    -0.352 N 
ATOM      4  O   UNL A   1      33.087  32.455  27.514  1.00  0.00    -0.269 OA
ATOM      5  C   UNL A   1      33.686  31.431  27.196  1.00  0.00     0.251 C 
ATOM      6  H   UNL A   1      32.381  30.982  25.749  1.00  0.00     0.163 HD
BRANCH   5   7
ATOM      7  C   UNL A   1      34.950  31.080  27.883  1.00  0.00     0.039 A 
ATOM      8  C   UNL A   1      35.068  29.808  28.451  1.00  0.00     0.014 A 
ATOM      9  C   UNL A   1      35.995  31.999  28.014  1.00  0.00     0.014 A 
ATOM     10  C   UNL A   1      36.242  29.447  29.114  1.00  0.00     0.010 A 
ATOM     11  C   UNL A   1      37.197  31.609  28.604  1.00  0.00     0.010 A 
ATOM     12  C   UNL A   1      37.326  30.338  29.180  1.00  0.00    -0.014 A 
BRANCH  12  13
ATOM     13  C   UNL A   1      38.574  29.965  29.896  1.00  0.00     0.031 A 
ATOM     14  C   UNL A   1      38.834  30.497  31.280  1.00  0.00     0.074 A 
ATOM     15  C   UNL A   1      39.477  29.160  29.304  1.00  0.00     0.049 A 
ATOM     16  N   UNL A   1      39.865  30.299  32.063  1.00  0.00    -0.248 NA
ATOM     17  C   UNL A   1      37.810  31.387  31.856  1.00  0.00     0.031 C 
ATOM     18  C   UNL A   1      39.359  28.606  27.954  1.00  0.00     0.029 A 
ATOM     19  N   UNL A   1      40.672  28.660  29.763  1.00  0.00    -0.354 N 
ATOM     20  C   UNL A   1      39.616  31.040  33.211  1.00  0.00     0.074 A 
ATOM     21  C   UNL A   1      38.370  31.741  33.005  1.00  0.00     0.031 C 
ATOM     22  C   UNL A   1      40.413  27.813  27.710  1.00  0.00     0.029 A 
ATOM     23  C   UNL A   1      41.301  27.827  28.870  1.00  0.00     0.049 A 
ATOM     24  H   UNL A   1      41.041  28.877  30.649  1.00  0.00     0.167 HD
ATOM     25  C   UNL A   1      40.345  31.102  34.349  1.00  0.00     0.037 A 
ATOM     26  C   UNL A   1      42.460  27.147  28.977  1.00  0.00     0.037 A 
ATOM     27  C   UNL A   1      41.562  30.371  34.573  1.00  0.00     0.049 A 
ATOM     28  C   UNL A   1      43.256  27.242  30.252  1.00  0.00     0.074 A 
ATOM     29  C   UNL A   1      42.346  30.334  35.713  1.00  0.00     0.029 A 
ATOM     30  N   UNL A   1      42.166  29.541  33.642  1.00  0.00    -0.354 N 
ATOM     31  N   UNL A   1      42.981  27.906  31.348  1.00  0.00    -0.248 NA
ATOM     32  C   UNL A   1      44.519  26.492  30.308  1.00  0.00     0.031 C 
ATOM     33  C   UNL A   1      43.446  29.512  35.459  1.00  0.00     0.029 A 
ATOM     34  C   UNL A   1      43.322  28.999  34.177  1.00  0.00     0.049 A 
ATOM     35  H   UNL A   1      41.824  29.363  32.736  1.00  0.00     0.167 HD
ATOM     36  C   UNL A   1      44.017  27.631  32.231  1.00  0.00     0.074 A 
ATOM     37  C   UNL A   1      44.923  26.732  31.548  1.00  0.00     0.031 C 
ATOM     38  C   UNL A   1      44.199  28.085  33.493  1.00  0.00     0.037 A 
BRANCH  25  39
ATOM     39  C   UNL A   1      39.836  31.967  35.465  1.00  0.00     0.064 A 
ATOM     40  C   UNL A   1      40.249  33.301  35.599  1.00  0.00     0.173 A 
ATOM     41  C   UNL A   1      38.860  31.489  36.351  1.00  0.00     0.173 A 
ATOM     42  F   UNL A   1      41.188  33.802  34.783  1.00  0.00    -0.203 F 
ATOM     43  C   UNL A   1      39.709  34.122  36.584  1.00  0.00     0.198 A 
ATOM     44  C   UNL A   1      38.301  32.321  37.317  1.00  0.00     0.198 A 
ATOM     45  F   UNL A   1      38.427  30.222  36.260  1.00  0.00    -0.203 F 
ATOM     46  F   UNL A   1      40.137  35.386  36.710  1.00  0.00    -0.200 F 
ATOM     47  C   UNL A   1      38.727  33.635  37.435  1.00  0.00     0.200 A 
ATOM     48  F   UNL A   1      37.343  31.854  38.129  1.00  0.00    -0.200 F 
ATOM     49  F   UNL A   1      38.192  34.434  38.368  1.00  0.00    -0.200 F 
ENDBRANCH  25  39
BRANCH  26  50
ATOM     50  C   UNL A   1      42.917  26.280  27.859  1.00  0.00     0.064 A 
ATOM     51  C   UNL A   1      43.723  26.797  26.834  1.00  0.00     0.173 A 
ATOM     52  C   UNL A   1      42.566  24.924  27.790  1.00  0.00     0.173 A 
ATOM     53  F   UNL A   1      44.068  28.092  26.843  1.00  0.00    -0.203 F 
ATOM     54  C   UNL A   1      44.148  25.994  25.777  1.00  0.00     0.198 A 
ATOM     55  C   UNL A   1      43.014  24.115  26.747  1.00  0.00     0.198 A 
ATOM     56  F   UNL A   1      41.799  24.380  28.747  1.00  0.00    -0.203 F 
ATOM     57  F   UNL A   1      44.883  26.523  24.790  1.00  0.00    -0.200 F 
ATOM     58  C   UNL A   1      43.798  24.652  25.738  1.00  0.00     0.200 A 
ATOM     59  F   UNL A   1      42.686  22.816  26.721  1.00  0.00    -0.200 F 
ATOM     60  F   UNL A   1      44.213  23.879  24.725  1.00  0.00    -0.200 F 
ENDBRANCH  26  50
BRANCH  38  61
ATOM     61  C   UNL A   1      45.402  27.603  34.248  1.00  0.00     0.064 A 
ATOM     62  C   UNL A   1      45.370  26.414  34.989  1.00  0.00     0.173 A 
ATOM     63  C   UNL A   1      46.626  28.281  34.139  1.00  0.00     0.173 A 
ATOM     64  F   UNL A   1      44.222  25.737  35.130  1.00  0.00    -0.203 F 
ATOM     65  C   UNL A   1      46.522  25.921  35.598  1.00  0.00     0.198 A 
ATOM     66  C   UNL A   1      47.781  27.771  34.725  1.00  0.00     0.198 A 
ATOM     67  F   UNL A   1      46.709  29.417  33.431  1.00  0.00    -0.203 F 
ATOM     68  F   UNL A   1      46.467  24.792  36.318  1.00  0.00    -0.200 F 
ATOM     69  C   UNL A   1      47.727  26.593  35.454  1.00  0.00     0.200 A 
ATOM     70  F   UNL A   1      48.947  28.412  34.571  1.00  0.00    -0.200 F 
ATOM     71  F   UNL A   1      48.840  26.103  36.019  1.00  0.00    -0.200 F 
ENDBRANCH  38  61
ENDBRANCH  12  13
ENDBRANCH   5   7
ENDBRANCH   2   3
ENDBRANCH   1   2
BRANCH   1  72
ATOM     72  C   UNL A   1      31.845  27.483  26.357  1.00  0.00     0.023 C 
BRANCH  72  73
ATOM     73  C   UNL A   1      30.952  26.372  25.812  1.00  0.00     0.116 C 
BRANCH  73  74
ATOM     74  N   UNL A   1      30.777  25.283  26.766  1.00  0.00    -0.352 N 
ATOM     75  C   UNL A   1      31.191  23.981  26.662  1.00  0.00     0.256 C 
ATOM     76  H   UNL A   1      30.297  25.512  27.594  1.00  0.00     0.163 HD
ATOM     77  O   UNL A   1      30.820  23.141  27.483  1.00  0.00    -0.269 OA
BRANCH  75  78
ATOM     78  C   UNL A   1      32.097  23.585  25.581  1.00  0.00     0.102 A 
ATOM     79  C   UNL A   1      33.444  23.350  25.877  1.00  0.00     0.029 A 
ATOM     80  C   UNL A   1      31.665  23.447  24.266  1.00  0.00     0.223 A 
ATOM     81  C   UNL A   1      34.311  22.933  24.863  1.00  0.00     0.001 A 
ATOM     82  N   UNL A   1      32.462  23.018  23.272  1.00  0.00    -0.221 NA
ATOM     83  C   UNL A   1      33.754  22.770  23.591  1.00  0.00     0.124 A 
BRANCH  80  84
ATOM     84  O   UNL A   1      30.391  23.719  23.862  1.00  0.00    -0.493 OA
ATOM     85  H   UNL A   1      30.241  24.329  23.167  1.00  0.00     0.295 HD
ENDBRANCH  80  84
BRANCH  81  86
ATOM     86  C   UNL A   1      35.735  22.680  25.097  1.00  0.00    -0.016 A 
ATOM     87  C   UNL A   1      36.303  21.447  24.737  1.00  0.00     0.012 A 
ATOM     88  C   UNL A   1      36.554  23.634  25.727  1.00  0.00     0.025 A 
ATOM     89  C   UNL A   1      37.640  21.165  25.016  1.00  0.00     0.040 A 
ATOM     90  C   UNL A   1      37.903  23.356  26.018  1.00  0.00     0.092 A 
ATOM     91  C   UNL A   1      38.423  22.115  25.660  1.00  0.00     0.135 A 
ATOM     92  F   UNL A   1      39.695  21.814  25.947  1.00  0.00    -0.206 F 
BRANCH  90  93
ATOM     93  C   UNL A   1      38.779  24.333  26.740  1.00  0.00     0.419 C 
ATOM     94  F   UNL A   1      38.114  25.465  27.101  1.00  0.00    -0.166 F 
ATOM     95  F   UNL A   1      39.327  23.830  27.879  1.00  0.00    -0.166 F 
ATOM     96  F   UNL A   1      39.835  24.756  25.984  1.00  0.00    -0.166 F 
ENDBRANCH  90  93
ENDBRANCH  81  86
ENDBRANCH  75  78
ENDBRANCH  73  74
ENDBRANCH  72  73
ENDBRANCH   1  72
TORSDOF 14
ENDMDL
MODEL 2
REMARK VINA RESULT:     -12.2      1.133      2.172
REMARK SMILES O=C(NCCCCNC(=O)c1cc(-c2ccc(F)c(C(F)(F)F)c2)cnc1O)c1ccc(-c2c3nc(c(-c4c(F)c(F)c(F)c(F)c4F)c4ccc([nH]4)c(-c4c(F)c(F)c(F)c(F)c4F)c4nc(c(-c5c(F)c(F)c(F)c(F)c5F)c5ccc2[nH]5)C=C4)C=C3)cc1
REMARK SMILES IDX 5 1 4 2 3 3 1 4 2 5 29 7 30 8 91 9 31 10 90 11 32 12 33 13
REMARK SMILES IDX 34 14 84 15 35 16 89 17 83 18 85 19 36 20 88 21 82 22 81 23
REMARK SMILES IDX 37 25 69 26 49 27 68 28 50 29 53 30 67 31 86 32 51 33 52 34
REMARK SMILES IDX 66 36 87 37 54 38 38 39 39 40 47 41 40 42 41 43 45 44 48 45
REMARK SMILES IDX 42 46 43 47 46 48 44 49 70 50 71 51 79 52 72 53 73 54 77 55
REMARK SMILES IDX 80 56 74 57 75 58 78 59 76 60 55 61 56 62 64 63 57 64 58 65
REMARK SMILES IDX 62 66 65 67 59 68 60 69 63 70 61 71 6 72 7 73 8 74 9 75
REMARK SMILES IDX 10 77 11 78 12 79 27 80 13 81 26 82 25 83 28 84 14 86 15 87
REMARK SMILES IDX 24 88 16 89 19 90 17 91 18 92 20 93 21 94 22 95 23 96
REMARK H PARENT 3 6 85 24 53 35 8 76 28 85
REMARK Flexibility Score: inf
ROOT
ATOM      1  C   UNL A   1      33.383  27.605  25.835  1.00  0.00     0.023 C 
ENDROOT
BRANCH   1   2
ATOM      2  C   UNL A   1      33.957  28.930  25.344  1.00  0.00     0.116 C 
BRANCH   2   3
ATOM      3  N   UNL A   1      33.294  30.084  25.924  1.00  0.00    -0.352 N 
ATOM      4  O   UNL A   1      32.852  31.688  27.436  1.00  0.00    -0.269 OA
ATOM      5  C   UNL A   1      33.629  30.831  27.027  1.00  0.00     0.251 C 
ATOM      6  H   UNL A   1      32.480  30.377  25.455  1.00  0.00     0.163 HD
BRANCH   5   7
ATOM      7  C   UNL A   1      34.906  30.601  27.741  1.00  0.00     0.039 A 
ATOM      8  C   UNL A   1      35.869  31.615  27.725  1.00  0.00     0.014 A 
ATOM      9  C   UNL A   1      35.183  29.390  28.381  1.00  0.00     0.014 A 
ATOM     10  C   UNL A   1      37.088  31.429  28.380  1.00  0.00     0.010 A 
ATOM     11  C   UNL A   1      36.366  29.237  29.104  1.00  0.00     0.010 A 
ATOM     12  C   UNL A   1      37.340  30.246  29.092  1.00  0.00    -0.014 A 
BRANCH  12  13
ATOM     13  C   UNL A   1      38.641  30.035  29.780  1.00  0.00     0.031 A 
ATOM     14  C   UNL A   1      38.868  30.610  31.152  1.00  0.00     0.074 A 
ATOM     15  C   UNL A   1      39.620  29.336  29.172  1.00  0.00     0.049 A 
ATOM     16  N   UNL A   1      39.935  30.547  31.910  1.00  0.00    -0.248 NA
ATOM     17  C   UNL A   1      37.760  31.377  31.746  1.00  0.00     0.031 C 
ATOM     18  C   UNL A   1      39.536  28.756  27.831  1.00  0.00     0.029 A 
ATOM     19  N   UNL A   1      40.877  28.989  29.605  1.00  0.00    -0.354 N 
ATOM     20  C   UNL A   1      39.627  31.266  33.057  1.00  0.00     0.074 A 
ATOM     21  C   UNL A   1      38.300  31.810  32.877  1.00  0.00     0.031 C 
ATOM     22  C   UNL A   1      40.672  28.092  27.567  1.00  0.00     0.029 A 
ATOM     23  C   UNL A   1      41.580  28.227  28.704  1.00  0.00     0.049 A 
ATOM     24  H   UNL A   1      41.239  29.260  30.480  1.00  0.00     0.167 HD
ATOM     25  C   UNL A   1      40.370  31.429  34.176  1.00  0.00     0.037 A 
ATOM     26  C   UNL A   1      42.814  27.692  28.787  1.00  0.00     0.037 A 
ATOM     27  C   UNL A   1      41.671  30.852  34.375  1.00  0.00     0.049 A 
ATOM     28  C   UNL A   1      43.623  27.898  30.041  1.00  0.00     0.074 A 
ATOM     29  C   UNL A   1      42.481  30.923  35.495  1.00  0.00     0.029 A 
ATOM     30  N   UNL A   1      42.348  30.089  33.437  1.00  0.00    -0.354 N 
ATOM     31  N   UNL A   1      43.298  28.537  31.137  1.00  0.00    -0.248 NA
ATOM     32  C   UNL A   1      44.969  27.305  30.071  1.00  0.00     0.031 C 
ATOM     33  C   UNL A   1      43.666  30.236  35.221  1.00  0.00     0.029 A 
ATOM     34  C   UNL A   1      43.574  29.697  33.947  1.00  0.00     0.049 A 
ATOM     35  H   UNL A   1      42.008  29.861  32.541  1.00  0.00     0.167 HD
ATOM     36  C   UNL A   1      44.381  28.398  31.996  1.00  0.00     0.074 A 
ATOM     37  C   UNL A   1      45.371  27.607  31.298  1.00  0.00     0.031 C 
ATOM     38  C   UNL A   1      44.538  28.887  33.249  1.00  0.00     0.037 A 
BRANCH  25  39
ATOM     39  C   UNL A   1      39.788  32.240  35.296  1.00  0.00     0.064 A 
ATOM     40  C   UNL A   1      39.970  33.629  35.361  1.00  0.00     0.173 A 
ATOM     41  C   UNL A   1      38.967  31.639  36.261  1.00  0.00     0.173 A 
ATOM     42  F   UNL A   1      40.755  34.250  34.468  1.00  0.00    -0.203 F 
ATOM     43  C   UNL A   1      39.357  34.386  36.354  1.00  0.00     0.198 A 
ATOM     44  C   UNL A   1      38.332  32.403  37.238  1.00  0.00     0.198 A 
ATOM     45  F   UNL A   1      38.756  30.314  36.240  1.00  0.00    -0.203 F 
ATOM     46  F   UNL A   1      39.565  35.709  36.412  1.00  0.00    -0.200 F 
ATOM     47  C   UNL A   1      38.530  33.774  37.285  1.00  0.00     0.200 A 
ATOM     48  F   UNL A   1      37.522  31.812  38.126  1.00  0.00    -0.200 F 
ATOM     49  F   UNL A   1      37.921  34.508  38.227  1.00  0.00    -0.200 F 
ENDBRANCH  25  39
BRANCH  26  50
ATOM     50  C   UNL A   1      43.345  26.873  27.666  1.00  0.00     0.064 A 
ATOM     51  C   UNL A   1      43.117  25.490  27.616  1.00  0.00     0.173 A 
ATOM     52  C   UNL A   1      44.082  27.449  26.621  1.00  0.00     0.173 A 
ATOM     53  F   UNL A   1      42.437  24.889  28.602  1.00  0.00    -0.203 F 
ATOM     54  C   UNL A   1      43.620  24.714  26.573  1.00  0.00     0.198 A 
ATOM     55  C   UNL A   1      44.560  26.677  25.564  1.00  0.00     0.198 A 
ATOM     56  F   UNL A   1      44.325  28.769  26.619  1.00  0.00    -0.203 F 
ATOM     57  F   UNL A   1      43.422  23.389  26.572  1.00  0.00    -0.200 F 
ATOM     58  C   UNL A   1      44.335  25.309  25.545  1.00  0.00     0.200 A 
ATOM     59  F   UNL A   1      45.238  27.258  24.565  1.00  0.00    -0.200 F 
ATOM     60  F   UNL A   1      44.811  24.563  24.538  1.00  0.00    -0.200 F 
ENDBRANCH  26  50
BRANCH  38  61
ATOM     61  C   UNL A   1      45.807  28.561  33.977  1.00  0.00     0.064 A 
ATOM     62  C   UNL A   1      46.916  29.417  33.931  1.00  0.00     0.173 A 
ATOM     63  C   UNL A   1      45.875  27.437  34.815  1.00  0.00     0.173 A 
ATOM     64  F   UNL A   1      46.902  30.498  33.137  1.00  0.00    -0.203 F 
ATOM     65  C   UNL A   1      48.051  29.158  34.697  1.00  0.00     0.198 A 
ATOM     66  C   UNL A   1      46.999  27.196  35.599  1.00  0.00     0.198 A 
ATOM     67  F   UNL A   1      44.835  26.594  34.901  1.00  0.00    -0.203 F 
ATOM     68  F   UNL A   1      49.107  29.979  34.624  1.00  0.00    -0.200 F 
ATOM     69  C   UNL A   1      48.086  28.056  35.539  1.00  0.00     0.200 A 
ATOM     70  F   UNL A   1      47.025  26.141  36.425  1.00  0.00    -0.200 F 
ATOM     71  F   UNL A   1      49.168  27.824  36.294  1.00  0.00    -0.200 F 
ENDBRANCH  38  61
ENDBRANCH  12  13
ENDBRANCH   5   7
ENDBRANCH   2   3
ENDBRANCH   1   2
BRANCH   1  72
ATOM     72  C   UNL A   1      31.905  27.369  25.522  1.00  0.00     0.023 C 
BRANCH  72  73
ATOM     73  C   UNL A   1      31.616  26.237  24.539  1.00  0.00     0.116 C 
BRANCH  73  74
ATOM     74  N   UNL A   1      32.253  26.451  23.244  1.00  0.00    -0.352 N 
ATOM     75  C   UNL A   1      33.219  25.697  22.632  1.00  0.00     0.256 C 
ATOM     76  H   UNL A   1      31.949  27.241  22.743  1.00  0.00     0.163 HD
ATOM     77  O   UNL A   1      33.774  26.104  21.610  1.00  0.00    -0.269 OA
BRANCH  75  78
ATOM     78  C   UNL A   1      33.586  24.389  23.182  1.00  0.00     0.102 A 
ATOM     79  C   UNL A   1      34.863  24.216  23.727  1.00  0.00     0.029 A 
ATOM     80  C   UNL A   1      32.710  23.309  23.168  1.00  0.00     0.223 A 
ATOM     81  C   UNL A   1      35.211  22.985  24.291  1.00  0.00     0.001 A 
ATOM     82  N   UNL A   1      32.999  22.121  23.728  1.00  0.00    -0.221 NA
ATOM     83  C   UNL A   1      34.230  21.989  24.275  1.00  0.00     0.124 A 
BRANCH  80  84
ATOM     84  O   UNL A   1      31.471  23.353  22.599  1.00  0.00    -0.493 OA
ATOM     85  H   UNL A   1      31.179  24.136  22.173  1.00  0.00     0.295 HD
ENDBRANCH  80  84
BRANCH  81  86
ATOM     86  C   UNL A   1      36.533  22.729  24.868  1.00  0.00    -0.016 A 
ATOM     87  C   UNL A   1      37.091  21.441  24.811  1.00  0.00     0.012 A 
ATOM     88  C   UNL A   1      37.250  23.739  25.534  1.00  0.00     0.025 A 
ATOM     89  C   UNL A   1      38.317  21.164  25.416  1.00  0.00     0.040 A 
ATOM     90  C   UNL A   1      38.485  23.467  26.152  1.00  0.00     0.092 A 
ATOM     91  C   UNL A   1      38.996  22.174  26.087  1.00  0.00     0.135 A 
ATOM     92  F   UNL A   1      40.156  21.880  26.688  1.00  0.00    -0.206 F 
BRANCH  90  93
ATOM     93  C   UNL A   1      39.240  24.512  26.916  1.00  0.00     0.419 C 
ATOM     94  F   UNL A   1      40.298  25.007  26.217  1.00  0.00    -0.166 F 
ATOM     95  F   UNL A   1      38.477  25.582  27.268  1.00  0.00    -0.166 F 
ATOM     96  F   UNL A   1      39.764  24.038  28.084  1.00  0.00    -0.166 F 
ENDBRANCH  90  93
ENDBRANCH  81  86
ENDBRANCH  75  78
ENDBRANCH  73  74
ENDBRANCH  72  73
ENDBRANCH   1  72
TORSDOF 14
ENDMDL
MODEL 3
REMARK VINA RESULT:     -12.1      4.102      9.335
REMARK SMILES O=C(NCCCCNC(=O)c1cc(-c2ccc(F)c(C(F)(F)F)c2)cnc1O)c1ccc(-c2c3nc(c(-c4c(F)c(F)c(F)c(F)c4F)c4ccc([nH]4)c(-c4c(F)c(F)c(F)c(F)c4F)c4nc(c(-c5c(F)c(F)c(F)c(F)c5F)c5ccc2[nH]5)C=C4)C=C3)cc1
REMARK SMILES IDX 5 1 4 2 3 3 1 4 2 5 29 7 30 8 91 9 31 10 90 11 32 12 33 13
REMARK SMILES IDX 34 14 84 15 35 16 89 17 83 18 85 19 36 20 88 21 82 22 81 23
REMARK SMILES IDX 37 25 69 26 49 27 68 28 50 29 53 30 67 31 86 32 51 33 52 34
REMARK SMILES IDX 66 36 87 37 54 38 38 39 39 40 47 41 40 42 41 43 45 44 48 45
REMARK SMILES IDX 42 46 43 47 46 48 44 49 70 50 71 51 79 52 72 53 73 54 77 55
REMARK SMILES IDX 80 56 74 57 75 58 78 59 76 60 55 61 56 62 64 63 57 64 58 65
REMARK SMILES IDX 62 66 65 67 59 68 60 69 63 70 61 71 6 72 7 73 8 74 9 75
REMARK SMILES IDX 10 77 11 78 12 79 27 80 13 81 26 82 25 83 28 84 14 86 15 87
REMARK SMILES IDX 24 88 16 89 19 90 17 91 18 92 20 93 21 94 22 95 23 96
REMARK H PARENT 3 6 85 24 53 35 8 76 28 85
REMARK Flexibility Score: inf
ROOT
ATOM      1  C   UNL A   1      35.413  22.941  26.565  1.00  0.00     0.023 C 
ENDROOT
BRANCH   1   2
ATOM      2  C   UNL A   1      36.482  22.817  25.484  1.00  0.00     0.116 C 
BRANCH   2   3
ATOM      3  N   UNL A   1      37.356  21.674  25.680  1.00  0.00    -0.352 N 
ATOM      4  O   UNL A   1      39.275  20.559  26.044  1.00  0.00    -0.269 OA
ATOM      5  C   UNL A   1      38.670  21.628  26.077  1.00  0.00     0.251 C 
ATOM      6  H   UNL A   1      36.944  20.799  25.501  1.00  0.00     0.163 HD
BRANCH   5   7
ATOM      7  C   UNL A   1      39.373  22.852  26.524  1.00  0.00     0.039 A 
ATOM      8  C   UNL A   1      39.045  24.067  25.916  1.00  0.00     0.014 A 
ATOM      9  C   UNL A   1      40.376  22.810  27.495  1.00  0.00     0.014 A 
ATOM     10  C   UNL A   1      39.694  25.240  26.306  1.00  0.00     0.010 A 
ATOM     11  C   UNL A   1      40.965  23.993  27.943  1.00  0.00     0.010 A 
ATOM     12  C   UNL A   1      40.647  25.217  27.338  1.00  0.00    -0.014 A 
BRANCH  12  13
ATOM     13  C   UNL A   1      41.352  26.459  27.749  1.00  0.00     0.031 A 
ATOM     14  C   UNL A   1      42.780  26.686  27.331  1.00  0.00     0.074 A 
ATOM     15  C   UNL A   1      40.717  27.377  28.503  1.00  0.00     0.049 A 
ATOM     16  N   UNL A   1      43.570  27.696  27.598  1.00  0.00    -0.248 NA
ATOM     17  C   UNL A   1      43.415  25.631  26.523  1.00  0.00     0.031 C 
ATOM     18  C   UNL A   1      39.346  27.260  29.001  1.00  0.00     0.029 A 
ATOM     19  N   UNL A   1      41.138  28.595  28.980  1.00  0.00    -0.354 N 
ATOM     20  C   UNL A   1      44.786  27.394  27.000  1.00  0.00     0.074 A 
ATOM     21  C   UNL A   1      44.656  26.083  26.407  1.00  0.00     0.031 C 
ATOM     22  C   UNL A   1      39.025  28.375  29.676  1.00  0.00     0.029 A 
ATOM     23  C   UNL A   1      40.177  29.273  29.690  1.00  0.00     0.049 A 
ATOM     24  H   UNL A   1      42.044  28.950  28.825  1.00  0.00     0.167 HD
ATOM     25  C   UNL A   1      45.901  28.157  26.922  1.00  0.00     0.037 A 
ATOM     26  C   UNL A   1      40.218  30.484  30.280  1.00  0.00     0.037 A 
ATOM     27  C   UNL A   1      46.017  29.479  27.473  1.00  0.00     0.049 A 
ATOM     28  C   UNL A   1      41.476  31.308  30.186  1.00  0.00     0.074 A 
ATOM     29  C   UNL A   1      47.092  30.348  27.403  1.00  0.00     0.029 A 
ATOM     30  N   UNL A   1      45.022  30.128  28.186  1.00  0.00    -0.354 N 
ATOM     31  N   UNL A   1      42.600  31.030  29.572  1.00  0.00    -0.248 NA
ATOM     32  C   UNL A   1      41.470  32.614  30.861  1.00  0.00     0.031 C 
ATOM     33  C   UNL A   1      46.762  31.508  28.108  1.00  0.00     0.029 A 
ATOM     34  C   UNL A   1      45.464  31.381  28.576  1.00  0.00     0.049 A 
ATOM     35  H   UNL A   1      44.133  29.753  28.386  1.00  0.00     0.167 HD
ATOM     36  C   UNL A   1      43.421  32.134  29.760  1.00  0.00     0.074 A 
ATOM     37  C   UNL A   1      42.664  33.092  30.538  1.00  0.00     0.031 C 
ATOM     38  C   UNL A   1      44.688  32.332  29.328  1.00  0.00     0.037 A 
BRANCH  25  39
ATOM     39  C   UNL A   1      47.085  27.602  26.186  1.00  0.00     0.064 A 
ATOM     40  C   UNL A   1      47.200  27.726  24.794  1.00  0.00     0.173 A 
ATOM     41  C   UNL A   1      48.154  27.024  26.885  1.00  0.00     0.173 A 
ATOM     42  F   UNL A   1      46.200  28.261  24.078  1.00  0.00    -0.203 F 
ATOM     43  C   UNL A   1      48.340  27.284  24.128  1.00  0.00     0.198 A 
ATOM     44  C   UNL A   1      49.304  26.609  26.220  1.00  0.00     0.198 A 
ATOM     45  F   UNL A   1      48.095  26.888  28.219  1.00  0.00    -0.203 F 
ATOM     46  F   UNL A   1      48.417  27.389  22.794  1.00  0.00    -0.200 F 
ATOM     47  C   UNL A   1      49.395  26.736  24.842  1.00  0.00     0.200 A 
ATOM     48  F   UNL A   1      50.328  26.094  26.913  1.00  0.00    -0.200 F 
ATOM     49  F   UNL A   1      50.501  26.333  24.202  1.00  0.00    -0.200 F 
ENDBRANCH  25  39
BRANCH  26  50
ATOM     50  C   UNL A   1      39.016  31.010  30.977  1.00  0.00     0.064 A 
ATOM     51  C   UNL A   1      38.798  30.738  32.335  1.00  0.00     0.173 A 
ATOM     52  C   UNL A   1      38.065  31.795  30.310  1.00  0.00     0.173 A 
ATOM     53  F   UNL A   1      39.666  29.974  33.013  1.00  0.00    -0.203 F 
ATOM     54  C   UNL A   1      37.667  31.219  32.995  1.00  0.00     0.198 A 
ATOM     55  C   UNL A   1      36.949  32.299  30.977  1.00  0.00     0.198 A 
ATOM     56  F   UNL A   1      38.228  32.088  29.011  1.00  0.00    -0.203 F 
ATOM     57  F   UNL A   1      37.463  30.910  34.282  1.00  0.00    -0.200 F 
ATOM     58  C   UNL A   1      36.748  32.005  32.317  1.00  0.00     0.200 A 
ATOM     59  F   UNL A   1      36.071  33.071  30.321  1.00  0.00    -0.200 F 
ATOM     60  F   UNL A   1      35.666  32.473  32.953  1.00  0.00    -0.200 F 
ENDBRANCH  26  50
BRANCH  38  61
ATOM     61  C   UNL A   1      45.344  33.643  29.647  1.00  0.00     0.064 A 
ATOM     62  C   UNL A   1      46.165  33.794  30.773  1.00  0.00     0.173 A 
ATOM     63  C   UNL A   1      45.235  34.724  28.759  1.00  0.00     0.173 A 
ATOM     64  F   UNL A   1      46.293  32.792  31.655  1.00  0.00    -0.203 F 
ATOM     65  C   UNL A   1      46.854  34.983  31.000  1.00  0.00     0.198 A 
ATOM     66  C   UNL A   1      45.945  35.901  28.975  1.00  0.00     0.198 A 
ATOM     67  F   UNL A   1      44.469  34.624  27.663  1.00  0.00    -0.203 F 
ATOM     68  F   UNL A   1      47.619  35.114  32.092  1.00  0.00    -0.200 F 
ATOM     69  C   UNL A   1      46.753  36.030  30.095  1.00  0.00     0.200 A 
ATOM     70  F   UNL A   1      45.861  36.904  28.091  1.00  0.00    -0.200 F 
ATOM     71  F   UNL A   1      47.437  37.164  30.302  1.00  0.00    -0.200 F 
ENDBRANCH  38  61
ENDBRANCH  12  13
ENDBRANCH   5   7
ENDBRANCH   2   3
ENDBRANCH   1   2
BRANCH   1  72
ATOM     72  C   UNL A   1      34.266  21.932  26.478  1.00  0.00     0.023 C 
BRANCH  72  73
ATOM     73  C   UNL A   1      33.081  22.361  25.617  1.00  0.00     0.116 C 
BRANCH  73  74
ATOM     74  N   UNL A   1      31.840  22.437  26.381  1.00  0.00    -0.352 N 
ATOM     75  C   UNL A   1      31.019  23.516  26.571  1.00  0.00     0.256 C 
ATOM     76  H   UNL A   1      31.554  21.602  26.817  1.00  0.00     0.163 HD
ATOM     77  O   UNL A   1      30.092  23.460  27.381  1.00  0.00    -0.269 OA
BRANCH  75  78
ATOM     78  C   UNL A   1      31.227  24.742  25.795  1.00  0.00     0.102 A 
ATOM     79  C   UNL A   1      31.743  25.872  26.439  1.00  0.00     0.029 A 
ATOM     80  C   UNL A   1      30.916  24.823  24.442  1.00  0.00     0.223 A 
ATOM     81  C   UNL A   1      31.985  27.035  25.702  1.00  0.00     0.001 A 
ATOM     82  N   UNL A   1      31.163  25.913  23.696  1.00  0.00    -0.221 NA
ATOM     83  C   UNL A   1      31.690  26.983  24.336  1.00  0.00     0.124 A 
BRANCH  80  84
ATOM     84  O   UNL A   1      30.346  23.802  23.740  1.00  0.00    -0.493 OA
ATOM     85  H   UNL A   1      29.444  23.852  23.490  1.00  0.00     0.295 HD
ENDBRANCH  80  84
BRANCH  81  86
ATOM     86  C   UNL A   1      32.511  28.259  26.311  1.00  0.00    -0.016 A 
ATOM     87  C   UNL A   1      31.732  29.428  26.337  1.00  0.00     0.012 A 
ATOM     88  C   UNL A   1      33.815  28.314  26.834  1.00  0.00     0.025 A 
ATOM     89  C   UNL A   1      32.244  30.619  26.851  1.00  0.00     0.040 A 
ATOM     90  C   UNL A   1      34.343  29.513  27.348  1.00  0.00     0.092 A 
ATOM     91  C   UNL A   1      33.544  30.653  27.341  1.00  0.00     0.135 A 
ATOM     92  F   UNL A   1      34.029  31.814  27.801  1.00  0.00    -0.206 F 
BRANCH  90  93
ATOM     93  C   UNL A   1      35.748  29.611  27.858  1.00  0.00     0.419 C 
ATOM     94  F   UNL A   1      35.804  29.764  29.210  1.00  0.00    -0.166 F 
ATOM     95  F   UNL A   1      36.508  28.521  27.564  1.00  0.00    -0.166 F 
ATOM     96  F   UNL A   1      36.426  30.677  27.342  1.00  0.00    -0.166 F 
ENDBRANCH  90  93
ENDBRANCH  81  86
ENDBRANCH  75  78
ENDBRANCH  73  74
ENDBRANCH  72  73
ENDBRANCH   1  72
TORSDOF 14
ENDMDL
