MODEL 1
REMARK VINA RESULT:     -12.9      0.000      0.000
REMARK SMILES Cc1cccc2c1N=CN1C2=[NH+]NC(=O)[C@@H]1CC(=O)NCCCCNC(=O)c1ccc(-c2c3nc(c(-c4c(F)c(F)c(F)c(F)c4F)c4ccc([nH]4)c(-c4c(F)c(F)c(F)c(F)c4F)c4nc(c(-c5c(F)c(F)c(F)c(F)c5F)c5ccc2[nH]5)C=C4)C=C3)cc1
REMARK SMILES IDX 23 1 22 2 21 3 20 4 18 5 19 6 17 8 16 9 1 10 2 11 3 12 7 13
REMARK SMILES IDX 4 14 6 15 8 16 5 17 11 18 9 19 10 20 12 21 13 22 14 24 15 26
REMARK SMILES IDX 24 27 25 28 26 29 27 31 28 32 29 33 90 34 30 35 89 36 31 37
REMARK SMILES IDX 32 38 33 39 83 40 34 41 88 42 82 43 84 44 35 45 87 46 81 47
REMARK SMILES IDX 80 48 36 50 68 51 48 52 67 53 49 54 52 55 66 56 85 57 50 58
REMARK SMILES IDX 51 59 65 61 86 62 53 63 37 64 38 65 46 66 39 67 40 68 44 69
REMARK SMILES IDX 47 70 41 71 42 72 45 73 43 74 69 75 70 76 78 77 71 78 72 79
REMARK SMILES IDX 76 80 79 81 73 82 74 83 77 84 75 85 54 86 55 87 63 88 56 89
REMARK SMILES IDX 57 90 61 91 64 92 58 93 59 94 62 95 60 96
REMARK H PARENT 20 7 12 23 13 25 25 30 84 49 52 60
REMARK Flexibility Score: inf
ROOT
ATOM      1  C   UNL A   1      33.120  32.219  27.771  1.00  0.00     0.023 C 
ENDROOT
BRANCH   1   2
ATOM      2  C   UNL A   1      34.277  31.247  27.853  1.00  0.00     0.023 C 
BRANCH   2   3
ATOM      3  C   UNL A   1      34.094  29.902  27.177  1.00  0.00     0.116 C 
BRANCH   3   4
ATOM      4  N   UNL A   1      32.901  29.261  27.678  1.00  0.00    -0.356 N 
ATOM      5  C   UNL A   1      32.346  28.071  27.315  1.00  0.00     0.224 C 
ATOM      6  O   UNL A   1      31.286  27.753  27.853  1.00  0.00    -0.275 OA
ATOM      7  H   UNL A   1      32.421  29.753  28.382  1.00  0.00     0.163 HD
BRANCH   5   8
ATOM      8  C   UNL A   1      33.069  27.130  26.363  1.00  0.00     0.160 C 
BRANCH   8   9
ATOM      9  C   UNL A   1      32.246  26.300  25.353  1.00  0.00     0.284 C 
ATOM     10  C   UNL A   1      29.237  31.271  22.633  1.00  0.00     0.047 C 
ATOM     11  C   UNL A   1      28.730  29.884  22.918  1.00  0.00    -0.024 A 
ATOM     12  C   UNL A   1      27.344  29.647  22.928  1.00  0.00     0.006 A 
ATOM     13  C   UNL A   1      29.618  28.844  23.254  1.00  0.00     0.085 A 
ATOM     14  C   UNL A   1      26.834  28.392  23.262  1.00  0.00     0.001 A 
ATOM     15  C   UNL A   1      29.080  27.606  23.662  1.00  0.00     0.092 A 
ATOM     16  N   UNL A   1      31.012  29.102  23.267  1.00  0.00    -0.215 NA
ATOM     17  C   UNL A   1      27.700  27.370  23.638  1.00  0.00     0.019 A 
ATOM     18  C   UNL A   1      30.007  26.655  24.361  1.00  0.00     0.309 C 
ATOM     19  C   UNL A   1      31.755  28.230  23.871  1.00  0.00     0.317 C 
ATOM     20  N   UNL A   1      31.318  27.096  24.518  1.00  0.00    -0.203 N 
ATOM     21  N   UNL A   1      29.503  25.561  24.846  1.00  0.00    -0.169 N 
ATOM     22  N   UNL A   1      30.302  24.792  25.621  1.00  0.00    -0.193 N 
ATOM     23  H   UNL A   1      28.573  25.300  24.656  1.00  0.00     0.340 HD
ATOM     24  C   UNL A   1      31.586  25.085  25.997  1.00  0.00     0.300 C 
ATOM     25  H   UNL A   1      29.926  23.942  25.945  1.00  0.00     0.216 HD
ATOM     26  O   UNL A   1      32.188  24.329  26.757  1.00  0.00    -0.267 OA
ENDBRANCH   8   9
ENDBRANCH   5   8
ENDBRANCH   3   4
ENDBRANCH   2   3
ENDBRANCH   1   2
BRANCH   1  27
ATOM     27  C   UNL A   1      33.532  33.611  27.336  1.00  0.00     0.116 C 
BRANCH  27  28
ATOM     28  N   UNL A   1      32.870  34.678  28.082  1.00  0.00    -0.352 N 
ATOM     29  C   UNL A   1      33.138  35.113  29.360  1.00  0.00     0.251 C 
ATOM     30  H   UNL A   1      32.141  35.145  27.613  1.00  0.00     0.163 HD
ATOM     31  O   UNL A   1      32.463  35.968  29.910  1.00  0.00    -0.269 OA
BRANCH  29  32
ATOM     32  C   UNL A   1      34.258  34.471  30.067  1.00  0.00     0.039 A 
ATOM     33  C   UNL A   1      33.981  33.551  31.079  1.00  0.00     0.014 A 
ATOM     34  C   UNL A   1      35.561  34.679  29.608  1.00  0.00     0.014 A 
ATOM     35  C   UNL A   1      35.018  32.772  31.587  1.00  0.00     0.010 A 
ATOM     36  C   UNL A   1      36.569  33.840  30.046  1.00  0.00     0.010 A 
ATOM     37  C   UNL A   1      36.308  32.890  31.047  1.00  0.00    -0.014 A 
BRANCH  37  38
ATOM     38  C   UNL A   1      37.445  32.099  31.561  1.00  0.00     0.031 A 
ATOM     39  C   UNL A   1      37.958  32.411  32.935  1.00  0.00     0.074 A 
ATOM     40  C   UNL A   1      38.054  31.190  30.780  1.00  0.00     0.049 A 
ATOM     41  N   UNL A   1      39.039  31.991  33.534  1.00  0.00    -0.248 NA
ATOM     42  C   UNL A   1      37.160  33.366  33.726  1.00  0.00     0.031 C 
ATOM     43  C   UNL A   1      37.648  30.827  29.420  1.00  0.00     0.029 A 
ATOM     44  N   UNL A   1      39.157  30.411  31.017  1.00  0.00    -0.354 N 
ATOM     45  C   UNL A   1      39.064  32.649  34.755  1.00  0.00     0.074 A 
ATOM     46  C   UNL A   1      37.928  33.541  34.788  1.00  0.00     0.031 C 
ATOM     47  C   UNL A   1      38.479  29.879  28.954  1.00  0.00     0.029 A 
ATOM     48  C   UNL A   1      39.493  29.596  29.966  1.00  0.00     0.049 A 
ATOM     49  H   UNL A   1      39.660  30.436  31.863  1.00  0.00     0.167 HD
ATOM     50  C   UNL A   1      39.942  32.495  35.772  1.00  0.00     0.037 A 
ATOM     51  C   UNL A   1      40.511  28.724  29.843  1.00  0.00     0.037 A 
ATOM     52  C   UNL A   1      41.044  31.576  35.739  1.00  0.00     0.049 A 
ATOM     53  C   UNL A   1      41.475  28.569  30.989  1.00  0.00     0.074 A 
ATOM     54  C   UNL A   1      41.988  31.321  36.716  1.00  0.00     0.029 A 
ATOM     55  N   UNL A   1      41.336  30.744  34.667  1.00  0.00    -0.354 N 
ATOM     56  N   UNL A   1      41.490  29.188  32.145  1.00  0.00    -0.248 NA
ATOM     57  C   UNL A   1      42.561  27.595  30.813  1.00  0.00     0.031 C 
ATOM     58  C   UNL A   1      42.865  30.348  36.226  1.00  0.00     0.029 A 
ATOM     59  C   UNL A   1      42.444  29.971  34.959  1.00  0.00     0.049 A 
ATOM     60  H   UNL A   1      40.830  30.710  33.823  1.00  0.00     0.167 HD
ATOM     61  C   UNL A   1      42.567  28.663  32.845  1.00  0.00     0.074 A 
ATOM     62  C   UNL A   1      43.177  27.667  31.987  1.00  0.00     0.031 C 
ATOM     63  C   UNL A   1      43.014  28.976  34.086  1.00  0.00     0.037 A 
BRANCH  50  64
ATOM     64  C   UNL A   1      39.722  33.329  36.998  1.00  0.00     0.064 A 
ATOM     65  C   UNL A   1      40.421  34.529  37.200  1.00  0.00     0.173 A 
ATOM     66  C   UNL A   1      38.807  32.928  37.982  1.00  0.00     0.173 A 
ATOM     67  F   UNL A   1      41.324  34.944  36.298  1.00  0.00    -0.203 F 
ATOM     68  C   UNL A   1      40.234  35.282  38.355  1.00  0.00     0.198 A 
ATOM     69  C   UNL A   1      38.601  33.698  39.123  1.00  0.00     0.198 A 
ATOM     70  F   UNL A   1      38.117  31.786  37.840  1.00  0.00    -0.203 F 
ATOM     71  F   UNL A   1      40.956  36.394  38.551  1.00  0.00    -0.200 F 
ATOM     72  C   UNL A   1      39.320  34.869  39.313  1.00  0.00     0.200 A 
ATOM     73  F   UNL A   1      37.713  33.302  40.046  1.00  0.00    -0.200 F 
ATOM     74  F   UNL A   1      39.140  35.595  40.425  1.00  0.00    -0.200 F 
ENDBRANCH  50  64
BRANCH  51  75
ATOM     75  C   UNL A   1      40.635  27.896  28.615  1.00  0.00     0.064 A 
ATOM     76  C   UNL A   1      39.999  26.650  28.533  1.00  0.00     0.173 A 
ATOM     77  C   UNL A   1      41.364  28.332  27.500  1.00  0.00     0.173 A 
ATOM     78  F   UNL A   1      39.305  26.182  29.582  1.00  0.00    -0.203 F 
ATOM     79  C   UNL A   1      40.093  25.866  27.385  1.00  0.00     0.198 A 
ATOM     80  C   UNL A   1      41.441  27.557  26.344  1.00  0.00     0.198 A 
ATOM     81  F   UNL A   1      41.987  29.519  27.528  1.00  0.00    -0.203 F 
ATOM     82  F   UNL A   1      39.499  24.666  27.344  1.00  0.00    -0.200 F 
ATOM     83  C   UNL A   1      40.809  26.323  26.289  1.00  0.00     0.200 A 
ATOM     84  F   UNL A   1      42.124  28.006  25.282  1.00  0.00    -0.200 F 
ATOM     85  F   UNL A   1      40.893  25.573  25.181  1.00  0.00    -0.200 F 
ENDBRANCH  51  75
BRANCH  63  86
ATOM     86  C   UNL A   1      44.193  28.213  34.605  1.00  0.00     0.064 A 
ATOM     87  C   UNL A   1      45.499  28.705  34.473  1.00  0.00     0.173 A 
ATOM     88  C   UNL A   1      44.005  27.015  35.311  1.00  0.00     0.173 A 
ATOM     89  F   UNL A   1      45.727  29.840  33.795  1.00  0.00    -0.203 F 
ATOM     90  C   UNL A   1      46.578  28.016  35.019  1.00  0.00     0.198 A 
ATOM     91  C   UNL A   1      45.082  26.343  35.877  1.00  0.00     0.198 A 
ATOM     92  F   UNL A   1      42.771  26.512  35.470  1.00  0.00    -0.203 F 
ATOM     93  F   UNL A   1      47.822  28.487  34.857  1.00  0.00    -0.200 F 
ATOM     94  C   UNL A   1      46.368  26.842  35.728  1.00  0.00     0.200 A 
ATOM     95  F   UNL A   1      44.877  25.217  36.574  1.00  0.00    -0.200 F 
ATOM     96  F   UNL A   1      47.407  26.189  36.268  1.00  0.00    -0.200 F 
ENDBRANCH  63  86
ENDBRANCH  37  38
ENDBRANCH  29  32
ENDBRANCH  27  28
ENDBRANCH   1  27
TORSDOF 12
ENDMDL
MODEL 2
REMARK VINA RESULT:     -12.9      0.232      1.142
REMARK SMILES Cc1cccc2c1N=CN1C2=[NH+]NC(=O)[C@@H]1CC(=O)NCCCCNC(=O)c1ccc(-c2c3nc(c(-c4c(F)c(F)c(F)c(F)c4F)c4ccc([nH]4)c(-c4c(F)c(F)c(F)c(F)c4F)c4nc(c(-c5c(F)c(F)c(F)c(F)c5F)c5ccc2[nH]5)C=C4)C=C3)cc1
REMARK SMILES IDX 23 1 22 2 21 3 20 4 18 5 19 6 17 8 16 9 1 10 2 11 3 12 7 13
REMARK SMILES IDX 4 14 6 15 8 16 5 17 11 18 9 19 10 20 12 21 13 22 14 24 15 26
REMARK SMILES IDX 24 27 25 28 26 29 27 31 28 32 29 33 90 34 30 35 89 36 31 37
REMARK SMILES IDX 32 38 33 39 83 40 34 41 88 42 82 43 84 44 35 45 87 46 81 47
REMARK SMILES IDX 80 48 36 50 68 51 48 52 67 53 49 54 52 55 66 56 85 57 50 58
REMARK SMILES IDX 51 59 65 61 86 62 53 63 37 64 38 65 46 66 39 67 40 68 44 69
REMARK SMILES IDX 47 70 41 71 42 72 45 73 43 74 69 75 70 76 78 77 71 78 72 79
REMARK SMILES IDX 76 80 79 81 73 82 74 83 77 84 75 85 54 86 55 87 63 88 56 89
REMARK SMILES IDX 57 90 61 91 64 92 58 93 59 94 62 95 60 96
REMARK H PARENT 20 7 12 23 13 25 25 30 84 49 52 60
REMARK Flexibility Score: inf
ROOT
ATOM      1  C   UNL A   1      33.185  32.195  27.811  1.00  0.00     0.023 C 
ENDROOT
BRANCH   1   2
ATOM      2  C   UNL A   1      34.317  31.197  27.688  1.00  0.00     0.023 C 
BRANCH   2   3
ATOM      3  C   UNL A   1      33.997  29.873  27.022  1.00  0.00     0.116 C 
BRANCH   3   4
ATOM      4  N   UNL A   1      32.819  29.294  27.626  1.00  0.00    -0.356 N 
ATOM      5  C   UNL A   1      32.239  28.083  27.394  1.00  0.00     0.224 C 
ATOM      6  O   UNL A   1      31.200  27.828  28.000  1.00  0.00    -0.275 OA
ATOM      7  H   UNL A   1      32.373  29.852  28.302  1.00  0.00     0.163 HD
BRANCH   5   8
ATOM      8  C   UNL A   1      32.913  27.052  26.501  1.00  0.00     0.160 C 
BRANCH   8   9
ATOM      9  C   UNL A   1      32.053  26.220  25.526  1.00  0.00     0.284 C 
ATOM     10  C   UNL A   1      29.528  31.204  22.373  1.00  0.00     0.047 C 
ATOM     11  C   UNL A   1      28.902  29.886  22.739  1.00  0.00    -0.024 A 
ATOM     12  C   UNL A   1      27.501  29.761  22.722  1.00  0.00     0.006 A 
ATOM     13  C   UNL A   1      29.694  28.807  23.174  1.00  0.00     0.085 A 
ATOM     14  C   UNL A   1      26.883  28.578  23.126  1.00  0.00     0.001 A 
ATOM     15  C   UNL A   1      29.047  27.647  23.650  1.00  0.00     0.092 A 
ATOM     16  N   UNL A   1      31.104  28.953  23.212  1.00  0.00    -0.215 NA
ATOM     17  C   UNL A   1      27.654  27.520  23.599  1.00  0.00     0.019 A 
ATOM     18  C   UNL A   1      29.875  26.679  24.442  1.00  0.00     0.309 C 
ATOM     19  C   UNL A   1      31.757  28.071  23.898  1.00  0.00     0.317 C 
ATOM     20  N   UNL A   1      31.213  27.025  24.609  1.00  0.00    -0.203 N 
ATOM     21  N   UNL A   1      29.272  25.665  24.986  1.00  0.00    -0.169 N 
ATOM     22  N   UNL A   1      29.986  24.893  25.838  1.00  0.00    -0.193 N 
ATOM     23  H   UNL A   1      28.329  25.466  24.786  1.00  0.00     0.340 HD
ATOM     24  C   UNL A   1      31.279  25.111  26.232  1.00  0.00     0.300 C 
ATOM     25  H   UNL A   1      29.534  24.102  26.208  1.00  0.00     0.216 HD
ATOM     26  O   UNL A   1      31.799  24.366  27.062  1.00  0.00    -0.267 OA
ENDBRANCH   8   9
ENDBRANCH   5   8
ENDBRANCH   3   4
ENDBRANCH   2   3
ENDBRANCH   1   2
BRANCH   1  27
ATOM     27  C   UNL A   1      33.526  33.565  27.263  1.00  0.00     0.116 C 
BRANCH  27  28
ATOM     28  N   UNL A   1      32.905  34.662  28.001  1.00  0.00    -0.352 N 
ATOM     29  C   UNL A   1      33.203  35.109  29.268  1.00  0.00     0.251 C 
ATOM     30  H   UNL A   1      32.184  35.143  27.534  1.00  0.00     0.163 HD
ATOM     31  O   UNL A   1      32.560  35.992  29.813  1.00  0.00    -0.269 OA
BRANCH  29  32
ATOM     32  C   UNL A   1      34.313  34.446  29.971  1.00  0.00     0.039 A 
ATOM     33  C   UNL A   1      34.024  33.555  31.005  1.00  0.00     0.014 A 
ATOM     34  C   UNL A   1      35.615  34.604  29.488  1.00  0.00     0.014 A 
ATOM     35  C   UNL A   1      35.045  32.754  31.513  1.00  0.00     0.010 A 
ATOM     36  C   UNL A   1      36.603  33.742  29.927  1.00  0.00     0.010 A 
ATOM     37  C   UNL A   1      36.328  32.821  30.951  1.00  0.00    -0.014 A 
BRANCH  37  38
ATOM     38  C   UNL A   1      37.449  32.005  31.463  1.00  0.00     0.031 A 
ATOM     39  C   UNL A   1      37.948  32.282  32.849  1.00  0.00     0.074 A 
ATOM     40  C   UNL A   1      38.055  31.103  30.671  1.00  0.00     0.049 A 
ATOM     41  N   UNL A   1      39.015  31.836  33.453  1.00  0.00    -0.248 NA
ATOM     42  C   UNL A   1      37.152  33.232  33.649  1.00  0.00     0.031 C 
ATOM     43  C   UNL A   1      37.663  30.773  29.300  1.00  0.00     0.029 A 
ATOM     44  N   UNL A   1      39.145  30.305  30.907  1.00  0.00    -0.354 N 
ATOM     45  C   UNL A   1      39.033  32.469  34.687  1.00  0.00     0.074 A 
ATOM     46  C   UNL A   1      37.909  33.375  34.725  1.00  0.00     0.031 C 
ATOM     47  C   UNL A   1      38.487  29.824  28.825  1.00  0.00     0.029 A 
ATOM     48  C   UNL A   1      39.484  29.507  29.844  1.00  0.00     0.049 A 
ATOM     49  H   UNL A   1      39.638  30.306  31.760  1.00  0.00     0.167 HD
ATOM     50  C   UNL A   1      39.896  32.283  35.712  1.00  0.00     0.037 A 
ATOM     51  C   UNL A   1      40.492  28.624  29.716  1.00  0.00     0.037 A 
ATOM     52  C   UNL A   1      40.986  31.350  35.674  1.00  0.00     0.049 A 
ATOM     53  C   UNL A   1      41.439  28.433  30.871  1.00  0.00     0.074 A 
ATOM     54  C   UNL A   1      41.914  31.064  36.658  1.00  0.00     0.029 A 
ATOM     55  N   UNL A   1      41.281  30.536  34.590  1.00  0.00    -0.354 N 
ATOM     56  N   UNL A   1      41.447  29.029  32.040  1.00  0.00    -0.248 NA
ATOM     57  C   UNL A   1      42.515  27.449  30.690  1.00  0.00     0.031 C 
ATOM     58  C   UNL A   1      42.784  30.089  36.160  1.00  0.00     0.029 A 
ATOM     59  C   UNL A   1      42.375  29.743  34.881  1.00  0.00     0.049 A 
ATOM     60  H   UNL A   1      40.785  30.525  33.739  1.00  0.00     0.167 HD
ATOM     61  C   UNL A   1      42.508  28.475  32.742  1.00  0.00     0.074 A 
ATOM     62  C   UNL A   1      43.116  27.489  31.872  1.00  0.00     0.031 C 
ATOM     63  C   UNL A   1      42.943  28.758  33.995  1.00  0.00     0.037 A 
BRANCH  50  64
ATOM     64  C   UNL A   1      39.671  33.095  36.952  1.00  0.00     0.064 A 
ATOM     65  C   UNL A   1      40.404  34.266  37.201  1.00  0.00     0.173 A 
ATOM     66  C   UNL A   1      38.717  32.703  37.901  1.00  0.00     0.173 A 
ATOM     67  F   UNL A   1      41.345  34.670  36.334  1.00  0.00    -0.203 F 
ATOM     68  C   UNL A   1      40.212  34.997  38.370  1.00  0.00     0.198 A 
ATOM     69  C   UNL A   1      38.506  33.453  39.055  1.00  0.00     0.198 A 
ATOM     70  F   UNL A   1      37.992  31.590  37.713  1.00  0.00    -0.203 F 
ATOM     71  F   UNL A   1      40.965  36.079  38.612  1.00  0.00    -0.200 F 
ATOM     72  C   UNL A   1      39.259  34.594  39.292  1.00  0.00     0.200 A 
ATOM     73  F   UNL A   1      37.580  33.067  39.944  1.00  0.00    -0.200 F 
ATOM     74  F   UNL A   1      39.073  35.300  40.416  1.00  0.00    -0.200 F 
ENDBRANCH  50  64
BRANCH  51  75
ATOM     75  C   UNL A   1      40.621  27.819  28.474  1.00  0.00     0.064 A 
ATOM     76  C   UNL A   1      41.379  28.296  27.395  1.00  0.00     0.173 A 
ATOM     77  C   UNL A   1      40.019  26.560  28.343  1.00  0.00     0.173 A 
ATOM     78  F   UNL A   1      41.959  29.504  27.467  1.00  0.00    -0.203 F 
ATOM     79  C   UNL A   1      41.522  27.549  26.228  1.00  0.00     0.198 A 
ATOM     80  C   UNL A   1      40.179  25.804  27.183  1.00  0.00     0.198 A 
ATOM     81  F   UNL A   1      39.288  26.058  29.348  1.00  0.00    -0.203 F 
ATOM     82  F   UNL A   1      42.228  28.042  25.201  1.00  0.00    -0.200 F 
ATOM     83  C   UNL A   1      40.927  26.301  26.125  1.00  0.00     0.200 A 
ATOM     84  F   UNL A   1      39.613  24.593  27.090  1.00  0.00    -0.200 F 
ATOM     85  F   UNL A   1      41.072  25.578  25.005  1.00  0.00    -0.200 F 
ENDBRANCH  51  75
BRANCH  63  86
ATOM     86  C   UNL A   1      44.106  27.969  34.513  1.00  0.00     0.064 A 
ATOM     87  C   UNL A   1      45.421  28.438  34.392  1.00  0.00     0.173 A 
ATOM     88  C   UNL A   1      43.892  26.769  35.207  1.00  0.00     0.173 A 
ATOM     89  F   UNL A   1      45.673  29.575  33.726  1.00  0.00    -0.203 F 
ATOM     90  C   UNL A   1      46.484  27.725  34.938  1.00  0.00     0.198 A 
ATOM     91  C   UNL A   1      44.954  26.072  35.773  1.00  0.00     0.198 A 
ATOM     92  F   UNL A   1      42.648  26.286  35.356  1.00  0.00    -0.203 F 
ATOM     93  F   UNL A   1      47.737  28.175  34.787  1.00  0.00    -0.200 F 
ATOM     94  C   UNL A   1      46.249  26.548  35.635  1.00  0.00     0.200 A 
ATOM     95  F   UNL A   1      44.724  24.944  36.459  1.00  0.00    -0.200 F 
ATOM     96  F   UNL A   1      47.273  25.872  36.175  1.00  0.00    -0.200 F 
ENDBRANCH  63  86
ENDBRANCH  37  38
ENDBRANCH  29  32
ENDBRANCH  27  28
ENDBRANCH   1  27
TORSDOF 12
ENDMDL
MODEL 3
REMARK VINA RESULT:     -12.9      2.434      8.370
REMARK SMILES Cc1cccc2c1N=CN1C2=[NH+]NC(=O)[C@@H]1CC(=O)NCCCCNC(=O)c1ccc(-c2c3nc(c(-c4c(F)c(F)c(F)c(F)c4F)c4ccc([nH]4)c(-c4c(F)c(F)c(F)c(F)c4F)c4nc(c(-c5c(F)c(F)c(F)c(F)c5F)c5ccc2[nH]5)C=C4)C=C3)cc1
REMARK SMILES IDX 23 1 22 2 21 3 20 4 18 5 19 6 17 8 16 9 1 10 2 11 3 12 7 13
REMARK SMILES IDX 4 14 6 15 8 16 5 17 11 18 9 19 10 20 12 21 13 22 14 24 15 26
REMARK SMILES IDX 24 27 25 28 26 29 27 31 28 32 29 33 90 34 30 35 89 36 31 37
REMARK SMILES IDX 32 38 33 39 83 40 34 41 88 42 82 43 84 44 35 45 87 46 81 47
REMARK SMILES IDX 80 48 36 50 68 51 48 52 67 53 49 54 52 55 66 56 85 57 50 58
REMARK SMILES IDX 51 59 65 61 86 62 53 63 37 64 38 65 46 66 39 67 40 68 44 69
REMARK SMILES IDX 47 70 41 71 42 72 45 73 43 74 69 75 70 76 78 77 71 78 72 79
REMARK SMILES IDX 76 80 79 81 73 82 74 83 77 84 75 85 54 86 55 87 63 88 56 89
REMARK SMILES IDX 57 90 61 91 64 92 58 93 59 94 62 95 60 96
REMARK H PARENT 20 7 12 23 13 25 25 30 84 49 52 60
REMARK Flexibility Score: inf
ROOT
ATOM      1  C   UNL A   1      33.261  28.970  24.060  1.00  0.00     0.023 C 
ENDROOT
BRANCH   1   2
ATOM      2  C   UNL A   1      31.788  28.976  23.711  1.00  0.00     0.023 C 
BRANCH   2   3
ATOM      3  C   UNL A   1      30.987  27.746  24.089  1.00  0.00     0.116 C 
BRANCH   3   4
ATOM      4  N   UNL A   1      31.592  26.570  23.507  1.00  0.00    -0.356 N 
ATOM      5  C   UNL A   1      32.395  25.637  24.091  1.00  0.00     0.224 C 
ATOM      6  O   UNL A   1      32.836  24.741  23.372  1.00  0.00    -0.275 OA
ATOM      7  H   UNL A   1      31.396  26.421  22.555  1.00  0.00     0.163 HD
BRANCH   5   8
ATOM      8  C   UNL A   1      32.643  25.648  25.591  1.00  0.00     0.160 C 
BRANCH   8   9
ATOM      9  C   UNL A   1      32.175  24.448  26.442  1.00  0.00     0.284 C 
ATOM     10  C   UNL A   1      36.955  20.498  24.795  1.00  0.00     0.047 C 
ATOM     11  C   UNL A   1      35.508  20.189  25.067  1.00  0.00    -0.024 A 
ATOM     12  C   UNL A   1      34.967  18.973  24.612  1.00  0.00     0.006 A 
ATOM     13  C   UNL A   1      34.673  21.133  25.695  1.00  0.00     0.085 A 
ATOM     14  C   UNL A   1      33.613  18.684  24.780  1.00  0.00     0.001 A 
ATOM     15  C   UNL A   1      33.294  20.855  25.785  1.00  0.00     0.092 A 
ATOM     16  N   UNL A   1      35.223  22.367  26.124  1.00  0.00    -0.215 NA
ATOM     17  C   UNL A   1      32.770  19.628  25.360  1.00  0.00     0.019 A 
ATOM     18  C   UNL A   1      32.384  22.004  26.107  1.00  0.00     0.309 C 
ATOM     19  C   UNL A   1      34.381  23.309  26.404  1.00  0.00     0.317 C 
ATOM     20  N   UNL A   1      33.010  23.233  26.301  1.00  0.00    -0.203 N 
ATOM     21  N   UNL A   1      31.103  21.792  26.081  1.00  0.00    -0.169 N 
ATOM     22  N   UNL A   1      30.287  22.864  26.202  1.00  0.00    -0.193 N 
ATOM     23  H   UNL A   1      30.739  20.884  25.978  1.00  0.00     0.340 HD
ATOM     24  C   UNL A   1      30.682  24.173  26.292  1.00  0.00     0.300 C 
ATOM     25  H   UNL A   1      29.319  22.688  26.228  1.00  0.00     0.216 HD
ATOM     26  O   UNL A   1      29.836  25.065  26.337  1.00  0.00    -0.267 OA
ENDBRANCH   8   9
ENDBRANCH   5   8
ENDBRANCH   3   4
ENDBRANCH   2   3
ENDBRANCH   1   2
BRANCH   1  27
ATOM     27  C   UNL A   1      33.533  29.234  25.527  1.00  0.00     0.116 C 
BRANCH  27  28
ATOM     28  N   UNL A   1      32.869  30.430  26.040  1.00  0.00    -0.352 N 
ATOM     29  C   UNL A   1      33.303  31.285  27.026  1.00  0.00     0.251 C 
ATOM     30  H   UNL A   1      32.002  30.652  25.628  1.00  0.00     0.163 HD
ATOM     31  O   UNL A   1      32.620  32.216  27.425  1.00  0.00    -0.269 OA
BRANCH  29  32
ATOM     32  C   UNL A   1      34.620  31.011  27.623  1.00  0.00     0.039 A 
ATOM     33  C   UNL A   1      35.501  32.071  27.835  1.00  0.00     0.014 A 
ATOM     34  C   UNL A   1      34.896  29.727  28.100  1.00  0.00     0.014 A 
ATOM     35  C   UNL A   1      36.642  31.858  28.606  1.00  0.00     0.010 A 
ATOM     36  C   UNL A   1      35.977  29.542  28.942  1.00  0.00     0.010 A 
ATOM     37  C   UNL A   1      36.864  30.602  29.190  1.00  0.00    -0.014 A 
BRANCH  37  38
ATOM     38  C   UNL A   1      38.066  30.320  30.002  1.00  0.00     0.031 A 
ATOM     39  C   UNL A   1      39.117  29.424  29.418  1.00  0.00     0.074 A 
ATOM     40  C   UNL A   1      38.167  30.784  31.259  1.00  0.00     0.049 A 
ATOM     41  N   UNL A   1      40.162  28.887  29.987  1.00  0.00    -0.248 NA
ATOM     42  C   UNL A   1      38.938  29.045  28.004  1.00  0.00     0.031 C 
ATOM     43  C   UNL A   1      37.190  31.645  31.930  1.00  0.00     0.029 A 
ATOM     44  N   UNL A   1      39.139  30.584  32.205  1.00  0.00    -0.354 N 
ATOM     45  C   UNL A   1      40.745  28.091  29.013  1.00  0.00     0.074 A 
ATOM     46  C   UNL A   1      39.908  28.162  27.838  1.00  0.00     0.031 C 
ATOM     47  C   UNL A   1      37.626  31.917  33.171  1.00  0.00     0.029 A 
ATOM     48  C   UNL A   1      38.890  31.221  33.395  1.00  0.00     0.049 A 
ATOM     49  H   UNL A   1      39.939  30.034  32.045  1.00  0.00     0.167 HD
ATOM     50  C   UNL A   1      41.898  27.387  29.086  1.00  0.00     0.037 A 
ATOM     51  C   UNL A   1      39.609  31.233  34.533  1.00  0.00     0.037 A 
ATOM     52  C   UNL A   1      42.739  27.356  30.249  1.00  0.00     0.049 A 
ATOM     53  C   UNL A   1      40.890  30.443  34.589  1.00  0.00     0.074 A 
ATOM     54  C   UNL A   1      43.938  26.694  30.431  1.00  0.00     0.029 A 
ATOM     55  N   UNL A   1      42.470  28.039  31.426  1.00  0.00    -0.354 N 
ATOM     56  N   UNL A   1      41.442  29.697  33.662  1.00  0.00    -0.248 NA
ATOM     57  C   UNL A   1      41.646  30.497  35.847  1.00  0.00     0.031 C 
ATOM     58  C   UNL A   1      44.385  26.960  31.729  1.00  0.00     0.029 A 
ATOM     59  C   UNL A   1      43.483  27.818  32.341  1.00  0.00     0.049 A 
ATOM     60  H   UNL A   1      41.675  28.599  31.587  1.00  0.00     0.167 HD
ATOM     61  C   UNL A   1      42.620  29.214  34.212  1.00  0.00     0.074 A 
ATOM     62  C   UNL A   1      42.709  29.759  35.552  1.00  0.00     0.031 C 
ATOM     63  C   UNL A   1      43.547  28.392  33.661  1.00  0.00     0.037 A 
BRANCH  50  64
ATOM     64  C   UNL A   1      42.308  26.618  27.866  1.00  0.00     0.064 A 
ATOM     65  C   UNL A   1      41.858  25.307  27.644  1.00  0.00     0.173 A 
ATOM     66  C   UNL A   1      43.158  27.192  26.911  1.00  0.00     0.173 A 
ATOM     67  F   UNL A   1      41.061  24.706  28.540  1.00  0.00    -0.203 F 
ATOM     68  C   UNL A   1      42.268  24.588  26.525  1.00  0.00     0.198 A 
ATOM     69  C   UNL A   1      43.543  26.481  25.777  1.00  0.00     0.198 A 
ATOM     70  F   UNL A   1      43.621  28.440  27.078  1.00  0.00    -0.203 F 
ATOM     71  F   UNL A   1      41.871  23.319  26.365  1.00  0.00    -0.200 F 
ATOM     72  C   UNL A   1      43.105  25.178  25.589  1.00  0.00     0.200 A 
ATOM     73  F   UNL A   1      44.347  27.052  24.870  1.00  0.00    -0.200 F 
ATOM     74  F   UNL A   1      43.498  24.485  24.511  1.00  0.00    -0.200 F 
ENDBRANCH  50  64
BRANCH  51  75
ATOM     75  C   UNL A   1      39.164  32.059  35.684  1.00  0.00     0.064 A 
ATOM     76  C   UNL A   1      38.349  31.505  36.681  1.00  0.00     0.173 A 
ATOM     77  C   UNL A   1      39.553  33.398  35.828  1.00  0.00     0.173 A 
ATOM     78  F   UNL A   1      37.936  30.233  36.578  1.00  0.00    -0.203 F 
ATOM     79  C   UNL A   1      37.933  32.262  37.775  1.00  0.00     0.198 A 
ATOM     80  C   UNL A   1      39.153  34.148  36.933  1.00  0.00     0.198 A 
ATOM     81  F   UNL A   1      40.335  33.973  34.903  1.00  0.00    -0.203 F 
ATOM     82  F   UNL A   1      37.131  31.715  38.699  1.00  0.00    -0.200 F 
ATOM     83  C   UNL A   1      38.340  33.581  37.903  1.00  0.00     0.200 A 
ATOM     84  F   UNL A   1      39.557  35.420  37.060  1.00  0.00    -0.200 F 
ATOM     85  F   UNL A   1      37.947  34.306  38.959  1.00  0.00    -0.200 F 
ENDBRANCH  51  75
BRANCH  63  86
ATOM     86  C   UNL A   1      44.752  28.062  34.487  1.00  0.00     0.064 A 
ATOM     87  C   UNL A   1      45.887  28.884  34.485  1.00  0.00     0.173 A 
ATOM     88  C   UNL A   1      44.737  26.954  35.348  1.00  0.00     0.173 A 
ATOM     89  F   UNL A   1      45.949  29.947  33.669  1.00  0.00    -0.203 F 
ATOM     90  C   UNL A   1      46.972  28.600  35.308  1.00  0.00     0.198 A 
ATOM     91  C   UNL A   1      45.813  26.688  36.187  1.00  0.00     0.198 A 
ATOM     92  F   UNL A   1      43.667  26.145  35.389  1.00  0.00    -0.203 F 
ATOM     93  F   UNL A   1      48.061  29.381  35.271  1.00  0.00    -0.200 F 
ATOM     94  C   UNL A   1      46.931  27.508  36.164  1.00  0.00     0.200 A 
ATOM     95  F   UNL A   1      45.766  25.642  37.024  1.00  0.00    -0.200 F 
ATOM     96  F   UNL A   1      47.971  27.247  36.968  1.00  0.00    -0.200 F 
ENDBRANCH  63  86
ENDBRANCH  37  38
ENDBRANCH  29  32
ENDBRANCH  27  28
ENDBRANCH   1  27
TORSDOF 12
ENDMDL
