MODEL 1
REMARK VINA RESULT:     -11.8      0.000      0.000
REMARK SMILES CC(C)(NC(=O)[C@]1(C)CCCO1)C(C)(C)C(=O)NCCCCNC(=O)c1ccc(-c2c3nc(c(-c4c(F)c(F)c(F)c(F)c4F)c4ccc([nH]4)c(-c4c(F)c(F)c(F)c(F)c4F)c4nc(c(-c5c(F)c(F)c(F)c(F)c5F)c5ccc2[nH]5)C=C4)C=C3)cc1
REMARK SMILES IDX 20 1 19 2 18 3 16 4 17 5 13 7 14 8 15 9 2 10 1 11 3 12 4 13
REMARK SMILES IDX 5 14 6 16 7 17 9 18 12 19 8 20 10 21 11 22 21 23 22 24 23 25
REMARK SMILES IDX 24 26 25 28 26 29 27 30 88 31 28 32 87 33 29 34 30 35 31 36
REMARK SMILES IDX 81 37 32 38 86 39 80 40 82 41 33 42 85 43 79 44 78 45 34 47
REMARK SMILES IDX 66 48 46 49 65 50 47 51 50 52 64 53 83 54 48 55 49 56 63 58
REMARK SMILES IDX 84 59 51 60 35 61 36 62 44 63 37 64 38 65 42 66 45 67 39 68
REMARK SMILES IDX 40 69 43 70 41 71 67 72 68 73 76 74 69 75 70 76 74 77 77 78
REMARK SMILES IDX 71 79 72 80 75 81 73 82 52 83 53 84 61 85 54 86 55 87 59 88
REMARK SMILES IDX 62 89 56 90 57 91 60 92 58 93
REMARK H PARENT 18 6 4 15 23 27 82 46 50 57
REMARK Flexibility Score: inf
ROOT
ATOM      1  C   UNL A   1      36.983  19.500  24.962  1.00  0.00     0.023 C 
ENDROOT
BRANCH   1   2
ATOM      2  C   UNL A   1      35.530  19.985  25.001  1.00  0.00     0.116 C 
BRANCH   2   3
ATOM      3  N   UNL A   1      35.332  21.014  26.000  1.00  0.00    -0.356 N 
ATOM      4  C   UNL A   1      34.694  22.210  25.959  1.00  0.00     0.228 C 
ATOM      5  O   UNL A   1      34.124  22.440  27.033  1.00  0.00    -0.274 OA
ATOM      6  H   UNL A   1      35.737  20.807  26.872  1.00  0.00     0.163 HD
BRANCH   4   7
ATOM      7  C   UNL A   1      34.696  23.239  24.781  1.00  0.00     0.066 C 
ATOM      8  C   UNL A   1      35.523  22.968  23.519  1.00  0.00     0.024 C 
ATOM      9  C   UNL A   1      35.351  24.513  25.376  1.00  0.00     0.024 C 
BRANCH   7  10
ATOM     10  C   UNL A   1      33.188  23.441  24.302  1.00  0.00     0.048 C 
ATOM     11  C   UNL A   1      32.561  22.131  23.721  1.00  0.00     0.035 C 
ATOM     12  C   UNL A   1      33.077  24.445  23.102  1.00  0.00     0.035 C 
BRANCH  10  13
ATOM     13  N   UNL A   1      32.210  23.922  25.366  1.00  0.00    -0.348 N 
ATOM     14  C   UNL A   1      31.642  24.927  26.064  1.00  0.00     0.252 C 
ATOM     15  H   UNL A   1      31.789  23.103  25.713  1.00  0.00     0.164 HD
ATOM     16  O   UNL A   1      30.921  24.430  26.960  1.00  0.00    -0.272 OA
BRANCH  14  17
ATOM     17  C   UNL A   1      31.744  26.522  26.046  1.00  0.00     0.143 C 
ATOM     18  C   UNL A   1      33.034  27.305  25.848  1.00  0.00     0.048 C 
ATOM     19  O   UNL A   1      31.149  27.051  27.253  1.00  0.00    -0.365 OA
ATOM     20  C   UNL A   1      30.855  26.973  24.853  1.00  0.00     0.053 C 
ATOM     21  C   UNL A   1      33.140  28.297  26.988  1.00  0.00     0.032 C 
ATOM     22  C   UNL A   1      31.779  28.278  27.626  1.00  0.00     0.162 C 
ENDBRANCH  14  17
ENDBRANCH  10  13
ENDBRANCH   7  10
ENDBRANCH   4   7
ENDBRANCH   2   3
ENDBRANCH   1   2
BRANCH   1  23
ATOM     23  C   UNL A   1      38.070  20.595  24.973  1.00  0.00     0.023 C 
BRANCH  23  24
ATOM     24  C   UNL A   1      39.079  20.565  26.126  1.00  0.00     0.116 C 
BRANCH  24  25
ATOM     25  N   UNL A   1      40.040  19.474  26.030  1.00  0.00    -0.352 N 
ATOM     26  C   UNL A   1      41.413  19.477  26.108  1.00  0.00     0.251 C 
ATOM     27  H   UNL A   1      39.640  18.587  25.888  1.00  0.00     0.163 HD
ATOM     28  O   UNL A   1      42.042  18.445  25.877  1.00  0.00    -0.269 OA
BRANCH  26  29
ATOM     29  C   UNL A   1      42.150  20.718  26.425  1.00  0.00     0.039 A 
ATOM     30  C   UNL A   1      42.581  21.536  25.375  1.00  0.00     0.014 A 
ATOM     31  C   UNL A   1      42.415  21.081  27.746  1.00  0.00     0.014 A 
ATOM     32  C   UNL A   1      43.170  22.774  25.653  1.00  0.00     0.010 A 
ATOM     33  C   UNL A   1      42.945  22.341  28.024  1.00  0.00     0.010 A 
ATOM     34  C   UNL A   1      43.296  23.214  26.982  1.00  0.00    -0.014 A 
BRANCH  34  35
ATOM     35  C   UNL A   1      43.720  24.604  27.301  1.00  0.00     0.031 A 
ATOM     36  C   UNL A   1      42.720  25.626  27.759  1.00  0.00     0.074 A 
ATOM     37  C   UNL A   1      45.000  24.970  27.083  1.00  0.00     0.049 A 
ATOM     38  N   UNL A   1      42.883  26.909  27.972  1.00  0.00    -0.248 NA
ATOM     39  C   UNL A   1      41.349  25.149  27.987  1.00  0.00     0.031 C 
ATOM     40  C   UNL A   1      46.062  24.082  26.608  1.00  0.00     0.029 A 
ATOM     41  N   UNL A   1      45.622  26.187  27.214  1.00  0.00    -0.354 N 
ATOM     42  C   UNL A   1      41.638  27.391  28.349  1.00  0.00     0.074 A 
ATOM     43  C   UNL A   1      40.717  26.275  28.283  1.00  0.00     0.031 C 
ATOM     44  C   UNL A   1      47.206  24.777  26.507  1.00  0.00     0.029 A 
ATOM     45  C   UNL A   1      46.950  26.170  26.859  1.00  0.00     0.049 A 
ATOM     46  H   UNL A   1      45.160  26.997  27.533  1.00  0.00     0.167 HD
ATOM     47  C   UNL A   1      41.296  28.645  28.735  1.00  0.00     0.037 A 
ATOM     48  C   UNL A   1      47.856  27.165  26.806  1.00  0.00     0.037 A 
ATOM     49  C   UNL A   1      42.216  29.753  28.801  1.00  0.00     0.049 A 
ATOM     50  C   UNL A   1      47.437  28.561  27.180  1.00  0.00     0.074 A 
ATOM     51  C   UNL A   1      41.977  31.049  29.223  1.00  0.00     0.029 A 
ATOM     52  N   UNL A   1      43.549  29.698  28.420  1.00  0.00    -0.354 N 
ATOM     53  N   UNL A   1      46.272  28.992  27.598  1.00  0.00    -0.248 NA
ATOM     54  C   UNL A   1      48.460  29.612  27.071  1.00  0.00     0.031 C 
ATOM     55  C   UNL A   1      43.149  31.792  29.044  1.00  0.00     0.029 A 
ATOM     56  C   UNL A   1      44.136  30.945  28.567  1.00  0.00     0.049 A 
ATOM     57  H   UNL A   1      44.011  28.891  28.095  1.00  0.00     0.167 HD
ATOM     58  C   UNL A   1      46.427  30.353  27.828  1.00  0.00     0.074 A 
ATOM     59  C   UNL A   1      47.805  30.674  27.517  1.00  0.00     0.031 C 
ATOM     60  C   UNL A   1      45.511  31.253  28.260  1.00  0.00     0.037 A 
BRANCH  47  61
ATOM     61  C   UNL A   1      39.862  28.887  29.111  1.00  0.00     0.064 A 
ATOM     62  C   UNL A   1      38.909  29.281  28.158  1.00  0.00     0.173 A 
ATOM     63  C   UNL A   1      39.426  28.701  30.432  1.00  0.00     0.173 A 
ATOM     64  F   UNL A   1      39.272  29.480  26.881  1.00  0.00    -0.203 F 
ATOM     65  C   UNL A   1      37.585  29.520  28.521  1.00  0.00     0.198 A 
ATOM     66  C   UNL A   1      38.094  28.906  30.784  1.00  0.00     0.198 A 
ATOM     67  F   UNL A   1      40.291  28.315  31.381  1.00  0.00    -0.203 F 
ATOM     68  F   UNL A   1      36.709  29.954  27.605  1.00  0.00    -0.200 F 
ATOM     69  C   UNL A   1      37.178  29.326  29.832  1.00  0.00     0.200 A 
ATOM     70  F   UNL A   1      37.699  28.703  32.049  1.00  0.00    -0.200 F 
ATOM     71  F   UNL A   1      35.904  29.553  30.180  1.00  0.00    -0.200 F 
ENDBRANCH  47  61
BRANCH  48  72
ATOM     72  C   UNL A   1      49.256  26.877  26.395  1.00  0.00     0.064 A 
ATOM     73  C   UNL A   1      50.220  26.510  27.345  1.00  0.00     0.173 A 
ATOM     74  C   UNL A   1      49.662  26.964  25.055  1.00  0.00     0.173 A 
ATOM     75  F   UNL A   1      49.886  26.434  28.642  1.00  0.00    -0.203 F 
ATOM     76  C   UNL A   1      51.539  26.259  26.974  1.00  0.00     0.198 A 
ATOM     77  C   UNL A   1      50.974  26.684  24.680  1.00  0.00     0.198 A 
ATOM     78  F   UNL A   1      48.780  27.308  24.105  1.00  0.00    -0.203 F 
ATOM     79  F   UNL A   1      52.449  25.954  27.908  1.00  0.00    -0.200 F 
ATOM     80  C   UNL A   1      51.914  26.339  25.641  1.00  0.00     0.200 A 
ATOM     81  F   UNL A   1      51.329  26.747  23.390  1.00  0.00    -0.200 F 
ATOM     82  F   UNL A   1      53.181  26.091  25.283  1.00  0.00    -0.200 F 
ENDBRANCH  48  72
BRANCH  60  83
ATOM     83  C   UNL A   1      45.970  32.670  28.454  1.00  0.00     0.064 A 
ATOM     84  C   UNL A   1      46.481  33.118  29.681  1.00  0.00     0.173 A 
ATOM     85  C   UNL A   1      45.949  33.575  27.382  1.00  0.00     0.173 A 
ATOM     86  F   UNL A   1      46.507  32.298  30.742  1.00  0.00    -0.203 F 
ATOM     87  C   UNL A   1      46.937  34.426  29.832  1.00  0.00     0.198 A 
ATOM     88  C   UNL A   1      46.436  34.871  27.527  1.00  0.00     0.198 A 
ATOM     89  F   UNL A   1      45.473  33.197  26.186  1.00  0.00    -0.203 F 
ATOM     90  F   UNL A   1      47.382  34.845  31.025  1.00  0.00    -0.200 F 
ATOM     91  C   UNL A   1      46.924  35.297  28.753  1.00  0.00     0.200 A 
ATOM     92  F   UNL A   1      46.435  35.708  26.479  1.00  0.00    -0.200 F 
ATOM     93  F   UNL A   1      47.378  36.550  28.897  1.00  0.00    -0.200 F 
ENDBRANCH  60  83
ENDBRANCH  34  35
ENDBRANCH  26  29
ENDBRANCH  24  25
ENDBRANCH  23  24
ENDBRANCH   1  23
TORSDOF 14
ENDMDL
MODEL 2
REMARK VINA RESULT:     -11.8      5.808     11.237
REMARK SMILES CC(C)(NC(=O)[C@]1(C)CCCO1)C(C)(C)C(=O)NCCCCNC(=O)c1ccc(-c2c3nc(c(-c4c(F)c(F)c(F)c(F)c4F)c4ccc([nH]4)c(-c4c(F)c(F)c(F)c(F)c4F)c4nc(c(-c5c(F)c(F)c(F)c(F)c5F)c5ccc2[nH]5)C=C4)C=C3)cc1
REMARK SMILES IDX 20 1 19 2 18 3 16 4 17 5 13 7 14 8 15 9 2 10 1 11 3 12 4 13
REMARK SMILES IDX 5 14 6 16 7 17 9 18 12 19 8 20 10 21 11 22 21 23 22 24 23 25
REMARK SMILES IDX 24 26 25 28 26 29 27 30 88 31 28 32 87 33 29 34 30 35 31 36
REMARK SMILES IDX 81 37 32 38 86 39 80 40 82 41 33 42 85 43 79 44 78 45 34 47
REMARK SMILES IDX 66 48 46 49 65 50 47 51 50 52 64 53 83 54 48 55 49 56 63 58
REMARK SMILES IDX 84 59 51 60 35 61 36 62 44 63 37 64 38 65 42 66 45 67 39 68
REMARK SMILES IDX 40 69 43 70 41 71 67 72 68 73 76 74 69 75 70 76 74 77 77 78
REMARK SMILES IDX 71 79 72 80 75 81 73 82 52 83 53 84 61 85 54 86 55 87 59 88
REMARK SMILES IDX 62 89 56 90 57 91 60 92 58 93
REMARK H PARENT 18 6 4 15 23 27 82 46 50 57
REMARK Flexibility Score: inf
ROOT
ATOM      1  C   UNL A   1      32.009  30.549  26.178  1.00  0.00     0.023 C 
ENDROOT
BRANCH   1   2
ATOM      2  C   UNL A   1      33.252  29.866  26.759  1.00  0.00     0.116 C 
BRANCH   2   3
ATOM      3  N   UNL A   1      33.935  29.058  25.772  1.00  0.00    -0.356 N 
ATOM      4  C   UNL A   1      33.518  28.032  24.990  1.00  0.00     0.228 C 
ATOM      5  O   UNL A   1      34.050  28.086  23.874  1.00  0.00    -0.274 OA
ATOM      6  H   UNL A   1      34.881  29.297  25.645  1.00  0.00     0.163 HD
BRANCH   4   7
ATOM      7  C   UNL A   1      32.557  26.867  25.398  1.00  0.00     0.066 C 
ATOM      8  C   UNL A   1      31.698  26.980  26.663  1.00  0.00     0.024 C 
ATOM      9  C   UNL A   1      33.498  25.673  25.706  1.00  0.00     0.024 C 
BRANCH   7  10
ATOM     10  C   UNL A   1      31.551  26.612  24.186  1.00  0.00     0.048 C 
ATOM     11  C   UNL A   1      30.676  27.866  23.857  1.00  0.00     0.035 C 
ATOM     12  C   UNL A   1      30.480  25.517  24.525  1.00  0.00     0.035 C 
BRANCH  10  13
ATOM     13  N   UNL A   1      32.190  26.205  22.865  1.00  0.00    -0.348 N 
ATOM     14  C   UNL A   1      32.850  25.298  22.116  1.00  0.00     0.252 C 
ATOM     15  H   UNL A   1      32.057  26.977  22.270  1.00  0.00     0.164 HD
ATOM     16  O   UNL A   1      33.157  25.832  21.024  1.00  0.00    -0.272 OA
BRANCH  14  17
ATOM     17  C   UNL A   1      33.367  23.802  22.336  1.00  0.00     0.143 C 
ATOM     18  C   UNL A   1      32.702  22.782  23.249  1.00  0.00     0.048 C 
ATOM     19  O   UNL A   1      34.757  23.831  22.731  1.00  0.00    -0.365 OA
ATOM     20  C   UNL A   1      33.296  23.137  20.932  1.00  0.00     0.053 C 
ATOM     21  C   UNL A   1      33.772  22.236  24.172  1.00  0.00     0.032 C 
ATOM     22  C   UNL A   1      35.064  22.713  23.567  1.00  0.00     0.162 C 
ENDBRANCH  14  17
ENDBRANCH  10  13
ENDBRANCH   7  10
ENDBRANCH   4   7
ENDBRANCH   2   3
ENDBRANCH   1   2
BRANCH   1  23
ATOM     23  C   UNL A   1      31.672  31.947  26.739  1.00  0.00     0.023 C 
BRANCH  23  24
ATOM     24  C   UNL A   1      32.813  32.723  27.406  1.00  0.00     0.116 C 
BRANCH  24  25
ATOM     25  N   UNL A   1      32.465  34.098  27.737  1.00  0.00    -0.352 N 
ATOM     26  C   UNL A   1      33.019  34.973  28.643  1.00  0.00     0.251 C 
ATOM     27  H   UNL A   1      31.708  34.464  27.225  1.00  0.00     0.163 HD
ATOM     28  O   UNL A   1      32.485  36.062  28.848  1.00  0.00    -0.269 OA
BRANCH  26  29
ATOM     29  C   UNL A   1      34.228  34.604  29.409  1.00  0.00     0.039 A 
ATOM     30  C   UNL A   1      34.086  34.177  30.733  1.00  0.00     0.014 A 
ATOM     31  C   UNL A   1      35.496  34.672  28.829  1.00  0.00     0.014 A 
ATOM     32  C   UNL A   1      35.199  33.704  31.436  1.00  0.00     0.010 A 
ATOM     33  C   UNL A   1      36.594  34.144  29.507  1.00  0.00     0.010 A 
ATOM     34  C   UNL A   1      36.452  33.623  30.804  1.00  0.00    -0.014 A 
BRANCH  34  35
ATOM     35  C   UNL A   1      37.602  32.935  31.449  1.00  0.00     0.031 A 
ATOM     36  C   UNL A   1      38.240  31.738  30.805  1.00  0.00     0.074 A 
ATOM     37  C   UNL A   1      38.010  33.334  32.670  1.00  0.00     0.049 A 
ATOM     38  N   UNL A   1      39.172  30.943  31.270  1.00  0.00    -0.248 NA
ATOM     39  C   UNL A   1      37.750  31.371  29.468  1.00  0.00     0.031 C 
ATOM     40  C   UNL A   1      37.453  34.462  33.420  1.00  0.00     0.029 A 
ATOM     41  N   UNL A   1      38.976  32.829  33.507  1.00  0.00    -0.354 N 
ATOM     42  C   UNL A   1      39.372  29.981  30.291  1.00  0.00     0.074 A 
ATOM     43  C   UNL A   1      38.428  30.259  29.228  1.00  0.00     0.031 C 
ATOM     44  C   UNL A   1      38.097  34.575  34.592  1.00  0.00     0.029 A 
ATOM     45  C   UNL A   1      39.077  33.499  34.702  1.00  0.00     0.049 A 
ATOM     46  H   UNL A   1      39.543  32.058  33.271  1.00  0.00     0.167 HD
ATOM     47  C   UNL A   1      40.276  28.970  30.268  1.00  0.00     0.037 A 
ATOM     48  C   UNL A   1      39.857  33.264  35.775  1.00  0.00     0.037 A 
ATOM     49  C   UNL A   1      41.216  28.698  31.327  1.00  0.00     0.049 A 
ATOM     50  C   UNL A   1      40.809  32.098  35.751  1.00  0.00     0.074 A 
ATOM     51  C   UNL A   1      42.201  27.727  31.378  1.00  0.00     0.029 A 
ATOM     52  N   UNL A   1      41.277  29.391  32.527  1.00  0.00    -0.354 N 
ATOM     53  N   UNL A   1      41.035  31.235  34.792  1.00  0.00    -0.248 NA
ATOM     54  C   UNL A   1      41.610  31.873  36.963  1.00  0.00     0.031 C 
ATOM     55  C   UNL A   1      42.819  27.795  32.631  1.00  0.00     0.029 A 
ATOM     56  C   UNL A   1      42.261  28.847  33.339  1.00  0.00     0.049 A 
ATOM     57  H   UNL A   1      40.707  30.157  32.767  1.00  0.00     0.167 HD
ATOM     58  C   UNL A   1      42.022  30.382  35.270  1.00  0.00     0.074 A 
ATOM     59  C   UNL A   1      42.362  30.842  36.601  1.00  0.00     0.031 C 
ATOM     60  C   UNL A   1      42.595  29.317  34.660  1.00  0.00     0.037 A 
BRANCH  47  61
ATOM     61  C   UNL A   1      40.286  28.077  29.060  1.00  0.00     0.064 A 
ATOM     62  C   UNL A   1      41.018  28.407  27.908  1.00  0.00     0.173 A 
ATOM     63  C   UNL A   1      39.576  26.866  29.059  1.00  0.00     0.173 A 
ATOM     64  F   UNL A   1      41.709  29.555  27.853  1.00  0.00    -0.203 F 
ATOM     65  C   UNL A   1      41.006  27.579  26.788  1.00  0.00     0.198 A 
ATOM     66  C   UNL A   1      39.596  26.024  27.950  1.00  0.00     0.198 A 
ATOM     67  F   UNL A   1      38.869  26.495  30.136  1.00  0.00    -0.203 F 
ATOM     68  F   UNL A   1      41.664  27.946  25.679  1.00  0.00    -0.200 F 
ATOM     69  C   UNL A   1      40.300  26.386  26.812  1.00  0.00     0.200 A 
ATOM     70  F   UNL A   1      38.926  24.863  27.980  1.00  0.00    -0.200 F 
ATOM     71  F   UNL A   1      40.293  25.589  25.734  1.00  0.00    -0.200 F 
ENDBRANCH  47  61
BRANCH  48  72
ATOM     72  C   UNL A   1      39.784  34.160  36.960  1.00  0.00     0.064 A 
ATOM     73  C   UNL A   1      40.539  35.341  37.013  1.00  0.00     0.173 A 
ATOM     74  C   UNL A   1      38.968  33.860  38.061  1.00  0.00     0.173 A 
ATOM     75  F   UNL A   1      41.351  35.662  35.994  1.00  0.00    -0.203 F 
ATOM     76  C   UNL A   1      40.494  36.176  38.126  1.00  0.00     0.198 A 
ATOM     77  C   UNL A   1      38.901  34.711  39.161  1.00  0.00     0.198 A 
ATOM     78  F   UNL A   1      38.223  32.745  38.061  1.00  0.00    -0.203 F 
ATOM     79  F   UNL A   1      41.260  37.275  38.169  1.00  0.00    -0.200 F 
ATOM     80  C   UNL A   1      39.670  35.864  39.197  1.00  0.00     0.200 A 
ATOM     81  F   UNL A   1      38.092  34.414  40.187  1.00  0.00    -0.200 F 
ATOM     82  F   UNL A   1      39.622  36.672  40.266  1.00  0.00    -0.200 F 
ENDBRANCH  48  72
BRANCH  60  83
ATOM     83  C   UNL A   1      43.675  28.587  35.409  1.00  0.00     0.064 A 
ATOM     84  C   UNL A   1      45.030  28.911  35.251  1.00  0.00     0.173 A 
ATOM     85  C   UNL A   1      43.342  27.590  36.338  1.00  0.00     0.173 A 
ATOM     86  F   UNL A   1      45.402  29.844  34.362  1.00  0.00    -0.203 F 
ATOM     87  C   UNL A   1      46.014  28.249  35.981  1.00  0.00     0.198 A 
ATOM     88  C   UNL A   1      44.325  26.954  37.091  1.00  0.00     0.198 A 
ATOM     89  F   UNL A   1      42.060  27.245  36.531  1.00  0.00    -0.203 F 
ATOM     90  F   UNL A   1      47.306  28.545  35.783  1.00  0.00    -0.200 F 
ATOM     91  C   UNL A   1      45.660  27.279  36.908  1.00  0.00     0.200 A 
ATOM     92  F   UNL A   1      43.980  26.027  37.996  1.00  0.00    -0.200 F 
ATOM     93  F   UNL A   1      46.608  26.655  37.621  1.00  0.00    -0.200 F 
ENDBRANCH  60  83
ENDBRANCH  34  35
ENDBRANCH  26  29
ENDBRANCH  24  25
ENDBRANCH  23  24
ENDBRANCH   1  23
TORSDOF 14
ENDMDL
MODEL 3
REMARK VINA RESULT:     -11.8      5.698     10.218
REMARK SMILES CC(C)(NC(=O)[C@]1(C)CCCO1)C(C)(C)C(=O)NCCCCNC(=O)c1ccc(-c2c3nc(c(-c4c(F)c(F)c(F)c(F)c4F)c4ccc([nH]4)c(-c4c(F)c(F)c(F)c(F)c4F)c4nc(c(-c5c(F)c(F)c(F)c(F)c5F)c5ccc2[nH]5)C=C4)C=C3)cc1
REMARK SMILES IDX 20 1 19 2 18 3 16 4 17 5 13 7 14 8 15 9 2 10 1 11 3 12 4 13
REMARK SMILES IDX 5 14 6 16 7 17 9 18 12 19 8 20 10 21 11 22 21 23 22 24 23 25
REMARK SMILES IDX 24 26 25 28 26 29 27 30 88 31 28 32 87 33 29 34 30 35 31 36
REMARK SMILES IDX 81 37 32 38 86 39 80 40 82 41 33 42 85 43 79 44 78 45 34 47
REMARK SMILES IDX 66 48 46 49 65 50 47 51 50 52 64 53 83 54 48 55 49 56 63 58
REMARK SMILES IDX 84 59 51 60 35 61 36 62 44 63 37 64 38 65 42 66 45 67 39 68
REMARK SMILES IDX 40 69 43 70 41 71 67 72 68 73 76 74 69 75 70 76 74 77 77 78
REMARK SMILES IDX 71 79 72 80 75 81 73 82 52 83 53 84 61 85 54 86 55 87 59 88
REMARK SMILES IDX 62 89 56 90 57 91 60 92 58 93
REMARK H PARENT 18 6 4 15 23 27 82 46 50 57
REMARK Flexibility Score: inf
ROOT
ATOM      1  C   UNL A   1      31.770  30.743  26.221  1.00  0.00     0.023 C 
ENDROOT
BRANCH   1   2
ATOM      2  C   UNL A   1      32.969  30.025  26.851  1.00  0.00     0.116 C 
BRANCH   2   3
ATOM      3  N   UNL A   1      33.741  29.298  25.866  1.00  0.00    -0.356 N 
ATOM      4  C   UNL A   1      33.419  28.285  25.025  1.00  0.00     0.228 C 
ATOM      5  O   UNL A   1      33.996  28.414  23.939  1.00  0.00    -0.274 OA
ATOM      6  H   UNL A   1      34.677  29.594  25.794  1.00  0.00     0.163 HD
BRANCH   4   7
ATOM      7  C   UNL A   1      32.508  27.052  25.341  1.00  0.00     0.066 C 
ATOM      8  C   UNL A   1      31.608  27.054  26.582  1.00  0.00     0.024 C 
ATOM      9  C   UNL A   1      33.499  25.892  25.616  1.00  0.00     0.024 C 
BRANCH   7  10
ATOM     10  C   UNL A   1      31.552  26.814  24.086  1.00  0.00     0.048 C 
ATOM     11  C   UNL A   1      30.730  28.089  23.705  1.00  0.00     0.035 C 
ATOM     12  C   UNL A   1      30.434  25.754  24.385  1.00  0.00     0.035 C 
BRANCH  10  13
ATOM     13  N   UNL A   1      32.239  26.374  22.800  1.00  0.00    -0.348 N 
ATOM     14  C   UNL A   1      32.906  25.441  22.091  1.00  0.00     0.252 C 
ATOM     15  H   UNL A   1      32.156  27.143  22.192  1.00  0.00     0.164 HD
ATOM     16  O   UNL A   1      33.278  25.954  21.010  1.00  0.00    -0.272 OA
BRANCH  14  17
ATOM     17  C   UNL A   1      33.367  23.932  22.349  1.00  0.00     0.143 C 
ATOM     18  C   UNL A   1      32.663  22.959  23.283  1.00  0.00     0.048 C 
ATOM     19  O   UNL A   1      34.756  23.921  22.750  1.00  0.00    -0.365 OA
ATOM     20  C   UNL A   1      33.277  23.237  20.961  1.00  0.00     0.053 C 
ATOM     21  C   UNL A   1      33.710  22.397  24.223  1.00  0.00     0.032 C 
ATOM     22  C   UNL A   1      35.019  22.813  23.613  1.00  0.00     0.162 C 
ENDBRANCH  14  17
ENDBRANCH  10  13
ENDBRANCH   7  10
ENDBRANCH   4   7
ENDBRANCH   2   3
ENDBRANCH   1   2
BRANCH   1  23
ATOM     23  C   UNL A   1      31.575  32.222  26.616  1.00  0.00     0.023 C 
BRANCH  23  24
ATOM     24  C   UNL A   1      32.772  32.938  27.251  1.00  0.00     0.116 C 
BRANCH  24  25
ATOM     25  N   UNL A   1      32.475  34.296  27.685  1.00  0.00    -0.352 N 
ATOM     26  C   UNL A   1      33.015  35.056  28.696  1.00  0.00     0.251 C 
ATOM     27  H   UNL A   1      31.771  34.748  27.165  1.00  0.00     0.163 HD
ATOM     28  O   UNL A   1      32.526  36.152  28.968  1.00  0.00    -0.269 OA
BRANCH  26  29
ATOM     29  C   UNL A   1      34.154  34.554  29.493  1.00  0.00     0.039 A 
ATOM     30  C   UNL A   1      33.906  34.008  30.757  1.00  0.00     0.014 A 
ATOM     31  C   UNL A   1      35.459  34.614  29.002  1.00  0.00     0.014 A 
ATOM     32  C   UNL A   1      34.949  33.414  31.476  1.00  0.00     0.010 A 
ATOM     33  C   UNL A   1      36.486  33.968  29.690  1.00  0.00     0.010 A 
ATOM     34  C   UNL A   1      36.236  33.332  30.917  1.00  0.00    -0.014 A 
BRANCH  34  35
ATOM     35  C   UNL A   1      37.310  32.527  31.558  1.00  0.00     0.031 A 
ATOM     36  C   UNL A   1      37.842  32.896  32.913  1.00  0.00     0.074 A 
ATOM     37  C   UNL A   1      37.876  31.515  30.870  1.00  0.00     0.049 A 
ATOM     38  N   UNL A   1      38.849  32.384  33.577  1.00  0.00    -0.248 NA
ATOM     39  C   UNL A   1      37.165  34.002  33.606  1.00  0.00     0.031 C 
ATOM     40  C   UNL A   1      37.475  31.076  29.532  1.00  0.00     0.029 A 
ATOM     41  N   UNL A   1      38.920  30.681  31.191  1.00  0.00    -0.354 N 
ATOM     42  C   UNL A   1      38.933  33.110  34.757  1.00  0.00     0.074 A 
ATOM     43  C   UNL A   1      37.908  34.132  34.695  1.00  0.00     0.031 C 
ATOM     44  C   UNL A   1      38.247  30.045  29.156  1.00  0.00     0.029 A 
ATOM     45  C   UNL A   1      39.232  29.782  30.200  1.00  0.00     0.049 A 
ATOM     46  H   UNL A   1      39.400  30.725  32.050  1.00  0.00     0.167 HD
ATOM     47  C   UNL A   1      39.772  32.927  35.806  1.00  0.00     0.037 A 
ATOM     48  C   UNL A   1      40.211  28.859  30.132  1.00  0.00     0.037 A 
ATOM     49  C   UNL A   1      40.788  31.907  35.864  1.00  0.00     0.049 A 
ATOM     50  C   UNL A   1      41.170  28.717  31.283  1.00  0.00     0.074 A 
ATOM     51  C   UNL A   1      41.657  31.612  36.901  1.00  0.00     0.029 A 
ATOM     52  N   UNL A   1      41.082  31.024  34.836  1.00  0.00    -0.354 N 
ATOM     53  N   UNL A   1      41.197  29.365  32.422  1.00  0.00    -0.248 NA
ATOM     54  C   UNL A   1      42.237  27.717  31.137  1.00  0.00     0.031 C 
ATOM     55  C   UNL A   1      42.513  30.590  36.478  1.00  0.00     0.029 A 
ATOM     56  C   UNL A   1      42.140  30.205  35.200  1.00  0.00     0.049 A 
ATOM     57  H   UNL A   1      40.608  30.983  33.973  1.00  0.00     0.167 HD
ATOM     58  C   UNL A   1      42.262  28.834  33.139  1.00  0.00     0.074 A 
ATOM     59  C   UNL A   1      42.848  27.800  32.311  1.00  0.00     0.031 C 
ATOM     60  C   UNL A   1      42.711  29.174  34.371  1.00  0.00     0.037 A 
BRANCH  47  61
ATOM     61  C   UNL A   1      39.629  33.858  36.977  1.00  0.00     0.064 A 
ATOM     62  C   UNL A   1      40.269  35.108  37.004  1.00  0.00     0.173 A 
ATOM     63  C   UNL A   1      38.827  33.510  38.074  1.00  0.00     0.173 A 
ATOM     64  F   UNL A   1      41.053  35.488  35.984  1.00  0.00    -0.203 F 
ATOM     65  C   UNL A   1      40.143  35.955  38.103  1.00  0.00     0.198 A 
ATOM     66  C   UNL A   1      38.675  34.376  39.155  1.00  0.00     0.198 A 
ATOM     67  F   UNL A   1      38.184  32.334  38.096  1.00  0.00    -0.203 F 
ATOM     68  F   UNL A   1      40.813  37.116  38.131  1.00  0.00    -0.200 F 
ATOM     69  C   UNL A   1      39.342  35.591  39.174  1.00  0.00     0.200 A 
ATOM     70  F   UNL A   1      37.887  34.030  40.183  1.00  0.00    -0.200 F 
ATOM     71  F   UNL A   1      39.220  36.409  40.229  1.00  0.00    -0.200 F 
ENDBRANCH  47  61
BRANCH  48  72
ATOM     72  C   UNL A   1      40.329  27.984  28.934  1.00  0.00     0.064 A 
ATOM     73  C   UNL A   1      41.113  28.372  27.838  1.00  0.00     0.173 A 
ATOM     74  C   UNL A   1      39.664  26.752  28.855  1.00  0.00     0.173 A 
ATOM     75  F   UNL A   1      41.752  29.552  27.858  1.00  0.00    -0.203 F 
ATOM     76  C   UNL A   1      41.213  27.571  26.704  1.00  0.00     0.198 A 
ATOM     77  C   UNL A   1      39.789  25.937  27.732  1.00  0.00     0.198 A 
ATOM     78  F   UNL A   1      38.903  26.331  29.876  1.00  0.00    -0.203 F 
ATOM     79  F   UNL A   1      41.933  27.988  25.654  1.00  0.00    -0.200 F 
ATOM     80  C   UNL A   1      40.556  26.351  26.654  1.00  0.00     0.200 A 
ATOM     81  F   UNL A   1      39.165  24.752  27.693  1.00  0.00    -0.200 F 
ATOM     82  F   UNL A   1      40.658  25.578  25.564  1.00  0.00    -0.200 F 
ENDBRANCH  48  72
BRANCH  60  83
ATOM     83  C   UNL A   1      43.877  28.401  34.921  1.00  0.00     0.064 A 
ATOM     84  C   UNL A   1      45.197  28.847  34.764  1.00  0.00     0.173 A 
ATOM     85  C   UNL A   1      43.664  27.228  35.661  1.00  0.00     0.173 A 
ATOM     86  F   UNL A   1      45.457  29.952  34.049  1.00  0.00    -0.203 F 
ATOM     87  C   UNL A   1      46.263  28.137  35.313  1.00  0.00     0.198 A 
ATOM     88  C   UNL A   1      44.728  26.539  36.236  1.00  0.00     0.198 A 
ATOM     89  F   UNL A   1      42.420  26.760  35.845  1.00  0.00    -0.203 F 
ATOM     90  F   UNL A   1      47.520  28.558  35.114  1.00  0.00    -0.200 F 
ATOM     91  C   UNL A   1      46.027  26.990  36.057  1.00  0.00     0.200 A 
ATOM     92  F   UNL A   1      44.497  25.439  36.967  1.00  0.00    -0.200 F 
ATOM     93  F   UNL A   1      47.052  26.318  36.597  1.00  0.00    -0.200 F 
ENDBRANCH  60  83
ENDBRANCH  34  35
ENDBRANCH  26  29
ENDBRANCH  24  25
ENDBRANCH  23  24
ENDBRANCH   1  23
TORSDOF 14
ENDMDL
