MODEL 1
REMARK VINA RESULT:     -11.8      0.000      0.000
REMARK SMILES C[C@]1(C(=O)NCCn2cc(C(=O)NCCCCNC(=O)c3ccc(-c4c5nc(c(-c6c(F)c(F)c(F)c(F)c6F)c6ccc([nH]6)c(-c6c(F)c(F)c(F)c(F)c6F)c6nc(c(-c7c(F)c(F)c(F)c(F)c7F)c7ccc4[nH]7)C=C6)C=C5)cc3)nn2)CCCO1
REMARK SMILES IDX 14 1 13 2 11 3 12 4 10 6 8 7 9 8 85 9 84 10 7 11 6 12 5 13
REMARK SMILES IDX 3 14 4 15 2 17 1 18 86 19 89 20 87 21 88 22 15 23 16 24
REMARK SMILES IDX 17 25 18 26 19 27 20 29 21 30 22 31 83 32 23 33 82 34 24 35
REMARK SMILES IDX 25 36 26 37 76 38 27 39 81 40 75 41 77 42 28 43 80 44 74 45
REMARK SMILES IDX 73 46 29 48 61 49 41 50 60 51 42 52 45 53 59 54 78 55 43 56
REMARK SMILES IDX 44 57 58 59 79 60 46 61 30 62 31 63 39 64 32 65 33 66 37 67
REMARK SMILES IDX 40 68 34 69 35 70 38 71 36 72 62 73 63 74 71 75 64 76 65 77
REMARK SMILES IDX 69 78 72 79 66 80 67 81 70 82 68 83 47 84 48 85 56 86 49 87
REMARK SMILES IDX 50 88 54 89 57 90 51 91 52 92 55 93 53 94
REMARK H PARENT 13 5 5 16 18 28 77 47 45 58
REMARK Flexibility Score: inf
ROOT
ATOM      1  C   UNL A   1      36.320  21.036  25.503  1.00  0.00     0.116 C 
ENDROOT
BRANCH   1   2
ATOM      2  N   UNL A   1      35.389  19.992  25.135  1.00  0.00    -0.351 N 
ATOM      3  C   UNL A   1      34.074  20.036  24.735  1.00  0.00     0.273 C 
ATOM      4  O   UNL A   1      33.546  18.953  24.472  1.00  0.00    -0.267 OA
ATOM      5  H   UNL A   1      35.766  19.083  25.178  1.00  0.00     0.163 HD
BRANCH   3   6
ATOM      6  C   UNL A   1      33.362  21.300  24.599  1.00  0.00     0.170 A 
ATOM      7  N   UNL A   1      32.380  23.122  23.962  1.00  0.00    -0.250 N 
ATOM      8  C   UNL A   1      33.254  22.176  23.539  1.00  0.00     0.145 A 
ATOM      9  N   UNL A   1      32.014  22.923  25.232  1.00  0.00    -0.067 NA
ATOM     10  N   UNL A   1      32.626  21.823  25.647  1.00  0.00    -0.125 NA
BRANCH   7  11
ATOM     11  C   UNL A   1      31.864  24.222  23.179  1.00  0.00     0.167 C 
BRANCH  11  12
ATOM     12  C   UNL A   1      32.165  25.567  23.824  1.00  0.00     0.139 C 
BRANCH  12  13
ATOM     13  N   UNL A   1      31.394  25.764  25.045  1.00  0.00    -0.352 N 
ATOM     14  C   UNL A   1      31.326  26.747  25.982  1.00  0.00     0.252 C 
ATOM     15  O   UNL A   1      30.565  26.510  26.929  1.00  0.00    -0.272 OA
ATOM     16  H   UNL A   1      30.784  25.015  25.235  1.00  0.00     0.163 HD
BRANCH  14  17
ATOM     17  C   UNL A   1      32.066  28.113  25.882  1.00  0.00     0.143 C 
ATOM     18  C   UNL A   1      31.741  29.016  24.695  1.00  0.00     0.053 C 
ATOM     19  C   UNL A   1      31.922  28.846  27.218  1.00  0.00     0.048 C 
ATOM     20  O   UNL A   1      33.494  27.880  25.777  1.00  0.00    -0.365 OA
ATOM     21  C   UNL A   1      33.135  29.743  27.225  1.00  0.00     0.032 C 
ATOM     22  C   UNL A   1      34.182  28.879  26.550  1.00  0.00     0.162 C 
ENDBRANCH  14  17
ENDBRANCH  12  13
ENDBRANCH  11  12
ENDBRANCH   7  11
ENDBRANCH   3   6
ENDBRANCH   1   2
BRANCH   1  23
ATOM     23  C   UNL A   1      37.608  20.942  24.681  1.00  0.00     0.023 C 
BRANCH  23  24
ATOM     24  C   UNL A   1      38.474  19.726  25.038  1.00  0.00     0.023 C 
BRANCH  24  25
ATOM     25  C   UNL A   1      39.480  20.008  26.142  1.00  0.00     0.116 C 
BRANCH  25  26
ATOM     26  N   UNL A   1      40.741  19.282  25.993  1.00  0.00    -0.352 N 
ATOM     27  C   UNL A   1      41.993  19.846  25.728  1.00  0.00     0.251 C 
ATOM     28  H   UNL A   1      40.705  18.303  26.087  1.00  0.00     0.163 HD
ATOM     29  O   UNL A   1      42.893  19.226  25.227  1.00  0.00    -0.269 OA
BRANCH  27  30
ATOM     30  C   UNL A   1      42.198  21.216  26.252  1.00  0.00     0.039 A 
ATOM     31  C   UNL A   1      42.377  22.384  25.513  1.00  0.00     0.014 A 
ATOM     32  C   UNL A   1      42.279  21.288  27.630  1.00  0.00     0.014 A 
ATOM     33  C   UNL A   1      42.654  23.566  26.236  1.00  0.00     0.010 A 
ATOM     34  C   UNL A   1      41.943  22.469  28.202  1.00  0.00     0.010 A 
ATOM     35  C   UNL A   1      42.574  23.552  27.652  1.00  0.00    -0.014 A 
BRANCH  35  36
ATOM     36  C   UNL A   1      42.524  24.711  28.562  1.00  0.00     0.031 A 
ATOM     37  C   UNL A   1      41.217  25.417  28.302  1.00  0.00     0.074 A 
ATOM     38  C   UNL A   1      43.428  24.960  29.572  1.00  0.00     0.049 A 
ATOM     39  N   UNL A   1      41.085  26.407  27.482  1.00  0.00    -0.248 NA
ATOM     40  C   UNL A   1      39.898  24.808  28.621  1.00  0.00     0.031 C 
ATOM     41  C   UNL A   1      44.633  24.216  30.015  1.00  0.00     0.029 A 
ATOM     42  N   UNL A   1      43.487  26.036  30.452  1.00  0.00    -0.354 N 
ATOM     43  C   UNL A   1      39.746  26.776  27.528  1.00  0.00     0.074 A 
ATOM     44  C   UNL A   1      39.042  25.619  27.984  1.00  0.00     0.031 C 
ATOM     45  C   UNL A   1      45.106  24.697  31.205  1.00  0.00     0.029 A 
ATOM     46  C   UNL A   1      44.356  25.882  31.579  1.00  0.00     0.049 A 
ATOM     47  H   UNL A   1      42.960  26.855  30.309  1.00  0.00     0.167 HD
ATOM     48  C   UNL A   1      39.442  28.103  27.567  1.00  0.00     0.037 A 
ATOM     49  C   UNL A   1      44.546  26.770  32.625  1.00  0.00     0.037 A 
ATOM     50  C   UNL A   1      40.621  28.857  27.199  1.00  0.00     0.049 A 
ATOM     51  C   UNL A   1      44.033  28.083  32.139  1.00  0.00     0.074 A 
ATOM     52  C   UNL A   1      41.402  28.953  26.065  1.00  0.00     0.029 A 
ATOM     53  N   UNL A   1      41.423  29.180  28.262  1.00  0.00    -0.354 N 
ATOM     54  N   UNL A   1      44.610  28.719  31.154  1.00  0.00    -0.248 NA
ATOM     55  C   UNL A   1      42.596  28.273  32.296  1.00  0.00     0.031 C 
ATOM     56  C   UNL A   1      42.750  28.956  26.539  1.00  0.00     0.029 A 
ATOM     57  C   UNL A   1      42.742  29.058  27.928  1.00  0.00     0.049 A 
ATOM     58  H   UNL A   1      41.093  29.462  29.146  1.00  0.00     0.167 HD
ATOM     59  C   UNL A   1      43.568  28.966  30.275  1.00  0.00     0.074 A 
ATOM     60  C   UNL A   1      42.348  28.638  31.034  1.00  0.00     0.031 C 
ATOM     61  C   UNL A   1      43.784  29.042  28.926  1.00  0.00     0.037 A 
BRANCH  48  62
ATOM     62  C   UNL A   1      38.356  28.729  28.420  1.00  0.00     0.064 A 
ATOM     63  C   UNL A   1      37.575  29.760  27.854  1.00  0.00     0.173 A 
ATOM     64  C   UNL A   1      38.250  28.596  29.822  1.00  0.00     0.173 A 
ATOM     65  F   UNL A   1      37.620  30.001  26.535  1.00  0.00    -0.203 F 
ATOM     66  C   UNL A   1      36.799  30.622  28.635  1.00  0.00     0.198 A 
ATOM     67  C   UNL A   1      37.437  29.430  30.594  1.00  0.00     0.198 A 
ATOM     68  F   UNL A   1      39.001  27.735  30.517  1.00  0.00    -0.203 F 
ATOM     69  F   UNL A   1      36.167  31.654  28.060  1.00  0.00    -0.200 F 
ATOM     70  C   UNL A   1      36.730  30.456  30.005  1.00  0.00     0.200 A 
ATOM     71  F   UNL A   1      37.406  29.272  31.925  1.00  0.00    -0.200 F 
ATOM     72  F   UNL A   1      36.019  31.304  30.760  1.00  0.00    -0.200 F 
ENDBRANCH  48  62
BRANCH  49  73
ATOM     73  C   UNL A   1      44.674  26.538  34.116  1.00  0.00     0.064 A 
ATOM     74  C   UNL A   1      43.675  25.945  34.939  1.00  0.00     0.173 A 
ATOM     75  C   UNL A   1      45.951  26.604  34.698  1.00  0.00     0.173 A 
ATOM     76  F   UNL A   1      42.428  25.768  34.476  1.00  0.00    -0.203 F 
ATOM     77  C   UNL A   1      43.954  25.459  36.237  1.00  0.00     0.198 A 
ATOM     78  C   UNL A   1      46.230  26.102  35.978  1.00  0.00     0.198 A 
ATOM     79  F   UNL A   1      46.983  27.070  33.986  1.00  0.00    -0.203 F 
ATOM     80  F   UNL A   1      42.992  24.877  36.973  1.00  0.00    -0.200 F 
ATOM     81  C   UNL A   1      45.238  25.525  36.747  1.00  0.00     0.200 A 
ATOM     82  F   UNL A   1      47.490  26.131  36.433  1.00  0.00    -0.200 F 
ATOM     83  F   UNL A   1      45.531  25.005  37.948  1.00  0.00    -0.200 F 
ENDBRANCH  49  73
BRANCH  61  84
ATOM     84  C   UNL A   1      45.204  29.076  28.421  1.00  0.00     0.064 A 
ATOM     85  C   UNL A   1      46.104  30.152  28.545  1.00  0.00     0.173 A 
ATOM     86  C   UNL A   1      45.717  27.875  27.920  1.00  0.00     0.173 A 
ATOM     87  F   UNL A   1      45.733  31.300  29.127  1.00  0.00    -0.203 F 
ATOM     88  C   UNL A   1      47.435  30.038  28.130  1.00  0.00     0.198 A 
ATOM     89  C   UNL A   1      47.048  27.751  27.542  1.00  0.00     0.198 A 
ATOM     90  F   UNL A   1      44.928  26.792  27.857  1.00  0.00    -0.203 F 
ATOM     91  F   UNL A   1      48.277  31.077  28.250  1.00  0.00    -0.200 F 
ATOM     92  C   UNL A   1      47.904  28.835  27.626  1.00  0.00     0.200 A 
ATOM     93  F   UNL A   1      47.507  26.562  27.129  1.00  0.00    -0.200 F 
ATOM     94  F   UNL A   1      49.183  28.712  27.245  1.00  0.00    -0.200 F 
ENDBRANCH  61  84
ENDBRANCH  35  36
ENDBRANCH  27  30
ENDBRANCH  25  26
ENDBRANCH  24  25
ENDBRANCH  23  24
ENDBRANCH   1  23
TORSDOF 15
ENDMDL
MODEL 2
REMARK VINA RESULT:     -11.7      4.453      9.965
REMARK SMILES C[C@]1(C(=O)NCCn2cc(C(=O)NCCCCNC(=O)c3ccc(-c4c5nc(c(-c6c(F)c(F)c(F)c(F)c6F)c6ccc([nH]6)c(-c6c(F)c(F)c(F)c(F)c6F)c6nc(c(-c7c(F)c(F)c(F)c(F)c7F)c7ccc4[nH]7)C=C6)C=C5)cc3)nn2)CCCO1
REMARK SMILES IDX 14 1 13 2 11 3 12 4 10 6 8 7 9 8 85 9 84 10 7 11 6 12 5 13
REMARK SMILES IDX 3 14 4 15 2 17 1 18 86 19 89 20 87 21 88 22 15 23 16 24
REMARK SMILES IDX 17 25 18 26 19 27 20 29 21 30 22 31 83 32 23 33 82 34 24 35
REMARK SMILES IDX 25 36 26 37 76 38 27 39 81 40 75 41 77 42 28 43 80 44 74 45
REMARK SMILES IDX 73 46 29 48 61 49 41 50 60 51 42 52 45 53 59 54 78 55 43 56
REMARK SMILES IDX 44 57 58 59 79 60 46 61 30 62 31 63 39 64 32 65 33 66 37 67
REMARK SMILES IDX 40 68 34 69 35 70 38 71 36 72 62 73 63 74 71 75 64 76 65 77
REMARK SMILES IDX 69 78 72 79 66 80 67 81 70 82 68 83 47 84 48 85 56 86 49 87
REMARK SMILES IDX 50 88 54 89 57 90 51 91 52 92 55 93 53 94
REMARK H PARENT 13 5 5 16 18 28 77 47 45 58
REMARK Flexibility Score: inf
ROOT
ATOM      1  C   UNL A   1      34.803  33.590  28.229  1.00  0.00     0.116 C 
ENDROOT
BRANCH   1   2
ATOM      2  N   UNL A   1      33.422  33.492  27.809  1.00  0.00    -0.351 N 
ATOM      3  C   UNL A   1      32.671  32.426  27.370  1.00  0.00     0.273 C 
ATOM      4  O   UNL A   1      31.493  32.664  27.094  1.00  0.00    -0.267 OA
ATOM      5  H   UNL A   1      32.929  34.344  27.844  1.00  0.00     0.163 HD
BRANCH   3   6
ATOM      6  C   UNL A   1      33.237  31.086  27.273  1.00  0.00     0.170 A 
ATOM      7  N   UNL A   1      33.756  29.032  26.825  1.00  0.00    -0.250 N 
ATOM      8  C   UNL A   1      32.748  29.931  26.699  1.00  0.00     0.145 A 
ATOM      9  N   UNL A   1      34.788  29.540  27.506  1.00  0.00    -0.067 NA
ATOM     10  N   UNL A   1      34.476  30.793  27.810  1.00  0.00    -0.125 NA
BRANCH   7  11
ATOM     11  C   UNL A   1      33.774  27.686  26.299  1.00  0.00     0.167 C 
BRANCH  11  12
ATOM     12  C   UNL A   1      32.454  27.321  25.635  1.00  0.00     0.139 C 
BRANCH  12  13
ATOM     13  N   UNL A   1      32.604  27.150  24.195  1.00  0.00    -0.352 N 
ATOM     14  C   UNL A   1      31.807  27.387  23.119  1.00  0.00     0.252 C 
ATOM     15  O   UNL A   1      32.289  27.046  22.031  1.00  0.00    -0.272 OA
ATOM     16  H   UNL A   1      33.480  26.779  23.945  1.00  0.00     0.163 HD
BRANCH  14  17
ATOM     17  C   UNL A   1      30.423  28.096  23.185  1.00  0.00     0.143 C 
ATOM     18  C   UNL A   1      29.232  27.289  23.697  1.00  0.00     0.053 C 
ATOM     19  C   UNL A   1      30.586  29.419  23.937  1.00  0.00     0.048 C 
ATOM     20  O   UNL A   1      30.031  28.511  21.852  1.00  0.00    -0.365 OA
ATOM     21  C   UNL A   1      29.449  30.244  23.388  1.00  0.00     0.032 C 
ATOM     22  C   UNL A   1      29.396  29.800  21.939  1.00  0.00     0.162 C 
ENDBRANCH  14  17
ENDBRANCH  12  13
ENDBRANCH  11  12
ENDBRANCH   7  11
ENDBRANCH   3   6
ENDBRANCH   1   2
BRANCH   1  23
ATOM     23  C   UNL A   1      34.945  34.510  29.444  1.00  0.00     0.023 C 
BRANCH  23  24
ATOM     24  C   UNL A   1      33.789  35.508  29.594  1.00  0.00     0.023 C 
BRANCH  24  25
ATOM     25  C   UNL A   1      33.026  35.354  30.900  1.00  0.00     0.116 C 
BRANCH  25  26
ATOM     26  N   UNL A   1      33.466  36.267  31.955  1.00  0.00    -0.352 N 
ATOM     27  C   UNL A   1      34.163  35.916  33.114  1.00  0.00     0.251 C 
ATOM     28  H   UNL A   1      33.249  37.220  31.837  1.00  0.00     0.163 HD
ATOM     29  O   UNL A   1      34.150  36.589  34.110  1.00  0.00    -0.269 OA
BRANCH  27  30
ATOM     30  C   UNL A   1      35.055  34.739  32.989  1.00  0.00     0.039 A 
ATOM     31  C   UNL A   1      34.686  33.396  33.002  1.00  0.00     0.014 A 
ATOM     32  C   UNL A   1      36.399  35.054  32.921  1.00  0.00     0.014 A 
ATOM     33  C   UNL A   1      35.729  32.442  32.965  1.00  0.00     0.010 A 
ATOM     34  C   UNL A   1      37.206  34.160  32.302  1.00  0.00     0.010 A 
ATOM     35  C   UNL A   1      37.063  32.875  32.753  1.00  0.00    -0.014 A 
BRANCH  35  36
ATOM     36  C   UNL A   1      38.228  32.051  32.384  1.00  0.00     0.031 A 
ATOM     37  C   UNL A   1      38.934  31.689  33.666  1.00  0.00     0.074 A 
ATOM     38  C   UNL A   1      38.481  31.568  31.118  1.00  0.00     0.049 A 
ATOM     39  N   UNL A   1      39.919  32.365  34.159  1.00  0.00    -0.248 NA
ATOM     40  C   UNL A   1      38.330  30.797  34.692  1.00  0.00     0.031 C 
ATOM     41  C   UNL A   1      37.738  31.721  29.842  1.00  0.00     0.029 A 
ATOM     42  N   UNL A   1      39.563  30.820  30.664  1.00  0.00    -0.354 N 
ATOM     43  C   UNL A   1      40.290  31.712  35.329  1.00  0.00     0.074 A 
ATOM     44  C   UNL A   1      39.138  30.978  35.745  1.00  0.00     0.031 C 
ATOM     45  C   UNL A   1      38.226  30.883  28.878  1.00  0.00     0.029 A 
ATOM     46  C   UNL A   1      39.415  30.215  29.375  1.00  0.00     0.049 A 
ATOM     47  H   UNL A   1      40.383  30.712  31.200  1.00  0.00     0.167 HD
ATOM     48  C   UNL A   1      41.619  31.548  35.584  1.00  0.00     0.037 A 
ATOM     49  C   UNL A   1      40.309  29.378  28.729  1.00  0.00     0.037 A 
ATOM     50  C   UNL A   1      42.368  32.420  34.706  1.00  0.00     0.049 A 
ATOM     51  C   UNL A   1      41.620  29.585  29.409  1.00  0.00     0.074 A 
ATOM     52  C   UNL A   1      42.454  33.786  34.530  1.00  0.00     0.029 A 
ATOM     53  N   UNL A   1      42.696  31.844  33.506  1.00  0.00    -0.354 N 
ATOM     54  N   UNL A   1      42.249  30.728  29.348  1.00  0.00    -0.248 NA
ATOM     55  C   UNL A   1      41.814  28.788  30.615  1.00  0.00     0.031 C 
ATOM     56  C   UNL A   1      42.458  33.982  33.114  1.00  0.00     0.029 A 
ATOM     57  C   UNL A   1      42.570  32.744  32.485  1.00  0.00     0.049 A 
ATOM     58  H   UNL A   1      42.985  30.909  33.395  1.00  0.00     0.167 HD
ATOM     59  C   UNL A   1      42.492  31.035  30.677  1.00  0.00     0.074 A 
ATOM     60  C   UNL A   1      42.171  29.799  31.414  1.00  0.00     0.031 C 
ATOM     61  C   UNL A   1      42.558  32.334  31.102  1.00  0.00     0.037 A 
BRANCH  48  62
ATOM     62  C   UNL A   1      42.252  30.297  36.160  1.00  0.00     0.064 A 
ATOM     63  C   UNL A   1      43.308  30.450  37.085  1.00  0.00     0.173 A 
ATOM     64  C   UNL A   1      42.098  28.995  35.633  1.00  0.00     0.173 A 
ATOM     65  F   UNL A   1      43.569  31.649  37.626  1.00  0.00    -0.203 F 
ATOM     66  C   UNL A   1      44.173  29.399  37.409  1.00  0.00     0.198 A 
ATOM     67  C   UNL A   1      42.936  27.937  35.996  1.00  0.00     0.198 A 
ATOM     68  F   UNL A   1      41.211  28.713  34.673  1.00  0.00    -0.203 F 
ATOM     69  F   UNL A   1      45.225  29.627  38.206  1.00  0.00    -0.200 F 
ATOM     70  C   UNL A   1      43.986  28.143  36.865  1.00  0.00     0.200 A 
ATOM     71  F   UNL A   1      42.756  26.733  35.435  1.00  0.00    -0.200 F 
ATOM     72  F   UNL A   1      44.835  27.146  37.144  1.00  0.00    -0.200 F 
ENDBRANCH  48  62
BRANCH  49  73
ATOM     73  C   UNL A   1      40.087  28.110  27.932  1.00  0.00     0.064 A 
ATOM     74  C   UNL A   1      40.750  27.783  26.715  1.00  0.00     0.173 A 
ATOM     75  C   UNL A   1      39.439  27.031  28.555  1.00  0.00     0.173 A 
ATOM     76  F   UNL A   1      41.458  28.713  26.055  1.00  0.00    -0.203 F 
ATOM     77  C   UNL A   1      40.756  26.473  26.184  1.00  0.00     0.198 A 
ATOM     78  C   UNL A   1      39.464  25.727  28.037  1.00  0.00     0.198 A 
ATOM     79  F   UNL A   1      38.849  27.205  29.743  1.00  0.00    -0.203 F 
ATOM     80  F   UNL A   1      41.420  26.196  25.049  1.00  0.00    -0.200 F 
ATOM     81  C   UNL A   1      40.124  25.443  26.857  1.00  0.00     0.200 A 
ATOM     82  F   UNL A   1      38.888  24.736  28.730  1.00  0.00    -0.200 F 
ATOM     83  F   UNL A   1      40.181  24.183  26.401  1.00  0.00    -0.200 F 
ENDBRANCH  49  73
BRANCH  61  84
ATOM     84  C   UNL A   1      42.587  33.433  30.071  1.00  0.00     0.064 A 
ATOM     85  C   UNL A   1      43.649  33.720  29.192  1.00  0.00     0.173 A 
ATOM     86  C   UNL A   1      41.391  34.129  29.870  1.00  0.00     0.173 A 
ATOM     87  F   UNL A   1      44.788  33.016  29.231  1.00  0.00    -0.203 F 
ATOM     88  C   UNL A   1      43.527  34.701  28.202  1.00  0.00     0.198 A 
ATOM     89  C   UNL A   1      41.259  35.077  28.862  1.00  0.00     0.198 A 
ATOM     90  F   UNL A   1      40.320  33.840  30.623  1.00  0.00    -0.203 F 
ATOM     91  F   UNL A   1      44.554  34.964  27.377  1.00  0.00    -0.200 F 
ATOM     92  C   UNL A   1      42.331  35.380  28.041  1.00  0.00     0.200 A 
ATOM     93  F   UNL A   1      40.074  35.671  28.669  1.00  0.00    -0.200 F 
ATOM     94  F   UNL A   1      42.200  36.306  27.081  1.00  0.00    -0.200 F 
ENDBRANCH  61  84
ENDBRANCH  35  36
ENDBRANCH  27  30
ENDBRANCH  25  26
ENDBRANCH  24  25
ENDBRANCH  23  24
ENDBRANCH   1  23
TORSDOF 15
ENDMDL
MODEL 3
REMARK VINA RESULT:     -11.6      1.183      2.216
REMARK SMILES C[C@]1(C(=O)NCCn2cc(C(=O)NCCCCNC(=O)c3ccc(-c4c5nc(c(-c6c(F)c(F)c(F)c(F)c6F)c6ccc([nH]6)c(-c6c(F)c(F)c(F)c(F)c6F)c6nc(c(-c7c(F)c(F)c(F)c(F)c7F)c7ccc4[nH]7)C=C6)C=C5)cc3)nn2)CCCO1
REMARK SMILES IDX 14 1 13 2 11 3 12 4 10 6 8 7 9 8 85 9 84 10 7 11 6 12 5 13
REMARK SMILES IDX 3 14 4 15 2 17 1 18 86 19 89 20 87 21 88 22 15 23 16 24
REMARK SMILES IDX 17 25 18 26 19 27 20 29 21 30 22 31 83 32 23 33 82 34 24 35
REMARK SMILES IDX 25 36 26 37 76 38 27 39 81 40 75 41 77 42 28 43 80 44 74 45
REMARK SMILES IDX 73 46 29 48 61 49 41 50 60 51 42 52 45 53 59 54 78 55 43 56
REMARK SMILES IDX 44 57 58 59 79 60 46 61 30 62 31 63 39 64 32 65 33 66 37 67
REMARK SMILES IDX 40 68 34 69 35 70 38 71 36 72 62 73 63 74 71 75 64 76 65 77
REMARK SMILES IDX 69 78 72 79 66 80 67 81 70 82 68 83 47 84 48 85 56 86 49 87
REMARK SMILES IDX 50 88 54 89 57 90 51 91 52 92 55 93 53 94
REMARK H PARENT 13 5 5 16 18 28 77 47 45 58
REMARK Flexibility Score: inf
ROOT
ATOM      1  C   UNL A   1      36.326  21.365  25.485  1.00  0.00     0.116 C 
ENDROOT
BRANCH   1   2
ATOM      2  N   UNL A   1      35.138  20.539  25.482  1.00  0.00    -0.351 N 
ATOM      3  C   UNL A   1      33.861  20.773  25.031  1.00  0.00     0.273 C 
ATOM      4  O   UNL A   1      33.057  19.847  25.159  1.00  0.00    -0.267 OA
ATOM      5  H   UNL A   1      35.269  19.645  25.875  1.00  0.00     0.163 HD
BRANCH   3   6
ATOM      6  C   UNL A   1      33.495  22.038  24.405  1.00  0.00     0.170 A 
ATOM      7  N   UNL A   1      33.077  23.714  23.100  1.00  0.00    -0.250 N 
ATOM      8  C   UNL A   1      33.759  22.543  23.149  1.00  0.00     0.145 A 
ATOM      9  N   UNL A   1      32.486  23.991  24.266  1.00  0.00    -0.067 NA
ATOM     10  N   UNL A   1      32.752  22.984  25.086  1.00  0.00    -0.125 NA
BRANCH   7  11
ATOM     11  C   UNL A   1      32.960  24.588  21.955  1.00  0.00     0.167 C 
BRANCH  11  12
ATOM     12  C   UNL A   1      31.909  25.667  22.171  1.00  0.00     0.139 C 
BRANCH  12  13
ATOM     13  N   UNL A   1      32.461  26.829  22.856  1.00  0.00    -0.352 N 
ATOM     14  C   UNL A   1      31.955  28.021  23.270  1.00  0.00     0.252 C 
ATOM     15  O   UNL A   1      32.783  28.787  23.780  1.00  0.00    -0.272 OA
ATOM     16  H   UNL A   1      33.417  26.727  23.067  1.00  0.00     0.163 HD
BRANCH  14  17
ATOM     17  C   UNL A   1      30.450  28.413  23.201  1.00  0.00     0.143 C 
ATOM     18  C   UNL A   1      29.419  27.360  23.603  1.00  0.00     0.053 C 
ATOM     19  C   UNL A   1      30.252  29.728  23.957  1.00  0.00     0.048 C 
ATOM     20  O   UNL A   1      30.104  28.753  21.834  1.00  0.00    -0.365 OA
ATOM     21  C   UNL A   1      29.020  30.297  23.298  1.00  0.00     0.032 C 
ATOM     22  C   UNL A   1      29.200  29.872  21.853  1.00  0.00     0.162 C 
ENDBRANCH  14  17
ENDBRANCH  12  13
ENDBRANCH  11  12
ENDBRANCH   7  11
ENDBRANCH   3   6
ENDBRANCH   1   2
BRANCH   1  23
ATOM     23  C   UNL A   1      37.385  20.812  24.527  1.00  0.00     0.023 C 
BRANCH  23  24
ATOM     24  C   UNL A   1      38.205  19.659  25.121  1.00  0.00     0.023 C 
BRANCH  24  25
ATOM     25  C   UNL A   1      39.322  20.127  26.041  1.00  0.00     0.116 C 
BRANCH  25  26
ATOM     26  N   UNL A   1      40.538  19.320  25.955  1.00  0.00    -0.352 N 
ATOM     27  C   UNL A   1      41.835  19.799  25.747  1.00  0.00     0.251 C 
ATOM     28  H   UNL A   1      40.434  18.346  26.051  1.00  0.00     0.163 HD
ATOM     29  O   UNL A   1      42.715  19.119  25.292  1.00  0.00    -0.269 OA
BRANCH  27  30
ATOM     30  C   UNL A   1      42.105  21.157  26.275  1.00  0.00     0.039 A 
ATOM     31  C   UNL A   1      42.299  22.325  25.540  1.00  0.00     0.014 A 
ATOM     32  C   UNL A   1      42.233  21.213  27.650  1.00  0.00     0.014 A 
ATOM     33  C   UNL A   1      42.640  23.490  26.263  1.00  0.00     0.010 A 
ATOM     34  C   UNL A   1      41.957  22.400  28.242  1.00  0.00     0.010 A 
ATOM     35  C   UNL A   1      42.607  23.466  27.681  1.00  0.00    -0.014 A 
BRANCH  35  36
ATOM     36  C   UNL A   1      42.626  24.618  28.601  1.00  0.00     0.031 A 
ATOM     37  C   UNL A   1      41.422  25.464  28.270  1.00  0.00     0.074 A 
ATOM     38  C   UNL A   1      43.487  24.759  29.668  1.00  0.00     0.049 A 
ATOM     39  N   UNL A   1      41.452  26.468  27.457  1.00  0.00    -0.248 NA
ATOM     40  C   UNL A   1      40.028  25.002  28.499  1.00  0.00     0.031 C 
ATOM     41  C   UNL A   1      44.574  23.885  30.175  1.00  0.00     0.029 A 
ATOM     42  N   UNL A   1      43.607  25.816  30.564  1.00  0.00    -0.354 N 
ATOM     43  C   UNL A   1      40.160  26.981  27.426  1.00  0.00     0.074 A 
ATOM     44  C   UNL A   1      39.308  25.905  27.822  1.00  0.00     0.031 C 
ATOM     45  C   UNL A   1      45.021  24.303  31.397  1.00  0.00     0.029 A 
ATOM     46  C   UNL A   1      44.383  25.560  31.740  1.00  0.00     0.049 A 
ATOM     47  H   UNL A   1      43.183  26.690  30.400  1.00  0.00     0.167 HD
ATOM     48  C   UNL A   1      40.001  28.334  27.463  1.00  0.00     0.037 A 
ATOM     49  C   UNL A   1      44.602  26.416  32.807  1.00  0.00     0.037 A 
ATOM     50  C   UNL A   1      41.275  28.956  27.178  1.00  0.00     0.049 A 
ATOM     51  C   UNL A   1      44.267  27.780  32.308  1.00  0.00     0.074 A 
ATOM     52  C   UNL A   1      42.132  28.972  26.097  1.00  0.00     0.029 A 
ATOM     53  N   UNL A   1      42.040  29.182  28.293  1.00  0.00    -0.354 N 
ATOM     54  N   UNL A   1      44.971  28.356  31.369  1.00  0.00    -0.248 NA
ATOM     55  C   UNL A   1      42.853  28.125  32.379  1.00  0.00     0.031 C 
ATOM     56  C   UNL A   1      43.440  28.825  26.652  1.00  0.00     0.029 A 
ATOM     57  C   UNL A   1      43.357  28.918  28.039  1.00  0.00     0.049 A 
ATOM     58  H   UNL A   1      41.688  29.493  29.159  1.00  0.00     0.167 HD
ATOM     59  C   UNL A   1      44.019  28.721  30.431  1.00  0.00     0.074 A 
ATOM     60  C   UNL A   1      42.725  28.524  31.109  1.00  0.00     0.031 C 
ATOM     61  C   UNL A   1      44.326  28.781  29.099  1.00  0.00     0.037 A 
BRANCH  48  62
ATOM     62  C   UNL A   1      38.938  29.069  28.256  1.00  0.00     0.064 A 
ATOM     63  C   UNL A   1      38.810  28.775  29.631  1.00  0.00     0.173 A 
ATOM     64  C   UNL A   1      37.863  29.792  27.694  1.00  0.00     0.173 A 
ATOM     65  F   UNL A   1      39.755  28.065  30.265  1.00  0.00    -0.203 F 
ATOM     66  C   UNL A   1      37.673  29.126  30.366  1.00  0.00     0.198 A 
ATOM     67  C   UNL A   1      36.749  30.181  28.443  1.00  0.00     0.198 A 
ATOM     68  F   UNL A   1      37.788  30.059  26.385  1.00  0.00    -0.203 F 
ATOM     69  F   UNL A   1      37.553  28.725  31.638  1.00  0.00    -0.200 F 
ATOM     70  C   UNL A   1      36.643  29.830  29.771  1.00  0.00     0.200 A 
ATOM     71  F   UNL A   1      35.747  30.838  27.841  1.00  0.00    -0.200 F 
ATOM     72  F   UNL A   1      35.537  30.133  30.462  1.00  0.00    -0.200 F 
ENDBRANCH  48  62
BRANCH  49  73
ATOM     73  C   UNL A   1      44.611  26.161  34.300  1.00  0.00     0.064 A 
ATOM     74  C   UNL A   1      43.471  25.804  35.074  1.00  0.00     0.173 A 
ATOM     75  C   UNL A   1      45.844  25.945  34.937  1.00  0.00     0.173 A 
ATOM     76  F   UNL A   1      42.237  25.906  34.557  1.00  0.00    -0.203 F 
ATOM     77  C   UNL A   1      43.578  25.269  36.378  1.00  0.00     0.198 A 
ATOM     78  C   UNL A   1      45.949  25.394  36.223  1.00  0.00     0.198 A 
ATOM     79  F   UNL A   1      46.984  26.172  34.274  1.00  0.00    -0.203 F 
ATOM     80  F   UNL A   1      42.481  24.913  37.067  1.00  0.00    -0.200 F 
ATOM     81  C   UNL A   1      44.822  25.050  36.944  1.00  0.00     0.200 A 
ATOM     82  F   UNL A   1      47.163  25.144  36.732  1.00  0.00    -0.200 F 
ATOM     83  F   UNL A   1      44.940  24.478  38.151  1.00  0.00    -0.200 F 
ENDBRANCH  49  73
BRANCH  61  84
ATOM     84  C   UNL A   1      45.770  28.663  28.683  1.00  0.00     0.064 A 
ATOM     85  C   UNL A   1      46.415  27.491  28.243  1.00  0.00     0.173 A 
ATOM     86  C   UNL A   1      46.489  29.859  28.583  1.00  0.00     0.173 A 
ATOM     87  F   UNL A   1      45.762  26.323  28.187  1.00  0.00    -0.203 F 
ATOM     88  C   UNL A   1      47.736  27.518  27.782  1.00  0.00     0.198 A 
ATOM     89  C   UNL A   1      47.788  29.890  28.090  1.00  0.00     0.198 A 
ATOM     90  F   UNL A   1      45.899  31.018  28.910  1.00  0.00    -0.203 F 
ATOM     91  F   UNL A   1      48.335  26.388  27.371  1.00  0.00    -0.200 F 
ATOM     92  C   UNL A   1      48.421  28.720  27.709  1.00  0.00     0.200 A 
ATOM     93  F   UNL A   1      48.412  31.068  27.954  1.00  0.00    -0.200 F 
ATOM     94  F   UNL A   1      49.679  28.756  27.249  1.00  0.00    -0.200 F 
ENDBRANCH  61  84
ENDBRANCH  35  36
ENDBRANCH  27  30
ENDBRANCH  25  26
ENDBRANCH  24  25
ENDBRANCH  23  24
ENDBRANCH   1  23
TORSDOF 15
ENDMDL
