MODEL 1
REMARK VINA RESULT:     -12.1      0.000      0.000
REMARK SMILES COCCN1C[C@H](C(=O)N2CCC(C(=O)NCCCCNC(=O)c3ccc(-c4c5nc(c(-c6c(F)c(F)c(F)c(F)c6F)c6ccc([nH]6)c(-c6c(F)c(F)c(F)c(F)c6F)c6nc(c(-c7c(F)c(F)c(F)c(F)c7F)c7ccc4[nH]7)C=C6)C=C5)cc3)CC2)CC1=O
REMARK SMILES IDX 17 1 16 2 14 3 15 4 13 6 8 7 9 8 10 9 11 10 88 11 12 12
REMARK SMILES IDX 87 13 7 14 5 15 6 16 90 17 89 18 91 19 4 20 3 21 2 22 1 23
REMARK SMILES IDX 18 24 19 25 20 26 21 27 22 28 23 30 24 31 25 32 86 33 26 34
REMARK SMILES IDX 85 35 27 36 28 37 29 38 79 39 30 40 84 41 78 42 80 43 31 44
REMARK SMILES IDX 83 45 77 46 76 47 32 49 64 50 44 51 63 52 45 53 48 54 62 55
REMARK SMILES IDX 81 56 46 57 47 58 61 60 82 61 49 62 33 63 34 64 42 65 35 66
REMARK SMILES IDX 36 67 40 68 43 69 37 70 38 71 41 72 39 73 65 74 66 75 74 76
REMARK SMILES IDX 67 77 68 78 72 79 75 80 69 81 70 82 73 83 71 84 50 85 51 86
REMARK SMILES IDX 59 87 52 88 53 89 57 90 60 91 54 92 55 93 58 94 56 95
REMARK H PARENT 16 5 21 29 80 48 48 59
REMARK Flexibility Score: inf
ROOT
ATOM      1  C   UNL A   1      31.452  29.677  25.092  1.00  0.00     0.116 C 
ENDROOT
BRANCH   1   2
ATOM      2  N   UNL A   1      32.625  29.691  24.232  1.00  0.00    -0.356 N 
ATOM      3  C   UNL A   1      33.388  28.665  23.761  1.00  0.00     0.223 C 
ATOM      4  O   UNL A   1      34.364  28.938  23.062  1.00  0.00    -0.275 OA
ATOM      5  H   UNL A   1      32.913  30.586  23.943  1.00  0.00     0.163 HD
BRANCH   3   6
ATOM      6  C   UNL A   1      33.022  27.219  24.052  1.00  0.00     0.082 C 
ATOM      7  C   UNL A   1      35.147  23.721  24.687  1.00  0.00     0.227 C 
ATOM      8  O   UNL A   1      35.919  23.638  23.724  1.00  0.00    -0.274 OA
ATOM      9  N   UNL A   1      34.085  24.601  24.632  1.00  0.00    -0.342 N 
ATOM     10  C   UNL A   1      33.454  24.831  23.339  1.00  0.00     0.120 C 
ATOM     11  C   UNL A   1      33.539  25.358  25.745  1.00  0.00     0.120 C 
ATOM     12  C   UNL A   1      33.492  26.287  22.930  1.00  0.00     0.035 C 
ATOM     13  C   UNL A   1      33.473  26.851  25.472  1.00  0.00     0.035 C 
BRANCH   7  14
ATOM     14  C   UNL A   1      35.378  22.820  25.911  1.00  0.00     0.107 C 
ATOM     15  N   UNL A   1      35.067  20.621  25.235  1.00  0.00    -0.340 N 
ATOM     16  C   UNL A   1      34.495  21.603  26.107  1.00  0.00     0.133 C 
ATOM     17  C   UNL A   1      36.431  20.814  25.099  1.00  0.00     0.223 C 
ATOM     18  C   UNL A   1      36.764  22.143  25.750  1.00  0.00     0.115 C 
ATOM     19  O   UNL A   1      37.229  20.065  24.569  1.00  0.00    -0.275 OA
BRANCH  15  20
ATOM     20  C   UNL A   1      34.291  19.537  24.643  1.00  0.00     0.148 C 
BRANCH  20  21
ATOM     21  C   UNL A   1      32.773  19.692  24.845  1.00  0.00     0.181 C 
BRANCH  21  22
ATOM     22  O   UNL A   1      32.206  18.573  25.525  1.00  0.00    -0.383 OA
ATOM     23  C   UNL A   1      32.712  17.319  25.090  1.00  0.00     0.194 C 
ENDBRANCH  21  22
ENDBRANCH  20  21
ENDBRANCH  15  20
ENDBRANCH   7  14
ENDBRANCH   3   6
ENDBRANCH   1   2
BRANCH   1  24
ATOM     24  C   UNL A   1      31.756  30.266  26.466  1.00  0.00     0.023 C 
BRANCH  24  25
ATOM     25  C   UNL A   1      31.572  31.778  26.550  1.00  0.00     0.023 C 
BRANCH  25  26
ATOM     26  C   UNL A   1      32.782  32.536  27.076  1.00  0.00     0.116 C 
BRANCH  26  27
ATOM     27  N   UNL A   1      32.468  33.902  27.468  1.00  0.00    -0.352 N 
ATOM     28  C   UNL A   1      33.012  34.658  28.476  1.00  0.00     0.251 C 
ATOM     29  H   UNL A   1      31.768  34.345  26.936  1.00  0.00     0.163 HD
ATOM     30  O   UNL A   1      32.529  35.747  28.765  1.00  0.00    -0.269 OA
BRANCH  28  31
ATOM     31  C   UNL A   1      34.168  34.136  29.232  1.00  0.00     0.039 A 
ATOM     32  C   UNL A   1      33.932  33.342  30.355  1.00  0.00     0.014 A 
ATOM     33  C   UNL A   1      35.476  34.410  28.823  1.00  0.00     0.014 A 
ATOM     34  C   UNL A   1      35.010  32.776  31.035  1.00  0.00     0.010 A 
ATOM     35  C   UNL A   1      36.542  33.771  29.447  1.00  0.00     0.010 A 
ATOM     36  C   UNL A   1      36.322  32.957  30.567  1.00  0.00    -0.014 A 
BRANCH  36  37
ATOM     37  C   UNL A   1      37.471  32.308  31.247  1.00  0.00     0.031 A 
ATOM     38  C   UNL A   1      38.180  31.152  30.597  1.00  0.00     0.074 A 
ATOM     39  C   UNL A   1      37.847  32.732  32.470  1.00  0.00     0.049 A 
ATOM     40  N   UNL A   1      39.188  30.443  31.041  1.00  0.00    -0.248 NA
ATOM     41  C   UNL A   1      37.675  30.712  29.286  1.00  0.00     0.031 C 
ATOM     42  C   UNL A   1      37.199  33.804  33.229  1.00  0.00     0.029 A 
ATOM     43  N   UNL A   1      38.860  32.310  33.293  1.00  0.00    -0.354 N 
ATOM     44  C   UNL A   1      39.422  29.472  30.078  1.00  0.00     0.074 A 
ATOM     45  C   UNL A   1      38.420  29.643  29.050  1.00  0.00     0.031 C 
ATOM     46  C   UNL A   1      37.848  33.974  34.392  1.00  0.00     0.029 A 
ATOM     47  C   UNL A   1      38.931  32.999  34.480  1.00  0.00     0.049 A 
ATOM     48  H   UNL A   1      39.480  31.583  33.055  1.00  0.00     0.167 HD
ATOM     49  C   UNL A   1      40.400  28.537  30.042  1.00  0.00     0.037 A 
ATOM     50  C   UNL A   1      39.768  32.853  35.526  1.00  0.00     0.037 A 
ATOM     51  C   UNL A   1      41.416  28.393  31.052  1.00  0.00     0.049 A 
ATOM     52  C   UNL A   1      40.849  31.806  35.455  1.00  0.00     0.074 A 
ATOM     53  C   UNL A   1      42.501  27.536  31.065  1.00  0.00     0.029 A 
ATOM     54  N   UNL A   1      41.465  29.121  32.232  1.00  0.00    -0.354 N 
ATOM     55  N   UNL A   1      41.123  30.961  34.491  1.00  0.00    -0.248 NA
ATOM     56  C   UNL A   1      41.746  31.702  36.614  1.00  0.00     0.031 C 
ATOM     57  C   UNL A   1      43.169  27.696  32.283  1.00  0.00     0.029 A 
ATOM     58  C   UNL A   1      42.542  28.704  32.998  1.00  0.00     0.049 A 
ATOM     59  H   UNL A   1      40.830  29.829  32.487  1.00  0.00     0.167 HD
ATOM     60  C   UNL A   1      42.237  30.248  34.914  1.00  0.00     0.074 A 
ATOM     61  C   UNL A   1      42.601  30.774  36.211  1.00  0.00     0.031 C 
ATOM     62  C   UNL A   1      42.898  29.245  34.284  1.00  0.00     0.037 A 
BRANCH  49  63
ATOM     63  C   UNL A   1      40.426  27.589  28.877  1.00  0.00     0.064 A 
ATOM     64  C   UNL A   1      39.663  26.412  28.862  1.00  0.00     0.173 A 
ATOM     65  C   UNL A   1      41.179  27.895  27.733  1.00  0.00     0.173 A 
ATOM     66  F   UNL A   1      38.933  26.065  29.933  1.00  0.00    -0.203 F 
ATOM     67  C   UNL A   1      39.671  25.565  27.756  1.00  0.00     0.198 A 
ATOM     68  C   UNL A   1      41.159  27.065  26.617  1.00  0.00     0.198 A 
ATOM     69  F   UNL A   1      41.923  29.011  27.692  1.00  0.00    -0.203 F 
ATOM     70  F   UNL A   1      38.970  24.424  27.783  1.00  0.00    -0.200 F 
ATOM     71  C   UNL A   1      40.411  25.898  26.631  1.00  0.00     0.200 A 
ATOM     72  F   UNL A   1      41.862  27.396  25.524  1.00  0.00    -0.200 F 
ATOM     73  F   UNL A   1      40.406  25.091  25.561  1.00  0.00    -0.200 F 
ENDBRANCH  49  63
BRANCH  50  74
ATOM     74  C   UNL A   1      39.627  33.720  36.727  1.00  0.00     0.064 A 
ATOM     75  C   UNL A   1      38.845  33.321  37.820  1.00  0.00     0.173 A 
ATOM     76  C   UNL A   1      40.244  34.978  36.794  1.00  0.00     0.173 A 
ATOM     77  F   UNL A   1      38.219  32.135  37.799  1.00  0.00    -0.203 F 
ATOM     78  C   UNL A   1      38.656  34.161  38.917  1.00  0.00     0.198 A 
ATOM     79  C   UNL A   1      40.084  35.802  37.906  1.00  0.00     0.198 A 
ATOM     80  F   UNL A   1      41.009  35.407  35.779  1.00  0.00    -0.203 F 
ATOM     81  F   UNL A   1      37.850  33.782  39.917  1.00  0.00    -0.200 F 
ATOM     82  C   UNL A   1      39.279  35.399  38.960  1.00  0.00     0.200 A 
ATOM     83  F   UNL A   1      40.702  36.990  37.951  1.00  0.00    -0.200 F 
ATOM     84  F   UNL A   1      39.094  36.208  40.013  1.00  0.00    -0.200 F 
ENDBRANCH  50  74
BRANCH  62  85
ATOM     85  C   UNL A   1      44.108  28.677  34.971  1.00  0.00     0.064 A 
ATOM     86  C   UNL A   1      44.023  27.568  35.823  1.00  0.00     0.173 A 
ATOM     87  C   UNL A   1      45.378  29.229  34.738  1.00  0.00     0.173 A 
ATOM     88  F   UNL A   1      42.832  27.010  36.090  1.00  0.00    -0.203 F 
ATOM     89  C   UNL A   1      45.158  27.052  36.442  1.00  0.00     0.198 A 
ATOM     90  C   UNL A   1      46.515  28.687  35.328  1.00  0.00     0.198 A 
ATOM     91  F   UNL A   1      45.518  30.287  33.922  1.00  0.00    -0.203 F 
ATOM     92  F   UNL A   1      45.045  26.026  37.298  1.00  0.00    -0.200 F 
ATOM     93  C   UNL A   1      46.404  27.606  36.188  1.00  0.00     0.200 A 
ATOM     94  F   UNL A   1      47.720  29.213  35.065  1.00  0.00    -0.200 F 
ATOM     95  F   UNL A   1      47.497  27.101  36.776  1.00  0.00    -0.200 F 
ENDBRANCH  62  85
ENDBRANCH  36  37
ENDBRANCH  28  31
ENDBRANCH  26  27
ENDBRANCH  25  26
ENDBRANCH  24  25
ENDBRANCH   1  24
TORSDOF 15
ENDMDL
MODEL 2
REMARK VINA RESULT:     -12.1      0.603      7.247
REMARK SMILES COCCN1C[C@H](C(=O)N2CCC(C(=O)NCCCCNC(=O)c3ccc(-c4c5nc(c(-c6c(F)c(F)c(F)c(F)c6F)c6ccc([nH]6)c(-c6c(F)c(F)c(F)c(F)c6F)c6nc(c(-c7c(F)c(F)c(F)c(F)c7F)c7ccc4[nH]7)C=C6)C=C5)cc3)CC2)CC1=O
REMARK SMILES IDX 17 1 16 2 14 3 15 4 13 6 8 7 9 8 10 9 11 10 88 11 12 12
REMARK SMILES IDX 87 13 7 14 5 15 6 16 90 17 89 18 91 19 4 20 3 21 2 22 1 23
REMARK SMILES IDX 18 24 19 25 20 26 21 27 22 28 23 30 24 31 25 32 86 33 26 34
REMARK SMILES IDX 85 35 27 36 28 37 29 38 79 39 30 40 84 41 78 42 80 43 31 44
REMARK SMILES IDX 83 45 77 46 76 47 32 49 64 50 44 51 63 52 45 53 48 54 62 55
REMARK SMILES IDX 81 56 46 57 47 58 61 60 82 61 49 62 33 63 34 64 42 65 35 66
REMARK SMILES IDX 36 67 40 68 43 69 37 70 38 71 41 72 39 73 65 74 66 75 74 76
REMARK SMILES IDX 67 77 68 78 72 79 75 80 69 81 70 82 73 83 71 84 50 85 51 86
REMARK SMILES IDX 59 87 52 88 53 89 57 90 60 91 54 92 55 93 58 94 56 95
REMARK H PARENT 16 5 21 29 80 48 48 59
REMARK Flexibility Score: inf
ROOT
ATOM      1  C   UNL A   1      31.415  29.647  25.075  1.00  0.00     0.116 C 
ENDROOT
BRANCH   1   2
ATOM      2  N   UNL A   1      32.597  29.668  24.228  1.00  0.00    -0.356 N 
ATOM      3  C   UNL A   1      33.385  28.650  23.784  1.00  0.00     0.223 C 
ATOM      4  O   UNL A   1      34.364  28.929  23.091  1.00  0.00    -0.275 OA
ATOM      5  H   UNL A   1      32.872  30.563  23.926  1.00  0.00     0.163 HD
BRANCH   3   6
ATOM      6  C   UNL A   1      33.045  27.201  24.097  1.00  0.00     0.082 C 
ATOM      7  C   UNL A   1      35.227  23.738  24.728  1.00  0.00     0.227 C 
ATOM      8  O   UNL A   1      35.981  23.655  23.751  1.00  0.00    -0.274 OA
ATOM      9  N   UNL A   1      34.152  24.604  24.683  1.00  0.00    -0.342 N 
ATOM     10  C   UNL A   1      33.495  24.812  23.400  1.00  0.00     0.120 C 
ATOM     11  C   UNL A   1      33.618  25.365  25.799  1.00  0.00     0.120 C 
ATOM     12  C   UNL A   1      33.506  26.264  22.976  1.00  0.00     0.035 C 
ATOM     13  C   UNL A   1      33.527  26.855  25.511  1.00  0.00     0.035 C 
BRANCH   7  14
ATOM     14  C   UNL A   1      35.493  22.853  25.956  1.00  0.00     0.107 C 
ATOM     15  N   UNL A   1      35.173  20.646  25.316  1.00  0.00    -0.340 N 
ATOM     16  C   UNL A   1      34.620  21.637  26.190  1.00  0.00     0.133 C 
ATOM     17  C   UNL A   1      36.531  20.841  25.142  1.00  0.00     0.223 C 
ATOM     18  C   UNL A   1      36.877  22.179  25.767  1.00  0.00     0.115 C 
ATOM     19  O   UNL A   1      37.318  20.088  24.601  1.00  0.00    -0.275 OA
BRANCH  15  20
ATOM     20  C   UNL A   1      34.385  19.552  24.758  1.00  0.00     0.148 C 
BRANCH  20  21
ATOM     21  C   UNL A   1      32.886  19.878  24.637  1.00  0.00     0.181 C 
BRANCH  21  22
ATOM     22  O   UNL A   1      32.066  18.747  24.929  1.00  0.00    -0.383 OA
ATOM     23  C   UNL A   1      32.705  17.764  25.730  1.00  0.00     0.194 C 
ENDBRANCH  21  22
ENDBRANCH  20  21
ENDBRANCH  15  20
ENDBRANCH   7  14
ENDBRANCH   3   6
ENDBRANCH   1   2
BRANCH   1  24
ATOM     24  C   UNL A   1      31.700  30.237  26.452  1.00  0.00     0.023 C 
BRANCH  24  25
ATOM     25  C   UNL A   1      31.505  31.749  26.534  1.00  0.00     0.023 C 
BRANCH  25  26
ATOM     26  C   UNL A   1      32.750  32.527  26.937  1.00  0.00     0.116 C 
BRANCH  26  27
ATOM     27  N   UNL A   1      32.448  33.866  27.419  1.00  0.00    -0.352 N 
ATOM     28  C   UNL A   1      33.019  34.560  28.455  1.00  0.00     0.251 C 
ATOM     29  H   UNL A   1      31.735  34.340  26.932  1.00  0.00     0.163 HD
ATOM     30  O   UNL A   1      32.545  35.630  28.823  1.00  0.00    -0.269 OA
BRANCH  28  31
ATOM     31  C   UNL A   1      34.193  33.993  29.149  1.00  0.00     0.039 A 
ATOM     32  C   UNL A   1      33.986  33.055  30.161  1.00  0.00     0.014 A 
ATOM     33  C   UNL A   1      35.490  34.369  28.788  1.00  0.00     0.014 A 
ATOM     34  C   UNL A   1      35.085  32.451  30.773  1.00  0.00     0.010 A 
ATOM     35  C   UNL A   1      36.580  33.699  29.334  1.00  0.00     0.010 A 
ATOM     36  C   UNL A   1      36.389  32.742  30.340  1.00  0.00    -0.014 A 
BRANCH  36  37
ATOM     37  C   UNL A   1      37.563  32.059  30.942  1.00  0.00     0.031 A 
ATOM     38  C   UNL A   1      38.040  32.444  32.316  1.00  0.00     0.074 A 
ATOM     39  C   UNL A   1      38.224  31.123  30.232  1.00  0.00     0.049 A 
ATOM     40  N   UNL A   1      39.055  31.978  33.000  1.00  0.00    -0.248 NA
ATOM     41  C   UNL A   1      37.297  33.513  33.003  1.00  0.00     0.031 C 
ATOM     42  C   UNL A   1      37.895  30.707  28.868  1.00  0.00     0.029 A 
ATOM     43  N   UNL A   1      39.316  30.357  30.557  1.00  0.00    -0.354 N 
ATOM     44  C   UNL A   1      39.081  32.706  34.181  1.00  0.00     0.074 A 
ATOM     45  C   UNL A   1      38.016  33.681  34.103  1.00  0.00     0.031 C 
ATOM     46  C   UNL A   1      38.746  29.742  28.484  1.00  0.00     0.029 A 
ATOM     47  C   UNL A   1      39.706  29.500  29.557  1.00  0.00     0.049 A 
ATOM     48  H   UNL A   1      39.775  30.415  31.426  1.00  0.00     0.167 HD
ATOM     49  C   UNL A   1      39.903  32.557  35.246  1.00  0.00     0.037 A 
ATOM     50  C   UNL A   1      40.729  28.624  29.507  1.00  0.00     0.037 A 
ATOM     51  C   UNL A   1      40.938  31.562  35.333  1.00  0.00     0.049 A 
ATOM     52  C   UNL A   1      41.624  28.478  30.709  1.00  0.00     0.074 A 
ATOM     53  C   UNL A   1      41.767  31.273  36.403  1.00  0.00     0.029 A 
ATOM     54  N   UNL A   1      41.293  30.699  34.306  1.00  0.00    -0.354 N 
ATOM     55  N   UNL A   1      41.574  29.102  31.861  1.00  0.00    -0.248 NA
ATOM     56  C   UNL A   1      42.713  27.497  30.608  1.00  0.00     0.031 C 
ATOM     57  C   UNL A   1      42.668  30.282  36.001  1.00  0.00     0.029 A 
ATOM     58  C   UNL A   1      42.355  29.903  34.705  1.00  0.00     0.049 A 
ATOM     59  H   UNL A   1      40.855  30.659  33.425  1.00  0.00     0.167 HD
ATOM     60  C   UNL A   1      42.601  28.569  32.630  1.00  0.00     0.074 A 
ATOM     61  C   UNL A   1      43.243  27.556  31.821  1.00  0.00     0.031 C 
ATOM     62  C   UNL A   1      42.978  28.891  33.891  1.00  0.00     0.037 A 
BRANCH  49  63
ATOM     63  C   UNL A   1      39.724  33.491  36.410  1.00  0.00     0.064 A 
ATOM     64  C   UNL A   1      40.318  34.761  36.439  1.00  0.00     0.173 A 
ATOM     65  C   UNL A   1      38.894  33.131  37.483  1.00  0.00     0.173 A 
ATOM     66  F   UNL A   1      41.129  35.152  35.444  1.00  0.00    -0.203 F 
ATOM     67  C   UNL A   1      40.109  35.627  37.510  1.00  0.00     0.198 A 
ATOM     68  C   UNL A   1      38.660  34.012  38.535  1.00  0.00     0.198 A 
ATOM     69  F   UNL A   1      38.297  31.930  37.504  1.00  0.00    -0.203 F 
ATOM     70  F   UNL A   1      40.723  36.817  37.538  1.00  0.00    -0.200 F 
ATOM     71  C   UNL A   1      39.272  35.255  38.552  1.00  0.00     0.200 A 
ATOM     72  F   UNL A   1      37.838  33.657  39.534  1.00  0.00    -0.200 F 
ATOM     73  F   UNL A   1      39.058  36.095  39.574  1.00  0.00    -0.200 F 
ENDBRANCH  49  63
BRANCH  50  74
ATOM     74  C   UNL A   1      40.962  27.811  28.283  1.00  0.00     0.064 A 
ATOM     75  C   UNL A   1      40.386  26.541  28.135  1.00  0.00     0.173 A 
ATOM     76  C   UNL A   1      41.791  28.272  27.249  1.00  0.00     0.173 A 
ATOM     77  F   UNL A   1      39.601  26.046  29.103  1.00  0.00    -0.203 F 
ATOM     78  C   UNL A   1      40.659  25.750  27.020  1.00  0.00     0.198 A 
ATOM     79  C   UNL A   1      42.034  27.496  26.118  1.00  0.00     0.198 A 
ATOM     80  F   UNL A   1      42.362  29.483  27.334  1.00  0.00    -0.203 F 
ATOM     81  F   UNL A   1      40.148  24.514  26.937  1.00  0.00    -0.200 F 
ATOM     82  C   UNL A   1      41.479  26.230  26.011  1.00  0.00     0.200 A 
ATOM     83  F   UNL A   1      42.814  27.971  25.137  1.00  0.00    -0.200 F 
ATOM     84  F   UNL A   1      41.744  25.468  24.941  1.00  0.00    -0.200 F 
ENDBRANCH  50  74
BRANCH  62  85
ATOM     85  C   UNL A   1      44.115  28.114  34.492  1.00  0.00     0.064 A 
ATOM     86  C   UNL A   1      43.907  26.902  35.167  1.00  0.00     0.173 A 
ATOM     87  C   UNL A   1      45.435  28.569  34.355  1.00  0.00     0.173 A 
ATOM     88  F   UNL A   1      42.663  26.428  35.339  1.00  0.00    -0.203 F 
ATOM     89  C   UNL A   1      44.976  26.193  35.710  1.00  0.00     0.198 A 
ATOM     90  C   UNL A   1      46.504  27.838  34.865  1.00  0.00     0.198 A 
ATOM     91  F   UNL A   1      45.691  29.718  33.709  1.00  0.00    -0.203 F 
ATOM     92  F   UNL A   1      44.747  25.066  36.400  1.00  0.00    -0.200 F 
ATOM     93  C   UNL A   1      46.273  26.656  35.551  1.00  0.00     0.200 A 
ATOM     94  F   UNL A   1      47.758  28.279  34.693  1.00  0.00    -0.200 F 
ATOM     95  F   UNL A   1      47.301  25.967  36.064  1.00  0.00    -0.200 F 
ENDBRANCH  62  85
ENDBRANCH  36  37
ENDBRANCH  28  31
ENDBRANCH  26  27
ENDBRANCH  25  26
ENDBRANCH  24  25
ENDBRANCH   1  24
TORSDOF 15
ENDMDL
MODEL 3
REMARK VINA RESULT:     -11.9      1.137      2.184
REMARK SMILES COCCN1C[C@H](C(=O)N2CCC(C(=O)NCCCCNC(=O)c3ccc(-c4c5nc(c(-c6c(F)c(F)c(F)c(F)c6F)c6ccc([nH]6)c(-c6c(F)c(F)c(F)c(F)c6F)c6nc(c(-c7c(F)c(F)c(F)c(F)c7F)c7ccc4[nH]7)C=C6)C=C5)cc3)CC2)CC1=O
REMARK SMILES IDX 17 1 16 2 14 3 15 4 13 6 8 7 9 8 10 9 11 10 88 11 12 12
REMARK SMILES IDX 87 13 7 14 5 15 6 16 90 17 89 18 91 19 4 20 3 21 2 22 1 23
REMARK SMILES IDX 18 24 19 25 20 26 21 27 22 28 23 30 24 31 25 32 86 33 26 34
REMARK SMILES IDX 85 35 27 36 28 37 29 38 79 39 30 40 84 41 78 42 80 43 31 44
REMARK SMILES IDX 83 45 77 46 76 47 32 49 64 50 44 51 63 52 45 53 48 54 62 55
REMARK SMILES IDX 81 56 46 57 47 58 61 60 82 61 49 62 33 63 34 64 42 65 35 66
REMARK SMILES IDX 36 67 40 68 43 69 37 70 38 71 41 72 39 73 65 74 66 75 74 76
REMARK SMILES IDX 67 77 68 78 72 79 75 80 69 81 70 82 73 83 71 84 50 85 51 86
REMARK SMILES IDX 59 87 52 88 53 89 57 90 60 91 54 92 55 93 58 94 56 95
REMARK H PARENT 16 5 21 29 80 48 48 59
REMARK Flexibility Score: inf
ROOT
ATOM      1  C   UNL A   1      32.497  30.174  25.712  1.00  0.00     0.116 C 
ENDROOT
BRANCH   1   2
ATOM      2  N   UNL A   1      31.703  29.890  24.526  1.00  0.00    -0.356 N 
ATOM      3  C   UNL A   1      31.422  28.707  23.914  1.00  0.00     0.223 C 
ATOM      4  O   UNL A   1      30.740  28.729  22.888  1.00  0.00    -0.275 OA
ATOM      5  H   UNL A   1      31.304  30.681  24.099  1.00  0.00     0.163 HD
BRANCH   3   6
ATOM      6  C   UNL A   1      31.898  27.388  24.500  1.00  0.00     0.082 C 
ATOM      7  C   UNL A   1      31.693  23.414  23.349  1.00  0.00     0.227 C 
ATOM      8  O   UNL A   1      30.496  23.213  23.114  1.00  0.00    -0.274 OA
ATOM      9  N   UNL A   1      32.065  24.544  24.050  1.00  0.00    -0.342 N 
ATOM     10  C   UNL A   1      31.162  25.039  25.080  1.00  0.00     0.120 C 
ATOM     11  C   UNL A   1      33.275  25.322  23.844  1.00  0.00     0.120 C 
ATOM     12  C   UNL A   1      30.720  26.462  24.824  1.00  0.00     0.035 C 
ATOM     13  C   UNL A   1      32.999  26.798  23.609  1.00  0.00     0.035 C 
BRANCH   7  14
ATOM     14  C   UNL A   1      32.732  22.385  22.877  1.00  0.00     0.107 C 
ATOM     15  N   UNL A   1      33.614  21.359  24.762  1.00  0.00    -0.340 N 
ATOM     16  C   UNL A   1      34.007  22.206  23.676  1.00  0.00     0.133 C 
ATOM     17  C   UNL A   1      32.584  20.516  24.385  1.00  0.00     0.223 C 
ATOM     18  C   UNL A   1      32.105  20.974  23.021  1.00  0.00     0.115 C 
ATOM     19  O   UNL A   1      32.139  19.575  25.012  1.00  0.00    -0.275 OA
BRANCH  15  20
ATOM     20  C   UNL A   1      34.283  21.369  26.058  1.00  0.00     0.148 C 
BRANCH  20  21
ATOM     21  C   UNL A   1      35.779  21.721  25.971  1.00  0.00     0.181 C 
BRANCH  21  22
ATOM     22  O   UNL A   1      36.029  23.085  26.307  1.00  0.00    -0.383 OA
ATOM     23  C   UNL A   1      36.939  23.736  25.432  1.00  0.00     0.194 C 
ENDBRANCH  21  22
ENDBRANCH  20  21
ENDBRANCH  15  20
ENDBRANCH   7  14
ENDBRANCH   3   6
ENDBRANCH   1   2
BRANCH   1  24
ATOM     24  C   UNL A   1      31.639  30.737  26.841  1.00  0.00     0.023 C 
BRANCH  24  25
ATOM     25  C   UNL A   1      31.507  32.257  26.824  1.00  0.00     0.023 C 
BRANCH  25  26
ATOM     26  C   UNL A   1      32.749  33.006  27.286  1.00  0.00     0.116 C 
BRANCH  26  27
ATOM     27  N   UNL A   1      32.467  34.377  27.684  1.00  0.00    -0.352 N 
ATOM     28  C   UNL A   1      33.035  35.120  28.688  1.00  0.00     0.251 C 
ATOM     29  H   UNL A   1      31.771  34.836  27.158  1.00  0.00     0.163 HD
ATOM     30  O   UNL A   1      32.577  36.218  28.984  1.00  0.00    -0.269 OA
BRANCH  28  31
ATOM     31  C   UNL A   1      34.186  34.572  29.433  1.00  0.00     0.039 A 
ATOM     32  C   UNL A   1      33.960  33.976  30.675  1.00  0.00     0.014 A 
ATOM     33  C   UNL A   1      35.477  34.625  28.900  1.00  0.00     0.014 A 
ATOM     34  C   UNL A   1      35.023  33.383  31.356  1.00  0.00     0.010 A 
ATOM     35  C   UNL A   1      36.516  33.955  29.537  1.00  0.00     0.010 A 
ATOM     36  C   UNL A   1      36.302  33.337  30.778  1.00  0.00    -0.014 A 
BRANCH  36  37
ATOM     37  C   UNL A   1      37.427  32.654  31.467  1.00  0.00     0.031 A 
ATOM     38  C   UNL A   1      38.119  31.489  30.814  1.00  0.00     0.074 A 
ATOM     39  C   UNL A   1      37.794  33.056  32.700  1.00  0.00     0.049 A 
ATOM     40  N   UNL A   1      39.104  30.753  31.265  1.00  0.00    -0.248 NA
ATOM     41  C   UNL A   1      37.623  31.077  29.491  1.00  0.00     0.031 C 
ATOM     42  C   UNL A   1      37.160  34.134  33.462  1.00  0.00     0.029 A 
ATOM     43  N   UNL A   1      38.786  32.601  33.533  1.00  0.00    -0.354 N 
ATOM     44  C   UNL A   1      39.330  29.788  30.293  1.00  0.00     0.074 A 
ATOM     45  C   UNL A   1      38.347  29.993  29.253  1.00  0.00     0.031 C 
ATOM     46  C   UNL A   1      37.796  34.276  34.636  1.00  0.00     0.029 A 
ATOM     47  C   UNL A   1      38.854  33.275  34.729  1.00  0.00     0.049 A 
ATOM     48  H   UNL A   1      39.392  31.863  33.296  1.00  0.00     0.167 HD
ATOM     49  C   UNL A   1      40.287  28.831  30.261  1.00  0.00     0.037 A 
ATOM     50  C   UNL A   1      39.673  33.099  35.784  1.00  0.00     0.037 A 
ATOM     51  C   UNL A   1      41.284  28.653  31.283  1.00  0.00     0.049 A 
ATOM     52  C   UNL A   1      40.731  32.029  35.717  1.00  0.00     0.074 A 
ATOM     53  C   UNL A   1      42.350  27.771  31.302  1.00  0.00     0.029 A 
ATOM     54  N   UNL A   1      41.333  29.366  32.472  1.00  0.00    -0.354 N 
ATOM     55  N   UNL A   1      40.999  31.188  34.748  1.00  0.00    -0.248 NA
ATOM     56  C   UNL A   1      41.608  31.891  36.888  1.00  0.00     0.031 C 
ATOM     57  C   UNL A   1      43.003  27.902  32.531  1.00  0.00     0.029 A 
ATOM     58  C   UNL A   1      42.389  28.916  33.249  1.00  0.00     0.049 A 
ATOM     59  H   UNL A   1      40.710  30.085  32.726  1.00  0.00     0.167 HD
ATOM     60  C   UNL A   1      42.091  30.445  35.178  1.00  0.00     0.074 A 
ATOM     61  C   UNL A   1      42.448  30.948  36.486  1.00  0.00     0.031 C 
ATOM     62  C   UNL A   1      42.738  29.434  34.547  1.00  0.00     0.037 A 
BRANCH  49  63
ATOM     63  C   UNL A   1      40.309  27.896  29.085  1.00  0.00     0.064 A 
ATOM     64  C   UNL A   1      39.565  26.706  29.072  1.00  0.00     0.173 A 
ATOM     65  C   UNL A   1      41.036  28.228  27.932  1.00  0.00     0.173 A 
ATOM     66  F   UNL A   1      38.861  26.335  30.151  1.00  0.00    -0.203 F 
ATOM     67  C   UNL A   1      39.569  25.871  27.956  1.00  0.00     0.198 A 
ATOM     68  C   UNL A   1      41.010  27.409  26.807  1.00  0.00     0.198 A 
ATOM     69  F   UNL A   1      41.759  29.356  27.889  1.00  0.00    -0.203 F 
ATOM     70  F   UNL A   1      38.888  24.718  27.983  1.00  0.00    -0.200 F 
ATOM     71  C   UNL A   1      40.283  26.229  26.822  1.00  0.00     0.200 A 
ATOM     72  F   UNL A   1      41.687  27.763  25.705  1.00  0.00    -0.200 F 
ATOM     73  F   UNL A   1      40.272  25.433  25.743  1.00  0.00    -0.200 F 
ENDBRANCH  49  63
BRANCH  50  74
ATOM     74  C   UNL A   1      39.534  33.955  36.993  1.00  0.00     0.064 A 
ATOM     75  C   UNL A   1      38.795  33.525  38.104  1.00  0.00     0.173 A 
ATOM     76  C   UNL A   1      40.110  35.233  37.051  1.00  0.00     0.173 A 
ATOM     77  F   UNL A   1      38.208  32.319  38.093  1.00  0.00    -0.203 F 
ATOM     78  C   UNL A   1      38.606  34.354  39.210  1.00  0.00     0.198 A 
ATOM     79  C   UNL A   1      39.951  36.046  38.172  1.00  0.00     0.198 A 
ATOM     80  F   UNL A   1      40.833  35.692  36.019  1.00  0.00    -0.203 F 
ATOM     81  F   UNL A   1      37.840  33.943  40.229  1.00  0.00    -0.200 F 
ATOM     82  C   UNL A   1      39.187  35.611  39.244  1.00  0.00     0.200 A 
ATOM     83  F   UNL A   1      40.529  37.254  38.206  1.00  0.00    -0.200 F 
ATOM     84  F   UNL A   1      39.003  36.409  40.305  1.00  0.00    -0.200 F 
ENDBRANCH  50  74
BRANCH  62  85
ATOM     85  C   UNL A   1      43.925  28.832  35.243  1.00  0.00     0.064 A 
ATOM     86  C   UNL A   1      45.228  29.299  35.023  1.00  0.00     0.173 A 
ATOM     87  C   UNL A   1      43.748  27.798  36.176  1.00  0.00     0.173 A 
ATOM     88  F   UNL A   1      45.455  30.276  34.132  1.00  0.00    -0.203 F 
ATOM     89  C   UNL A   1      46.314  28.731  35.686  1.00  0.00     0.198 A 
ATOM     90  C   UNL A   1      44.830  27.259  36.865  1.00  0.00     0.198 A 
ATOM     91  F   UNL A   1      42.520  27.319  36.432  1.00  0.00    -0.203 F 
ATOM     92  F   UNL A   1      47.557  29.156  35.417  1.00  0.00    -0.200 F 
ATOM     93  C   UNL A   1      46.113  27.719  36.612  1.00  0.00     0.200 A 
ATOM     94  F   UNL A   1      44.632  26.294  37.774  1.00  0.00    -0.200 F 
ATOM     95  F   UNL A   1      47.158  27.181  37.257  1.00  0.00    -0.200 F 
ENDBRANCH  62  85
ENDBRANCH  36  37
ENDBRANCH  28  31
ENDBRANCH  26  27
ENDBRANCH  25  26
ENDBRANCH  24  25
ENDBRANCH   1  24
TORSDOF 15
ENDMDL
