MODEL 1
REMARK VINA RESULT:     -11.8      0.000      0.000
REMARK SMILES Cc1cc(Br)cnc1SCC1(CC(=O)NCCCCNC(=O)c2ccc(-c3c4nc(c(-c5c(F)c(F)c(F)c(F)c5F)c5ccc([nH]5)c(-c5c(F)c(F)c(F)c(F)c5F)c5nc(c(-c6c(F)c(F)c(F)c(F)c6F)c6ccc3[nH]6)C=C5)C=C4)cc2)CC1
REMARK SMILES IDX 16 1 15 2 13 3 14 4 12 6 11 7 86 8 87 9 10 10 9 11 8 12 1 13
REMARK SMILES IDX 2 14 3 15 4 16 7 17 5 18 6 19 17 20 18 21 19 22 20 23 21 24
REMARK SMILES IDX 22 26 23 27 24 28 85 29 25 30 84 31 26 32 27 33 28 34 78 35
REMARK SMILES IDX 29 36 83 37 77 38 79 39 30 40 82 41 76 42 75 43 31 45 63 46
REMARK SMILES IDX 43 47 62 48 44 49 47 50 61 51 80 52 45 53 46 54 60 56 81 57
REMARK SMILES IDX 48 58 32 59 33 60 41 61 34 62 35 63 39 64 42 65 36 66 37 67
REMARK SMILES IDX 40 68 38 69 64 70 65 71 73 72 66 73 67 74 71 75 74 76 68 77
REMARK SMILES IDX 69 78 72 79 70 80 49 81 50 82 58 83 51 84 52 85 56 86 59 87
REMARK SMILES IDX 53 88 54 89 57 90 55 91
REMARK H PARENT 15 5 20 25 79 44 47 55
REMARK Flexibility Score: inf
ROOT
ATOM      1  C   UNL A   1      33.304  30.099  26.653  1.00  0.00     0.116 C 
ENDROOT
BRANCH   1   2
ATOM      2  N   UNL A   1      33.640  29.678  25.312  1.00  0.00    -0.356 N 
ATOM      3  C   UNL A   1      33.766  28.412  24.817  1.00  0.00     0.220 C 
ATOM      4  O   UNL A   1      34.136  28.288  23.649  1.00  0.00    -0.275 OA
ATOM      5  H   UNL A   1      33.800  30.403  24.666  1.00  0.00     0.163 HD
BRANCH   3   6
ATOM      6  C   UNL A   1      33.440  27.206  25.686  1.00  0.00     0.107 C 
BRANCH   6   7
ATOM      7  C   UNL A   1      32.170  26.438  25.328  1.00  0.00    -0.011 C 
ATOM      8  C   UNL A   1      30.969  27.284  24.921  1.00  0.00     0.009 C 
ATOM      9  C   UNL A   1      30.949  26.588  26.236  1.00  0.00     0.009 C 
BRANCH   7  10
ATOM     10  C   UNL A   1      32.373  25.068  24.717  1.00  0.00     0.084 C 
BRANCH  10  11
ATOM     11  S   UNL A   1      34.037  24.382  24.631  1.00  0.00    -0.106 SA
BRANCH  11  12
ATOM     12  C   UNL A   1      33.884  22.626  24.863  1.00  0.00     0.099 A 
ATOM     13  C   UNL A   1      36.324  21.927  24.366  1.00  0.00     0.047 C 
ATOM     14  C   UNL A   1      34.890  21.660  24.716  1.00  0.00    -0.018 A 
ATOM     15  C   UNL A   1      34.524  20.303  24.840  1.00  0.00     0.023 A 
ATOM     16  C   UNL A   1      33.201  19.946  25.053  1.00  0.00     0.036 A 
ATOM     17  N   UNL A   1      32.590  22.269  25.082  1.00  0.00    -0.248 NA
ATOM     18  Br  UNL A   1      32.695  18.136  25.165  1.00  0.00    -0.049 Br
ATOM     19  C   UNL A   1      32.273  20.956  25.156  1.00  0.00     0.128 A 
ENDBRANCH  11  12
ENDBRANCH  10  11
ENDBRANCH   7  10
ENDBRANCH   6   7
ENDBRANCH   3   6
ENDBRANCH   1   2
BRANCH   1  20
ATOM     20  C   UNL A   1      31.831  30.495  26.758  1.00  0.00     0.023 C 
BRANCH  20  21
ATOM     21  C   UNL A   1      31.570  31.999  26.830  1.00  0.00     0.023 C 
BRANCH  21  22
ATOM     22  C   UNL A   1      32.761  32.840  27.270  1.00  0.00     0.116 C 
BRANCH  22  23
ATOM     23  N   UNL A   1      32.415  34.201  27.650  1.00  0.00    -0.352 N 
ATOM     24  C   UNL A   1      33.000  34.986  28.615  1.00  0.00     0.251 C 
ATOM     25  H   UNL A   1      31.670  34.612  27.153  1.00  0.00     0.163 HD
ATOM     26  O   UNL A   1      32.551  36.094  28.883  1.00  0.00    -0.269 OA
BRANCH  24  27
ATOM     27  C   UNL A   1      34.152  34.447  29.365  1.00  0.00     0.039 A 
ATOM     28  C   UNL A   1      33.915  33.715  30.530  1.00  0.00     0.014 A 
ATOM     29  C   UNL A   1      35.448  34.600  28.872  1.00  0.00     0.014 A 
ATOM     30  C   UNL A   1      34.978  33.065  31.159  1.00  0.00     0.010 A 
ATOM     31  C   UNL A   1      36.490  33.888  29.452  1.00  0.00     0.010 A 
ATOM     32  C   UNL A   1      36.265  33.112  30.599  1.00  0.00    -0.014 A 
BRANCH  32  33
ATOM     33  C   UNL A   1      37.394  32.359  31.194  1.00  0.00     0.031 A 
ATOM     34  C   UNL A   1      37.890  32.716  32.566  1.00  0.00     0.074 A 
ATOM     35  C   UNL A   1      38.024  31.416  30.468  1.00  0.00     0.049 A 
ATOM     36  N   UNL A   1      38.918  32.245  33.224  1.00  0.00    -0.248 NA
ATOM     37  C   UNL A   1      37.152  33.771  33.279  1.00  0.00     0.031 C 
ATOM     38  C   UNL A   1      37.673  31.023  29.102  1.00  0.00     0.029 A 
ATOM     39  N   UNL A   1      39.102  30.625  30.774  1.00  0.00    -0.354 N 
ATOM     40  C   UNL A   1      38.963  32.962  34.412  1.00  0.00     0.074 A 
ATOM     41  C   UNL A   1      37.895  33.935  34.362  1.00  0.00     0.031 C 
ATOM     42  C   UNL A   1      38.506  30.052  28.696  1.00  0.00     0.029 A 
ATOM     43  C   UNL A   1      39.469  29.776  29.758  1.00  0.00     0.049 A 
ATOM     44  H   UNL A   1      39.570  30.662  31.639  1.00  0.00     0.167 HD
ATOM     45  C   UNL A   1      39.804  32.804  35.461  1.00  0.00     0.037 A 
ATOM     46  C   UNL A   1      40.470  28.879  29.692  1.00  0.00     0.037 A 
ATOM     47  C   UNL A   1      40.840  31.807  35.521  1.00  0.00     0.049 A 
ATOM     48  C   UNL A   1      41.376  28.704  30.881  1.00  0.00     0.074 A 
ATOM     49  C   UNL A   1      41.699  31.515  36.566  1.00  0.00     0.029 A 
ATOM     50  N   UNL A   1      41.156  30.938  34.488  1.00  0.00    -0.354 N 
ATOM     51  N   UNL A   1      41.364  29.336  32.029  1.00  0.00    -0.248 NA
ATOM     52  C   UNL A   1      42.429  27.686  30.767  1.00  0.00     0.031 C 
ATOM     53  C   UNL A   1      42.558  30.493  36.152  1.00  0.00     0.029 A 
ATOM     54  C   UNL A   1      42.209  30.118  34.864  1.00  0.00     0.049 A 
ATOM     55  H   UNL A   1      40.701  30.908  33.615  1.00  0.00     0.167 HD
ATOM     56  C   UNL A   1      42.386  28.777  32.783  1.00  0.00     0.074 A 
ATOM     57  C   UNL A   1      42.991  27.745  31.967  1.00  0.00     0.031 C 
ATOM     58  C   UNL A   1      42.789  29.091  34.039  1.00  0.00     0.037 A 
BRANCH  45  59
ATOM     59  C   UNL A   1      39.627  33.725  36.632  1.00  0.00     0.064 A 
ATOM     60  C   UNL A   1      40.250  34.981  36.680  1.00  0.00     0.173 A 
ATOM     61  C   UNL A   1      38.811  33.355  37.712  1.00  0.00     0.173 A 
ATOM     62  F   UNL A   1      41.052  35.376  35.680  1.00  0.00    -0.203 F 
ATOM     63  C   UNL A   1      40.091  35.818  37.782  1.00  0.00     0.198 A 
ATOM     64  C   UNL A   1      38.630  34.208  38.797  1.00  0.00     0.198 A 
ATOM     65  F   UNL A   1      38.190  32.166  37.715  1.00  0.00    -0.203 F 
ATOM     66  F   UNL A   1      40.742  36.989  37.830  1.00  0.00    -0.200 F 
ATOM     67  C   UNL A   1      39.277  35.434  38.835  1.00  0.00     0.200 A 
ATOM     68  F   UNL A   1      37.836  33.839  39.811  1.00  0.00    -0.200 F 
ATOM     69  F   UNL A   1      39.124  36.241  39.894  1.00  0.00    -0.200 F 
ENDBRANCH  45  59
BRANCH  46  70
ATOM     70  C   UNL A   1      40.645  28.051  28.472  1.00  0.00     0.064 A 
ATOM     71  C   UNL A   1      40.034  26.794  28.366  1.00  0.00     0.173 A 
ATOM     72  C   UNL A   1      41.412  28.499  27.387  1.00  0.00     0.173 A 
ATOM     73  F   UNL A   1      39.305  26.317  29.385  1.00  0.00    -0.203 F 
ATOM     74  C   UNL A   1      40.198  26.007  27.228  1.00  0.00     0.198 A 
ATOM     75  C   UNL A   1      41.556  27.721  26.239  1.00  0.00     0.198 A 
ATOM     76  F   UNL A   1      42.012  29.697  27.437  1.00  0.00    -0.203 F 
ATOM     77  F   UNL A   1      39.634  24.793  27.168  1.00  0.00    -0.200 F 
ATOM     78  C   UNL A   1      40.954  26.473  26.163  1.00  0.00     0.200 A 
ATOM     79  F   UNL A   1      42.276  28.181  25.206  1.00  0.00    -0.200 F 
ATOM     80  F   UNL A   1      41.107  25.720  25.066  1.00  0.00    -0.200 F 
ENDBRANCH  46  70
BRANCH  58  81
ATOM     81  C   UNL A   1      43.916  28.289  34.618  1.00  0.00     0.064 A 
ATOM     82  C   UNL A   1      45.247  28.717  34.523  1.00  0.00     0.173 A 
ATOM     83  C   UNL A   1      43.654  27.101  35.318  1.00  0.00     0.173 A 
ATOM     84  F   UNL A   1      45.550  29.838  33.851  1.00  0.00    -0.203 F 
ATOM     85  C   UNL A   1      46.279  27.974  35.089  1.00  0.00     0.198 A 
ATOM     86  C   UNL A   1      44.684  26.375  35.906  1.00  0.00     0.198 A 
ATOM     87  F   UNL A   1      42.396  26.653  35.441  1.00  0.00    -0.203 F 
ATOM     88  F   UNL A   1      47.549  28.379  34.951  1.00  0.00    -0.200 F 
ATOM     89  C   UNL A   1      45.996  26.808  35.786  1.00  0.00     0.200 A 
ATOM     90  F   UNL A   1      44.409  25.255  36.589  1.00  0.00    -0.200 F 
ATOM     91  F   UNL A   1      46.990  26.098  36.338  1.00  0.00    -0.200 F 
ENDBRANCH  58  81
ENDBRANCH  32  33
ENDBRANCH  24  27
ENDBRANCH  22  23
ENDBRANCH  21  22
ENDBRANCH  20  21
ENDBRANCH   1  20
TORSDOF 15
ENDMDL
MODEL 2
REMARK VINA RESULT:     -11.7      2.325      8.186
REMARK SMILES Cc1cc(Br)cnc1SCC1(CC(=O)NCCCCNC(=O)c2ccc(-c3c4nc(c(-c5c(F)c(F)c(F)c(F)c5F)c5ccc([nH]5)c(-c5c(F)c(F)c(F)c(F)c5F)c5nc(c(-c6c(F)c(F)c(F)c(F)c6F)c6ccc3[nH]6)C=C5)C=C4)cc2)CC1
REMARK SMILES IDX 16 1 15 2 13 3 14 4 12 6 11 7 86 8 87 9 10 10 9 11 8 12 1 13
REMARK SMILES IDX 2 14 3 15 4 16 7 17 5 18 6 19 17 20 18 21 19 22 20 23 21 24
REMARK SMILES IDX 22 26 23 27 24 28 85 29 25 30 84 31 26 32 27 33 28 34 78 35
REMARK SMILES IDX 29 36 83 37 77 38 79 39 30 40 82 41 76 42 75 43 31 45 63 46
REMARK SMILES IDX 43 47 62 48 44 49 47 50 61 51 80 52 45 53 46 54 60 56 81 57
REMARK SMILES IDX 48 58 32 59 33 60 41 61 34 62 35 63 39 64 42 65 36 66 37 67
REMARK SMILES IDX 40 68 38 69 64 70 65 71 73 72 66 73 67 74 71 75 74 76 68 77
REMARK SMILES IDX 69 78 72 79 70 80 49 81 50 82 58 83 51 84 52 85 56 86 59 87
REMARK SMILES IDX 53 88 54 89 57 90 55 91
REMARK H PARENT 15 5 20 25 79 44 47 55
REMARK Flexibility Score: inf
ROOT
ATOM      1  C   UNL A   1      32.619  29.857  25.650  1.00  0.00     0.116 C 
ENDROOT
BRANCH   1   2
ATOM      2  N   UNL A   1      33.153  29.703  24.316  1.00  0.00    -0.356 N 
ATOM      3  C   UNL A   1      33.668  28.586  23.723  1.00  0.00     0.220 C 
ATOM      4  O   UNL A   1      34.138  28.705  22.590  1.00  0.00    -0.275 OA
ATOM      5  H   UNL A   1      33.144  30.513  23.758  1.00  0.00     0.163 HD
BRANCH   3   6
ATOM      6  C   UNL A   1      33.639  27.245  24.441  1.00  0.00     0.107 C 
BRANCH   6   7
ATOM      7  C   UNL A   1      32.888  26.117  23.739  1.00  0.00    -0.011 C 
ATOM      8  C   UNL A   1      32.977  24.745  24.396  1.00  0.00     0.009 C 
ATOM      9  C   UNL A   1      33.699  24.980  23.116  1.00  0.00     0.009 C 
BRANCH   7  10
ATOM     10  C   UNL A   1      31.634  26.519  22.993  1.00  0.00     0.084 C 
BRANCH  10  11
ATOM     11  S   UNL A   1      30.140  26.900  23.926  1.00  0.00    -0.106 SA
BRANCH  11  12
ATOM     12  C   UNL A   1      29.399  28.322  23.158  1.00  0.00     0.099 A 
ATOM     13  C   UNL A   1      26.926  27.887  23.775  1.00  0.00     0.047 C 
ATOM     14  C   UNL A   1      28.038  28.655  23.126  1.00  0.00    -0.018 A 
ATOM     15  C   UNL A   1      27.652  29.777  22.361  1.00  0.00     0.023 A 
ATOM     16  C   UNL A   1      28.591  30.491  21.633  1.00  0.00     0.036 A 
ATOM     17  N   UNL A   1      30.317  29.032  22.448  1.00  0.00    -0.248 NA
ATOM     18  Br  UNL A   1      28.077  31.955  20.566  1.00  0.00    -0.049 Br
ATOM     19  C   UNL A   1      29.902  30.078  21.697  1.00  0.00     0.128 A 
ENDBRANCH  11  12
ENDBRANCH  10  11
ENDBRANCH   7  10
ENDBRANCH   6   7
ENDBRANCH   3   6
ENDBRANCH   1   2
BRANCH   1  20
ATOM     20  C   UNL A   1      31.230  30.497  25.621  1.00  0.00     0.023 C 
BRANCH  20  21
ATOM     21  C   UNL A   1      31.097  31.788  26.428  1.00  0.00     0.023 C 
BRANCH  21  22
ATOM     22  C   UNL A   1      32.414  32.408  26.875  1.00  0.00     0.116 C 
BRANCH  22  23
ATOM     23  N   UNL A   1      32.281  33.753  27.415  1.00  0.00    -0.352 N 
ATOM     24  C   UNL A   1      33.096  34.385  28.324  1.00  0.00     0.251 C 
ATOM     25  H   UNL A   1      31.513  34.275  27.088  1.00  0.00     0.163 HD
ATOM     26  O   UNL A   1      32.816  35.499  28.752  1.00  0.00    -0.269 OA
BRANCH  24  27
ATOM     27  C   UNL A   1      34.291  33.674  28.819  1.00  0.00     0.039 A 
ATOM     28  C   UNL A   1      35.544  34.271  28.660  1.00  0.00     0.014 A 
ATOM     29  C   UNL A   1      34.160  32.466  29.504  1.00  0.00     0.014 A 
ATOM     30  C   UNL A   1      36.661  33.690  29.263  1.00  0.00     0.010 A 
ATOM     31  C   UNL A   1      35.257  31.933  30.169  1.00  0.00     0.010 A 
ATOM     32  C   UNL A   1      36.516  32.541  30.057  1.00  0.00    -0.014 A 
BRANCH  32  33
ATOM     33  C   UNL A   1      37.668  31.955  30.783  1.00  0.00     0.031 A 
ATOM     34  C   UNL A   1      38.493  30.882  30.132  1.00  0.00     0.074 A 
ATOM     35  C   UNL A   1      37.916  32.325  32.054  1.00  0.00     0.049 A 
ATOM     36  N   UNL A   1      39.477  30.178  30.629  1.00  0.00    -0.248 NA
ATOM     37  C   UNL A   1      38.139  30.527  28.748  1.00  0.00     0.031 C 
ATOM     38  C   UNL A   1      37.146  33.312  32.814  1.00  0.00     0.029 A 
ATOM     39  N   UNL A   1      38.877  31.904  32.937  1.00  0.00    -0.354 N 
ATOM     40  C   UNL A   1      39.842  29.285  29.630  1.00  0.00     0.074 A 
ATOM     41  C   UNL A   1      38.939  29.498  28.520  1.00  0.00     0.031 C 
ATOM     42  C   UNL A   1      37.679  33.435  34.040  1.00  0.00     0.029 A 
ATOM     43  C   UNL A   1      38.805  32.515  34.164  1.00  0.00     0.049 A 
ATOM     44  H   UNL A   1      39.556  31.227  32.712  1.00  0.00     0.167 HD
ATOM     45  C   UNL A   1      40.855  28.387  29.630  1.00  0.00     0.037 A 
ATOM     46  C   UNL A   1      39.561  32.348  35.265  1.00  0.00     0.037 A 
ATOM     47  C   UNL A   1      41.774  28.208  30.722  1.00  0.00     0.049 A 
ATOM     48  C   UNL A   1      40.697  31.362  35.231  1.00  0.00     0.074 A 
ATOM     49  C   UNL A   1      42.878  27.378  30.794  1.00  0.00     0.029 A 
ATOM     50  N   UNL A   1      41.693  28.874  31.935  1.00  0.00    -0.354 N 
ATOM     51  N   UNL A   1      41.080  30.575  34.256  1.00  0.00    -0.248 NA
ATOM     52  C   UNL A   1      41.511  31.247  36.449  1.00  0.00     0.031 C 
ATOM     53  C   UNL A   1      43.445  27.515  32.064  1.00  0.00     0.029 A 
ATOM     54  C   UNL A   1      42.720  28.462  32.770  1.00  0.00     0.049 A 
ATOM     55  H   UNL A   1      41.007  29.540  32.170  1.00  0.00     0.167 HD
ATOM     56  C   UNL A   1      42.190  29.892  34.729  1.00  0.00     0.074 A 
ATOM     57  C   UNL A   1      42.430  30.366  36.076  1.00  0.00     0.031 C 
ATOM     58  C   UNL A   1      42.945  28.954  34.104  1.00  0.00     0.037 A 
BRANCH  45  59
ATOM     59  C   UNL A   1      41.024  27.540  28.403  1.00  0.00     0.064 A 
ATOM     60  C   UNL A   1      40.354  26.317  28.255  1.00  0.00     0.173 A 
ATOM     61  C   UNL A   1      41.855  27.963  27.355  1.00  0.00     0.173 A 
ATOM     62  F   UNL A   1      39.559  25.860  29.235  1.00  0.00    -0.203 F 
ATOM     63  C   UNL A   1      40.535  25.532  27.119  1.00  0.00     0.198 A 
ATOM     64  C   UNL A   1      42.010  27.190  26.207  1.00  0.00     0.198 A 
ATOM     65  F   UNL A   1      42.518  29.126  27.443  1.00  0.00    -0.203 F 
ATOM     66  F   UNL A   1      39.927  24.341  27.027  1.00  0.00    -0.200 F 
ATOM     67  C   UNL A   1      41.357  25.972  26.094  1.00  0.00     0.200 A 
ATOM     68  F   UNL A   1      42.798  27.621  25.212  1.00  0.00    -0.200 F 
ATOM     69  F   UNL A   1      41.530  25.217  25.001  1.00  0.00    -0.200 F 
ENDBRANCH  45  59
BRANCH  46  70
ATOM     70  C   UNL A   1      39.292  33.160  36.479  1.00  0.00     0.064 A 
ATOM     71  C   UNL A   1      38.437  32.686  37.483  1.00  0.00     0.173 A 
ATOM     72  C   UNL A   1      39.885  34.417  36.665  1.00  0.00     0.173 A 
ATOM     73  F   UNL A   1      37.832  31.497  37.340  1.00  0.00    -0.203 F 
ATOM     74  C   UNL A   1      38.173  33.444  38.621  1.00  0.00     0.198 A 
ATOM     75  C   UNL A   1      39.639  35.165  37.816  1.00  0.00     0.198 A 
ATOM     76  F   UNL A   1      40.715  34.913  35.736  1.00  0.00    -0.203 F 
ATOM     77  F   UNL A   1      37.322  32.983  39.549  1.00  0.00    -0.200 F 
ATOM     78  C   UNL A   1      38.778  34.680  38.790  1.00  0.00     0.200 A 
ATOM     79  F   UNL A   1      40.237  36.352  37.982  1.00  0.00    -0.200 F 
ATOM     80  F   UNL A   1      38.528  35.407  39.887  1.00  0.00    -0.200 F 
ENDBRANCH  46  70
BRANCH  58  81
ATOM     81  C   UNL A   1      44.117  28.403  34.860  1.00  0.00     0.064 A 
ATOM     82  C   UNL A   1      45.370  29.032  34.833  1.00  0.00     0.173 A 
ATOM     83  C   UNL A   1      43.971  27.258  35.658  1.00  0.00     0.173 A 
ATOM     84  F   UNL A   1      45.562  30.121  34.073  1.00  0.00    -0.203 F 
ATOM     85  C   UNL A   1      46.441  28.524  35.562  1.00  0.00     0.198 A 
ATOM     86  C   UNL A   1      45.037  26.767  36.406  1.00  0.00     0.198 A 
ATOM     87  F   UNL A   1      42.792  26.623  35.721  1.00  0.00    -0.203 F 
ATOM     88  F   UNL A   1      47.641  29.117  35.490  1.00  0.00    -0.200 F 
ATOM     89  C   UNL A   1      46.272  27.396  36.353  1.00  0.00     0.200 A 
ATOM     90  F   UNL A   1      44.869  25.685  37.179  1.00  0.00    -0.200 F 
ATOM     91  F   UNL A   1      47.302  26.912  37.060  1.00  0.00    -0.200 F 
ENDBRANCH  58  81
ENDBRANCH  32  33
ENDBRANCH  24  27
ENDBRANCH  22  23
ENDBRANCH  21  22
ENDBRANCH  20  21
ENDBRANCH   1  20
TORSDOF 15
ENDMDL
MODEL 3
REMARK VINA RESULT:     -11.7      2.481      3.736
REMARK SMILES Cc1cc(Br)cnc1SCC1(CC(=O)NCCCCNC(=O)c2ccc(-c3c4nc(c(-c5c(F)c(F)c(F)c(F)c5F)c5ccc([nH]5)c(-c5c(F)c(F)c(F)c(F)c5F)c5nc(c(-c6c(F)c(F)c(F)c(F)c6F)c6ccc3[nH]6)C=C5)C=C4)cc2)CC1
REMARK SMILES IDX 16 1 15 2 13 3 14 4 12 6 11 7 86 8 87 9 10 10 9 11 8 12 1 13
REMARK SMILES IDX 2 14 3 15 4 16 7 17 5 18 6 19 17 20 18 21 19 22 20 23 21 24
REMARK SMILES IDX 22 26 23 27 24 28 85 29 25 30 84 31 26 32 27 33 28 34 78 35
REMARK SMILES IDX 29 36 83 37 77 38 79 39 30 40 82 41 76 42 75 43 31 45 63 46
REMARK SMILES IDX 43 47 62 48 44 49 47 50 61 51 80 52 45 53 46 54 60 56 81 57
REMARK SMILES IDX 48 58 32 59 33 60 41 61 34 62 35 63 39 64 42 65 36 66 37 67
REMARK SMILES IDX 40 68 38 69 64 70 65 71 73 72 66 73 67 74 71 75 74 76 68 77
REMARK SMILES IDX 69 78 72 79 70 80 49 81 50 82 58 83 51 84 52 85 56 86 59 87
REMARK SMILES IDX 53 88 54 89 57 90 55 91
REMARK H PARENT 15 5 20 25 79 44 47 55
REMARK Flexibility Score: inf
ROOT
ATOM      1  C   UNL A   1      32.372  29.989  25.682  1.00  0.00     0.116 C 
ENDROOT
BRANCH   1   2
ATOM      2  N   UNL A   1      32.892  29.730  24.359  1.00  0.00    -0.356 N 
ATOM      3  C   UNL A   1      33.496  28.603  23.880  1.00  0.00     0.220 C 
ATOM      4  O   UNL A   1      33.931  28.631  22.728  1.00  0.00    -0.275 OA
ATOM      5  H   UNL A   1      32.798  30.467  23.713  1.00  0.00     0.163 HD
BRANCH   3   6
ATOM      6  C   UNL A   1      33.604  27.357  24.746  1.00  0.00     0.107 C 
BRANCH   6   7
ATOM      7  C   UNL A   1      32.347  26.499  24.859  1.00  0.00    -0.011 C 
ATOM      8  C   UNL A   1      31.675  26.475  26.227  1.00  0.00     0.009 C 
ATOM      9  C   UNL A   1      32.389  25.259  25.752  1.00  0.00     0.009 C 
BRANCH   7  10
ATOM     10  C   UNL A   1      31.510  26.380  23.603  1.00  0.00     0.084 C 
BRANCH  10  11
ATOM     11  S   UNL A   1      29.713  26.411  23.737  1.00  0.00    -0.106 SA
BRANCH  11  12
ATOM     12  C   UNL A   1      29.185  28.027  23.216  1.00  0.00     0.099 A 
ATOM     13  C   UNL A   1      26.661  27.828  23.742  1.00  0.00     0.047 C 
ATOM     14  C   UNL A   1      27.880  28.539  23.235  1.00  0.00    -0.018 A 
ATOM     15  C   UNL A   1      27.664  29.813  22.669  1.00  0.00     0.023 A 
ATOM     16  C   UNL A   1      28.707  30.507  22.074  1.00  0.00     0.036 A 
ATOM     17  N   UNL A   1      30.206  28.717  22.639  1.00  0.00    -0.248 NA
ATOM     18  Br  UNL A   1      28.416  32.184  21.267  1.00  0.00    -0.049 Br
ATOM     19  C   UNL A   1      29.951  29.918  22.073  1.00  0.00     0.128 A 
ENDBRANCH  11  12
ENDBRANCH  10  11
ENDBRANCH   7  10
ENDBRANCH   6   7
ENDBRANCH   3   6
ENDBRANCH   1   2
BRANCH   1  20
ATOM     20  C   UNL A   1      31.077  30.801  25.620  1.00  0.00     0.023 C 
BRANCH  20  21
ATOM     21  C   UNL A   1      31.115  32.134  26.366  1.00  0.00     0.023 C 
BRANCH  21  22
ATOM     22  C   UNL A   1      32.418  32.427  27.098  1.00  0.00     0.116 C 
BRANCH  22  23
ATOM     23  N   UNL A   1      32.568  33.817  27.502  1.00  0.00    -0.352 N 
ATOM     24  C   UNL A   1      33.573  34.376  28.256  1.00  0.00     0.251 C 
ATOM     25  H   UNL A   1      31.864  34.434  27.197  1.00  0.00     0.163 HD
ATOM     26  O   UNL A   1      33.529  35.555  28.588  1.00  0.00    -0.269 OA
BRANCH  24  27
ATOM     27  C   UNL A   1      34.684  33.515  28.706  1.00  0.00     0.039 A 
ATOM     28  C   UNL A   1      35.997  33.926  28.464  1.00  0.00     0.014 A 
ATOM     29  C   UNL A   1      34.426  32.350  29.430  1.00  0.00     0.014 A 
ATOM     30  C   UNL A   1      37.054  33.207  29.022  1.00  0.00     0.010 A 
ATOM     31  C   UNL A   1      35.473  31.683  30.051  1.00  0.00     0.010 A 
ATOM     32  C   UNL A   1      36.796  32.106  29.855  1.00  0.00    -0.014 A 
BRANCH  32  33
ATOM     33  C   UNL A   1      37.895  31.378  30.534  1.00  0.00     0.031 A 
ATOM     34  C   UNL A   1      38.244  31.710  31.956  1.00  0.00     0.074 A 
ATOM     35  C   UNL A   1      38.630  30.484  29.845  1.00  0.00     0.049 A 
ATOM     36  N   UNL A   1      39.225  31.259  32.695  1.00  0.00    -0.248 NA
ATOM     37  C   UNL A   1      37.399  32.712  32.625  1.00  0.00     0.031 C 
ATOM     38  C   UNL A   1      38.427  30.122  28.441  1.00  0.00     0.029 A 
ATOM     39  N   UNL A   1      39.707  29.726  30.229  1.00  0.00    -0.354 N 
ATOM     40  C   UNL A   1      39.128  31.939  33.903  1.00  0.00     0.074 A 
ATOM     41  C   UNL A   1      38.029  32.870  33.779  1.00  0.00     0.031 C 
ATOM     42  C   UNL A   1      39.334  29.198  28.089  1.00  0.00     0.029 A 
ATOM     43  C   UNL A   1      40.203  28.926  29.230  1.00  0.00     0.049 A 
ATOM     44  H   UNL A   1      40.089  29.754  31.136  1.00  0.00     0.167 HD
ATOM     45  C   UNL A   1      39.872  31.780  35.022  1.00  0.00     0.037 A 
ATOM     46  C   UNL A   1      41.243  28.071  29.235  1.00  0.00     0.037 A 
ATOM     47  C   UNL A   1      40.939  30.823  35.152  1.00  0.00     0.049 A 
ATOM     48  C   UNL A   1      42.039  27.894  30.500  1.00  0.00     0.074 A 
ATOM     49  C   UNL A   1      41.706  30.532  36.266  1.00  0.00     0.029 A 
ATOM     50  N   UNL A   1      41.387  30.000  34.130  1.00  0.00    -0.354 N 
ATOM     51  N   UNL A   1      41.893  28.487  31.659  1.00  0.00    -0.248 NA
ATOM     52  C   UNL A   1      43.140  26.922  30.458  1.00  0.00     0.031 C 
ATOM     53  C   UNL A   1      42.643  29.558  35.907  1.00  0.00     0.029 A 
ATOM     54  C   UNL A   1      42.433  29.211  34.582  1.00  0.00     0.049 A 
ATOM     55  H   UNL A   1      41.017  29.981  33.217  1.00  0.00     0.167 HD
ATOM     56  C   UNL A   1      42.862  27.945  32.490  1.00  0.00     0.074 A 
ATOM     57  C   UNL A   1      43.584  26.964  31.707  1.00  0.00     0.031 C 
ATOM     58  C   UNL A   1      43.131  28.235  33.788  1.00  0.00     0.037 A 
BRANCH  45  59
ATOM     59  C   UNL A   1      39.547  32.656  36.196  1.00  0.00     0.064 A 
ATOM     60  C   UNL A   1      40.208  33.874  36.410  1.00  0.00     0.173 A 
ATOM     61  C   UNL A   1      38.550  32.280  37.110  1.00  0.00     0.173 A 
ATOM     62  F   UNL A   1      41.178  34.272  35.574  1.00  0.00    -0.203 F 
ATOM     63  C   UNL A   1      39.908  34.668  37.514  1.00  0.00     0.198 A 
ATOM     64  C   UNL A   1      38.233  33.091  38.196  1.00  0.00     0.198 A 
ATOM     65  F   UNL A   1      37.886  31.126  36.951  1.00  0.00    -0.203 F 
ATOM     66  F   UNL A   1      40.593  35.800  37.727  1.00  0.00    -0.200 F 
ATOM     67  C   UNL A   1      38.917  34.279  38.402  1.00  0.00     0.200 A 
ATOM     68  F   UNL A   1      37.268  32.719  39.048  1.00  0.00    -0.200 F 
ATOM     69  F   UNL A   1      38.629  35.045  39.463  1.00  0.00    -0.200 F 
ENDBRANCH  45  59
BRANCH  46  70
ATOM     70  C   UNL A   1      41.566  27.291  28.014  1.00  0.00     0.064 A 
ATOM     71  C   UNL A   1      42.423  27.814  27.035  1.00  0.00     0.173 A 
ATOM     72  C   UNL A   1      41.037  26.010  27.802  1.00  0.00     0.173 A 
ATOM     73  F   UNL A   1      42.939  29.042  27.186  1.00  0.00    -0.203 F 
ATOM     74  C   UNL A   1      42.725  27.092  25.883  1.00  0.00     0.198 A 
ATOM     75  C   UNL A   1      41.359  25.278  26.660  1.00  0.00     0.198 A 
ATOM     76  F   UNL A   1      40.217  25.463  28.711  1.00  0.00    -0.203 F 
ATOM     77  F   UNL A   1      43.518  27.630  24.946  1.00  0.00    -0.200 F 
ATOM     78  C   UNL A   1      42.199  25.822  25.698  1.00  0.00     0.200 A 
ATOM     79  F   UNL A   1      40.859  24.047  26.492  1.00  0.00    -0.200 F 
ATOM     80  F   UNL A   1      42.494  25.126  24.593  1.00  0.00    -0.200 F 
ENDBRANCH  46  70
BRANCH  58  81
ATOM     81  C   UNL A   1      44.231  27.459  34.448  1.00  0.00     0.064 A 
ATOM     82  C   UNL A   1      45.546  27.942  34.494  1.00  0.00     0.173 A 
ATOM     83  C   UNL A   1      43.954  26.239  35.086  1.00  0.00     0.173 A 
ATOM     84  F   UNL A   1      45.863  29.095  33.886  1.00  0.00    -0.203 F 
ATOM     85  C   UNL A   1      46.550  27.222  35.135  1.00  0.00     0.198 A 
ATOM     86  C   UNL A   1      44.954  25.536  35.749  1.00  0.00     0.198 A 
ATOM     87  F   UNL A   1      42.710  25.738  35.075  1.00  0.00    -0.203 F 
ATOM     88  F   UNL A   1      47.810  27.681  35.131  1.00  0.00    -0.200 F 
ATOM     89  C   UNL A   1      46.252  26.024  35.768  1.00  0.00     0.200 A 
ATOM     90  F   UNL A   1      44.663  24.384  36.369  1.00  0.00    -0.200 F 
ATOM     91  F   UNL A   1      47.218  25.336  36.391  1.00  0.00    -0.200 F 
ENDBRANCH  58  81
ENDBRANCH  32  33
ENDBRANCH  24  27
ENDBRANCH  22  23
ENDBRANCH  21  22
ENDBRANCH  20  21
ENDBRANCH   1  20
TORSDOF 15
ENDMDL
