MODEL 1
REMARK VINA RESULT:     -12.0      0.000      0.000
REMARK SMILES CC(C)N(CCCC(=O)NCCCCNC(=O)c1ccc(-c2c3nc(c(-c4c(F)c(F)c(F)c(F)c4F)c4ccc([nH]4)c(-c4c(F)c(F)c(F)c(F)c4F)c4nc(c(-c5c(F)c(F)c(F)c(F)c5F)c5ccc2[nH]5)C=C4)C=C3)cc1)C(=O)N[C@@H]1CCCC1(C)C
REMARK SMILES IDX 11 1 10 2 8 3 9 4 7 6 6 7 5 8 4 9 2 10 1 11 3 12 81 13 82 14
REMARK SMILES IDX 83 15 84 17 85 18 88 19 86 20 87 21 89 22 90 23 12 24 13 25
REMARK SMILES IDX 14 26 15 27 16 28 17 30 18 31 19 32 80 33 20 34 79 35 21 36
REMARK SMILES IDX 22 37 23 38 73 39 24 40 78 41 72 42 74 43 25 44 77 45 71 46
REMARK SMILES IDX 70 47 26 49 58 50 38 51 57 52 39 53 42 54 56 55 75 56 40 57
REMARK SMILES IDX 41 58 55 60 76 61 43 62 27 63 28 64 36 65 29 66 30 67 34 68
REMARK SMILES IDX 37 69 31 70 32 71 35 72 33 73 59 74 60 75 68 76 61 77 62 78
REMARK SMILES IDX 66 79 69 80 63 81 64 82 67 83 65 84 44 85 45 86 53 87 46 88
REMARK SMILES IDX 47 89 51 90 54 91 48 92 49 93 52 94 50 95
REMARK H PARENT 10 5 83 16 15 29 74 48 42 59
REMARK Flexibility Score: inf
ROOT
ATOM      1  C   UNL A   1      34.786  31.258  28.478  1.00  0.00     0.116 C 
ENDROOT
BRANCH   1   2
ATOM      2  N   UNL A   1      33.569  30.866  27.699  1.00  0.00    -0.356 N 
ATOM      3  C   UNL A   1      33.129  29.769  26.971  1.00  0.00     0.220 C 
ATOM      4  O   UNL A   1      31.966  29.843  26.553  1.00  0.00    -0.275 OA
ATOM      5  H   UNL A   1      32.893  31.582  27.706  1.00  0.00     0.163 HD
BRANCH   3   6
ATOM      6  C   UNL A   1      33.988  28.526  26.612  1.00  0.00     0.102 C 
BRANCH   6   7
ATOM      7  C   UNL A   1      33.317  27.301  25.854  1.00  0.00     0.031 C 
BRANCH   7   8
ATOM      8  C   UNL A   1      32.215  26.312  26.429  1.00  0.00     0.122 C 
BRANCH   8   9
ATOM      9  N   UNL A   1      31.819  25.196  25.604  1.00  0.00    -0.322 N 
BRANCH   9  10
ATOM     10  C   UNL A   1      30.972  25.373  24.376  1.00  0.00     0.080 C 
ATOM     11  C   UNL A   1      30.652  24.083  23.570  1.00  0.00     0.031 C 
ATOM     12  C   UNL A   1      29.636  26.077  24.632  1.00  0.00     0.031 C 
ENDBRANCH   9  10
BRANCH   9  13
ATOM     13  C   UNL A   1      31.849  24.018  26.234  1.00  0.00     0.317 C 
ATOM     14  O   UNL A   1      31.164  23.911  27.251  1.00  0.00    -0.249 OA
ATOM     15  N   UNL A   1      32.797  23.098  26.029  1.00  0.00    -0.335 N 
ATOM     16  H   UNL A   1      33.052  22.789  26.929  1.00  0.00     0.165 HD
BRANCH  15  17
ATOM     17  C   UNL A   1      33.635  22.333  25.111  1.00  0.00     0.089 C 
ATOM     18  C   UNL A   1      34.080  20.913  25.412  1.00  0.00     0.025 C 
ATOM     19  C   UNL A   1      34.817  23.103  24.469  1.00  0.00    -0.015 C 
ATOM     20  C   UNL A   1      35.591  20.974  25.369  1.00  0.00     0.003 C 
ATOM     21  C   UNL A   1      35.885  22.009  24.286  1.00  0.00     0.008 C 
ATOM     22  C   UNL A   1      34.413  23.673  23.092  1.00  0.00     0.013 C 
ATOM     23  C   UNL A   1      35.343  24.248  25.345  1.00  0.00     0.013 C 
ENDBRANCH  15  17
ENDBRANCH   9  13
ENDBRANCH   8   9
ENDBRANCH   7   8
ENDBRANCH   6   7
ENDBRANCH   3   6
ENDBRANCH   1   2
BRANCH   1  24
ATOM     24  C   UNL A   1      34.758  32.677  29.127  1.00  0.00     0.023 C 
BRANCH  24  25
ATOM     25  C   UNL A   1      33.737  33.733  28.785  1.00  0.00     0.023 C 
BRANCH  25  26
ATOM     26  C   UNL A   1      34.015  35.064  29.438  1.00  0.00     0.116 C 
BRANCH  26  27
ATOM     27  N   UNL A   1      32.907  35.645  30.209  1.00  0.00    -0.352 N 
ATOM     28  C   UNL A   1      32.762  35.725  31.580  1.00  0.00     0.251 C 
ATOM     29  H   UNL A   1      32.172  36.029  29.677  1.00  0.00     0.163 HD
ATOM     30  O   UNL A   1      31.774  36.238  32.095  1.00  0.00    -0.269 OA
BRANCH  28  31
ATOM     31  C   UNL A   1      33.799  35.097  32.422  1.00  0.00     0.039 A 
ATOM     32  C   UNL A   1      33.615  33.793  32.881  1.00  0.00     0.014 A 
ATOM     33  C   UNL A   1      35.033  35.727  32.552  1.00  0.00     0.014 A 
ATOM     34  C   UNL A   1      34.720  33.073  33.340  1.00  0.00     0.010 A 
ATOM     35  C   UNL A   1      36.147  34.953  32.815  1.00  0.00     0.010 A 
ATOM     36  C   UNL A   1      36.008  33.620  33.230  1.00  0.00    -0.014 A 
BRANCH  36  37
ATOM     37  C   UNL A   1      37.236  32.852  33.563  1.00  0.00     0.031 A 
ATOM     38  C   UNL A   1      37.952  33.140  34.857  1.00  0.00     0.074 A 
ATOM     39  C   UNL A   1      37.767  31.990  32.672  1.00  0.00     0.049 A 
ATOM     40  N   UNL A   1      39.118  32.719  35.274  1.00  0.00    -0.248 NA
ATOM     41  C   UNL A   1      37.300  34.091  35.777  1.00  0.00     0.031 C 
ATOM     42  C   UNL A   1      37.226  31.690  31.345  1.00  0.00     0.029 A 
ATOM     43  N   UNL A   1      38.897  31.211  32.749  1.00  0.00    -0.354 N 
ATOM     44  C   UNL A   1      39.347  33.385  36.470  1.00  0.00     0.074 A 
ATOM     45  C   UNL A   1      38.257  34.312  36.661  1.00  0.00     0.031 C 
ATOM     46  C   UNL A   1      37.996  30.763  30.752  1.00  0.00     0.029 A 
ATOM     47  C   UNL A   1      39.109  30.435  31.635  1.00  0.00     0.049 A 
ATOM     48  H   UNL A   1      39.497  31.210  33.528  1.00  0.00     0.167 HD
ATOM     49  C   UNL A   1      40.349  33.205  37.363  1.00  0.00     0.037 A 
ATOM     50  C   UNL A   1      40.095  29.558  31.362  1.00  0.00     0.037 A 
ATOM     51  C   UNL A   1      41.387  32.227  37.206  1.00  0.00     0.049 A 
ATOM     52  C   UNL A   1      41.173  29.334  32.389  1.00  0.00     0.074 A 
ATOM     53  C   UNL A   1      42.397  31.891  38.086  1.00  0.00     0.029 A 
ATOM     54  N   UNL A   1      41.534  31.415  36.090  1.00  0.00    -0.354 N 
ATOM     55  N   UNL A   1      41.337  29.911  33.555  1.00  0.00    -0.248 NA
ATOM     56  C   UNL A   1      42.200  28.334  32.065  1.00  0.00     0.031 C 
ATOM     57  C   UNL A   1      43.179  30.897  37.488  1.00  0.00     0.029 A 
ATOM     58  C   UNL A   1      42.631  30.586  36.253  1.00  0.00     0.049 A 
ATOM     59  H   UNL A   1      40.946  31.426  35.300  1.00  0.00     0.167 HD
ATOM     60  C   UNL A   1      42.472  29.338  34.110  1.00  0.00     0.074 A 
ATOM     61  C   UNL A   1      42.944  28.348  33.163  1.00  0.00     0.031 C 
ATOM     62  C   UNL A   1      43.076  29.609  35.294  1.00  0.00     0.037 A 
BRANCH  49  63
ATOM     63  C   UNL A   1      40.333  34.062  38.596  1.00  0.00     0.064 A 
ATOM     64  C   UNL A   1      41.024  35.284  38.655  1.00  0.00     0.173 A 
ATOM     65  C   UNL A   1      39.628  33.655  39.738  1.00  0.00     0.173 A 
ATOM     66  F   UNL A   1      41.729  35.712  37.595  1.00  0.00    -0.203 F 
ATOM     67  C   UNL A   1      41.053  36.038  39.824  1.00  0.00     0.198 A 
ATOM     68  C   UNL A   1      39.627  34.432  40.895  1.00  0.00     0.198 A 
ATOM     69  F   UNL A   1      38.947  32.499  39.739  1.00  0.00    -0.203 F 
ATOM     70  F   UNL A   1      41.785  37.160  39.876  1.00  0.00    -0.200 F 
ATOM     71  C   UNL A   1      40.350  35.616  40.941  1.00  0.00     0.200 A 
ATOM     72  F   UNL A   1      38.937  34.029  41.970  1.00  0.00    -0.200 F 
ATOM     73  F   UNL A   1      40.379  36.342  42.065  1.00  0.00    -0.200 F 
ENDBRANCH  49  63
BRANCH  50  74
ATOM     74  C   UNL A   1      40.088  28.805  30.079  1.00  0.00     0.064 A 
ATOM     75  C   UNL A   1      39.462  27.555  29.982  1.00  0.00     0.173 A 
ATOM     76  C   UNL A   1      40.696  29.319  28.924  1.00  0.00     0.173 A 
ATOM     77  F   UNL A   1      38.883  27.011  31.063  1.00  0.00    -0.203 F 
ATOM     78  C   UNL A   1      39.459  26.839  28.786  1.00  0.00     0.198 A 
ATOM     79  C   UNL A   1      40.669  28.615  27.720  1.00  0.00     0.198 A 
ATOM     80  F   UNL A   1      41.303  30.515  28.960  1.00  0.00    -0.203 F 
ATOM     81  F   UNL A   1      38.889  25.627  28.734  1.00  0.00    -0.200 F 
ATOM     82  C   UNL A   1      40.057  27.373  27.655  1.00  0.00     0.200 A 
ATOM     83  F   UNL A   1      41.235  29.141  26.626  1.00  0.00    -0.200 F 
ATOM     84  F   UNL A   1      40.048  26.688  26.503  1.00  0.00    -0.200 F 
ENDBRANCH  50  74
BRANCH  62  85
ATOM     85  C   UNL A   1      44.303  28.818  35.635  1.00  0.00     0.064 A 
ATOM     86  C   UNL A   1      45.583  29.271  35.285  1.00  0.00     0.173 A 
ATOM     87  C   UNL A   1      44.200  27.633  36.379  1.00  0.00     0.173 A 
ATOM     88  F   UNL A   1      45.729  30.392  34.564  1.00  0.00    -0.203 F 
ATOM     89  C   UNL A   1      46.718  28.553  35.652  1.00  0.00     0.198 A 
ATOM     90  C   UNL A   1      45.339  26.934  36.769  1.00  0.00     0.198 A 
ATOM     91  F   UNL A   1      42.998  27.165  36.745  1.00  0.00    -0.203 F 
ATOM     92  F   UNL A   1      47.930  28.983  35.276  1.00  0.00    -0.200 F 
ATOM     93  C   UNL A   1      46.595  27.392  36.401  1.00  0.00     0.200 A 
ATOM     94  F   UNL A   1      45.220  25.821  37.505  1.00  0.00    -0.200 F 
ATOM     95  F   UNL A   1      47.691  26.712  36.766  1.00  0.00    -0.200 F 
ENDBRANCH  62  85
ENDBRANCH  36  37
ENDBRANCH  28  31
ENDBRANCH  26  27
ENDBRANCH  25  26
ENDBRANCH  24  25
ENDBRANCH   1  24
TORSDOF 17
ENDMDL
MODEL 2
REMARK VINA RESULT:     -12.0      6.510     11.118
REMARK SMILES CC(C)N(CCCC(=O)NCCCCNC(=O)c1ccc(-c2c3nc(c(-c4c(F)c(F)c(F)c(F)c4F)c4ccc([nH]4)c(-c4c(F)c(F)c(F)c(F)c4F)c4nc(c(-c5c(F)c(F)c(F)c(F)c5F)c5ccc2[nH]5)C=C4)C=C3)cc1)C(=O)N[C@@H]1CCCC1(C)C
REMARK SMILES IDX 11 1 10 2 8 3 9 4 7 6 6 7 5 8 4 9 2 10 1 11 3 12 81 13 82 14
REMARK SMILES IDX 83 15 84 17 85 18 88 19 86 20 87 21 89 22 90 23 12 24 13 25
REMARK SMILES IDX 14 26 15 27 16 28 17 30 18 31 19 32 80 33 20 34 79 35 21 36
REMARK SMILES IDX 22 37 23 38 73 39 24 40 78 41 72 42 74 43 25 44 77 45 71 46
REMARK SMILES IDX 70 47 26 49 58 50 38 51 57 52 39 53 42 54 56 55 75 56 40 57
REMARK SMILES IDX 41 58 55 60 76 61 43 62 27 63 28 64 36 65 29 66 30 67 34 68
REMARK SMILES IDX 37 69 31 70 32 71 35 72 33 73 59 74 60 75 68 76 61 77 62 78
REMARK SMILES IDX 66 79 69 80 63 81 64 82 67 83 65 84 44 85 45 86 53 87 46 88
REMARK SMILES IDX 47 89 51 90 54 91 48 92 49 93 52 94 50 95
REMARK H PARENT 10 5 83 16 15 29 74 48 42 59
REMARK Flexibility Score: inf
ROOT
ATOM      1  C   UNL A   1      35.637  20.704  24.932  1.00  0.00     0.116 C 
ENDROOT
BRANCH   1   2
ATOM      2  N   UNL A   1      34.785  19.485  25.107  1.00  0.00    -0.356 N 
ATOM      3  C   UNL A   1      33.559  19.020  24.654  1.00  0.00     0.220 C 
ATOM      4  O   UNL A   1      33.271  17.865  24.997  1.00  0.00    -0.275 OA
ATOM      5  H   UNL A   1      35.212  18.834  25.710  1.00  0.00     0.163 HD
BRANCH   3   6
ATOM      6  C   UNL A   1      32.537  19.841  23.822  1.00  0.00     0.102 C 
BRANCH   6   7
ATOM      7  C   UNL A   1      32.218  21.343  24.231  1.00  0.00     0.031 C 
BRANCH   7   8
ATOM      8  C   UNL A   1      31.530  21.840  25.574  1.00  0.00     0.122 C 
BRANCH   8   9
ATOM      9  N   UNL A   1      31.868  23.160  26.053  1.00  0.00    -0.322 N 
BRANCH   9  10
ATOM     10  C   UNL A   1      33.089  23.416  26.889  1.00  0.00     0.080 C 
ATOM     11  C   UNL A   1      33.664  22.193  27.658  1.00  0.00     0.031 C 
ATOM     12  C   UNL A   1      34.256  24.042  26.119  1.00  0.00     0.031 C 
ENDBRANCH   9  10
BRANCH   9  13
ATOM     13  C   UNL A   1      30.831  23.999  26.106  1.00  0.00     0.317 C 
ATOM     14  O   UNL A   1      30.185  24.025  27.153  1.00  0.00    -0.249 OA
ATOM     15  N   UNL A   1      30.268  24.542  25.021  1.00  0.00    -0.335 N 
ATOM     16  H   UNL A   1      29.298  24.452  25.164  1.00  0.00     0.165 HD
BRANCH  15  17
ATOM     17  C   UNL A   1      30.404  25.205  23.727  1.00  0.00     0.089 C 
ATOM     18  C   UNL A   1      31.393  24.735  22.676  1.00  0.00     0.025 C 
ATOM     19  C   UNL A   1      30.401  26.754  23.755  1.00  0.00    -0.015 C 
ATOM     20  C   UNL A   1      32.266  25.942  22.412  1.00  0.00     0.003 C 
ATOM     21  C   UNL A   1      31.313  27.124  22.570  1.00  0.00     0.008 C 
ATOM     22  C   UNL A   1      28.978  27.301  23.507  1.00  0.00     0.013 C 
ATOM     23  C   UNL A   1      30.935  27.340  25.068  1.00  0.00     0.013 C 
ENDBRANCH  15  17
ENDBRANCH   9  13
ENDBRANCH   8   9
ENDBRANCH   7   8
ENDBRANCH   6   7
ENDBRANCH   3   6
ENDBRANCH   1   2
BRANCH   1  24
ATOM     24  C   UNL A   1      37.180  20.481  25.003  1.00  0.00     0.023 C 
BRANCH  24  25
ATOM     25  C   UNL A   1      38.179  21.598  25.175  1.00  0.00     0.023 C 
BRANCH  25  26
ATOM     26  C   UNL A   1      39.292  21.258  26.133  1.00  0.00     0.116 C 
BRANCH  26  27
ATOM     27  N   UNL A   1      39.920  19.941  25.947  1.00  0.00    -0.352 N 
ATOM     28  C   UNL A   1      41.249  19.594  26.094  1.00  0.00     0.251 C 
ATOM     29  H   UNL A   1      39.313  19.212  25.683  1.00  0.00     0.163 HD
ATOM     30  O   UNL A   1      41.640  18.447  25.901  1.00  0.00    -0.269 OA
BRANCH  28  31
ATOM     31  C   UNL A   1      42.212  20.666  26.414  1.00  0.00     0.039 A 
ATOM     32  C   UNL A   1      42.911  21.292  25.382  1.00  0.00     0.014 A 
ATOM     33  C   UNL A   1      42.237  21.185  27.704  1.00  0.00     0.014 A 
ATOM     34  C   UNL A   1      43.517  22.525  25.624  1.00  0.00     0.010 A 
ATOM     35  C   UNL A   1      42.662  22.487  27.885  1.00  0.00     0.010 A 
ATOM     36  C   UNL A   1      43.324  23.172  26.855  1.00  0.00    -0.014 A 
BRANCH  36  37
ATOM     37  C   UNL A   1      43.818  24.548  27.124  1.00  0.00     0.031 A 
ATOM     38  C   UNL A   1      42.854  25.582  27.646  1.00  0.00     0.074 A 
ATOM     39  C   UNL A   1      45.079  24.899  26.801  1.00  0.00     0.049 A 
ATOM     40  N   UNL A   1      43.017  26.871  27.792  1.00  0.00    -0.248 NA
ATOM     41  C   UNL A   1      41.496  25.114  27.979  1.00  0.00     0.031 C 
ATOM     42  C   UNL A   1      46.085  24.019  26.202  1.00  0.00     0.029 A 
ATOM     43  N   UNL A   1      45.729  26.103  26.925  1.00  0.00    -0.354 N 
ATOM     44  C   UNL A   1      41.779  27.360  28.188  1.00  0.00     0.074 A 
ATOM     45  C   UNL A   1      40.852  26.254  28.158  1.00  0.00     0.031 C 
ATOM     46  C   UNL A   1      47.233  24.698  26.052  1.00  0.00     0.029 A 
ATOM     47  C   UNL A   1      47.036  26.071  26.501  1.00  0.00     0.049 A 
ATOM     48  H   UNL A   1      45.299  26.912  27.284  1.00  0.00     0.167 HD
ATOM     49  C   UNL A   1      41.450  28.608  28.595  1.00  0.00     0.037 A 
ATOM     50  C   UNL A   1      47.966  27.046  26.478  1.00  0.00     0.037 A 
ATOM     51  C   UNL A   1      42.394  29.684  28.699  1.00  0.00     0.049 A 
ATOM     52  C   UNL A   1      47.596  28.416  26.982  1.00  0.00     0.074 A 
ATOM     53  C   UNL A   1      42.197  30.962  29.186  1.00  0.00     0.029 A 
ATOM     54  N   UNL A   1      43.726  29.597  28.316  1.00  0.00    -0.354 N 
ATOM     55  N   UNL A   1      46.442  28.847  27.431  1.00  0.00    -0.248 NA
ATOM     56  C   UNL A   1      48.657  29.432  26.981  1.00  0.00     0.031 C 
ATOM     57  C   UNL A   1      43.402  31.661  29.067  1.00  0.00     0.029 A 
ATOM     58  C   UNL A   1      44.360  30.806  28.544  1.00  0.00     0.049 A 
ATOM     59  H   UNL A   1      44.155  28.795  27.941  1.00  0.00     0.167 HD
ATOM     60  C   UNL A   1      46.639  30.176  27.780  1.00  0.00     0.074 A 
ATOM     61  C   UNL A   1      48.032  30.474  27.512  1.00  0.00     0.031 C 
ATOM     62  C   UNL A   1      45.748  31.073  28.270  1.00  0.00     0.037 A 
BRANCH  49  63
ATOM     63  C   UNL A   1      40.021  28.848  28.991  1.00  0.00     0.064 A 
ATOM     64  C   UNL A   1      39.580  28.661  30.311  1.00  0.00     0.173 A 
ATOM     65  C   UNL A   1      39.078  29.261  28.038  1.00  0.00     0.173 A 
ATOM     66  F   UNL A   1      40.438  28.251  31.258  1.00  0.00    -0.203 F 
ATOM     67  C   UNL A   1      38.241  28.827  30.651  1.00  0.00     0.198 A 
ATOM     68  C   UNL A   1      37.745  29.463  28.391  1.00  0.00     0.198 A 
ATOM     69  F   UNL A   1      39.443  29.458  26.763  1.00  0.00    -0.203 F 
ATOM     70  F   UNL A   1      37.833  28.565  31.902  1.00  0.00    -0.200 F 
ATOM     71  C   UNL A   1      37.326  29.234  29.694  1.00  0.00     0.200 A 
ATOM     72  F   UNL A   1      36.863  29.868  27.467  1.00  0.00    -0.200 F 
ATOM     73  F   UNL A   1      36.037  29.391  30.022  1.00  0.00    -0.200 F 
ENDBRANCH  49  63
BRANCH  50  74
ATOM     74  C   UNL A   1      49.341  26.752  25.993  1.00  0.00     0.064 A 
ATOM     75  C   UNL A   1      49.697  26.985  24.657  1.00  0.00     0.173 A 
ATOM     76  C   UNL A   1      50.329  26.244  26.849  1.00  0.00     0.173 A 
ATOM     77  F   UNL A   1      48.783  27.452  23.793  1.00  0.00    -0.203 F 
ATOM     78  C   UNL A   1      50.981  26.704  24.192  1.00  0.00     0.198 A 
ATOM     79  C   UNL A   1      51.620  25.989  26.390  1.00  0.00     0.198 A 
ATOM     80  F   UNL A   1      50.043  26.009  28.139  1.00  0.00    -0.203 F 
ATOM     81  F   UNL A   1      51.281  26.897  22.900  1.00  0.00    -0.200 F 
ATOM     82  C   UNL A   1      51.943  26.212  25.061  1.00  0.00     0.200 A 
ATOM     83  F   UNL A   1      52.550  25.527  27.237  1.00  0.00    -0.200 F 
ATOM     84  F   UNL A   1      53.179  25.948  24.616  1.00  0.00    -0.200 F 
ENDBRANCH  50  74
BRANCH  62  85
ATOM     85  C   UNL A   1      46.253  32.454  28.559  1.00  0.00     0.064 A 
ATOM     86  C   UNL A   1      46.800  32.784  29.807  1.00  0.00     0.173 A 
ATOM     87  C   UNL A   1      46.253  33.436  27.557  1.00  0.00     0.173 A 
ATOM     88  F   UNL A   1      46.811  31.882  30.800  1.00  0.00    -0.203 F 
ATOM     89  C   UNL A   1      47.313  34.056  30.048  1.00  0.00     0.198 A 
ATOM     90  C   UNL A   1      46.793  34.697  27.792  1.00  0.00     0.198 A 
ATOM     91  F   UNL A   1      45.749  33.164  26.344  1.00  0.00    -0.203 F 
ATOM     92  F   UNL A   1      47.797  34.362  31.259  1.00  0.00    -0.200 F 
ATOM     93  C   UNL A   1      47.317  35.007  29.038  1.00  0.00     0.200 A 
ATOM     94  F   UNL A   1      46.811  35.609  26.811  1.00  0.00    -0.200 F 
ATOM     95  F   UNL A   1      47.825  36.226  29.267  1.00  0.00    -0.200 F 
ENDBRANCH  62  85
ENDBRANCH  36  37
ENDBRANCH  28  31
ENDBRANCH  26  27
ENDBRANCH  25  26
ENDBRANCH  24  25
ENDBRANCH   1  24
TORSDOF 17
ENDMDL
MODEL 3
REMARK VINA RESULT:     -12.0      5.358     11.002
REMARK SMILES CC(C)N(CCCC(=O)NCCCCNC(=O)c1ccc(-c2c3nc(c(-c4c(F)c(F)c(F)c(F)c4F)c4ccc([nH]4)c(-c4c(F)c(F)c(F)c(F)c4F)c4nc(c(-c5c(F)c(F)c(F)c(F)c5F)c5ccc2[nH]5)C=C4)C=C3)cc1)C(=O)N[C@@H]1CCCC1(C)C
REMARK SMILES IDX 11 1 10 2 8 3 9 4 7 6 6 7 5 8 4 9 2 10 1 11 3 12 81 13 82 14
REMARK SMILES IDX 83 15 84 17 85 18 88 19 86 20 87 21 89 22 90 23 12 24 13 25
REMARK SMILES IDX 14 26 15 27 16 28 17 30 18 31 19 32 80 33 20 34 79 35 21 36
REMARK SMILES IDX 22 37 23 38 73 39 24 40 78 41 72 42 74 43 25 44 77 45 71 46
REMARK SMILES IDX 70 47 26 49 58 50 38 51 57 52 39 53 42 54 56 55 75 56 40 57
REMARK SMILES IDX 41 58 55 60 76 61 43 62 27 63 28 64 36 65 29 66 30 67 34 68
REMARK SMILES IDX 37 69 31 70 32 71 35 72 33 73 59 74 60 75 68 76 61 77 62 78
REMARK SMILES IDX 66 79 69 80 63 81 64 82 67 83 65 84 44 85 45 86 53 87 46 88
REMARK SMILES IDX 47 89 51 90 54 91 48 92 49 93 52 94 50 95
REMARK H PARENT 10 5 83 16 15 29 74 48 42 59
REMARK Flexibility Score: inf
ROOT
ATOM      1  C   UNL A   1      33.629  21.883  26.579  1.00  0.00     0.116 C 
ENDROOT
BRANCH   1   2
ATOM      2  N   UNL A   1      32.948  20.636  26.105  1.00  0.00    -0.356 N 
ATOM      3  C   UNL A   1      32.539  20.089  24.897  1.00  0.00     0.220 C 
ATOM      4  O   UNL A   1      32.076  18.943  24.965  1.00  0.00    -0.275 OA
ATOM      5  H   UNL A   1      32.730  20.040  26.858  1.00  0.00     0.163 HD
BRANCH   3   6
ATOM      6  C   UNL A   1      32.572  20.815  23.525  1.00  0.00     0.102 C 
BRANCH   6   7
ATOM      7  C   UNL A   1      32.477  22.400  23.473  1.00  0.00     0.031 C 
BRANCH   7   8
ATOM      8  C   UNL A   1      33.557  23.401  22.876  1.00  0.00     0.122 C 
BRANCH   8   9
ATOM      9  N   UNL A   1      33.352  24.814  23.088  1.00  0.00    -0.322 N 
BRANCH   9  10
ATOM     10  C   UNL A   1      33.250  25.785  21.947  1.00  0.00     0.080 C 
ATOM     11  C   UNL A   1      31.843  25.945  21.305  1.00  0.00     0.031 C 
ATOM     12  C   UNL A   1      33.748  27.196  22.277  1.00  0.00     0.031 C 
ENDBRANCH   9  10
BRANCH   9  13
ATOM     13  C   UNL A   1      33.720  25.239  24.299  1.00  0.00     0.317 C 
ATOM     14  O   UNL A   1      34.756  24.766  24.767  1.00  0.00    -0.249 OA
ATOM     15  N   UNL A   1      32.891  25.863  25.143  1.00  0.00    -0.335 N 
ATOM     16  H   UNL A   1      33.050  25.440  26.018  1.00  0.00     0.165 HD
BRANCH  15  17
ATOM     17  C   UNL A   1      31.864  26.871  25.388  1.00  0.00     0.089 C 
ATOM     18  C   UNL A   1      30.802  27.213  24.358  1.00  0.00     0.025 C 
ATOM     19  C   UNL A   1      32.345  28.180  26.064  1.00  0.00    -0.015 C 
ATOM     20  C   UNL A   1      30.975  28.697  24.116  1.00  0.00     0.003 C 
ATOM     21  C   UNL A   1      31.398  29.243  25.477  1.00  0.00     0.008 C 
ATOM     22  C   UNL A   1      32.157  28.103  27.595  1.00  0.00     0.013 C 
ATOM     23  C   UNL A   1      33.811  28.517  25.761  1.00  0.00     0.013 C 
ENDBRANCH  15  17
ENDBRANCH   9  13
ENDBRANCH   8   9
ENDBRANCH   7   8
ENDBRANCH   6   7
ENDBRANCH   3   6
ENDBRANCH   1   2
BRANCH   1  24
ATOM     24  C   UNL A   1      35.188  21.881  26.517  1.00  0.00     0.023 C 
BRANCH  24  25
ATOM     25  C   UNL A   1      35.978  21.309  25.366  1.00  0.00     0.023 C 
BRANCH  25  26
ATOM     26  C   UNL A   1      37.369  21.880  25.257  1.00  0.00     0.116 C 
BRANCH  26  27
ATOM     27  N   UNL A   1      38.471  20.919  25.413  1.00  0.00    -0.352 N 
ATOM     28  C   UNL A   1      39.623  21.047  26.165  1.00  0.00     0.251 C 
ATOM     29  H   UNL A   1      38.376  20.075  24.916  1.00  0.00     0.163 HD
ATOM     30  O   UNL A   1      40.470  20.161  26.203  1.00  0.00    -0.269 OA
BRANCH  28  31
ATOM     31  C   UNL A   1      39.850  22.325  26.868  1.00  0.00     0.039 A 
ATOM     32  C   UNL A   1      40.877  22.420  27.808  1.00  0.00     0.014 A 
ATOM     33  C   UNL A   1      39.191  23.466  26.421  1.00  0.00     0.014 A 
ATOM     34  C   UNL A   1      41.336  23.683  28.185  1.00  0.00     0.010 A 
ATOM     35  C   UNL A   1      39.776  24.698  26.643  1.00  0.00     0.010 A 
ATOM     36  C   UNL A   1      40.846  24.830  27.541  1.00  0.00    -0.014 A 
BRANCH  36  37
ATOM     37  C   UNL A   1      41.396  26.187  27.792  1.00  0.00     0.031 A 
ATOM     38  C   UNL A   1      42.788  26.512  27.314  1.00  0.00     0.074 A 
ATOM     39  C   UNL A   1      40.708  27.079  28.532  1.00  0.00     0.049 A 
ATOM     40  N   UNL A   1      43.528  27.561  27.563  1.00  0.00    -0.248 NA
ATOM     41  C   UNL A   1      43.468  25.484  26.506  1.00  0.00     0.031 C 
ATOM     42  C   UNL A   1      39.391  26.857  29.134  1.00  0.00     0.029 A 
ATOM     43  N   UNL A   1      41.031  28.359  28.915  1.00  0.00    -0.354 N 
ATOM     44  C   UNL A   1      44.760  27.292  26.982  1.00  0.00     0.074 A 
ATOM     45  C   UNL A   1      44.704  25.947  26.461  1.00  0.00     0.031 C 
ATOM     46  C   UNL A   1      39.002  27.974  29.771  1.00  0.00     0.029 A 
ATOM     47  C   UNL A   1      40.056  28.975  29.662  1.00  0.00     0.049 A 
ATOM     48  H   UNL A   1      41.882  28.793  28.677  1.00  0.00     0.167 HD
ATOM     49  C   UNL A   1      45.829  28.111  26.842  1.00  0.00     0.037 A 
ATOM     50  C   UNL A   1      40.023  30.211  30.198  1.00  0.00     0.037 A 
ATOM     51  C   UNL A   1      45.849  29.474  27.292  1.00  0.00     0.049 A 
ATOM     52  C   UNL A   1      41.201  31.125  29.990  1.00  0.00     0.074 A 
ATOM     53  C   UNL A   1      46.838  30.424  27.123  1.00  0.00     0.029 A 
ATOM     54  N   UNL A   1      44.817  30.083  27.992  1.00  0.00    -0.354 N 
ATOM     55  N   UNL A   1      42.331  30.889  29.367  1.00  0.00    -0.248 NA
ATOM     56  C   UNL A   1      41.098  32.479  30.552  1.00  0.00     0.031 C 
ATOM     57  C   UNL A   1      46.419  31.601  27.751  1.00  0.00     0.029 A 
ATOM     58  C   UNL A   1      45.152  31.395  28.276  1.00  0.00     0.049 A 
ATOM     59  H   UNL A   1      43.973  29.647  28.248  1.00  0.00     0.167 HD
ATOM     60  C   UNL A   1      43.066  32.063  29.450  1.00  0.00     0.074 A 
ATOM     61  C   UNL A   1      42.244  33.020  30.162  1.00  0.00     0.031 C 
ATOM     62  C   UNL A   1      44.313  32.326  28.985  1.00  0.00     0.037 A 
BRANCH  49  63
ATOM     63  C   UNL A   1      47.035  27.554  26.143  1.00  0.00     0.064 A 
ATOM     64  C   UNL A   1      48.110  26.998  26.857  1.00  0.00     0.173 A 
ATOM     65  C   UNL A   1      47.126  27.583  24.744  1.00  0.00     0.173 A 
ATOM     66  F   UNL A   1      48.082  26.960  28.199  1.00  0.00    -0.203 F 
ATOM     67  C   UNL A   1      49.249  26.542  26.201  1.00  0.00     0.198 A 
ATOM     68  C   UNL A   1      48.252  27.090  24.088  1.00  0.00     0.198 A 
ATOM     69  F   UNL A   1      46.128  28.100  24.010  1.00  0.00    -0.203 F 
ATOM     70  F   UNL A   1      50.292  26.089  26.911  1.00  0.00    -0.200 F 
ATOM     71  C   UNL A   1      49.317  26.582  24.817  1.00  0.00     0.200 A 
ATOM     72  F   UNL A   1      48.312  27.118  22.750  1.00  0.00    -0.200 F 
ATOM     73  F   UNL A   1      50.415  26.144  24.187  1.00  0.00    -0.200 F 
ENDBRANCH  49  63
BRANCH  50  74
ATOM     74  C   UNL A   1      38.823  30.664  30.951  1.00  0.00     0.064 A 
ATOM     75  C   UNL A   1      37.731  31.239  30.286  1.00  0.00     0.173 A 
ATOM     76  C   UNL A   1      38.735  30.525  32.344  1.00  0.00     0.173 A 
ATOM     77  F   UNL A   1      37.774  31.412  28.956  1.00  0.00    -0.203 F 
ATOM     78  C   UNL A   1      36.607  31.675  30.985  1.00  0.00     0.198 A 
ATOM     79  C   UNL A   1      37.599  30.936  33.040  1.00  0.00     0.198 A 
ATOM     80  F   UNL A   1      39.749  29.975  33.029  1.00  0.00    -0.203 F 
ATOM     81  F   UNL A   1      35.596  32.260  30.327  1.00  0.00    -0.200 F 
ATOM     82  C   UNL A   1      36.539  31.517  32.360  1.00  0.00     0.200 A 
ATOM     83  F   UNL A   1      37.532  30.768  34.367  1.00  0.00    -0.200 F 
ATOM     84  F   UNL A   1      35.455  31.930  33.032  1.00  0.00    -0.200 F 
ENDBRANCH  50  74
BRANCH  62  85
ATOM     85  C   UNL A   1      44.857  33.702  29.221  1.00  0.00     0.064 A 
ATOM     86  C   UNL A   1      45.637  33.994  30.350  1.00  0.00     0.173 A 
ATOM     87  C   UNL A   1      44.654  34.719  28.276  1.00  0.00     0.173 A 
ATOM     88  F   UNL A   1      45.847  33.058  31.286  1.00  0.00    -0.203 F 
ATOM     89  C   UNL A   1      46.179  35.263  30.533  1.00  0.00     0.198 A 
ATOM     90  C   UNL A   1      45.222  35.978  28.448  1.00  0.00     0.198 A 
ATOM     91  F   UNL A   1      43.923  34.484  27.177  1.00  0.00    -0.203 F 
ATOM     92  F   UNL A   1      46.890  35.533  31.636  1.00  0.00    -0.200 F 
ATOM     93  C   UNL A   1      45.979  36.250  29.578  1.00  0.00     0.200 A 
ATOM     94  F   UNL A   1      45.042  36.925  27.518  1.00  0.00    -0.200 F 
ATOM     95  F   UNL A   1      46.516  37.466  29.749  1.00  0.00    -0.200 F 
ENDBRANCH  62  85
ENDBRANCH  36  37
ENDBRANCH  28  31
ENDBRANCH  26  27
ENDBRANCH  25  26
ENDBRANCH  24  25
ENDBRANCH   1  24
TORSDOF 17
ENDMDL
