MODEL 1
REMARK VINA RESULT:     -12.6      0.000      0.000
REMARK SMILES CCOc1ccc(Nc2nc(-c3cccs3)c(CC(=O)NCCCCNC(=O)c3ccc(-c4c5nc(c(-c6c(F)c(F)c(F)c(F)c6F)c6ccc([nH]6)c(-c6c(F)c(F)c(F)c(F)c6F)c6nc(c(-c7c(F)c(F)c(F)c(F)c7F)c7ccc4[nH]7)C=C6)C=C5)cc3)s2)cc1
REMARK SMILES IDX 22 1 21 2 19 3 20 4 18 6 17 7 9 8 10 9 92 10 11 11 8 12 7 14
REMARK SMILES IDX 4 15 5 16 94 17 6 18 93 19 3 20 2 21 1 22 12 23 13 24 16 25
REMARK SMILES IDX 14 26 15 27 23 28 24 29 25 30 26 31 27 32 28 34 29 35 30 36
REMARK SMILES IDX 91 37 31 38 90 39 32 40 33 41 34 42 84 43 35 44 89 45 83 46
REMARK SMILES IDX 85 47 36 48 88 49 82 50 81 51 37 53 69 54 49 55 68 56 50 57
REMARK SMILES IDX 53 58 67 59 86 60 51 61 52 62 66 64 87 65 54 66 38 67 39 68
REMARK SMILES IDX 47 69 40 70 41 71 45 72 48 73 42 74 43 75 46 76 44 77 70 78
REMARK SMILES IDX 71 79 79 80 72 81 73 82 77 83 80 84 74 85 75 86 78 87 76 88
REMARK SMILES IDX 55 89 56 90 64 91 57 92 58 93 62 94 65 95 59 96 60 97 63 98
REMARK SMILES IDX 61 99
REMARK H PARENT 21 5 8 13 26 33 85 52 53 63
REMARK Flexibility Score: inf
ROOT
ATOM      1  C   UNL A   1      32.596  30.050  27.317  1.00  0.00     0.116 C 
ENDROOT
BRANCH   1   2
ATOM      2  N   UNL A   1      32.086  28.705  27.497  1.00  0.00    -0.356 N 
ATOM      3  C   UNL A   1      32.404  27.563  26.819  1.00  0.00     0.225 C 
ATOM      4  O   UNL A   1      31.799  26.529  27.114  1.00  0.00    -0.275 OA
ATOM      5  H   UNL A   1      31.413  28.601  28.208  1.00  0.00     0.163 HD
BRANCH   3   6
ATOM      6  C   UNL A   1      33.523  27.554  25.787  1.00  0.00     0.149 C 
BRANCH   6   7
ATOM      7  C   UNL A   1      33.347  26.475  24.762  1.00  0.00     0.045 A 
ATOM      8  C   UNL A   1      33.494  24.381  23.510  1.00  0.00     0.188 A 
ATOM      9  N   UNL A   1      32.472  25.092  23.095  1.00  0.00    -0.219 NA
ATOM     10  S   UNL A   1      34.369  25.088  24.810  1.00  0.00    -0.101 S 
ATOM     11  C   UNL A   1      32.419  26.313  23.745  1.00  0.00     0.097 A 
BRANCH   8  12
ATOM     12  N   UNL A   1      33.890  23.187  23.017  1.00  0.00    -0.332 N 
ATOM     13  H   UNL A   1      34.383  23.193  22.166  1.00  0.00     0.169 HD
BRANCH  12  14
ATOM     14  C   UNL A   1      33.659  21.933  23.619  1.00  0.00     0.040 A 
ATOM     15  C   UNL A   1      33.383  19.367  24.733  1.00  0.00     0.119 A 
ATOM     16  C   UNL A   1      32.389  19.872  23.905  1.00  0.00     0.048 A 
ATOM     17  C   UNL A   1      34.500  20.139  25.036  1.00  0.00     0.048 A 
ATOM     18  C   UNL A   1      32.516  21.159  23.371  1.00  0.00     0.030 A 
ATOM     19  C   UNL A   1      34.625  21.422  24.498  1.00  0.00     0.030 A 
BRANCH  15  20
ATOM     20  O   UNL A   1      33.305  18.060  25.120  1.00  0.00    -0.494 OA
BRANCH  20  21
ATOM     21  C   UNL A   1      32.915  17.184  24.058  1.00  0.00     0.226 C 
ATOM     22  C   UNL A   1      34.119  16.755  23.236  1.00  0.00     0.049 C 
ENDBRANCH  20  21
ENDBRANCH  15  20
ENDBRANCH  12  14
ENDBRANCH   8  12
BRANCH  11  23
ATOM     23  C   UNL A   1      31.327  27.280  23.379  1.00  0.00     0.054 A 
ATOM     24  C   UNL A   1      31.583  28.480  22.747  1.00  0.00     0.022 A 
ATOM     25  S   UNL A   1      29.660  27.068  23.674  1.00  0.00    -0.142 S 
ATOM     26  C   UNL A   1      30.385  29.182  22.417  1.00  0.00     0.012 A 
ATOM     27  C   UNL A   1      29.265  28.535  22.891  1.00  0.00     0.065 A 
ENDBRANCH  11  23
ENDBRANCH   6   7
ENDBRANCH   3   6
ENDBRANCH   1   2
BRANCH   1  28
ATOM     28  C   UNL A   1      31.799  30.822  26.265  1.00  0.00     0.023 C 
BRANCH  28  29
ATOM     29  C   UNL A   1      31.539  32.288  26.622  1.00  0.00     0.023 C 
BRANCH  29  30
ATOM     30  C   UNL A   1      32.638  32.953  27.440  1.00  0.00     0.116 C 
BRANCH  30  31
ATOM     31  N   UNL A   1      32.363  34.348  27.745  1.00  0.00    -0.352 N 
ATOM     32  C   UNL A   1      32.995  35.168  28.648  1.00  0.00     0.251 C 
ATOM     33  H   UNL A   1      31.628  34.760  27.237  1.00  0.00     0.163 HD
ATOM     34  O   UNL A   1      32.568  36.297  28.869  1.00  0.00    -0.269 OA
BRANCH  32  35
ATOM     35  C   UNL A   1      34.171  34.665  29.387  1.00  0.00     0.039 A 
ATOM     36  C   UNL A   1      33.981  34.100  30.651  1.00  0.00     0.014 A 
ATOM     37  C   UNL A   1      35.449  34.722  28.826  1.00  0.00     0.014 A 
ATOM     38  C   UNL A   1      35.063  33.528  31.322  1.00  0.00     0.010 A 
ATOM     39  C   UNL A   1      36.512  34.088  29.463  1.00  0.00     0.010 A 
ATOM     40  C   UNL A   1      36.330  33.483  30.715  1.00  0.00    -0.014 A 
BRANCH  40  41
ATOM     41  C   UNL A   1      37.474  32.801  31.372  1.00  0.00     0.031 A 
ATOM     42  C   UNL A   1      38.145  31.637  30.701  1.00  0.00     0.074 A 
ATOM     43  C   UNL A   1      37.859  33.185  32.605  1.00  0.00     0.049 A 
ATOM     44  N   UNL A   1      39.103  30.863  31.146  1.00  0.00    -0.248 NA
ATOM     45  C   UNL A   1      37.658  31.275  29.360  1.00  0.00     0.031 C 
ATOM     46  C   UNL A   1      37.254  34.268  33.383  1.00  0.00     0.029 A 
ATOM     47  N   UNL A   1      38.846  32.699  33.427  1.00  0.00    -0.354 N 
ATOM     48  C   UNL A   1      39.320  29.918  30.153  1.00  0.00     0.074 A 
ATOM     49  C   UNL A   1      38.363  30.182  29.101  1.00  0.00     0.031 C 
ATOM     50  C   UNL A   1      37.890  34.374  34.560  1.00  0.00     0.029 A 
ATOM     51  C   UNL A   1      38.924  33.346  34.636  1.00  0.00     0.049 A 
ATOM     52  H   UNL A   1      39.441  31.957  33.174  1.00  0.00     0.167 HD
ATOM     53  C   UNL A   1      40.248  28.933  30.112  1.00  0.00     0.037 A 
ATOM     54  C   UNL A   1      39.732  33.128  35.692  1.00  0.00     0.037 A 
ATOM     55  C   UNL A   1      41.222  28.694  31.146  1.00  0.00     0.049 A 
ATOM     56  C   UNL A   1      40.758  32.029  35.616  1.00  0.00     0.074 A 
ATOM     57  C   UNL A   1      42.247  27.765  31.164  1.00  0.00     0.029 A 
ATOM     58  N   UNL A   1      41.289  29.390  32.343  1.00  0.00    -0.354 N 
ATOM     59  N   UNL A   1      41.003  31.190  34.639  1.00  0.00    -0.248 NA
ATOM     60  C   UNL A   1      41.627  31.851  36.788  1.00  0.00     0.031 C 
ATOM     61  C   UNL A   1      42.908  27.868  32.392  1.00  0.00     0.029 A 
ATOM     62  C   UNL A   1      42.327  28.896  33.117  1.00  0.00     0.049 A 
ATOM     63  H   UNL A   1      40.689  30.126  32.604  1.00  0.00     0.167 HD
ATOM     64  C   UNL A   1      42.070  30.410  35.063  1.00  0.00     0.074 A 
ATOM     65  C   UNL A   1      42.436  30.884  36.381  1.00  0.00     0.031 C 
ATOM     66  C   UNL A   1      42.688  29.389  34.420  1.00  0.00     0.037 A 
BRANCH  53  67
ATOM     67  C   UNL A   1      40.268  28.040  28.906  1.00  0.00     0.064 A 
ATOM     68  C   UNL A   1      41.044  28.345  27.778  1.00  0.00     0.173 A 
ATOM     69  C   UNL A   1      39.549  26.835  28.902  1.00  0.00     0.173 A 
ATOM     70  F   UNL A   1      41.741  29.491  27.728  1.00  0.00    -0.203 F 
ATOM     71  C   UNL A   1      41.085  27.487  26.683  1.00  0.00     0.198 A 
ATOM     72  C   UNL A   1      39.615  25.965  27.817  1.00  0.00     0.198 A 
ATOM     73  F   UNL A   1      38.794  26.494  29.958  1.00  0.00    -0.203 F 
ATOM     74  F   UNL A   1      41.803  27.818  25.601  1.00  0.00    -0.200 F 
ATOM     75  C   UNL A   1      40.378  26.294  26.707  1.00  0.00     0.200 A 
ATOM     76  F   UNL A   1      38.941  24.807  27.847  1.00  0.00    -0.200 F 
ATOM     77  F   UNL A   1      40.429  25.463  25.657  1.00  0.00    -0.200 F 
ENDBRANCH  53  67
BRANCH  54  78
ATOM     78  C   UNL A   1      39.618  33.974  36.909  1.00  0.00     0.064 A 
ATOM     79  C   UNL A   1      38.836  33.566  37.999  1.00  0.00     0.173 A 
ATOM     80  C   UNL A   1      40.266  35.215  36.999  1.00  0.00     0.173 A 
ATOM     81  F   UNL A   1      38.180  32.398  37.952  1.00  0.00    -0.203 F 
ATOM     82  C   UNL A   1      38.682  34.380  39.119  1.00  0.00     0.198 A 
ATOM     83  C   UNL A   1      40.136  36.014  38.133  1.00  0.00     0.198 A 
ATOM     84  F   UNL A   1      41.030  35.649  35.987  1.00  0.00    -0.203 F 
ATOM     85  F   UNL A   1      37.884  33.990  40.122  1.00  0.00    -0.200 F 
ATOM     86  C   UNL A   1      39.336  35.601  39.188  1.00  0.00     0.200 A 
ATOM     87  F   UNL A   1      40.780  37.187  38.200  1.00  0.00    -0.200 F 
ATOM     88  F   UNL A   1      39.186  36.384  40.265  1.00  0.00    -0.200 F 
ENDBRANCH  54  78
BRANCH  66  89
ATOM     89  C   UNL A   1      43.853  28.744  35.113  1.00  0.00     0.064 A 
ATOM     90  C   UNL A   1      45.164  29.209  34.935  1.00  0.00     0.173 A 
ATOM     91  C   UNL A   1      43.649  27.673  35.996  1.00  0.00     0.173 A 
ATOM     92  F   UNL A   1      45.415  30.221  34.090  1.00  0.00    -0.203 F 
ATOM     93  C   UNL A   1      46.232  28.609  35.599  1.00  0.00     0.198 A 
ATOM     94  C   UNL A   1      44.713  27.096  36.680  1.00  0.00     0.198 A 
ATOM     95  F   UNL A   1      42.412  27.196  36.206  1.00  0.00    -0.203 F 
ATOM     96  F   UNL A   1      47.481  29.038  35.380  1.00  0.00    -0.200 F 
ATOM     97  C   UNL A   1      46.004  27.559  36.476  1.00  0.00     0.200 A 
ATOM     98  F   UNL A   1      44.490  26.091  37.538  1.00  0.00    -0.200 F 
ATOM     99  F   UNL A   1      47.032  26.987  37.120  1.00  0.00    -0.200 F 
ENDBRANCH  66  89
ENDBRANCH  40  41
ENDBRANCH  32  35
ENDBRANCH  30  31
ENDBRANCH  29  30
ENDBRANCH  28  29
ENDBRANCH   1  28
TORSDOF 17
ENDMDL
MODEL 2
REMARK VINA RESULT:     -12.5      0.574      7.131
REMARK SMILES CCOc1ccc(Nc2nc(-c3cccs3)c(CC(=O)NCCCCNC(=O)c3ccc(-c4c5nc(c(-c6c(F)c(F)c(F)c(F)c6F)c6ccc([nH]6)c(-c6c(F)c(F)c(F)c(F)c6F)c6nc(c(-c7c(F)c(F)c(F)c(F)c7F)c7ccc4[nH]7)C=C6)C=C5)cc3)s2)cc1
REMARK SMILES IDX 22 1 21 2 19 3 20 4 18 6 17 7 9 8 10 9 92 10 11 11 8 12 7 14
REMARK SMILES IDX 4 15 5 16 94 17 6 18 93 19 3 20 2 21 1 22 12 23 13 24 16 25
REMARK SMILES IDX 14 26 15 27 23 28 24 29 25 30 26 31 27 32 28 34 29 35 30 36
REMARK SMILES IDX 91 37 31 38 90 39 32 40 33 41 34 42 84 43 35 44 89 45 83 46
REMARK SMILES IDX 85 47 36 48 88 49 82 50 81 51 37 53 69 54 49 55 68 56 50 57
REMARK SMILES IDX 53 58 67 59 86 60 51 61 52 62 66 64 87 65 54 66 38 67 39 68
REMARK SMILES IDX 47 69 40 70 41 71 45 72 48 73 42 74 43 75 46 76 44 77 70 78
REMARK SMILES IDX 71 79 79 80 72 81 73 82 77 83 80 84 74 85 75 86 78 87 76 88
REMARK SMILES IDX 55 89 56 90 64 91 57 92 58 93 62 94 65 95 59 96 60 97 63 98
REMARK SMILES IDX 61 99
REMARK H PARENT 21 5 8 13 26 33 85 52 53 63
REMARK Flexibility Score: inf
ROOT
ATOM      1  C   UNL A   1      32.366  30.079  27.149  1.00  0.00     0.116 C 
ENDROOT
BRANCH   1   2
ATOM      2  N   UNL A   1      31.806  28.759  27.361  1.00  0.00    -0.356 N 
ATOM      3  C   UNL A   1      32.219  27.556  26.864  1.00  0.00     0.225 C 
ATOM      4  O   UNL A   1      31.552  26.557  27.142  1.00  0.00    -0.275 OA
ATOM      5  H   UNL A   1      31.015  28.725  27.947  1.00  0.00     0.163 HD
BRANCH   3   6
ATOM      6  C   UNL A   1      33.504  27.445  26.055  1.00  0.00     0.149 C 
BRANCH   6   7
ATOM      7  C   UNL A   1      33.407  26.423  24.965  1.00  0.00     0.045 A 
ATOM      8  C   UNL A   1      33.620  24.385  23.633  1.00  0.00     0.188 A 
ATOM      9  N   UNL A   1      32.676  25.154  23.144  1.00  0.00    -0.219 NA
ATOM     10  S   UNL A   1      34.369  24.995  25.055  1.00  0.00    -0.101 S 
ATOM     11  C   UNL A   1      32.593  26.345  23.844  1.00  0.00     0.097 A 
BRANCH   8  12
ATOM     12  N   UNL A   1      34.028  23.199  23.127  1.00  0.00    -0.332 N 
ATOM     13  H   UNL A   1      34.568  23.223  22.305  1.00  0.00     0.169 HD
BRANCH  12  14
ATOM     14  C   UNL A   1      33.748  21.932  23.678  1.00  0.00     0.040 A 
ATOM     15  C   UNL A   1      33.372  19.335  24.687  1.00  0.00     0.119 A 
ATOM     16  C   UNL A   1      32.394  19.916  23.888  1.00  0.00     0.048 A 
ATOM     17  C   UNL A   1      34.522  20.047  25.012  1.00  0.00     0.048 A 
ATOM     18  C   UNL A   1      32.572  21.217  23.407  1.00  0.00     0.030 A 
ATOM     19  C   UNL A   1      34.697  21.345  24.528  1.00  0.00     0.030 A 
BRANCH  15  20
ATOM     20  O   UNL A   1      33.241  18.017  25.019  1.00  0.00    -0.494 OA
BRANCH  20  21
ATOM     21  C   UNL A   1      32.953  17.182  23.894  1.00  0.00     0.226 C 
ATOM     22  C   UNL A   1      34.233  16.742  23.202  1.00  0.00     0.049 C 
ENDBRANCH  20  21
ENDBRANCH  15  20
ENDBRANCH  12  14
ENDBRANCH   8  12
BRANCH  11  23
ATOM     23  C   UNL A   1      31.583  27.369  23.410  1.00  0.00     0.054 A 
ATOM     24  C   UNL A   1      31.936  28.508  22.714  1.00  0.00     0.022 A 
ATOM     25  S   UNL A   1      29.901  27.303  23.694  1.00  0.00    -0.142 S 
ATOM     26  C   UNL A   1      30.799  29.280  22.329  1.00  0.00     0.012 A 
ATOM     27  C   UNL A   1      29.628  28.749  22.824  1.00  0.00     0.065 A 
ENDBRANCH  11  23
ENDBRANCH   6   7
ENDBRANCH   3   6
ENDBRANCH   1   2
BRANCH   1  28
ATOM     28  C   UNL A   1      31.542  30.889  26.146  1.00  0.00     0.023 C 
BRANCH  28  29
ATOM     29  C   UNL A   1      31.395  32.371  26.503  1.00  0.00     0.023 C 
BRANCH  29  30
ATOM     30  C   UNL A   1      32.542  32.950  27.320  1.00  0.00     0.116 C 
BRANCH  30  31
ATOM     31  N   UNL A   1      32.319  34.329  27.725  1.00  0.00    -0.352 N 
ATOM     32  C   UNL A   1      32.984  35.059  28.679  1.00  0.00     0.251 C 
ATOM     33  H   UNL A   1      31.596  34.802  27.253  1.00  0.00     0.163 HD
ATOM     34  O   UNL A   1      32.600  36.185  28.983  1.00  0.00    -0.269 OA
BRANCH  32  35
ATOM     35  C   UNL A   1      34.145  34.464  29.373  1.00  0.00     0.039 A 
ATOM     36  C   UNL A   1      33.928  33.738  30.547  1.00  0.00     0.014 A 
ATOM     37  C   UNL A   1      35.435  34.592  28.852  1.00  0.00     0.014 A 
ATOM     38  C   UNL A   1      34.996  33.082  31.161  1.00  0.00     0.010 A 
ATOM     39  C   UNL A   1      36.485  33.880  29.424  1.00  0.00     0.010 A 
ATOM     40  C   UNL A   1      36.276  33.116  30.582  1.00  0.00    -0.014 A 
BRANCH  40  41
ATOM     41  C   UNL A   1      37.407  32.353  31.169  1.00  0.00     0.031 A 
ATOM     42  C   UNL A   1      37.934  32.712  32.530  1.00  0.00     0.074 A 
ATOM     43  C   UNL A   1      38.005  31.386  30.446  1.00  0.00     0.049 A 
ATOM     44  N   UNL A   1      38.960  32.219  33.177  1.00  0.00    -0.248 NA
ATOM     45  C   UNL A   1      37.231  33.786  33.250  1.00  0.00     0.031 C 
ATOM     46  C   UNL A   1      37.619  30.979  29.093  1.00  0.00     0.029 A 
ATOM     47  N   UNL A   1      39.073  30.576  30.743  1.00  0.00    -0.354 N 
ATOM     48  C   UNL A   1      39.035  32.932  34.365  1.00  0.00     0.074 A 
ATOM     49  C   UNL A   1      37.983  33.924  34.333  1.00  0.00     0.031 C 
ATOM     50  C   UNL A   1      38.427  29.988  28.683  1.00  0.00     0.029 A 
ATOM     51  C   UNL A   1      39.409  29.713  29.728  1.00  0.00     0.049 A 
ATOM     52  H   UNL A   1      39.554  30.611  31.601  1.00  0.00     0.167 HD
ATOM     53  C   UNL A   1      39.891  32.759  35.401  1.00  0.00     0.037 A 
ATOM     54  C   UNL A   1      40.404  28.810  29.646  1.00  0.00     0.037 A 
ATOM     55  C   UNL A   1      40.916  31.749  35.446  1.00  0.00     0.049 A 
ATOM     56  C   UNL A   1      41.337  28.636  30.814  1.00  0.00     0.074 A 
ATOM     57  C   UNL A   1      41.786  31.450  36.479  1.00  0.00     0.029 A 
ATOM     58  N   UNL A   1      41.206  30.873  34.411  1.00  0.00    -0.354 N 
ATOM     59  N   UNL A   1      41.350  29.265  31.964  1.00  0.00    -0.248 NA
ATOM     60  C   UNL A   1      42.390  27.620  30.677  1.00  0.00     0.031 C 
ATOM     61  C   UNL A   1      42.634  30.423  36.054  1.00  0.00     0.029 A 
ATOM     62  C   UNL A   1      42.258  30.047  34.775  1.00  0.00     0.049 A 
ATOM     63  H   UNL A   1      40.735  30.843  33.547  1.00  0.00     0.167 HD
ATOM     64  C   UNL A   1      42.387  28.702  32.696  1.00  0.00     0.074 A 
ATOM     65  C   UNL A   1      42.971  27.669  31.867  1.00  0.00     0.031 C 
ATOM     66  C   UNL A   1      42.818  29.014  33.943  1.00  0.00     0.037 A 
BRANCH  53  67
ATOM     67  C   UNL A   1      39.754  33.675  36.581  1.00  0.00     0.064 A 
ATOM     68  C   UNL A   1      40.391  34.925  36.620  1.00  0.00     0.173 A 
ATOM     69  C   UNL A   1      38.928  33.326  37.661  1.00  0.00     0.173 A 
ATOM     70  F   UNL A   1      41.200  35.301  35.619  1.00  0.00    -0.203 F 
ATOM     71  C   UNL A   1      40.221  35.782  37.703  1.00  0.00     0.198 A 
ATOM     72  C   UNL A   1      38.738  34.198  38.729  1.00  0.00     0.198 A 
ATOM     73  F   UNL A   1      38.292  32.145  37.672  1.00  0.00    -0.203 F 
ATOM     74  F   UNL A   1      40.871  36.954  37.736  1.00  0.00    -0.200 F 
ATOM     75  C   UNL A   1      39.389  35.422  38.753  1.00  0.00     0.200 A 
ATOM     76  F   UNL A   1      37.922  33.854  39.736  1.00  0.00    -0.200 F 
ATOM     77  F   UNL A   1      39.216  36.254  39.789  1.00  0.00    -0.200 F 
ENDBRANCH  53  67
BRANCH  54  78
ATOM     78  C   UNL A   1      40.567  27.984  28.419  1.00  0.00     0.064 A 
ATOM     79  C   UNL A   1      39.975  26.717  28.322  1.00  0.00     0.173 A 
ATOM     80  C   UNL A   1      41.334  28.432  27.334  1.00  0.00     0.173 A 
ATOM     81  F   UNL A   1      39.250  26.236  29.341  1.00  0.00    -0.203 F 
ATOM     82  C   UNL A   1      40.169  25.916  27.197  1.00  0.00     0.198 A 
ATOM     83  C   UNL A   1      41.501  27.643  26.198  1.00  0.00     0.198 A 
ATOM     84  F   UNL A   1      41.917  29.638  27.375  1.00  0.00    -0.203 F 
ATOM     85  F   UNL A   1      39.638  24.687  27.154  1.00  0.00    -0.200 F 
ATOM     86  C   UNL A   1      40.928  26.382  26.134  1.00  0.00     0.200 A 
ATOM     87  F   UNL A   1      42.225  28.102  25.167  1.00  0.00    -0.200 F 
ATOM     88  F   UNL A   1      41.116  25.611  25.054  1.00  0.00    -0.200 F 
ENDBRANCH  54  78
BRANCH  66  89
ATOM     89  C   UNL A   1      43.948  28.202  34.505  1.00  0.00     0.064 A 
ATOM     90  C   UNL A   1      43.722  26.995  35.183  1.00  0.00     0.173 A 
ATOM     91  C   UNL A   1      45.277  28.617  34.325  1.00  0.00     0.173 A 
ATOM     92  F   UNL A   1      42.469  26.562  35.393  1.00  0.00    -0.203 F 
ATOM     93  C   UNL A   1      44.785  26.246  35.682  1.00  0.00     0.198 A 
ATOM     94  C   UNL A   1      46.337  27.851  34.799  1.00  0.00     0.198 A 
ATOM     95  F   UNL A   1      45.546  29.760  33.676  1.00  0.00    -0.203 F 
ATOM     96  F   UNL A   1      44.544  25.121  36.369  1.00  0.00    -0.200 F 
ATOM     97  C   UNL A   1      46.090  26.671  35.484  1.00  0.00     0.200 A 
ATOM     98  F   UNL A   1      47.598  28.255  34.593  1.00  0.00    -0.200 F 
ATOM     99  F   UNL A   1      47.112  25.944  35.959  1.00  0.00    -0.200 F 
ENDBRANCH  66  89
ENDBRANCH  40  41
ENDBRANCH  32  35
ENDBRANCH  30  31
ENDBRANCH  29  30
ENDBRANCH  28  29
ENDBRANCH   1  28
TORSDOF 17
ENDMDL
MODEL 3
REMARK VINA RESULT:     -12.3      5.588     11.407
REMARK SMILES CCOc1ccc(Nc2nc(-c3cccs3)c(CC(=O)NCCCCNC(=O)c3ccc(-c4c5nc(c(-c6c(F)c(F)c(F)c(F)c6F)c6ccc([nH]6)c(-c6c(F)c(F)c(F)c(F)c6F)c6nc(c(-c7c(F)c(F)c(F)c(F)c7F)c7ccc4[nH]7)C=C6)C=C5)cc3)s2)cc1
REMARK SMILES IDX 22 1 21 2 19 3 20 4 18 6 17 7 9 8 10 9 92 10 11 11 8 12 7 14
REMARK SMILES IDX 4 15 5 16 94 17 6 18 93 19 3 20 2 21 1 22 12 23 13 24 16 25
REMARK SMILES IDX 14 26 15 27 23 28 24 29 25 30 26 31 27 32 28 34 29 35 30 36
REMARK SMILES IDX 91 37 31 38 90 39 32 40 33 41 34 42 84 43 35 44 89 45 83 46
REMARK SMILES IDX 85 47 36 48 88 49 82 50 81 51 37 53 69 54 49 55 68 56 50 57
REMARK SMILES IDX 53 58 67 59 86 60 51 61 52 62 66 64 87 65 54 66 38 67 39 68
REMARK SMILES IDX 47 69 40 70 41 71 45 72 48 73 42 74 43 75 46 76 44 77 70 78
REMARK SMILES IDX 71 79 79 80 72 81 73 82 77 83 80 84 74 85 75 86 78 87 76 88
REMARK SMILES IDX 55 89 56 90 64 91 57 92 58 93 62 94 65 95 59 96 60 97 63 98
REMARK SMILES IDX 61 99
REMARK H PARENT 21 5 8 13 26 33 85 52 53 63
REMARK Flexibility Score: inf
ROOT
ATOM      1  C   UNL A   1      37.416  22.104  25.502  1.00  0.00     0.116 C 
ENDROOT
BRANCH   1   2
ATOM      2  N   UNL A   1      36.343  22.202  26.472  1.00  0.00    -0.356 N 
ATOM      3  C   UNL A   1      35.139  22.838  26.366  1.00  0.00     0.225 C 
ATOM      4  O   UNL A   1      34.394  22.830  27.349  1.00  0.00    -0.275 OA
ATOM      5  H   UNL A   1      36.506  21.746  27.329  1.00  0.00     0.163 HD
BRANCH   3   6
ATOM      6  C   UNL A   1      34.702  23.468  25.051  1.00  0.00     0.149 C 
BRANCH   6   7
ATOM      7  C   UNL A   1      33.218  23.661  24.975  1.00  0.00     0.045 A 
ATOM      8  C   UNL A   1      30.980  24.639  24.884  1.00  0.00     0.188 A 
ATOM      9  N   UNL A   1      30.944  23.379  24.518  1.00  0.00    -0.219 NA
ATOM     10  S   UNL A   1      32.553  25.226  25.258  1.00  0.00    -0.101 S 
ATOM     11  C   UNL A   1      32.192  22.792  24.633  1.00  0.00     0.097 A 
BRANCH   8  12
ATOM     12  N   UNL A   1      29.922  25.474  24.983  1.00  0.00    -0.332 N 
ATOM     13  H   UNL A   1      29.221  25.236  25.632  1.00  0.00     0.169 HD
BRANCH  12  14
ATOM     14  C   UNL A   1      29.736  26.656  24.236  1.00  0.00     0.040 A 
ATOM     15  C   UNL A   1      29.283  28.890  22.592  1.00  0.00     0.119 A 
ATOM     16  C   UNL A   1      30.563  28.626  23.064  1.00  0.00     0.048 A 
ATOM     17  C   UNL A   1      28.221  28.068  22.955  1.00  0.00     0.048 A 
ATOM     18  C   UNL A   1      30.782  27.528  23.903  1.00  0.00     0.030 A 
ATOM     19  C   UNL A   1      28.445  26.970  23.790  1.00  0.00     0.030 A 
BRANCH  15  20
ATOM     20  O   UNL A   1      29.124  29.877  21.662  1.00  0.00    -0.494 OA
BRANCH  20  21
ATOM     21  C   UNL A   1      27.874  30.564  21.784  1.00  0.00     0.226 C 
ATOM     22  C   UNL A   1      27.912  31.561  22.930  1.00  0.00     0.049 C 
ENDBRANCH  20  21
ENDBRANCH  15  20
ENDBRANCH  12  14
ENDBRANCH   8  12
BRANCH  11  23
ATOM     23  C   UNL A   1      32.342  21.338  24.284  1.00  0.00     0.054 A 
ATOM     24  C   UNL A   1      32.119  20.856  23.010  1.00  0.00     0.022 A 
ATOM     25  S   UNL A   1      32.791  20.090  25.357  1.00  0.00    -0.142 S 
ATOM     26  C   UNL A   1      32.416  19.465  22.899  1.00  0.00     0.012 A 
ATOM     27  C   UNL A   1      32.766  18.917  24.113  1.00  0.00     0.065 A 
ENDBRANCH  11  23
ENDBRANCH   6   7
ENDBRANCH   3   6
ENDBRANCH   1   2
BRANCH   1  28
ATOM     28  C   UNL A   1      37.251  20.883  24.595  1.00  0.00     0.023 C 
BRANCH  28  29
ATOM     29  C   UNL A   1      38.141  19.696  24.969  1.00  0.00     0.023 C 
BRANCH  29  30
ATOM     30  C   UNL A   1      39.387  20.055  25.768  1.00  0.00     0.116 C 
BRANCH  30  31
ATOM     31  N   UNL A   1      40.357  18.974  25.838  1.00  0.00    -0.352 N 
ATOM     32  C   UNL A   1      41.705  19.047  26.087  1.00  0.00     0.251 C 
ATOM     33  H   UNL A   1      39.999  18.069  25.687  1.00  0.00     0.163 HD
ATOM     34  O   UNL A   1      42.410  18.047  26.001  1.00  0.00    -0.269 OA
BRANCH  32  35
ATOM     35  C   UNL A   1      42.313  20.352  26.419  1.00  0.00     0.039 A 
ATOM     36  C   UNL A   1      42.915  21.093  25.399  1.00  0.00     0.014 A 
ATOM     37  C   UNL A   1      42.262  20.858  27.720  1.00  0.00     0.014 A 
ATOM     38  C   UNL A   1      43.405  22.372  25.670  1.00  0.00     0.010 A 
ATOM     39  C   UNL A   1      42.684  22.159  27.973  1.00  0.00     0.010 A 
ATOM     40  C   UNL A   1      43.257  22.931  26.951  1.00  0.00    -0.014 A 
BRANCH  40  41
ATOM     41  C   UNL A   1      43.690  24.322  27.238  1.00  0.00     0.031 A 
ATOM     42  C   UNL A   1      42.693  25.339  27.717  1.00  0.00     0.074 A 
ATOM     43  C   UNL A   1      44.965  24.686  26.998  1.00  0.00     0.049 A 
ATOM     44  N   UNL A   1      42.859  26.617  27.946  1.00  0.00    -0.248 NA
ATOM     45  C   UNL A   1      41.319  24.862  27.946  1.00  0.00     0.031 C 
ATOM     46  C   UNL A   1      46.015  23.804  26.484  1.00  0.00     0.029 A 
ATOM     47  N   UNL A   1      45.593  25.898  27.143  1.00  0.00    -0.354 N 
ATOM     48  C   UNL A   1      41.613  27.098  28.325  1.00  0.00     0.074 A 
ATOM     49  C   UNL A   1      40.689  25.988  28.251  1.00  0.00     0.031 C 
ATOM     50  C   UNL A   1      47.158  24.499  26.371  1.00  0.00     0.029 A 
ATOM     51  C   UNL A   1      46.915  25.882  26.770  1.00  0.00     0.049 A 
ATOM     52  H   UNL A   1      45.139  26.703  27.481  1.00  0.00     0.167 HD
ATOM     53  C   UNL A   1      41.276  28.349  28.721  1.00  0.00     0.037 A 
ATOM     54  C   UNL A   1      47.825  26.874  26.743  1.00  0.00     0.037 A 
ATOM     55  C   UNL A   1      42.204  29.444  28.826  1.00  0.00     0.049 A 
ATOM     56  C   UNL A   1      47.423  28.253  27.194  1.00  0.00     0.074 A 
ATOM     57  C   UNL A   1      41.972  30.729  29.283  1.00  0.00     0.029 A 
ATOM     58  N   UNL A   1      43.542  29.381  28.468  1.00  0.00    -0.354 N 
ATOM     59  N   UNL A   1      46.259  28.677  27.623  1.00  0.00    -0.248 NA
ATOM     60  C   UNL A   1      48.464  29.291  27.164  1.00  0.00     0.031 C 
ATOM     61  C   UNL A   1      43.159  31.458  29.161  1.00  0.00     0.029 A 
ATOM     62  C   UNL A   1      44.143  30.613  28.675  1.00  0.00     0.049 A 
ATOM     63  H   UNL A   1      43.997  28.581  28.119  1.00  0.00     0.167 HD
ATOM     64  C   UNL A   1      46.435  30.017  27.943  1.00  0.00     0.074 A 
ATOM     65  C   UNL A   1      47.822  30.333  27.673  1.00  0.00     0.031 C 
ATOM     66  C   UNL A   1      45.528  30.906  28.416  1.00  0.00     0.037 A 
BRANCH  53  67
ATOM     67  C   UNL A   1      39.842  28.604  29.083  1.00  0.00     0.064 A 
ATOM     68  C   UNL A   1      39.364  28.396  30.385  1.00  0.00     0.173 A 
ATOM     69  C   UNL A   1      38.950  29.121  28.130  1.00  0.00     0.173 A 
ATOM     70  F   UNL A   1      40.174  27.893  31.328  1.00  0.00    -0.203 F 
ATOM     71  C   UNL A   1      38.041  28.677  30.716  1.00  0.00     0.198 A 
ATOM     72  C   UNL A   1      37.635  29.427  28.472  1.00  0.00     0.198 A 
ATOM     73  F   UNL A   1      39.357  29.343  26.871  1.00  0.00    -0.203 F 
ATOM     74  F   UNL A   1      37.597  28.433  31.957  1.00  0.00    -0.200 F 
ATOM     75  C   UNL A   1      37.181  29.200  29.762  1.00  0.00     0.200 A 
ATOM     76  F   UNL A   1      36.809  29.945  27.553  1.00  0.00    -0.200 F 
ATOM     77  F   UNL A   1      35.911  29.482  30.086  1.00  0.00    -0.200 F 
ENDBRANCH  53  67
BRANCH  54  78
ATOM     78  C   UNL A   1      49.215  26.603  26.287  1.00  0.00     0.064 A 
ATOM     79  C   UNL A   1      50.188  26.139  27.183  1.00  0.00     0.173 A 
ATOM     80  C   UNL A   1      49.604  26.825  24.958  1.00  0.00     0.173 A 
ATOM     81  F   UNL A   1      49.870  25.931  28.469  1.00  0.00    -0.203 F 
ATOM     82  C   UNL A   1      51.505  25.935  26.774  1.00  0.00     0.198 A 
ATOM     83  C   UNL A   1      50.913  26.592  24.544  1.00  0.00     0.198 A 
ATOM     84  F   UNL A   1      48.711  27.264  24.060  1.00  0.00    -0.203 F 
ATOM     85  F   UNL A   1      52.427  25.545  27.664  1.00  0.00    -0.200 F 
ATOM     86  C   UNL A   1      51.866  26.157  25.454  1.00  0.00     0.200 A 
ATOM     87  F   UNL A   1      51.255  26.795  23.264  1.00  0.00    -0.200 F 
ATOM     88  F   UNL A   1      53.132  25.963  25.061  1.00  0.00    -0.200 F 
ENDBRANCH  54  78
BRANCH  66  89
ATOM     89  C   UNL A   1      46.015  32.295  28.713  1.00  0.00     0.064 A 
ATOM     90  C   UNL A   1      46.553  32.634  29.962  1.00  0.00     0.173 A 
ATOM     91  C   UNL A   1      45.980  33.286  27.720  1.00  0.00     0.173 A 
ATOM     92  F   UNL A   1      46.595  31.726  30.950  1.00  0.00    -0.203 F 
ATOM     93  C   UNL A   1      47.016  33.923  30.215  1.00  0.00     0.198 A 
ATOM     94  C   UNL A   1      46.471  34.564  27.966  1.00  0.00     0.198 A 
ATOM     95  F   UNL A   1      45.482  33.009  26.505  1.00  0.00    -0.203 F 
ATOM     96  F   UNL A   1      47.482  34.240  31.430  1.00  0.00    -0.200 F 
ATOM     97  C   UNL A   1      46.982  34.884  29.215  1.00  0.00     0.200 A 
ATOM     98  F   UNL A   1      46.451  35.486  26.994  1.00  0.00    -0.200 F 
ATOM     99  F   UNL A   1      47.434  36.122  29.458  1.00  0.00    -0.200 F 
ENDBRANCH  66  89
ENDBRANCH  40  41
ENDBRANCH  32  35
ENDBRANCH  30  31
ENDBRANCH  29  30
ENDBRANCH  28  29
ENDBRANCH   1  28
TORSDOF 17
ENDMDL
