MODEL 1
REMARK VINA RESULT:     -13.8      0.000      0.000
REMARK SMILES Cc1ccc(-c2cc(C(=O)NCCCCNC(=O)c3ccc(-c4c5nc(c(-c6c(F)c(F)c(F)c(F)c6F)c6ccc([nH]6)c(-c6c(F)c(F)c(F)c(F)c6F)c6nc(c(-c7c(F)c(F)c(F)c(F)c7F)c7ccc4[nH]7)C=C6)C=C5)cc3)c3cc(C)ccc3n2)c(C)c1
REMARK SMILES IDX 14 1 13 2 12 3 11 4 9 5 10 6 8 8 6 9 7 10 89 11 88 12 82 13
REMARK SMILES IDX 87 14 83 15 86 16 84 17 85 18 5 19 1 20 2 21 3 22 92 23 4 24
REMARK SMILES IDX 90 25 91 26 15 27 16 28 17 29 18 31 19 32 20 33 81 34 21 35
REMARK SMILES IDX 80 36 22 37 23 38 24 39 74 40 25 41 79 42 73 43 75 44 26 45
REMARK SMILES IDX 78 46 72 47 71 48 27 50 59 51 39 52 58 53 40 54 43 55 57 56
REMARK SMILES IDX 76 57 41 58 42 59 56 61 77 62 44 63 28 64 29 65 37 66 30 67
REMARK SMILES IDX 31 68 35 69 38 70 32 71 33 72 36 73 34 74 60 75 61 76 69 77
REMARK SMILES IDX 62 78 63 79 67 80 70 81 64 82 65 83 68 84 66 85 45 86 46 87
REMARK SMILES IDX 54 88 47 89 48 90 52 91 55 92 49 93 50 94 53 95 51 96
REMARK H PARENT 11 7 16 30 75 49 43 60
REMARK Flexibility Score: inf
ROOT
ATOM      1  C   UNL A   1      31.602  29.089  25.118  1.00  0.00     0.023 C 
ENDROOT
BRANCH   1   2
ATOM      2  C   UNL A   1      31.780  29.040  23.603  1.00  0.00     0.023 C 
BRANCH   2   3
ATOM      3  C   UNL A   1      33.180  28.750  23.087  1.00  0.00     0.116 C 
BRANCH   3   4
ATOM      4  N   UNL A   1      33.304  27.858  21.948  1.00  0.00    -0.352 N 
ATOM      5  C   UNL A   1      33.231  26.475  21.891  1.00  0.00     0.252 C 
ATOM      6  O   UNL A   1      33.277  25.939  20.784  1.00  0.00    -0.269 OA
ATOM      7  H   UNL A   1      33.462  28.304  21.084  1.00  0.00     0.163 HD
BRANCH   5   8
ATOM      8  C   UNL A   1      33.209  25.606  23.109  1.00  0.00     0.051 A 
ATOM      9  C   UNL A   1      34.521  24.329  24.654  1.00  0.00     0.072 A 
ATOM     10  C   UNL A   1      34.431  25.013  23.452  1.00  0.00     0.043 A 
ATOM     11  N   UNL A   1      33.514  24.335  25.557  1.00  0.00    -0.248 NA
ATOM     12  C   UNL A   1      32.336  24.873  25.216  1.00  0.00     0.072 A 
ATOM     13  C   UNL A   1      32.087  25.403  23.941  1.00  0.00     0.013 A 
ATOM     14  C   UNL A   1      31.327  24.926  26.167  1.00  0.00     0.029 A 
ATOM     15  C   UNL A   1      30.754  25.718  23.600  1.00  0.00     0.014 A 
ATOM     16  C   UNL A   1      30.070  25.466  25.878  1.00  0.00     0.005 A 
ATOM     17  C   UNL A   1      29.765  25.846  24.576  1.00  0.00    -0.050 A 
ATOM     18  C   UNL A   1      28.475  26.539  24.250  1.00  0.00     0.044 C 
BRANCH   9  19
ATOM     19  C   UNL A   1      35.678  23.493  25.009  1.00  0.00     0.003 A 
ATOM     20  C   UNL A   1      39.095  21.064  26.126  1.00  0.00     0.044 C 
ATOM     21  C   UNL A   1      37.925  21.919  25.740  1.00  0.00    -0.051 A 
ATOM     22  C   UNL A   1      37.945  23.303  25.913  1.00  0.00     0.004 A 
ATOM     23  C   UNL A   1      36.783  21.322  25.197  1.00  0.00     0.007 A 
ATOM     24  C   UNL A   1      36.836  24.079  25.553  1.00  0.00     0.011 A 
ATOM     25  C   UNL A   1      35.666  22.090  24.820  1.00  0.00    -0.041 A 
ATOM     26  C   UNL A   1      34.479  21.350  24.255  1.00  0.00     0.045 C 
ENDBRANCH   9  19
ENDBRANCH   5   8
ENDBRANCH   3   4
ENDBRANCH   2   3
ENDBRANCH   1   2
BRANCH   1  27
ATOM     27  C   UNL A   1      32.737  29.685  25.946  1.00  0.00     0.116 C 
BRANCH  27  28
ATOM     28  N   UNL A   1      32.503  31.045  26.414  1.00  0.00    -0.352 N 
ATOM     29  C   UNL A   1      33.249  31.844  27.251  1.00  0.00     0.251 C 
ATOM     30  H   UNL A   1      31.677  31.459  26.077  1.00  0.00     0.163 HD
ATOM     31  O   UNL A   1      32.837  32.966  27.543  1.00  0.00    -0.269 OA
BRANCH  29  32
ATOM     32  C   UNL A   1      34.516  31.355  27.841  1.00  0.00     0.039 A 
ATOM     33  C   UNL A   1      35.562  32.263  28.038  1.00  0.00     0.014 A 
ATOM     34  C   UNL A   1      34.685  30.020  28.207  1.00  0.00     0.014 A 
ATOM     35  C   UNL A   1      36.737  31.848  28.673  1.00  0.00     0.010 A 
ATOM     36  C   UNL A   1      35.807  29.635  28.937  1.00  0.00     0.010 A 
ATOM     37  C   UNL A   1      36.854  30.539  29.166  1.00  0.00    -0.014 A 
BRANCH  37  38
ATOM     38  C   UNL A   1      38.077  30.091  29.887  1.00  0.00     0.031 A 
ATOM     39  C   UNL A   1      38.340  30.557  31.295  1.00  0.00     0.074 A 
ATOM     40  C   UNL A   1      38.974  29.298  29.266  1.00  0.00     0.049 A 
ATOM     41  N   UNL A   1      39.347  30.283  32.087  1.00  0.00    -0.248 NA
ATOM     42  C   UNL A   1      37.356  31.481  31.880  1.00  0.00     0.031 C 
ATOM     43  C   UNL A   1      38.869  28.821  27.887  1.00  0.00     0.029 A 
ATOM     44  N   UNL A   1      40.147  28.748  29.720  1.00  0.00    -0.354 N 
ATOM     45  C   UNL A   1      39.119  31.006  33.252  1.00  0.00     0.074 A 
ATOM     46  C   UNL A   1      37.926  31.794  33.032  1.00  0.00     0.031 C 
ATOM     47  C   UNL A   1      39.908  28.011  27.623  1.00  0.00     0.029 A 
ATOM     48  C   UNL A   1      40.768  27.937  28.800  1.00  0.00     0.049 A 
ATOM     49  H   UNL A   1      40.510  28.919  30.619  1.00  0.00     0.167 HD
ATOM     50  C   UNL A   1      39.812  30.986  34.416  1.00  0.00     0.037 A 
ATOM     51  C   UNL A   1      41.895  27.207  28.903  1.00  0.00     0.037 A 
ATOM     52  C   UNL A   1      40.991  30.192  34.640  1.00  0.00     0.049 A 
ATOM     53  C   UNL A   1      42.657  27.211  30.201  1.00  0.00     0.074 A 
ATOM     54  C   UNL A   1      41.750  30.074  35.790  1.00  0.00     0.029 A 
ATOM     55  N   UNL A   1      41.583  29.377  33.685  1.00  0.00    -0.354 N 
ATOM     56  N   UNL A   1      42.392  27.841  31.320  1.00  0.00    -0.248 NA
ATOM     57  C   UNL A   1      43.871  26.385  30.253  1.00  0.00     0.031 C 
ATOM     58  C   UNL A   1      42.828  29.224  35.518  1.00  0.00     0.029 A 
ATOM     59  C   UNL A   1      42.706  28.763  34.217  1.00  0.00     0.049 A 
ATOM     60  H   UNL A   1      41.254  29.253  32.767  1.00  0.00     0.167 HD
ATOM     61  C   UNL A   1      43.375  27.453  32.219  1.00  0.00     0.074 A 
ATOM     62  C   UNL A   1      44.239  26.526  31.518  1.00  0.00     0.031 C 
ATOM     63  C   UNL A   1      43.546  27.828  33.512  1.00  0.00     0.037 A 
BRANCH  50  64
ATOM     64  C   UNL A   1      39.298  31.853  35.533  1.00  0.00     0.064 A 
ATOM     65  C   UNL A   1      39.707  33.190  35.674  1.00  0.00     0.173 A 
ATOM     66  C   UNL A   1      38.393  31.346  36.476  1.00  0.00     0.173 A 
ATOM     67  F   UNL A   1      40.581  33.724  34.806  1.00  0.00    -0.203 F 
ATOM     68  C   UNL A   1      39.270  33.967  36.743  1.00  0.00     0.198 A 
ATOM     69  C   UNL A   1      37.928  32.139  37.524  1.00  0.00     0.198 A 
ATOM     70  F   UNL A   1      37.961  30.078  36.388  1.00  0.00    -0.203 F 
ATOM     71  F   UNL A   1      39.735  35.214  36.897  1.00  0.00    -0.200 F 
ATOM     72  C   UNL A   1      38.377  33.443  37.665  1.00  0.00     0.200 A 
ATOM     73  F   UNL A   1      37.052  31.635  38.405  1.00  0.00    -0.200 F 
ATOM     74  F   UNL A   1      37.959  34.190  38.694  1.00  0.00    -0.200 F 
ENDBRANCH  50  64
BRANCH  51  75
ATOM     75  C   UNL A   1      42.337  26.354  27.766  1.00  0.00     0.064 A 
ATOM     76  C   UNL A   1      41.754  25.097  27.547  1.00  0.00     0.173 A 
ATOM     77  C   UNL A   1      43.349  26.764  26.888  1.00  0.00     0.173 A 
ATOM     78  F   UNL A   1      40.796  24.651  28.374  1.00  0.00    -0.203 F 
ATOM     79  C   UNL A   1      42.183  24.273  26.509  1.00  0.00     0.198 A 
ATOM     80  C   UNL A   1      43.756  25.952  25.831  1.00  0.00     0.198 A 
ATOM     81  F   UNL A   1      43.935  27.958  27.049  1.00  0.00    -0.203 F 
ATOM     82  F   UNL A   1      41.642  23.057  26.355  1.00  0.00    -0.200 F 
ATOM     83  C   UNL A   1      43.180  24.704  25.648  1.00  0.00     0.200 A 
ATOM     84  F   UNL A   1      44.711  26.377  24.992  1.00  0.00    -0.200 F 
ATOM     85  F   UNL A   1      43.592  23.913  24.647  1.00  0.00    -0.200 F 
ENDBRANCH  51  75
BRANCH  63  86
ATOM     86  C   UNL A   1      44.670  27.182  34.272  1.00  0.00     0.064 A 
ATOM     87  C   UNL A   1      45.950  27.754  34.339  1.00  0.00     0.173 A 
ATOM     88  C   UNL A   1      44.455  25.976  34.958  1.00  0.00     0.173 A 
ATOM     89  F   UNL A   1      46.212  28.899  33.692  1.00  0.00    -0.203 F 
ATOM     90  C   UNL A   1      46.981  27.121  35.028  1.00  0.00     0.198 A 
ATOM     91  C   UNL A   1      45.480  25.366  35.677  1.00  0.00     0.198 A 
ATOM     92  F   UNL A   1      43.248  25.391  34.936  1.00  0.00    -0.203 F 
ATOM     93  F   UNL A   1      48.212  27.652  35.023  1.00  0.00    -0.200 F 
ATOM     94  C   UNL A   1      46.745  25.932  35.701  1.00  0.00     0.200 A 
ATOM     95  F   UNL A   1      45.243  24.225  36.339  1.00  0.00    -0.200 F 
ATOM     96  F   UNL A   1      47.739  25.325  36.364  1.00  0.00    -0.200 F 
ENDBRANCH  63  86
ENDBRANCH  37  38
ENDBRANCH  29  32
ENDBRANCH  27  28
ENDBRANCH   1  27
TORSDOF 12
ENDMDL
MODEL 2
REMARK VINA RESULT:     -13.7      2.078      3.159
REMARK SMILES Cc1ccc(-c2cc(C(=O)NCCCCNC(=O)c3ccc(-c4c5nc(c(-c6c(F)c(F)c(F)c(F)c6F)c6ccc([nH]6)c(-c6c(F)c(F)c(F)c(F)c6F)c6nc(c(-c7c(F)c(F)c(F)c(F)c7F)c7ccc4[nH]7)C=C6)C=C5)cc3)c3cc(C)ccc3n2)c(C)c1
REMARK SMILES IDX 14 1 13 2 12 3 11 4 9 5 10 6 8 8 6 9 7 10 89 11 88 12 82 13
REMARK SMILES IDX 87 14 83 15 86 16 84 17 85 18 5 19 1 20 2 21 3 22 92 23 4 24
REMARK SMILES IDX 90 25 91 26 15 27 16 28 17 29 18 31 19 32 20 33 81 34 21 35
REMARK SMILES IDX 80 36 22 37 23 38 24 39 74 40 25 41 79 42 73 43 75 44 26 45
REMARK SMILES IDX 78 46 72 47 71 48 27 50 59 51 39 52 58 53 40 54 43 55 57 56
REMARK SMILES IDX 76 57 41 58 42 59 56 61 77 62 44 63 28 64 29 65 37 66 30 67
REMARK SMILES IDX 31 68 35 69 38 70 32 71 33 72 36 73 34 74 60 75 61 76 69 77
REMARK SMILES IDX 62 78 63 79 67 80 70 81 64 82 65 83 68 84 66 85 45 86 46 87
REMARK SMILES IDX 54 88 47 89 48 90 52 91 55 92 49 93 50 94 53 95 51 96
REMARK H PARENT 11 7 16 30 75 49 43 60
REMARK Flexibility Score: inf
ROOT
ATOM      1  C   UNL A   1      31.328  31.928  26.846  1.00  0.00     0.023 C 
ENDROOT
BRANCH   1   2
ATOM      2  C   UNL A   1      31.360  30.864  25.753  1.00  0.00     0.023 C 
BRANCH   2   3
ATOM      3  C   UNL A   1      32.459  29.818  25.846  1.00  0.00     0.116 C 
BRANCH   3   4
ATOM      4  N   UNL A   1      33.307  29.629  24.683  1.00  0.00    -0.352 N 
ATOM      5  C   UNL A   1      33.116  28.833  23.565  1.00  0.00     0.252 C 
ATOM      6  O   UNL A   1      33.941  28.906  22.655  1.00  0.00    -0.269 OA
ATOM      7  H   UNL A   1      34.144  30.147  24.689  1.00  0.00     0.163 HD
BRANCH   5   8
ATOM      8  C   UNL A   1      32.022  27.815  23.462  1.00  0.00     0.051 A 
ATOM      9  C   UNL A   1      31.392  25.539  23.857  1.00  0.00     0.072 A 
ATOM     10  C   UNL A   1      32.386  26.500  23.776  1.00  0.00     0.043 A 
ATOM     11  N   UNL A   1      30.079  25.859  23.779  1.00  0.00    -0.248 NA
ATOM     12  C   UNL A   1      29.733  27.109  23.448  1.00  0.00     0.072 A 
ATOM     13  C   UNL A   1      30.678  28.100  23.140  1.00  0.00     0.013 A 
ATOM     14  C   UNL A   1      28.387  27.445  23.425  1.00  0.00     0.029 A 
ATOM     15  C   UNL A   1      30.216  29.305  22.567  1.00  0.00     0.014 A 
ATOM     16  C   UNL A   1      27.952  28.727  23.080  1.00  0.00     0.005 A 
ATOM     17  C   UNL A   1      28.869  29.666  22.621  1.00  0.00    -0.050 A 
ATOM     18  C   UNL A   1      28.462  31.086  22.356  1.00  0.00     0.044 C 
BRANCH   9  19
ATOM     19  C   UNL A   1      31.681  24.100  23.964  1.00  0.00     0.003 A 
ATOM     20  C   UNL A   1      32.603  19.870  24.248  1.00  0.00     0.044 C 
ATOM     21  C   UNL A   1      32.284  21.331  24.132  1.00  0.00    -0.051 A 
ATOM     22  C   UNL A   1      32.485  22.029  22.939  1.00  0.00     0.004 A 
ATOM     23  C   UNL A   1      31.777  22.018  25.239  1.00  0.00     0.007 A 
ATOM     24  C   UNL A   1      32.189  23.394  22.858  1.00  0.00     0.011 A 
ATOM     25  C   UNL A   1      31.463  23.388  25.169  1.00  0.00    -0.041 A 
ATOM     26  C   UNL A   1      30.933  24.039  26.422  1.00  0.00     0.045 C 
ENDBRANCH   9  19
ENDBRANCH   5   8
ENDBRANCH   3   4
ENDBRANCH   2   3
ENDBRANCH   1   2
BRANCH   1  27
ATOM     27  C   UNL A   1      32.571  32.794  27.029  1.00  0.00     0.116 C 
BRANCH  27  28
ATOM     28  N   UNL A   1      32.319  34.114  27.592  1.00  0.00    -0.352 N 
ATOM     29  C   UNL A   1      32.993  34.815  28.567  1.00  0.00     0.251 C 
ATOM     30  H   UNL A   1      31.540  34.581  27.212  1.00  0.00     0.163 HD
ATOM     31  O   UNL A   1      32.577  35.919  28.916  1.00  0.00    -0.269 OA
BRANCH  29  32
ATOM     32  C   UNL A   1      34.183  34.239  29.233  1.00  0.00     0.039 A 
ATOM     33  C   UNL A   1      33.996  33.307  30.259  1.00  0.00     0.014 A 
ATOM     34  C   UNL A   1      35.477  34.600  28.859  1.00  0.00     0.014 A 
ATOM     35  C   UNL A   1      35.102  32.682  30.846  1.00  0.00     0.010 A 
ATOM     36  C   UNL A   1      36.570  33.899  29.363  1.00  0.00     0.010 A 
ATOM     37  C   UNL A   1      36.398  32.942  30.374  1.00  0.00    -0.014 A 
BRANCH  37  38
ATOM     38  C   UNL A   1      37.583  32.253  30.952  1.00  0.00     0.031 A 
ATOM     39  C   UNL A   1      38.062  32.603  32.337  1.00  0.00     0.074 A 
ATOM     40  C   UNL A   1      38.256  31.339  30.223  1.00  0.00     0.049 A 
ATOM     41  N   UNL A   1      39.075  32.120  33.013  1.00  0.00    -0.248 NA
ATOM     42  C   UNL A   1      37.325  33.661  33.043  1.00  0.00     0.031 C 
ATOM     43  C   UNL A   1      37.933  30.948  28.851  1.00  0.00     0.029 A 
ATOM     44  N   UNL A   1      39.348  30.570  30.539  1.00  0.00    -0.354 N 
ATOM     45  C   UNL A   1      39.097  32.820  34.213  1.00  0.00     0.074 A 
ATOM     46  C   UNL A   1      38.052  33.818  34.137  1.00  0.00     0.031 C 
ATOM     47  C   UNL A   1      38.776  29.978  28.460  1.00  0.00     0.029 A 
ATOM     48  C   UNL A   1      39.718  29.701  29.540  1.00  0.00     0.049 A 
ATOM     49  H   UNL A   1      39.822  30.634  31.399  1.00  0.00     0.167 HD
ATOM     50  C   UNL A   1      39.885  32.627  35.298  1.00  0.00     0.037 A 
ATOM     51  C   UNL A   1      40.698  28.777  29.508  1.00  0.00     0.037 A 
ATOM     52  C   UNL A   1      40.915  31.626  35.379  1.00  0.00     0.049 A 
ATOM     53  C   UNL A   1      41.570  28.589  30.719  1.00  0.00     0.074 A 
ATOM     54  C   UNL A   1      41.748  31.325  36.442  1.00  0.00     0.029 A 
ATOM     55  N   UNL A   1      41.253  30.760  34.349  1.00  0.00    -0.354 N 
ATOM     56  N   UNL A   1      41.534  29.208  31.875  1.00  0.00    -0.248 NA
ATOM     57  C   UNL A   1      42.613  27.558  30.625  1.00  0.00     0.031 C 
ATOM     58  C   UNL A   1      42.622  30.308  36.039  1.00  0.00     0.029 A 
ATOM     59  C   UNL A   1      42.292  29.933  34.746  1.00  0.00     0.049 A 
ATOM     60  H   UNL A   1      40.819  30.737  33.466  1.00  0.00     0.167 HD
ATOM     61  C   UNL A   1      42.514  28.612  32.658  1.00  0.00     0.074 A 
ATOM     62  C   UNL A   1      43.121  27.576  31.849  1.00  0.00     0.031 C 
ATOM     63  C   UNL A   1      42.875  28.894  33.935  1.00  0.00     0.037 A 
BRANCH  50  64
ATOM     64  C   UNL A   1      39.649  33.523  36.484  1.00  0.00     0.064 A 
ATOM     65  C   UNL A   1      38.795  33.145  37.534  1.00  0.00     0.173 A 
ATOM     66  C   UNL A   1      40.277  34.774  36.573  1.00  0.00     0.173 A 
ATOM     67  F   UNL A   1      38.159  31.964  37.494  1.00  0.00    -0.203 F 
ATOM     68  C   UNL A   1      38.540  34.005  38.598  1.00  0.00     0.198 A 
ATOM     69  C   UNL A   1      40.048  35.616  37.660  1.00  0.00     0.198 A 
ATOM     70  F   UNL A   1      41.109  35.186  35.604  1.00  0.00    -0.203 F 
ATOM     71  F   UNL A   1      37.661  33.652  39.547  1.00  0.00    -0.200 F 
ATOM     72  C   UNL A   1      39.170  35.238  38.663  1.00  0.00     0.200 A 
ATOM     73  F   UNL A   1      40.671  36.802  37.729  1.00  0.00    -0.200 F 
ATOM     74  F   UNL A   1      38.922  36.066  39.686  1.00  0.00    -0.200 F 
ENDBRANCH  50  64
BRANCH  51  75
ATOM     75  C   UNL A   1      40.864  27.909  28.311  1.00  0.00     0.064 A 
ATOM     76  C   UNL A   1      40.253  26.648  28.252  1.00  0.00     0.173 A 
ATOM     77  C   UNL A   1      41.639  28.308  27.213  1.00  0.00     0.173 A 
ATOM     78  F   UNL A   1      39.518  26.212  29.287  1.00  0.00    -0.203 F 
ATOM     79  C   UNL A   1      40.430  25.810  27.153  1.00  0.00     0.198 A 
ATOM     80  C   UNL A   1      41.790  27.482  26.101  1.00  0.00     0.198 A 
ATOM     81  F   UNL A   1      42.240  29.506  27.215  1.00  0.00    -0.203 F 
ATOM     82  F   UNL A   1      39.874  24.591  27.147  1.00  0.00    -0.200 F 
ATOM     83  C   UNL A   1      41.194  26.230  26.076  1.00  0.00     0.200 A 
ATOM     84  F   UNL A   1      42.519  27.896  25.055  1.00  0.00    -0.200 F 
ATOM     85  F   UNL A   1      41.362  25.426  25.017  1.00  0.00    -0.200 F 
ENDBRANCH  51  75
BRANCH  63  86
ATOM     86  C   UNL A   1      43.931  28.026  34.559  1.00  0.00     0.064 A 
ATOM     87  C   UNL A   1      45.289  28.377  34.543  1.00  0.00     0.173 A 
ATOM     88  C   UNL A   1      43.571  26.828  35.196  1.00  0.00     0.173 A 
ATOM     89  F   UNL A   1      45.688  29.504  33.936  1.00  0.00    -0.203 F 
ATOM     90  C   UNL A   1      46.251  27.541  35.105  1.00  0.00     0.198 A 
ATOM     91  C   UNL A   1      44.532  26.013  35.789  1.00  0.00     0.198 A 
ATOM     92  F   UNL A   1      42.286  26.449  35.250  1.00  0.00    -0.203 F 
ATOM     93  F   UNL A   1      47.549  27.864  35.019  1.00  0.00    -0.200 F 
ATOM     94  C   UNL A   1      45.872  26.364  35.732  1.00  0.00     0.200 A 
ATOM     95  F   UNL A   1      44.161  24.884  36.409  1.00  0.00    -0.200 F 
ATOM     96  F   UNL A   1      46.800  25.561  36.273  1.00  0.00    -0.200 F 
ENDBRANCH  63  86
ENDBRANCH  37  38
ENDBRANCH  29  32
ENDBRANCH  27  28
ENDBRANCH   1  27
TORSDOF 12
ENDMDL
MODEL 3
REMARK VINA RESULT:     -13.7      2.063      3.340
REMARK SMILES Cc1ccc(-c2cc(C(=O)NCCCCNC(=O)c3ccc(-c4c5nc(c(-c6c(F)c(F)c(F)c(F)c6F)c6ccc([nH]6)c(-c6c(F)c(F)c(F)c(F)c6F)c6nc(c(-c7c(F)c(F)c(F)c(F)c7F)c7ccc4[nH]7)C=C6)C=C5)cc3)c3cc(C)ccc3n2)c(C)c1
REMARK SMILES IDX 14 1 13 2 12 3 11 4 9 5 10 6 8 8 6 9 7 10 89 11 88 12 82 13
REMARK SMILES IDX 87 14 83 15 86 16 84 17 85 18 5 19 1 20 2 21 3 22 92 23 4 24
REMARK SMILES IDX 90 25 91 26 15 27 16 28 17 29 18 31 19 32 20 33 81 34 21 35
REMARK SMILES IDX 80 36 22 37 23 38 24 39 74 40 25 41 79 42 73 43 75 44 26 45
REMARK SMILES IDX 78 46 72 47 71 48 27 50 59 51 39 52 58 53 40 54 43 55 57 56
REMARK SMILES IDX 76 57 41 58 42 59 56 61 77 62 44 63 28 64 29 65 37 66 30 67
REMARK SMILES IDX 31 68 35 69 38 70 32 71 33 72 36 73 34 74 60 75 61 76 69 77
REMARK SMILES IDX 62 78 63 79 67 80 70 81 64 82 65 83 68 84 66 85 45 86 46 87
REMARK SMILES IDX 54 88 47 89 48 90 52 91 55 92 49 93 50 94 53 95 51 96
REMARK H PARENT 11 7 16 30 75 49 43 60
REMARK Flexibility Score: inf
ROOT
ATOM      1  C   UNL A   1      31.322  31.934  26.854  1.00  0.00     0.023 C 
ENDROOT
BRANCH   1   2
ATOM      2  C   UNL A   1      31.360  30.861  25.770  1.00  0.00     0.023 C 
BRANCH   2   3
ATOM      3  C   UNL A   1      32.504  29.863  25.834  1.00  0.00     0.116 C 
BRANCH   3   4
ATOM      4  N   UNL A   1      33.300  29.675  24.634  1.00  0.00    -0.352 N 
ATOM      5  C   UNL A   1      33.060  28.879  23.526  1.00  0.00     0.252 C 
ATOM      6  O   UNL A   1      33.843  28.953  22.579  1.00  0.00    -0.269 OA
ATOM      7  H   UNL A   1      34.136  30.194  24.603  1.00  0.00     0.163 HD
BRANCH   5   8
ATOM      8  C   UNL A   1      31.964  27.860  23.471  1.00  0.00     0.051 A 
ATOM      9  C   UNL A   1      31.337  25.598  23.945  1.00  0.00     0.072 A 
ATOM     10  C   UNL A   1      32.332  26.555  23.819  1.00  0.00     0.043 A 
ATOM     11  N   UNL A   1      30.024  25.917  23.878  1.00  0.00    -0.248 NA
ATOM     12  C   UNL A   1      29.674  27.157  23.514  1.00  0.00     0.072 A 
ATOM     13  C   UNL A   1      30.615  28.137  23.161  1.00  0.00     0.013 A 
ATOM     14  C   UNL A   1      28.328  27.494  23.502  1.00  0.00     0.029 A 
ATOM     15  C   UNL A   1      30.146  29.324  22.559  1.00  0.00     0.014 A 
ATOM     16  C   UNL A   1      27.889  28.766  23.125  1.00  0.00     0.005 A 
ATOM     17  C   UNL A   1      28.799  29.689  22.624  1.00  0.00    -0.050 A 
ATOM     18  C   UNL A   1      28.390  31.101  22.321  1.00  0.00     0.044 C 
BRANCH   9  19
ATOM     19  C   UNL A   1      31.627  24.163  24.092  1.00  0.00     0.003 A 
ATOM     20  C   UNL A   1      32.542  19.939  24.477  1.00  0.00     0.044 C 
ATOM     21  C   UNL A   1      32.222  21.397  24.326  1.00  0.00    -0.051 A 
ATOM     22  C   UNL A   1      32.171  22.006  23.072  1.00  0.00     0.004 A 
ATOM     23  C   UNL A   1      31.970  22.170  25.463  1.00  0.00     0.007 A 
ATOM     24  C   UNL A   1      31.880  23.370  22.957  1.00  0.00     0.011 A 
ATOM     25  C   UNL A   1      31.663  23.540  25.363  1.00  0.00    -0.041 A 
ATOM     26  C   UNL A   1      31.419  24.288  26.650  1.00  0.00     0.045 C 
ENDBRANCH   9  19
ENDBRANCH   5   8
ENDBRANCH   3   4
ENDBRANCH   2   3
ENDBRANCH   1   2
BRANCH   1  27
ATOM     27  C   UNL A   1      32.590  32.749  27.091  1.00  0.00     0.116 C 
BRANCH  27  28
ATOM     28  N   UNL A   1      32.367  34.085  27.627  1.00  0.00    -0.352 N 
ATOM     29  C   UNL A   1      33.056  34.790  28.589  1.00  0.00     0.251 C 
ATOM     30  H   UNL A   1      31.599  34.561  27.239  1.00  0.00     0.163 HD
ATOM     31  O   UNL A   1      32.665  35.909  28.916  1.00  0.00    -0.269 OA
BRANCH  29  32
ATOM     32  C   UNL A   1      34.234  34.201  29.266  1.00  0.00     0.039 A 
ATOM     33  C   UNL A   1      34.027  33.255  30.276  1.00  0.00     0.014 A 
ATOM     34  C   UNL A   1      35.535  34.563  28.918  1.00  0.00     0.014 A 
ATOM     35  C   UNL A   1      35.121  32.619  30.872  1.00  0.00     0.010 A 
ATOM     36  C   UNL A   1      36.617  33.852  29.431  1.00  0.00     0.010 A 
ATOM     37  C   UNL A   1      36.426  32.882  30.425  1.00  0.00    -0.014 A 
BRANCH  37  38
ATOM     38  C   UNL A   1      37.599  32.181  31.013  1.00  0.00     0.031 A 
ATOM     39  C   UNL A   1      38.068  32.523  32.403  1.00  0.00     0.074 A 
ATOM     40  C   UNL A   1      38.272  31.263  30.288  1.00  0.00     0.049 A 
ATOM     41  N   UNL A   1      39.070  32.029  33.088  1.00  0.00    -0.248 NA
ATOM     42  C   UNL A   1      37.333  33.586  33.105  1.00  0.00     0.031 C 
ATOM     43  C   UNL A   1      37.959  30.879  28.911  1.00  0.00     0.029 A 
ATOM     44  N   UNL A   1      39.354  30.484  30.612  1.00  0.00    -0.354 N 
ATOM     45  C   UNL A   1      39.086  32.727  34.290  1.00  0.00     0.074 A 
ATOM     46  C   UNL A   1      38.051  33.733  34.207  1.00  0.00     0.031 C 
ATOM     47  C   UNL A   1      38.797  29.902  28.526  1.00  0.00     0.029 A 
ATOM     48  C   UNL A   1      39.727  29.615  29.615  1.00  0.00     0.049 A 
ATOM     49  H   UNL A   1      39.820  30.541  31.477  1.00  0.00     0.167 HD
ATOM     50  C   UNL A   1      39.861  32.524  35.383  1.00  0.00     0.037 A 
ATOM     51  C   UNL A   1      40.698  28.683  29.589  1.00  0.00     0.037 A 
ATOM     52  C   UNL A   1      40.882  31.514  35.471  1.00  0.00     0.049 A 
ATOM     53  C   UNL A   1      41.557  28.484  30.809  1.00  0.00     0.074 A 
ATOM     54  C   UNL A   1      41.703  31.202  36.541  1.00  0.00     0.029 A 
ATOM     55  N   UNL A   1      41.223  30.648  34.441  1.00  0.00    -0.354 N 
ATOM     56  N   UNL A   1      41.516  29.100  31.966  1.00  0.00    -0.248 NA
ATOM     57  C   UNL A   1      42.593  27.444  30.722  1.00  0.00     0.031 C 
ATOM     58  C   UNL A   1      42.571  30.180  36.143  1.00  0.00     0.029 A 
ATOM     59  C   UNL A   1      42.251  29.811  34.846  1.00  0.00     0.049 A 
ATOM     60  H   UNL A   1      40.798  30.631  33.554  1.00  0.00     0.167 HD
ATOM     61  C   UNL A   1      42.482  28.493  32.757  1.00  0.00     0.074 A 
ATOM     62  C   UNL A   1      43.089  27.455  31.951  1.00  0.00     0.031 C 
ATOM     63  C   UNL A   1      42.833  28.769  34.038  1.00  0.00     0.037 A 
BRANCH  50  64
ATOM     64  C   UNL A   1      39.622  33.419  36.568  1.00  0.00     0.064 A 
ATOM     65  C   UNL A   1      40.270  34.658  36.697  1.00  0.00     0.173 A 
ATOM     66  C   UNL A   1      38.739  33.035  37.589  1.00  0.00     0.173 A 
ATOM     67  F   UNL A   1      41.133  35.069  35.756  1.00  0.00    -0.203 F 
ATOM     68  C   UNL A   1      40.084  35.453  37.825  1.00  0.00     0.198 A 
ATOM     69  C   UNL A   1      38.527  33.852  38.698  1.00  0.00     0.198 A 
ATOM     70  F   UNL A   1      38.086  31.865  37.516  1.00  0.00    -0.203 F 
ATOM     71  F   UNL A   1      40.774  36.594  37.959  1.00  0.00    -0.200 F 
ATOM     72  C   UNL A   1      39.209  35.051  38.822  1.00  0.00     0.200 A 
ATOM     73  F   UNL A   1      37.669  33.469  39.655  1.00  0.00    -0.200 F 
ATOM     74  F   UNL A   1      39.034  35.816  39.908  1.00  0.00    -0.200 F 
ENDBRANCH  50  64
BRANCH  51  75
ATOM     75  C   UNL A   1      40.869  27.816  28.392  1.00  0.00     0.064 A 
ATOM     76  C   UNL A   1      41.683  28.224  27.324  1.00  0.00     0.173 A 
ATOM     77  C   UNL A   1      40.221  26.578  28.280  1.00  0.00     0.173 A 
ATOM     78  F   UNL A   1      42.307  29.411  27.375  1.00  0.00    -0.203 F 
ATOM     79  C   UNL A   1      41.823  27.440  26.182  1.00  0.00     0.198 A 
ATOM     80  C   UNL A   1      40.387  25.780  27.150  1.00  0.00     0.198 A 
ATOM     81  F   UNL A   1      39.437  26.138  29.274  1.00  0.00    -0.203 F 
ATOM     82  F   UNL A   1      42.567  27.878  25.158  1.00  0.00    -0.200 F 
ATOM     83  C   UNL A   1      41.179  26.215  26.098  1.00  0.00     0.200 A 
ATOM     84  F   UNL A   1      39.774  24.590  27.077  1.00  0.00    -0.200 F 
ATOM     85  F   UNL A   1      41.316  25.458  25.000  1.00  0.00    -0.200 F 
ENDBRANCH  51  75
BRANCH  63  86
ATOM     86  C   UNL A   1      43.876  27.890  34.670  1.00  0.00     0.064 A 
ATOM     87  C   UNL A   1      43.549  26.678  35.296  1.00  0.00     0.173 A 
ATOM     88  C   UNL A   1      45.229  28.264  34.632  1.00  0.00     0.173 A 
ATOM     89  F   UNL A   1      42.271  26.280  35.371  1.00  0.00    -0.203 F 
ATOM     90  C   UNL A   1      44.532  25.895  35.897  1.00  0.00     0.198 A 
ATOM     91  C   UNL A   1      46.213  27.461  35.202  1.00  0.00     0.198 A 
ATOM     92  F   UNL A   1      45.598  29.408  34.037  1.00  0.00    -0.203 F 
ATOM     93  F   UNL A   1      44.189  24.775  36.547  1.00  0.00    -0.200 F 
ATOM     94  C   UNL A   1      45.862  26.284  35.845  1.00  0.00     0.200 A 
ATOM     95  F   UNL A   1      47.498  27.831  35.135  1.00  0.00    -0.200 F 
ATOM     96  F   UNL A   1      46.807  25.529  36.424  1.00  0.00    -0.200 F 
ENDBRANCH  63  86
ENDBRANCH  37  38
ENDBRANCH  29  32
ENDBRANCH  27  28
ENDBRANCH   1  27
TORSDOF 12
ENDMDL
