MODEL 1
REMARK VINA RESULT:     -13.1      0.000      0.000
REMARK SMILES C[C@H]1[C@H](C(=O)NCCCCNC(=O)c2ccc(-c3c4nc(c(-c5c(F)c(F)c(F)c(F)c5F)c5ccc([nH]5)c(-c5c(F)c(F)c(F)c(F)c5F)c5nc(c(-c6c(F)c(F)c(F)c(F)c6F)c6ccc3[nH]6)C=C5)C=C4)cc2)CCN1c1ccc(C(N)=O)c(Cl)c1
REMARK SMILES IDX 8 1 7 2 6 3 4 4 5 5 3 7 1 8 2 9 79 10 77 11 78 12 80 13
REMARK SMILES IDX 81 14 89 15 82 16 87 17 83 18 88 19 84 20 85 21 86 22 9 25
REMARK SMILES IDX 10 26 11 27 12 28 13 30 14 31 15 32 76 33 16 34 75 35 17 36
REMARK SMILES IDX 18 37 19 38 69 39 20 40 74 41 68 42 70 43 21 44 73 45 67 46
REMARK SMILES IDX 66 47 22 49 54 50 34 51 53 52 35 53 38 54 52 55 71 56 36 57
REMARK SMILES IDX 37 58 51 60 72 61 39 62 23 63 24 64 32 65 25 66 26 67 30 68
REMARK SMILES IDX 33 69 27 70 28 71 31 72 29 73 55 74 56 75 64 76 57 77 58 78
REMARK SMILES IDX 62 79 65 80 59 81 60 82 63 83 61 84 40 85 41 86 49 87 42 88
REMARK SMILES IDX 43 89 47 90 50 91 44 92 45 93 48 94 46 95
REMARK H PARENT 6 6 85 23 85 24 11 29 70 48 38 59
REMARK Flexibility Score: inf
ROOT
ATOM      1  C   UNL A   1      31.881  30.299  26.615  1.00  0.00     0.023 C 
ENDROOT
BRANCH   1   2
ATOM      2  C   UNL A   1      32.142  29.757  25.211  1.00  0.00     0.116 C 
BRANCH   2   3
ATOM      3  N   UNL A   1      31.125  28.803  24.805  1.00  0.00    -0.356 N 
ATOM      4  C   UNL A   1      31.238  27.579  24.218  1.00  0.00     0.225 C 
ATOM      5  O   UNL A   1      30.191  26.987  23.942  1.00  0.00    -0.275 OA
ATOM      6  H   UNL A   1      30.201  29.089  24.983  1.00  0.00     0.163 HD
BRANCH   4   7
ATOM      7  C   UNL A   1      32.581  26.932  23.919  1.00  0.00     0.102 C 
ATOM      8  C   UNL A   1      34.010  25.947  25.761  1.00  0.00     0.032 C 
ATOM      9  C   UNL A   1      32.852  25.697  24.794  1.00  0.00     0.091 C 
ATOM     10  N   UNL A   1      33.215  24.644  23.839  1.00  0.00    -0.368 N 
ATOM     11  C   UNL A   1      32.729  26.491  22.462  1.00  0.00     0.037 C 
ATOM     12  C   UNL A   1      33.494  25.175  22.512  1.00  0.00     0.118 C 
BRANCH  10  13
ATOM     13  C   UNL A   1      33.231  23.297  24.102  1.00  0.00     0.038 A 
ATOM     14  C   UNL A   1      32.052  22.562  24.223  1.00  0.00     0.027 A 
ATOM     15  C   UNL A   1      34.422  22.597  24.309  1.00  0.00     0.047 A 
ATOM     16  C   UNL A   1      32.058  21.198  24.554  1.00  0.00     0.017 A 
ATOM     17  C   UNL A   1      34.453  21.241  24.686  1.00  0.00     0.055 A 
ATOM     18  C   UNL A   1      33.261  20.515  24.805  1.00  0.00     0.058 A 
ATOM     19  Cl  UNL A   1      36.032  20.598  24.989  1.00  0.00    -0.083 Cl
BRANCH  18  20
ATOM     20  C   UNL A   1      33.240  19.072  25.210  1.00  0.00     0.250 C 
ATOM     21  N   UNL A   1      32.848  18.755  26.484  1.00  0.00    -0.366 N 
ATOM     22  O   UNL A   1      33.560  18.154  24.466  1.00  0.00    -0.269 OA
ATOM     23  H   UNL A   1      32.585  19.468  27.109  1.00  0.00     0.159 HD
ATOM     24  H   UNL A   1      32.832  17.815  26.774  1.00  0.00     0.159 HD
ENDBRANCH  18  20
ENDBRANCH  10  13
ENDBRANCH   4   7
ENDBRANCH   2   3
ENDBRANCH   1   2
BRANCH   1  25
ATOM     25  C   UNL A   1      31.638  31.800  26.685  1.00  0.00     0.023 C 
BRANCH  25  26
ATOM     26  C   UNL A   1      32.762  32.594  27.334  1.00  0.00     0.116 C 
BRANCH  26  27
ATOM     27  N   UNL A   1      32.409  33.981  27.603  1.00  0.00    -0.352 N 
ATOM     28  C   UNL A   1      32.961  34.847  28.515  1.00  0.00     0.251 C 
ATOM     29  H   UNL A   1      31.676  34.346  27.057  1.00  0.00     0.163 HD
ATOM     30  O   UNL A   1      32.476  35.957  28.700  1.00  0.00    -0.269 OA
BRANCH  28  31
ATOM     31  C   UNL A   1      34.130  34.409  29.300  1.00  0.00     0.039 A 
ATOM     32  C   UNL A   1      33.922  33.769  30.523  1.00  0.00     0.014 A 
ATOM     33  C   UNL A   1      35.422  34.575  28.795  1.00  0.00     0.014 A 
ATOM     34  C   UNL A   1      35.012  33.230  31.207  1.00  0.00     0.010 A 
ATOM     35  C   UNL A   1      36.491  33.956  29.429  1.00  0.00     0.010 A 
ATOM     36  C   UNL A   1      36.298  33.280  30.644  1.00  0.00    -0.014 A 
BRANCH  36  37
ATOM     37  C   UNL A   1      37.456  32.634  31.308  1.00  0.00     0.031 A 
ATOM     38  C   UNL A   1      38.170  31.496  30.634  1.00  0.00     0.074 A 
ATOM     39  C   UNL A   1      37.821  33.027  32.544  1.00  0.00     0.049 A 
ATOM     40  N   UNL A   1      39.157  30.758  31.076  1.00  0.00    -0.248 NA
ATOM     41  C   UNL A   1      37.689  31.113  29.296  1.00  0.00     0.031 C 
ATOM     42  C   UNL A   1      37.172  34.082  33.323  1.00  0.00     0.029 A 
ATOM     43  N   UNL A   1      38.823  32.577  33.367  1.00  0.00    -0.354 N 
ATOM     44  C   UNL A   1      39.404  29.824  30.080  1.00  0.00     0.074 A 
ATOM     45  C   UNL A   1      38.423  30.042  29.040  1.00  0.00     0.031 C 
ATOM     46  C   UNL A   1      37.809  34.219  34.497  1.00  0.00     0.029 A 
ATOM     47  C   UNL A   1      38.882  33.233  34.573  1.00  0.00     0.049 A 
ATOM     48  H   UNL A   1      39.441  31.852  33.118  1.00  0.00     0.167 HD
ATOM     49  C   UNL A   1      40.379  28.886  30.024  1.00  0.00     0.037 A 
ATOM     50  C   UNL A   1      39.706  33.053  35.622  1.00  0.00     0.037 A 
ATOM     51  C   UNL A   1      41.366  28.689  31.053  1.00  0.00     0.049 A 
ATOM     52  C   UNL A   1      40.772  31.994  35.541  1.00  0.00     0.074 A 
ATOM     53  C   UNL A   1      42.432  27.808  31.068  1.00  0.00     0.029 A 
ATOM     54  N   UNL A   1      41.403  29.381  32.255  1.00  0.00    -0.354 N 
ATOM     55  N   UNL A   1      41.046  31.166  34.563  1.00  0.00    -0.248 NA
ATOM     56  C   UNL A   1      41.651  31.849  36.710  1.00  0.00     0.031 C 
ATOM     57  C   UNL A   1      43.080  27.927  32.301  1.00  0.00     0.029 A 
ATOM     58  C   UNL A   1      42.458  28.927  33.031  1.00  0.00     0.049 A 
ATOM     59  H   UNL A   1      40.772  30.091  32.518  1.00  0.00     0.167 HD
ATOM     60  C   UNL A   1      42.143  30.426  34.982  1.00  0.00     0.074 A 
ATOM     61  C   UNL A   1      42.496  30.915  36.299  1.00  0.00     0.031 C 
ATOM     62  C   UNL A   1      42.799  29.430  34.337  1.00  0.00     0.037 A 
BRANCH  49  63
ATOM     63  C   UNL A   1      40.427  28.004  28.810  1.00  0.00     0.064 A 
ATOM     64  C   UNL A   1      41.180  28.348  27.677  1.00  0.00     0.173 A 
ATOM     65  C   UNL A   1      39.737  26.783  28.790  1.00  0.00     0.173 A 
ATOM     66  F   UNL A   1      41.850  29.510  27.638  1.00  0.00    -0.203 F 
ATOM     67  C   UNL A   1      41.215  27.519  26.559  1.00  0.00     0.198 A 
ATOM     68  C   UNL A   1      39.801  25.939  27.684  1.00  0.00     0.198 A 
ATOM     69  F   UNL A   1      39.004  26.401  29.847  1.00  0.00    -0.203 F 
ATOM     70  F   UNL A   1      41.897  27.896  25.468  1.00  0.00    -0.200 F 
ATOM     71  C   UNL A   1      40.533  26.312  26.566  1.00  0.00     0.200 A 
ATOM     72  F   UNL A   1      39.154  24.766  27.698  1.00  0.00    -0.200 F 
ATOM     73  F   UNL A   1      40.575  25.510  25.493  1.00  0.00    -0.200 F 
ENDBRANCH  49  63
BRANCH  50  74
ATOM     74  C   UNL A   1      39.569  33.907  36.833  1.00  0.00     0.064 A 
ATOM     75  C   UNL A   1      38.796  33.490  37.925  1.00  0.00     0.173 A 
ATOM     76  C   UNL A   1      40.198  35.158  36.920  1.00  0.00     0.173 A 
ATOM     77  F   UNL A   1      38.158  32.310  37.882  1.00  0.00    -0.203 F 
ATOM     78  C   UNL A   1      38.634  34.301  39.046  1.00  0.00     0.198 A 
ATOM     79  C   UNL A   1      40.062  35.955  38.055  1.00  0.00     0.198 A 
ATOM     80  F   UNL A   1      40.953  35.603  35.906  1.00  0.00    -0.203 F 
ATOM     81  F   UNL A   1      37.846  33.900  40.053  1.00  0.00    -0.200 F 
ATOM     82  C   UNL A   1      39.272  35.531  39.113  1.00  0.00     0.200 A 
ATOM     83  F   UNL A   1      40.692  37.135  38.121  1.00  0.00    -0.200 F 
ATOM     84  F   UNL A   1      39.118  36.310  40.192  1.00  0.00    -0.200 F 
ENDBRANCH  50  74
BRANCH  62  85
ATOM     85  C   UNL A   1      43.990  28.828  35.027  1.00  0.00     0.064 A 
ATOM     86  C   UNL A   1      43.874  27.706  35.860  1.00  0.00     0.173 A 
ATOM     87  C   UNL A   1      45.272  29.359  34.818  1.00  0.00     0.173 A 
ATOM     88  F   UNL A   1      42.669  27.168  36.103  1.00  0.00    -0.203 F 
ATOM     89  C   UNL A   1      44.992  27.156  36.481  1.00  0.00     0.198 A 
ATOM     90  C   UNL A   1      46.392  28.786  35.413  1.00  0.00     0.198 A 
ATOM     91  F   UNL A   1      45.442  30.428  34.023  1.00  0.00    -0.203 F 
ATOM     92  F   UNL A   1      44.849  26.117  37.315  1.00  0.00    -0.200 F 
ATOM     93  C   UNL A   1      46.251  27.691  36.251  1.00  0.00     0.200 A 
ATOM     94  F   UNL A   1      47.610  29.293  35.174  1.00  0.00    -0.200 F 
ATOM     95  F   UNL A   1      47.326  27.154  36.841  1.00  0.00    -0.200 F 
ENDBRANCH  62  85
ENDBRANCH  36  37
ENDBRANCH  28  31
ENDBRANCH  26  27
ENDBRANCH  25  26
ENDBRANCH   1  25
TORSDOF 13
ENDMDL
MODEL 2
REMARK VINA RESULT:     -13.1      0.176      1.140
REMARK SMILES C[C@H]1[C@H](C(=O)NCCCCNC(=O)c2ccc(-c3c4nc(c(-c5c(F)c(F)c(F)c(F)c5F)c5ccc([nH]5)c(-c5c(F)c(F)c(F)c(F)c5F)c5nc(c(-c6c(F)c(F)c(F)c(F)c6F)c6ccc3[nH]6)C=C5)C=C4)cc2)CCN1c1ccc(C(N)=O)c(Cl)c1
REMARK SMILES IDX 8 1 7 2 6 3 4 4 5 5 3 7 1 8 2 9 79 10 77 11 78 12 80 13
REMARK SMILES IDX 81 14 89 15 82 16 87 17 83 18 88 19 84 20 85 21 86 22 9 25
REMARK SMILES IDX 10 26 11 27 12 28 13 30 14 31 15 32 76 33 16 34 75 35 17 36
REMARK SMILES IDX 18 37 19 38 69 39 20 40 74 41 68 42 70 43 21 44 73 45 67 46
REMARK SMILES IDX 66 47 22 49 54 50 34 51 53 52 35 53 38 54 52 55 71 56 36 57
REMARK SMILES IDX 37 58 51 60 72 61 39 62 23 63 24 64 32 65 25 66 26 67 30 68
REMARK SMILES IDX 33 69 27 70 28 71 31 72 29 73 55 74 56 75 64 76 57 77 58 78
REMARK SMILES IDX 62 79 65 80 59 81 60 82 63 83 61 84 40 85 41 86 49 87 42 88
REMARK SMILES IDX 43 89 47 90 50 91 44 92 45 93 48 94 46 95
REMARK H PARENT 6 6 85 23 85 24 11 29 70 48 38 59
REMARK Flexibility Score: inf
ROOT
ATOM      1  C   UNL A   1      31.868  30.387  26.741  1.00  0.00     0.023 C 
ENDROOT
BRANCH   1   2
ATOM      2  C   UNL A   1      32.253  29.776  25.395  1.00  0.00     0.116 C 
BRANCH   2   3
ATOM      3  N   UNL A   1      31.207  28.912  24.878  1.00  0.00    -0.356 N 
ATOM      4  C   UNL A   1      31.282  27.729  24.208  1.00  0.00     0.225 C 
ATOM      5  O   UNL A   1      30.220  27.217  23.846  1.00  0.00    -0.275 OA
ATOM      6  H   UNL A   1      30.292  29.236  25.038  1.00  0.00     0.163 HD
BRANCH   4   7
ATOM      7  C   UNL A   1      32.602  27.030  23.919  1.00  0.00     0.102 C 
ATOM      8  C   UNL A   1      33.991  26.015  25.775  1.00  0.00     0.032 C 
ATOM      9  C   UNL A   1      32.827  25.796  24.808  1.00  0.00     0.091 C 
ATOM     10  N   UNL A   1      33.153  24.719  23.866  1.00  0.00    -0.368 N 
ATOM     11  C   UNL A   1      32.736  26.568  22.467  1.00  0.00     0.037 C 
ATOM     12  C   UNL A   1      33.453  25.225  22.534  1.00  0.00     0.118 C 
BRANCH  10  13
ATOM     13  C   UNL A   1      33.120  23.376  24.145  1.00  0.00     0.038 A 
ATOM     14  C   UNL A   1      31.916  22.697  24.326  1.00  0.00     0.027 A 
ATOM     15  C   UNL A   1      34.286  22.625  24.308  1.00  0.00     0.047 A 
ATOM     16  C   UNL A   1      31.875  21.337  24.672  1.00  0.00     0.017 A 
ATOM     17  C   UNL A   1      34.273  21.273  24.699  1.00  0.00     0.055 A 
ATOM     18  C   UNL A   1      33.056  20.603  24.878  1.00  0.00     0.058 A 
ATOM     19  Cl  UNL A   1      35.834  20.562  24.940  1.00  0.00    -0.083 Cl
BRANCH  18  20
ATOM     20  C   UNL A   1      32.988  19.167  25.301  1.00  0.00     0.250 C 
ATOM     21  N   UNL A   1      32.934  18.880  26.640  1.00  0.00    -0.366 N 
ATOM     22  O   UNL A   1      32.984  18.227  24.515  1.00  0.00    -0.269 OA
ATOM     23  H   UNL A   1      32.936  19.610  27.300  1.00  0.00     0.159 HD
ATOM     24  H   UNL A   1      32.894  17.944  26.941  1.00  0.00     0.159 HD
ENDBRANCH  18  20
ENDBRANCH  10  13
ENDBRANCH   4   7
ENDBRANCH   2   3
ENDBRANCH   1   2
BRANCH   1  25
ATOM     25  C   UNL A   1      31.675  31.898  26.725  1.00  0.00     0.023 C 
BRANCH  25  26
ATOM     26  C   UNL A   1      32.800  32.686  27.378  1.00  0.00     0.116 C 
BRANCH  26  27
ATOM     27  N   UNL A   1      32.445  34.070  27.662  1.00  0.00    -0.352 N 
ATOM     28  C   UNL A   1      32.992  34.924  28.588  1.00  0.00     0.251 C 
ATOM     29  H   UNL A   1      31.716  34.442  27.117  1.00  0.00     0.163 HD
ATOM     30  O   UNL A   1      32.507  36.033  28.784  1.00  0.00    -0.269 OA
BRANCH  28  31
ATOM     31  C   UNL A   1      34.157  34.477  29.375  1.00  0.00     0.039 A 
ATOM     32  C   UNL A   1      33.944  33.881  30.619  1.00  0.00     0.014 A 
ATOM     33  C   UNL A   1      35.448  34.590  28.852  1.00  0.00     0.014 A 
ATOM     34  C   UNL A   1      35.025  33.330  31.308  1.00  0.00     0.010 A 
ATOM     35  C   UNL A   1      36.505  33.960  29.494  1.00  0.00     0.010 A 
ATOM     36  C   UNL A   1      36.305  33.326  30.730  1.00  0.00    -0.014 A 
BRANCH  36  37
ATOM     37  C   UNL A   1      37.452  32.667  31.403  1.00  0.00     0.031 A 
ATOM     38  C   UNL A   1      38.151  31.514  30.737  1.00  0.00     0.074 A 
ATOM     39  C   UNL A   1      37.818  33.062  32.637  1.00  0.00     0.049 A 
ATOM     40  N   UNL A   1      39.125  30.765  31.188  1.00  0.00    -0.248 NA
ATOM     41  C   UNL A   1      37.669  31.131  29.401  1.00  0.00     0.031 C 
ATOM     42  C   UNL A   1      37.183  34.132  33.407  1.00  0.00     0.029 A 
ATOM     43  N   UNL A   1      38.812  32.603  33.466  1.00  0.00    -0.354 N 
ATOM     44  C   UNL A   1      39.361  29.821  30.198  1.00  0.00     0.074 A 
ATOM     45  C   UNL A   1      38.387  30.047  29.154  1.00  0.00     0.031 C 
ATOM     46  C   UNL A   1      37.819  34.267  34.583  1.00  0.00     0.029 A 
ATOM     47  C   UNL A   1      38.877  33.265  34.668  1.00  0.00     0.049 A 
ATOM     48  H   UNL A   1      39.419  31.868  33.223  1.00  0.00     0.167 HD
ATOM     49  C   UNL A   1      40.322  28.868  30.152  1.00  0.00     0.037 A 
ATOM     50  C   UNL A   1      39.694  33.079  35.721  1.00  0.00     0.037 A 
ATOM     51  C   UNL A   1      41.303  28.663  31.185  1.00  0.00     0.049 A 
ATOM     52  C   UNL A   1      40.745  32.004  35.650  1.00  0.00     0.074 A 
ATOM     53  C   UNL A   1      42.356  27.766  31.208  1.00  0.00     0.029 A 
ATOM     54  N   UNL A   1      41.347  29.362  32.382  1.00  0.00    -0.354 N 
ATOM     55  N   UNL A   1      41.009  31.166  34.678  1.00  0.00    -0.248 NA
ATOM     56  C   UNL A   1      41.618  31.854  36.823  1.00  0.00     0.031 C 
ATOM     57  C   UNL A   1      43.002  27.883  32.443  1.00  0.00     0.029 A 
ATOM     58  C   UNL A   1      42.392  28.897  33.164  1.00  0.00     0.049 A 
ATOM     59  H   UNL A   1      40.726  30.082  32.639  1.00  0.00     0.167 HD
ATOM     60  C   UNL A   1      42.094  30.412  35.105  1.00  0.00     0.074 A 
ATOM     61  C   UNL A   1      42.450  30.905  36.421  1.00  0.00     0.031 C 
ATOM     62  C   UNL A   1      42.737  29.403  34.469  1.00  0.00     0.037 A 
BRANCH  49  63
ATOM     63  C   UNL A   1      40.361  27.978  28.943  1.00  0.00     0.064 A 
ATOM     64  C   UNL A   1      41.100  28.317  27.799  1.00  0.00     0.173 A 
ATOM     65  C   UNL A   1      39.676  26.753  28.939  1.00  0.00     0.173 A 
ATOM     66  F   UNL A   1      41.764  29.482  27.745  1.00  0.00    -0.203 F 
ATOM     67  C   UNL A   1      41.127  27.481  26.687  1.00  0.00     0.198 A 
ATOM     68  C   UNL A   1      39.732  25.902  27.838  1.00  0.00     0.198 A 
ATOM     69  F   UNL A   1      38.956  26.376  30.007  1.00  0.00    -0.203 F 
ATOM     70  F   UNL A   1      41.795  27.853  25.586  1.00  0.00    -0.200 F 
ATOM     71  C   UNL A   1      40.450  26.271  26.710  1.00  0.00     0.200 A 
ATOM     72  F   UNL A   1      39.090  24.727  27.867  1.00  0.00    -0.200 F 
ATOM     73  F   UNL A   1      40.483  25.462  25.642  1.00  0.00    -0.200 F 
ENDBRANCH  49  63
BRANCH  50  74
ATOM     74  C   UNL A   1      39.567  33.943  36.926  1.00  0.00     0.064 A 
ATOM     75  C   UNL A   1      38.805  33.533  38.029  1.00  0.00     0.173 A 
ATOM     76  C   UNL A   1      40.192  35.196  36.997  1.00  0.00     0.173 A 
ATOM     77  F   UNL A   1      38.170  32.352  38.002  1.00  0.00    -0.203 F 
ATOM     78  C   UNL A   1      38.651  34.353  39.145  1.00  0.00     0.198 A 
ATOM     79  C   UNL A   1      40.065  36.003  38.127  1.00  0.00     0.198 A 
ATOM     80  F   UNL A   1      40.937  35.635  35.972  1.00  0.00    -0.203 F 
ATOM     81  F   UNL A   1      37.874  33.958  40.162  1.00  0.00    -0.200 F 
ATOM     82  C   UNL A   1      39.286  35.585  39.195  1.00  0.00     0.200 A 
ATOM     83  F   UNL A   1      40.692  37.185  38.177  1.00  0.00    -0.200 F 
ATOM     84  F   UNL A   1      39.140  36.373  40.269  1.00  0.00    -0.200 F 
ENDBRANCH  50  74
BRANCH  62  85
ATOM     85  C   UNL A   1      43.917  28.788  35.166  1.00  0.00     0.064 A 
ATOM     86  C   UNL A   1      45.210  29.312  35.032  1.00  0.00     0.173 A 
ATOM     87  C   UNL A   1      43.741  27.683  36.013  1.00  0.00     0.173 A 
ATOM     88  F   UNL A   1      45.435  30.359  34.224  1.00  0.00    -0.203 F 
ATOM     89  C   UNL A   1      46.289  28.735  35.697  1.00  0.00     0.198 A 
ATOM     90  C   UNL A   1      44.816  27.130  36.704  1.00  0.00     0.198 A 
ATOM     91  F   UNL A   1      42.522  27.147  36.184  1.00  0.00    -0.203 F 
ATOM     92  F   UNL A   1      47.525  29.219  35.511  1.00  0.00    -0.200 F 
ATOM     93  C   UNL A   1      46.090  27.650  36.538  1.00  0.00     0.200 A 
ATOM     94  F   UNL A   1      44.618  26.094  37.530  1.00  0.00    -0.200 F 
ATOM     95  F   UNL A   1      47.128  27.102  37.185  1.00  0.00    -0.200 F 
ENDBRANCH  62  85
ENDBRANCH  36  37
ENDBRANCH  28  31
ENDBRANCH  26  27
ENDBRANCH  25  26
ENDBRANCH   1  25
TORSDOF 13
ENDMDL
MODEL 3
REMARK VINA RESULT:     -13.0      5.557     11.304
REMARK SMILES C[C@H]1[C@H](C(=O)NCCCCNC(=O)c2ccc(-c3c4nc(c(-c5c(F)c(F)c(F)c(F)c5F)c5ccc([nH]5)c(-c5c(F)c(F)c(F)c(F)c5F)c5nc(c(-c6c(F)c(F)c(F)c(F)c6F)c6ccc3[nH]6)C=C5)C=C4)cc2)CCN1c1ccc(C(N)=O)c(Cl)c1
REMARK SMILES IDX 8 1 7 2 6 3 4 4 5 5 3 7 1 8 2 9 79 10 77 11 78 12 80 13
REMARK SMILES IDX 81 14 89 15 82 16 87 17 83 18 88 19 84 20 85 21 86 22 9 25
REMARK SMILES IDX 10 26 11 27 12 28 13 30 14 31 15 32 76 33 16 34 75 35 17 36
REMARK SMILES IDX 18 37 19 38 69 39 20 40 74 41 68 42 70 43 21 44 73 45 67 46
REMARK SMILES IDX 66 47 22 49 54 50 34 51 53 52 35 53 38 54 52 55 71 56 36 57
REMARK SMILES IDX 37 58 51 60 72 61 39 62 23 63 24 64 32 65 25 66 26 67 30 68
REMARK SMILES IDX 33 69 27 70 28 71 31 72 29 73 55 74 56 75 64 76 57 77 58 78
REMARK SMILES IDX 62 79 65 80 59 81 60 82 63 83 61 84 40 85 41 86 49 87 42 88
REMARK SMILES IDX 43 89 47 90 50 91 44 92 45 93 48 94 46 95
REMARK H PARENT 6 6 85 23 85 24 11 29 70 48 38 59
REMARK Flexibility Score: inf
ROOT
ATOM      1  C   UNL A   1      37.184  21.169  24.692  1.00  0.00     0.023 C 
ENDROOT
BRANCH   1   2
ATOM      2  C   UNL A   1      35.909  21.248  25.529  1.00  0.00     0.116 C 
BRANCH   2   3
ATOM      3  N   UNL A   1      34.718  21.150  24.705  1.00  0.00    -0.356 N 
ATOM      4  C   UNL A   1      33.554  21.855  24.737  1.00  0.00     0.225 C 
ATOM      5  O   UNL A   1      32.676  21.533  23.931  1.00  0.00    -0.275 OA
ATOM      6  H   UNL A   1      34.759  20.457  24.007  1.00  0.00     0.163 HD
BRANCH   4   7
ATOM      7  C   UNL A   1      33.318  23.009  25.699  1.00  0.00     0.102 C 
ATOM      8  C   UNL A   1      34.571  25.196  25.468  1.00  0.00     0.032 C 
ATOM      9  C   UNL A   1      33.364  24.380  25.004  1.00  0.00     0.091 C 
ATOM     10  N   UNL A   1      32.122  25.042  25.418  1.00  0.00    -0.368 N 
ATOM     11  C   UNL A   1      31.978  22.922  26.432  1.00  0.00     0.037 C 
ATOM     12  C   UNL A   1      31.474  24.356  26.527  1.00  0.00     0.118 C 
BRANCH  10  13
ATOM     13  C   UNL A   1      31.560  26.139  24.812  1.00  0.00     0.038 A 
ATOM     14  C   UNL A   1      30.881  26.035  23.598  1.00  0.00     0.027 A 
ATOM     15  C   UNL A   1      31.677  27.422  25.350  1.00  0.00     0.047 A 
ATOM     16  C   UNL A   1      30.359  27.161  22.942  1.00  0.00     0.017 A 
ATOM     17  C   UNL A   1      31.202  28.571  24.690  1.00  0.00     0.055 A 
ATOM     18  C   UNL A   1      30.522  28.452  23.471  1.00  0.00     0.058 A 
ATOM     19  Cl  UNL A   1      31.541  30.070  25.487  1.00  0.00    -0.083 Cl
BRANCH  18  20
ATOM     20  C   UNL A   1      30.004  29.645  22.725  1.00  0.00     0.250 C 
ATOM     21  N   UNL A   1      30.673  30.058  21.603  1.00  0.00    -0.366 N 
ATOM     22  O   UNL A   1      29.013  30.280  23.065  1.00  0.00    -0.269 OA
ATOM     23  H   UNL A   1      31.473  29.571  21.301  1.00  0.00     0.159 HD
ATOM     24  H   UNL A   1      30.354  30.841  21.101  1.00  0.00     0.159 HD
ENDBRANCH  18  20
ENDBRANCH  10  13
ENDBRANCH   4   7
ENDBRANCH   2   3
ENDBRANCH   1   2
BRANCH   1  25
ATOM     25  C   UNL A   1      38.069  19.965  24.988  1.00  0.00     0.023 C 
BRANCH  25  26
ATOM     26  C   UNL A   1      39.340  20.289  25.758  1.00  0.00     0.116 C 
BRANCH  26  27
ATOM     27  N   UNL A   1      40.260  19.163  25.852  1.00  0.00    -0.352 N 
ATOM     28  C   UNL A   1      41.611  19.175  26.096  1.00  0.00     0.251 C 
ATOM     29  H   UNL A   1      39.858  18.274  25.724  1.00  0.00     0.163 HD
ATOM     30  O   UNL A   1      42.270  18.144  26.035  1.00  0.00    -0.269 OA
BRANCH  28  31
ATOM     31  C   UNL A   1      42.271  20.459  26.399  1.00  0.00     0.039 A 
ATOM     32  C   UNL A   1      42.810  21.207  25.351  1.00  0.00     0.014 A 
ATOM     33  C   UNL A   1      42.300  20.947  27.708  1.00  0.00     0.014 A 
ATOM     34  C   UNL A   1      43.313  22.482  25.608  1.00  0.00     0.010 A 
ATOM     35  C   UNL A   1      42.713  22.251  27.945  1.00  0.00     0.010 A 
ATOM     36  C   UNL A   1      43.227  23.031  26.898  1.00  0.00    -0.014 A 
BRANCH  36  37
ATOM     37  C   UNL A   1      43.672  24.419  27.177  1.00  0.00     0.031 A 
ATOM     38  C   UNL A   1      42.686  25.436  27.680  1.00  0.00     0.074 A 
ATOM     39  C   UNL A   1      44.943  24.778  26.913  1.00  0.00     0.049 A 
ATOM     40  N   UNL A   1      42.861  26.712  27.918  1.00  0.00    -0.248 NA
ATOM     41  C   UNL A   1      41.312  24.966  27.915  1.00  0.00     0.031 C 
ATOM     42  C   UNL A   1      45.978  23.895  26.372  1.00  0.00     0.029 A 
ATOM     43  N   UNL A   1      45.581  25.985  27.057  1.00  0.00    -0.354 N 
ATOM     44  C   UNL A   1      41.622  27.193  28.318  1.00  0.00     0.074 A 
ATOM     45  C   UNL A   1      40.689  26.091  28.226  1.00  0.00     0.031 C 
ATOM     46  C   UNL A   1      47.126  24.580  26.257  1.00  0.00     0.029 A 
ATOM     47  C   UNL A   1      46.900  25.961  26.673  1.00  0.00     0.049 A 
ATOM     48  H   UNL A   1      45.135  26.792  27.401  1.00  0.00     0.167 HD
ATOM     49  C   UNL A   1      41.297  28.434  28.749  1.00  0.00     0.037 A 
ATOM     50  C   UNL A   1      47.819  26.944  26.654  1.00  0.00     0.037 A 
ATOM     51  C   UNL A   1      42.235  29.520  28.858  1.00  0.00     0.049 A 
ATOM     52  C   UNL A   1      47.428  28.319  27.125  1.00  0.00     0.074 A 
ATOM     53  C   UNL A   1      42.021  30.799  29.340  1.00  0.00     0.029 A 
ATOM     54  N   UNL A   1      43.566  29.455  28.473  1.00  0.00    -0.354 N 
ATOM     55  N   UNL A   1      46.273  28.745  27.573  1.00  0.00    -0.248 NA
ATOM     56  C   UNL A   1      48.474  29.351  27.094  1.00  0.00     0.031 C 
ATOM     57  C   UNL A   1      43.208  31.524  29.194  1.00  0.00     0.029 A 
ATOM     58  C   UNL A   1      44.180  30.680  28.681  1.00  0.00     0.049 A 
ATOM     59  H   UNL A   1      44.010  28.656  28.106  1.00  0.00     0.167 HD
ATOM     60  C   UNL A   1      46.458  30.080  27.906  1.00  0.00     0.074 A 
ATOM     61  C   UNL A   1      47.845  30.389  27.624  1.00  0.00     0.031 C 
ATOM     62  C   UNL A   1      45.563  30.970  28.401  1.00  0.00     0.037 A 
BRANCH  49  63
ATOM     63  C   UNL A   1      39.867  28.683  29.138  1.00  0.00     0.064 A 
ATOM     64  C   UNL A   1      39.406  28.453  30.443  1.00  0.00     0.173 A 
ATOM     65  C   UNL A   1      38.954  29.190  28.201  1.00  0.00     0.173 A 
ATOM     66  F   UNL A   1      40.235  27.957  31.375  1.00  0.00    -0.203 F 
ATOM     67  C   UNL A   1      38.078  28.689  30.788  1.00  0.00     0.198 A 
ATOM     68  C   UNL A   1      37.634  29.458  28.558  1.00  0.00     0.198 A 
ATOM     69  F   UNL A   1      39.341  29.433  26.940  1.00  0.00    -0.203 F 
ATOM     70  F   UNL A   1      37.649  28.409  32.027  1.00  0.00    -0.200 F 
ATOM     71  C   UNL A   1      37.196  29.199  29.848  1.00  0.00     0.200 A 
ATOM     72  F   UNL A   1      36.787  29.965  27.653  1.00  0.00    -0.200 F 
ATOM     73  F   UNL A   1      35.920  29.435  30.183  1.00  0.00    -0.200 F 
ENDBRANCH  49  63
BRANCH  50  74
ATOM     74  C   UNL A   1      49.204  26.661  26.190  1.00  0.00     0.064 A 
ATOM     75  C   UNL A   1      50.167  26.150  27.071  1.00  0.00     0.173 A 
ATOM     76  C   UNL A   1      49.596  26.904  24.866  1.00  0.00     0.173 A 
ATOM     77  F   UNL A   1      49.848  25.920  28.353  1.00  0.00    -0.203 F 
ATOM     78  C   UNL A   1      51.477  25.918  26.653  1.00  0.00     0.198 A 
ATOM     79  C   UNL A   1      50.897  26.641  24.440  1.00  0.00     0.198 A 
ATOM     80  F   UNL A   1      48.713  27.388  23.981  1.00  0.00    -0.203 F 
ATOM     81  F   UNL A   1      52.390  25.479  27.530  1.00  0.00    -0.200 F 
ATOM     82  C   UNL A   1      51.838  26.158  25.336  1.00  0.00     0.200 A 
ATOM     83  F   UNL A   1      51.238  26.860  23.163  1.00  0.00    -0.200 F 
ATOM     84  F   UNL A   1      53.096  25.933  24.933  1.00  0.00    -0.200 F 
ENDBRANCH  50  74
BRANCH  62  85
ATOM     85  C   UNL A   1      46.062  32.353  28.705  1.00  0.00     0.064 A 
ATOM     86  C   UNL A   1      46.001  33.386  27.759  1.00  0.00     0.173 A 
ATOM     87  C   UNL A   1      46.571  32.658  29.977  1.00  0.00     0.173 A 
ATOM     88  F   UNL A   1      45.536  33.145  26.524  1.00  0.00    -0.203 F 
ATOM     89  C   UNL A   1      46.458  34.666  28.065  1.00  0.00     0.198 A 
ATOM     90  C   UNL A   1      46.994  33.946  30.291  1.00  0.00     0.198 A 
ATOM     91  F   UNL A   1      46.643  31.709  30.923  1.00  0.00    -0.203 F 
ATOM     92  F   UNL A   1      46.440  35.623  27.128  1.00  0.00    -0.200 F 
ATOM     93  C   UNL A   1      46.947  34.946  29.333  1.00  0.00     0.200 A 
ATOM     94  F   UNL A   1      47.448  34.220  31.522  1.00  0.00    -0.200 F 
ATOM     95  F   UNL A   1      47.376  36.180  29.628  1.00  0.00    -0.200 F 
ENDBRANCH  62  85
ENDBRANCH  36  37
ENDBRANCH  28  31
ENDBRANCH  26  27
ENDBRANCH  25  26
ENDBRANCH   1  25
TORSDOF 13
ENDMDL
