MODEL 1
REMARK VINA RESULT:     -12.6      0.000      0.000
REMARK SMILES C[C@@H]1Cc2ccccc2N1S(=O)(=O)c1c[nH]c(C(=O)NCCCCNC(=O)c2ccc(-c3c4nc(c(-c5c(F)c(F)c(F)c(F)c5F)c5ccc([nH]5)c(-c5c(F)c(F)c(F)c(F)c5F)c5nc(c(-c6c(F)c(F)c(F)c(F)c6F)c6ccc3[nH]6)C=C5)C=C4)cc2)c1
REMARK SMILES IDX 22 1 21 2 20 3 18 4 19 5 17 7 14 8 15 9 91 10 16 11 11 13
REMARK SMILES IDX 12 14 13 15 10 16 1 17 2 18 3 19 4 20 9 21 5 22 8 23 6 24
REMARK SMILES IDX 7 25 23 26 24 27 25 28 26 29 27 31 28 32 29 33 90 34 30 35
REMARK SMILES IDX 89 36 31 37 32 38 33 39 83 40 34 41 88 42 82 43 84 44 35 45
REMARK SMILES IDX 87 46 81 47 80 48 36 50 68 51 48 52 67 53 49 54 52 55 66 56
REMARK SMILES IDX 85 57 50 58 51 59 65 61 86 62 53 63 37 64 38 65 46 66 39 67
REMARK SMILES IDX 40 68 44 69 47 70 41 71 42 72 45 73 43 74 69 75 70 76 78 77
REMARK SMILES IDX 71 78 72 79 76 80 79 81 73 82 74 83 77 84 75 85 54 86 55 87
REMARK SMILES IDX 63 88 56 89 57 90 61 91 64 92 58 93 59 94 62 95 60 96
REMARK H PARENT 20 6 16 12 25 30 84 49 52 60
REMARK Flexibility Score: inf
ROOT
ATOM      1  C   UNL A   1      34.752  34.777  28.667  1.00  0.00     0.023 C 
ENDROOT
BRANCH   1   2
ATOM      2  C   UNL A   1      33.442  34.470  29.387  1.00  0.00     0.116 C 
BRANCH   2   3
ATOM      3  N   UNL A   1      32.971  35.617  30.133  1.00  0.00    -0.351 N 
ATOM      4  C   UNL A   1      33.270  36.055  31.392  1.00  0.00     0.267 C 
ATOM      5  O   UNL A   1      32.866  37.178  31.700  1.00  0.00    -0.268 OA
ATOM      6  H   UNL A   1      32.323  36.179  29.650  1.00  0.00     0.163 HD
BRANCH   4   7
ATOM      7  C   UNL A   1      34.037  35.260  32.324  1.00  0.00     0.105 A 
ATOM      8  C   UNL A   1      35.533  34.198  33.667  1.00  0.00     0.106 A 
ATOM      9  C   UNL A   1      34.383  33.440  33.628  1.00  0.00     0.105 A 
ATOM     10  C   UNL A   1      35.316  35.341  32.856  1.00  0.00     0.055 A 
ATOM     11  N   UNL A   1      33.498  34.078  32.809  1.00  0.00    -0.356 N 
ATOM     12  H   UNL A   1      32.598  33.746  32.592  1.00  0.00     0.166 HD
BRANCH   8  13
ATOM     13  S   UNL A   1      37.014  33.784  34.453  1.00  0.00     0.266 S 
ATOM     14  O   UNL A   1      36.603  32.994  35.591  1.00  0.00    -0.201 OA
ATOM     15  O   UNL A   1      37.675  35.066  34.635  1.00  0.00    -0.201 OA
BRANCH  13  16
ATOM     16  N   UNL A   1      38.013  32.827  33.443  1.00  0.00    -0.263 N 
ATOM     17  C   UNL A   1      38.184  30.483  34.278  1.00  0.00     0.032 C 
ATOM     18  C   UNL A   1      37.475  31.411  33.304  1.00  0.00     0.101 C 
ATOM     19  C   UNL A   1      37.689  30.998  31.831  1.00  0.00     0.063 C 
ATOM     20  C   UNL A   1      38.089  32.277  31.177  1.00  0.00    -0.021 A 
ATOM     21  C   UNL A   1      38.283  33.288  32.110  1.00  0.00     0.055 A 
ATOM     22  C   UNL A   1      38.336  32.483  29.825  1.00  0.00     0.006 A 
ATOM     23  C   UNL A   1      38.844  34.491  31.714  1.00  0.00     0.027 A 
ATOM     24  C   UNL A   1      38.823  33.725  29.415  1.00  0.00     0.000 A 
ATOM     25  C   UNL A   1      39.091  34.721  30.358  1.00  0.00     0.002 A 
ENDBRANCH  13  16
ENDBRANCH   8  13
ENDBRANCH   4   7
ENDBRANCH   2   3
ENDBRANCH   1   2
BRANCH   1  26
ATOM     26  C   UNL A   1      35.456  33.535  28.108  1.00  0.00     0.023 C 
BRANCH  26  27
ATOM     27  C   UNL A   1      35.114  32.234  28.842  1.00  0.00     0.116 C 
BRANCH  27  28
ATOM     28  N   UNL A   1      34.770  31.126  27.968  1.00  0.00    -0.352 N 
ATOM     29  C   UNL A   1      35.392  29.958  27.613  1.00  0.00     0.251 C 
ATOM     30  H   UNL A   1      33.893  31.239  27.534  1.00  0.00     0.163 HD
ATOM     31  O   UNL A   1      34.754  29.176  26.906  1.00  0.00    -0.269 OA
BRANCH  29  32
ATOM     32  C   UNL A   1      36.795  29.616  27.971  1.00  0.00     0.039 A 
ATOM     33  C   UNL A   1      37.909  29.975  27.218  1.00  0.00     0.014 A 
ATOM     34  C   UNL A   1      36.989  28.851  29.139  1.00  0.00     0.014 A 
ATOM     35  C   UNL A   1      39.164  29.487  27.536  1.00  0.00     0.010 A 
ATOM     36  C   UNL A   1      38.256  28.395  29.497  1.00  0.00     0.010 A 
ATOM     37  C   UNL A   1      39.335  28.687  28.666  1.00  0.00    -0.014 A 
BRANCH  37  38
ATOM     38  C   UNL A   1      40.716  28.238  28.926  1.00  0.00     0.031 A 
ATOM     39  C   UNL A   1      41.040  26.955  28.161  1.00  0.00     0.074 A 
ATOM     40  C   UNL A   1      41.369  28.909  29.918  1.00  0.00     0.049 A 
ATOM     41  N   UNL A   1      41.642  25.869  28.550  1.00  0.00    -0.248 NA
ATOM     42  C   UNL A   1      40.475  26.810  26.794  1.00  0.00     0.031 C 
ATOM     43  C   UNL A   1      40.872  30.140  30.563  1.00  0.00     0.029 A 
ATOM     44  N   UNL A   1      42.535  28.686  30.614  1.00  0.00    -0.354 N 
ATOM     45  C   UNL A   1      41.657  24.983  27.453  1.00  0.00     0.074 A 
ATOM     46  C   UNL A   1      40.820  25.569  26.446  1.00  0.00     0.031 C 
ATOM     47  C   UNL A   1      41.666  30.499  31.590  1.00  0.00     0.029 A 
ATOM     48  C   UNL A   1      42.734  29.533  31.734  1.00  0.00     0.049 A 
ATOM     49  H   UNL A   1      43.183  27.992  30.353  1.00  0.00     0.167 HD
ATOM     50  C   UNL A   1      42.460  23.880  27.385  1.00  0.00     0.037 A 
ATOM     51  C   UNL A   1      43.629  29.399  32.761  1.00  0.00     0.037 A 
ATOM     52  C   UNL A   1      43.294  23.773  28.537  1.00  0.00     0.049 A 
ATOM     53  C   UNL A   1      44.344  28.139  32.469  1.00  0.00     0.074 A 
ATOM     54  C   UNL A   1      43.277  23.099  29.729  1.00  0.00     0.029 A 
ATOM     55  N   UNL A   1      44.405  24.573  28.527  1.00  0.00    -0.354 N 
ATOM     56  N   UNL A   1      45.204  27.957  31.515  1.00  0.00    -0.248 NA
ATOM     57  C   UNL A   1      43.916  26.941  33.192  1.00  0.00     0.031 C 
ATOM     58  C   UNL A   1      44.311  23.673  30.514  1.00  0.00     0.029 A 
ATOM     59  C   UNL A   1      44.806  24.776  29.822  1.00  0.00     0.049 A 
ATOM     60  H   UNL A   1      44.844  24.939  27.725  1.00  0.00     0.167 HD
ATOM     61  C   UNL A   1      45.214  26.588  31.339  1.00  0.00     0.074 A 
ATOM     62  C   UNL A   1      44.559  26.012  32.495  1.00  0.00     0.031 C 
ATOM     63  C   UNL A   1      45.425  26.043  30.116  1.00  0.00     0.037 A 
BRANCH  50  64
ATOM     64  C   UNL A   1      42.830  22.980  26.224  1.00  0.00     0.064 A 
ATOM     65  C   UNL A   1      42.701  21.578  26.399  1.00  0.00     0.173 A 
ATOM     66  C   UNL A   1      43.637  23.388  25.153  1.00  0.00     0.173 A 
ATOM     67  F   UNL A   1      41.892  21.076  27.345  1.00  0.00    -0.203 F 
ATOM     68  C   UNL A   1      43.454  20.663  25.665  1.00  0.00     0.198 A 
ATOM     69  C   UNL A   1      44.345  22.461  24.376  1.00  0.00     0.198 A 
ATOM     70  F   UNL A   1      43.841  24.686  24.893  1.00  0.00    -0.203 F 
ATOM     71  F   UNL A   1      43.410  19.359  25.976  1.00  0.00    -0.200 F 
ATOM     72  C   UNL A   1      44.292  21.107  24.664  1.00  0.00     0.200 A 
ATOM     73  F   UNL A   1      45.142  22.894  23.390  1.00  0.00    -0.200 F 
ATOM     74  F   UNL A   1      45.068  20.241  23.999  1.00  0.00    -0.200 F 
ENDBRANCH  50  64
BRANCH  51  75
ATOM     75  C   UNL A   1      43.830  30.018  34.129  1.00  0.00     0.064 A 
ATOM     76  C   UNL A   1      44.988  30.666  34.584  1.00  0.00     0.173 A 
ATOM     77  C   UNL A   1      42.743  30.073  35.045  1.00  0.00     0.173 A 
ATOM     78  F   UNL A   1      46.151  30.551  33.939  1.00  0.00    -0.203 F 
ATOM     79  C   UNL A   1      44.999  31.451  35.751  1.00  0.00     0.198 A 
ATOM     80  C   UNL A   1      42.741  30.877  36.187  1.00  0.00     0.198 A 
ATOM     81  F   UNL A   1      41.627  29.358  34.842  1.00  0.00    -0.203 F 
ATOM     82  F   UNL A   1      46.123  32.090  36.108  1.00  0.00    -0.200 F 
ATOM     83  C   UNL A   1      43.863  31.595  36.524  1.00  0.00     0.200 A 
ATOM     84  F   UNL A   1      41.630  30.971  36.932  1.00  0.00    -0.200 F 
ATOM     85  F   UNL A   1      43.855  32.404  37.591  1.00  0.00    -0.200 F 
ENDBRANCH  51  75
BRANCH  63  86
ATOM     86  C   UNL A   1      45.881  27.051  29.082  1.00  0.00     0.064 A 
ATOM     87  C   UNL A   1      44.966  27.650  28.213  1.00  0.00     0.173 A 
ATOM     88  C   UNL A   1      47.240  27.338  28.850  1.00  0.00     0.173 A 
ATOM     89  F   UNL A   1      43.654  27.418  28.361  1.00  0.00    -0.203 F 
ATOM     90  C   UNL A   1      45.392  28.492  27.180  1.00  0.00     0.198 A 
ATOM     91  C   UNL A   1      47.669  28.186  27.833  1.00  0.00     0.198 A 
ATOM     92  F   UNL A   1      48.180  26.807  29.628  1.00  0.00    -0.203 F 
ATOM     93  F   UNL A   1      44.489  29.052  26.364  1.00  0.00    -0.200 F 
ATOM     94  C   UNL A   1      46.740  28.762  26.992  1.00  0.00     0.200 A 
ATOM     95  F   UNL A   1      48.976  28.447  27.683  1.00  0.00    -0.200 F 
ATOM     96  F   UNL A   1      47.142  29.582  26.011  1.00  0.00    -0.200 F 
ENDBRANCH  63  86
ENDBRANCH  37  38
ENDBRANCH  29  32
ENDBRANCH  27  28
ENDBRANCH  26  27
ENDBRANCH   1  26
TORSDOF 13
ENDMDL
MODEL 2
REMARK VINA RESULT:     -12.2      4.521     10.022
REMARK SMILES C[C@@H]1Cc2ccccc2N1S(=O)(=O)c1c[nH]c(C(=O)NCCCCNC(=O)c2ccc(-c3c4nc(c(-c5c(F)c(F)c(F)c(F)c5F)c5ccc([nH]5)c(-c5c(F)c(F)c(F)c(F)c5F)c5nc(c(-c6c(F)c(F)c(F)c(F)c6F)c6ccc3[nH]6)C=C5)C=C4)cc2)c1
REMARK SMILES IDX 22 1 21 2 20 3 18 4 19 5 17 7 14 8 15 9 91 10 16 11 11 13
REMARK SMILES IDX 12 14 13 15 10 16 1 17 2 18 3 19 4 20 9 21 5 22 8 23 6 24
REMARK SMILES IDX 7 25 23 26 24 27 25 28 26 29 27 31 28 32 29 33 90 34 30 35
REMARK SMILES IDX 89 36 31 37 32 38 33 39 83 40 34 41 88 42 82 43 84 44 35 45
REMARK SMILES IDX 87 46 81 47 80 48 36 50 68 51 48 52 67 53 49 54 52 55 66 56
REMARK SMILES IDX 85 57 50 58 51 59 65 61 86 62 53 63 37 64 38 65 46 66 39 67
REMARK SMILES IDX 40 68 44 69 47 70 41 71 42 72 45 73 43 74 69 75 70 76 78 77
REMARK SMILES IDX 71 78 72 79 76 80 79 81 73 82 74 83 77 84 75 85 54 86 55 87
REMARK SMILES IDX 63 88 56 89 57 90 61 91 64 92 58 93 59 94 62 95 60 96
REMARK H PARENT 20 6 16 12 25 30 84 49 52 60
REMARK Flexibility Score: inf
ROOT
ATOM      1  C   UNL A   1      32.902  29.657  25.010  1.00  0.00     0.023 C 
ENDROOT
BRANCH   1   2
ATOM      2  C   UNL A   1      31.377  29.598  25.021  1.00  0.00     0.116 C 
BRANCH   2   3
ATOM      3  N   UNL A   1      30.832  29.857  23.706  1.00  0.00    -0.351 N 
ATOM      4  C   UNL A   1      30.647  29.035  22.631  1.00  0.00     0.267 C 
ATOM      5  O   UNL A   1      29.977  29.481  21.698  1.00  0.00    -0.268 OA
ATOM      6  H   UNL A   1      30.544  30.787  23.561  1.00  0.00     0.163 HD
BRANCH   4   7
ATOM      7  C   UNL A   1      31.191  27.696  22.581  1.00  0.00     0.105 A 
ATOM      8  C   UNL A   1      31.804  25.515  22.767  1.00  0.00     0.106 A 
ATOM      9  C   UNL A   1      32.804  26.182  22.093  1.00  0.00     0.105 A 
ATOM     10  C   UNL A   1      30.790  26.460  23.068  1.00  0.00     0.055 A 
ATOM     11  N   UNL A   1      32.432  27.491  21.998  1.00  0.00    -0.356 N 
ATOM     12  H   UNL A   1      32.972  28.196  21.574  1.00  0.00     0.166 HD
BRANCH   8  13
ATOM     13  S   UNL A   1      31.825  23.862  23.268  1.00  0.00     0.266 S 
ATOM     14  O   UNL A   1      32.819  23.247  22.420  1.00  0.00    -0.201 OA
ATOM     15  O   UNL A   1      30.428  23.465  23.191  1.00  0.00    -0.201 OA
BRANCH  13  16
ATOM     16  N   UNL A   1      32.315  23.709  24.902  1.00  0.00    -0.263 N 
ATOM     17  C   UNL A   1      30.450  22.903  26.348  1.00  0.00     0.032 C 
ATOM     18  C   UNL A   1      31.686  22.492  25.563  1.00  0.00     0.101 C 
ATOM     19  C   UNL A   1      32.774  21.863  26.460  1.00  0.00     0.063 C 
ATOM     20  C   UNL A   1      34.009  22.596  26.059  1.00  0.00    -0.021 A 
ATOM     21  C   UNL A   1      33.720  23.644  25.193  1.00  0.00     0.055 A 
ATOM     22  C   UNL A   1      35.301  22.371  26.515  1.00  0.00     0.006 A 
ATOM     23  C   UNL A   1      34.709  24.558  24.866  1.00  0.00     0.027 A 
ATOM     24  C   UNL A   1      36.315  23.244  26.117  1.00  0.00     0.000 A 
ATOM     25  C   UNL A   1      36.017  24.343  25.307  1.00  0.00     0.002 A 
ENDBRANCH  13  16
ENDBRANCH   8  13
ENDBRANCH   4   7
ENDBRANCH   2   3
ENDBRANCH   1   2
BRANCH   1  26
ATOM     26  C   UNL A   1      33.572  28.469  25.708  1.00  0.00     0.023 C 
BRANCH  26  27
ATOM     27  C   UNL A   1      33.634  28.588  27.235  1.00  0.00     0.116 C 
BRANCH  27  28
ATOM     28  N   UNL A   1      33.667  29.953  27.728  1.00  0.00    -0.352 N 
ATOM     29  C   UNL A   1      34.660  30.783  28.180  1.00  0.00     0.251 C 
ATOM     30  H   UNL A   1      32.779  30.377  27.741  1.00  0.00     0.163 HD
ATOM     31  O   UNL A   1      34.343  31.946  28.434  1.00  0.00    -0.269 OA
BRANCH  29  32
ATOM     32  C   UNL A   1      36.059  30.350  28.440  1.00  0.00     0.039 A 
ATOM     33  C   UNL A   1      37.060  30.302  27.474  1.00  0.00     0.014 A 
ATOM     34  C   UNL A   1      36.367  29.937  29.751  1.00  0.00     0.014 A 
ATOM     35  C   UNL A   1      38.293  29.744  27.761  1.00  0.00     0.010 A 
ATOM     36  C   UNL A   1      37.622  29.418  30.065  1.00  0.00     0.010 A 
ATOM     37  C   UNL A   1      38.568  29.289  29.050  1.00  0.00    -0.014 A 
BRANCH  37  38
ATOM     38  C   UNL A   1      39.919  28.731  29.255  1.00  0.00     0.031 A 
ATOM     39  C   UNL A   1      40.964  29.838  29.397  1.00  0.00     0.074 A 
ATOM     40  C   UNL A   1      40.023  27.382  29.089  1.00  0.00     0.049 A 
ATOM     41  N   UNL A   1      42.146  29.957  28.865  1.00  0.00    -0.248 NA
ATOM     42  C   UNL A   1      40.567  31.067  30.133  1.00  0.00     0.031 C 
ATOM     43  C   UNL A   1      38.874  26.467  28.939  1.00  0.00     0.029 A 
ATOM     44  N   UNL A   1      41.083  26.514  28.967  1.00  0.00    -0.354 N 
ATOM     45  C   UNL A   1      42.683  31.183  29.308  1.00  0.00     0.074 A 
ATOM     46  C   UNL A   1      41.621  31.872  29.983  1.00  0.00     0.031 C 
ATOM     47  C   UNL A   1      39.290  25.215  28.665  1.00  0.00     0.029 A 
ATOM     48  C   UNL A   1      40.735  25.194  28.583  1.00  0.00     0.049 A 
ATOM     49  H   UNL A   1      42.014  26.788  29.136  1.00  0.00     0.167 HD
ATOM     50  C   UNL A   1      44.007  31.507  29.209  1.00  0.00     0.037 A 
ATOM     51  C   UNL A   1      41.548  24.191  28.126  1.00  0.00     0.037 A 
ATOM     52  C   UNL A   1      44.761  30.437  28.643  1.00  0.00     0.049 A 
ATOM     53  C   UNL A   1      42.896  24.795  28.089  1.00  0.00     0.074 A 
ATOM     54  C   UNL A   1      45.243  30.093  27.408  1.00  0.00     0.029 A 
ATOM     55  N   UNL A   1      45.081  29.427  29.510  1.00  0.00    -0.354 N 
ATOM     56  N   UNL A   1      43.622  25.100  29.120  1.00  0.00    -0.248 NA
ATOM     57  C   UNL A   1      43.386  25.263  26.792  1.00  0.00     0.031 C 
ATOM     58  C   UNL A   1      45.689  28.751  27.525  1.00  0.00     0.029 A 
ATOM     59  C   UNL A   1      45.313  28.288  28.784  1.00  0.00     0.049 A 
ATOM     60  H   UNL A   1      45.138  29.507  30.490  1.00  0.00     0.167 HD
ATOM     61  C   UNL A   1      44.513  26.033  28.630  1.00  0.00     0.074 A 
ATOM     62  C   UNL A   1      44.445  25.959  27.186  1.00  0.00     0.031 C 
ATOM     63  C   UNL A   1      44.970  27.039  29.415  1.00  0.00     0.037 A 
BRANCH  50  64
ATOM     64  C   UNL A   1      44.819  32.611  29.853  1.00  0.00     0.064 A 
ATOM     65  C   UNL A   1      44.914  32.629  31.269  1.00  0.00     0.173 A 
ATOM     66  C   UNL A   1      45.154  33.808  29.205  1.00  0.00     0.173 A 
ATOM     67  F   UNL A   1      44.692  31.517  31.986  1.00  0.00    -0.203 F 
ATOM     68  C   UNL A   1      45.162  33.801  31.984  1.00  0.00     0.198 A 
ATOM     69  C   UNL A   1      45.463  34.969  29.926  1.00  0.00     0.198 A 
ATOM     70  F   UNL A   1      45.094  33.914  27.871  1.00  0.00    -0.203 F 
ATOM     71  F   UNL A   1      45.087  33.794  33.323  1.00  0.00    -0.200 F 
ATOM     72  C   UNL A   1      45.418  34.976  31.311  1.00  0.00     0.200 A 
ATOM     73  F   UNL A   1      45.732  36.105  29.270  1.00  0.00    -0.200 F 
ATOM     74  F   UNL A   1      45.591  36.119  31.989  1.00  0.00    -0.200 F 
ENDBRANCH  50  64
BRANCH  51  75
ATOM     75  C   UNL A   1      41.360  22.850  27.448  1.00  0.00     0.064 A 
ATOM     76  C   UNL A   1      42.080  21.677  27.716  1.00  0.00     0.173 A 
ATOM     77  C   UNL A   1      40.299  22.673  26.517  1.00  0.00     0.173 A 
ATOM     78  F   UNL A   1      43.217  21.700  28.414  1.00  0.00    -0.203 F 
ATOM     79  C   UNL A   1      41.664  20.417  27.248  1.00  0.00     0.198 A 
ATOM     80  C   UNL A   1      39.864  21.421  26.077  1.00  0.00     0.198 A 
ATOM     81  F   UNL A   1      39.627  23.723  26.020  1.00  0.00    -0.203 F 
ATOM     82  F   UNL A   1      42.365  19.324  27.581  1.00  0.00    -0.200 F 
ATOM     83  C   UNL A   1      40.530  20.285  26.471  1.00  0.00     0.200 A 
ATOM     84  F   UNL A   1      38.775  21.330  25.299  1.00  0.00    -0.200 F 
ATOM     85  F   UNL A   1      40.093  19.077  26.092  1.00  0.00    -0.200 F 
ENDBRANCH  51  75
BRANCH  63  86
ATOM     86  C   UNL A   1      44.611  26.870  30.876  1.00  0.00     0.064 A 
ATOM     87  C   UNL A   1      45.353  26.024  31.702  1.00  0.00     0.173 A 
ATOM     88  C   UNL A   1      43.455  27.438  31.445  1.00  0.00     0.173 A 
ATOM     89  F   UNL A   1      46.462  25.435  31.232  1.00  0.00    -0.203 F 
ATOM     90  C   UNL A   1      44.962  25.771  33.021  1.00  0.00     0.198 A 
ATOM     91  C   UNL A   1      43.067  27.201  32.760  1.00  0.00     0.198 A 
ATOM     92  F   UNL A   1      42.686  28.254  30.728  1.00  0.00    -0.203 F 
ATOM     93  F   UNL A   1      45.696  24.954  33.788  1.00  0.00    -0.200 F 
ATOM     94  C   UNL A   1      43.822  26.360  33.550  1.00  0.00     0.200 A 
ATOM     95  F   UNL A   1      41.973  27.798  33.255  1.00  0.00    -0.200 F 
ATOM     96  F   UNL A   1      43.459  26.128  34.819  1.00  0.00    -0.200 F 
ENDBRANCH  63  86
ENDBRANCH  37  38
ENDBRANCH  29  32
ENDBRANCH  27  28
ENDBRANCH  26  27
ENDBRANCH   1  26
TORSDOF 13
ENDMDL
MODEL 3
REMARK VINA RESULT:     -12.1      3.907      6.894
REMARK SMILES C[C@@H]1Cc2ccccc2N1S(=O)(=O)c1c[nH]c(C(=O)NCCCCNC(=O)c2ccc(-c3c4nc(c(-c5c(F)c(F)c(F)c(F)c5F)c5ccc([nH]5)c(-c5c(F)c(F)c(F)c(F)c5F)c5nc(c(-c6c(F)c(F)c(F)c(F)c6F)c6ccc3[nH]6)C=C5)C=C4)cc2)c1
REMARK SMILES IDX 22 1 21 2 20 3 18 4 19 5 17 7 14 8 15 9 91 10 16 11 11 13
REMARK SMILES IDX 12 14 13 15 10 16 1 17 2 18 3 19 4 20 9 21 5 22 8 23 6 24
REMARK SMILES IDX 7 25 23 26 24 27 25 28 26 29 27 31 28 32 29 33 90 34 30 35
REMARK SMILES IDX 89 36 31 37 32 38 33 39 83 40 34 41 88 42 82 43 84 44 35 45
REMARK SMILES IDX 87 46 81 47 80 48 36 50 68 51 48 52 67 53 49 54 52 55 66 56
REMARK SMILES IDX 85 57 50 58 51 59 65 61 86 62 53 63 37 64 38 65 46 66 39 67
REMARK SMILES IDX 40 68 44 69 47 70 41 71 42 72 45 73 43 74 69 75 70 76 78 77
REMARK SMILES IDX 71 78 72 79 76 80 79 81 73 82 74 83 77 84 75 85 54 86 55 87
REMARK SMILES IDX 63 88 56 89 57 90 61 91 64 92 58 93 59 94 62 95 60 96
REMARK H PARENT 20 6 16 12 25 30 84 49 52 60
REMARK Flexibility Score: inf
ROOT
ATOM      1  C   UNL A   1      32.895  29.701  25.167  1.00  0.00     0.023 C 
ENDROOT
BRANCH   1   2
ATOM      2  C   UNL A   1      31.426  29.301  25.062  1.00  0.00     0.116 C 
BRANCH   2   3
ATOM      3  N   UNL A   1      30.898  29.582  23.745  1.00  0.00    -0.351 N 
ATOM      4  C   UNL A   1      30.781  28.794  22.635  1.00  0.00     0.267 C 
ATOM      5  O   UNL A   1      30.110  29.241  21.703  1.00  0.00    -0.268 OA
ATOM      6  H   UNL A   1      30.564  30.501  23.628  1.00  0.00     0.163 HD
BRANCH   4   7
ATOM      7  C   UNL A   1      31.397  27.489  22.548  1.00  0.00     0.105 A 
ATOM      8  C   UNL A   1      32.124  25.338  22.672  1.00  0.00     0.106 A 
ATOM      9  C   UNL A   1      33.091  26.078  22.027  1.00  0.00     0.105 A 
ATOM     10  C   UNL A   1      31.059  26.219  22.994  1.00  0.00     0.055 A 
ATOM     11  N   UNL A   1      32.650  27.369  21.970  1.00  0.00    -0.356 N 
ATOM     12  H   UNL A   1      33.155  28.114  21.572  1.00  0.00     0.166 HD
BRANCH   8  13
ATOM     13  S   UNL A   1      32.230  23.674  23.121  1.00  0.00     0.266 S 
ATOM     14  O   UNL A   1      32.857  23.039  21.986  1.00  0.00    -0.201 OA
ATOM     15  O   UNL A   1      30.869  23.338  23.508  1.00  0.00    -0.201 OA
BRANCH  13  16
ATOM     16  N   UNL A   1      33.225  23.460  24.498  1.00  0.00    -0.263 N 
ATOM     17  C   UNL A   1      31.897  23.528  26.609  1.00  0.00     0.032 C 
ATOM     18  C   UNL A   1      32.533  22.624  25.564  1.00  0.00     0.101 C 
ATOM     19  C   UNL A   1      33.608  21.691  26.164  1.00  0.00     0.063 C 
ATOM     20  C   UNL A   1      34.763  21.868  25.239  1.00  0.00    -0.021 A 
ATOM     21  C   UNL A   1      34.529  22.885  24.320  1.00  0.00     0.055 A 
ATOM     22  C   UNL A   1      35.980  21.200  25.282  1.00  0.00     0.006 A 
ATOM     23  C   UNL A   1      35.560  23.328  23.507  1.00  0.00     0.027 A 
ATOM     24  C   UNL A   1      36.992  21.591  24.404  1.00  0.00     0.000 A 
ATOM     25  C   UNL A   1      36.787  22.661  23.529  1.00  0.00     0.002 A 
ENDBRANCH  13  16
ENDBRANCH   8  13
ENDBRANCH   4   7
ENDBRANCH   2   3
ENDBRANCH   1   2
BRANCH   1  26
ATOM     26  C   UNL A   1      33.835  28.528  25.468  1.00  0.00     0.023 C 
BRANCH  26  27
ATOM     27  C   UNL A   1      34.181  28.363  26.952  1.00  0.00     0.116 C 
BRANCH  27  28
ATOM     28  N   UNL A   1      34.365  29.612  27.667  1.00  0.00    -0.352 N 
ATOM     29  C   UNL A   1      35.445  30.242  28.230  1.00  0.00     0.251 C 
ATOM     30  H   UNL A   1      33.529  30.122  27.770  1.00  0.00     0.163 HD
ATOM     31  O   UNL A   1      35.259  31.373  28.683  1.00  0.00    -0.269 OA
BRANCH  29  32
ATOM     32  C   UNL A   1      36.789  29.623  28.383  1.00  0.00     0.039 A 
ATOM     33  C   UNL A   1      37.192  28.882  29.491  1.00  0.00     0.014 A 
ATOM     34  C   UNL A   1      37.713  29.835  27.341  1.00  0.00     0.014 A 
ATOM     35  C   UNL A   1      38.506  28.471  29.625  1.00  0.00     0.010 A 
ATOM     36  C   UNL A   1      39.028  29.383  27.444  1.00  0.00     0.010 A 
ATOM     37  C   UNL A   1      39.425  28.733  28.610  1.00  0.00    -0.014 A 
BRANCH  37  38
ATOM     38  C   UNL A   1      40.793  28.233  28.843  1.00  0.00     0.031 A 
ATOM     39  C   UNL A   1      40.988  26.839  28.245  1.00  0.00     0.074 A 
ATOM     40  C   UNL A   1      41.553  28.986  29.689  1.00  0.00     0.049 A 
ATOM     41  N   UNL A   1      41.554  25.778  28.743  1.00  0.00    -0.248 NA
ATOM     42  C   UNL A   1      40.320  26.548  26.949  1.00  0.00     0.031 C 
ATOM     43  C   UNL A   1      41.174  30.324  30.186  1.00  0.00     0.029 A 
ATOM     44  N   UNL A   1      42.751  28.782  30.335  1.00  0.00    -0.354 N 
ATOM     45  C   UNL A   1      41.439  24.753  27.782  1.00  0.00     0.074 A 
ATOM     46  C   UNL A   1      40.568  25.251  26.757  1.00  0.00     0.031 C 
ATOM     47  C   UNL A   1      42.059  30.764  31.101  1.00  0.00     0.029 A 
ATOM     48  C   UNL A   1      43.077  29.758  31.311  1.00  0.00     0.049 A 
ATOM     49  H   UNL A   1      43.338  28.018  30.133  1.00  0.00     0.167 HD
ATOM     50  C   UNL A   1      42.171  23.599  27.817  1.00  0.00     0.037 A 
ATOM     51  C   UNL A   1      44.034  29.704  32.290  1.00  0.00     0.037 A 
ATOM     52  C   UNL A   1      43.078  23.595  28.919  1.00  0.00     0.049 A 
ATOM     53  C   UNL A   1      44.653  28.372  32.131  1.00  0.00     0.074 A 
ATOM     54  C   UNL A   1      43.107  23.090  30.192  1.00  0.00     0.029 A 
ATOM     55  N   UNL A   1      44.229  24.310  28.728  1.00  0.00    -0.354 N 
ATOM     56  N   UNL A   1      45.431  28.006  31.160  1.00  0.00    -0.248 NA
ATOM     57  C   UNL A   1      44.209  27.314  33.039  1.00  0.00     0.031 C 
ATOM     58  C   UNL A   1      44.225  23.695  30.823  1.00  0.00     0.029 A 
ATOM     59  C   UNL A   1      44.732  24.658  29.955  1.00  0.00     0.049 A 
ATOM     60  H   UNL A   1      44.630  24.534  27.857  1.00  0.00     0.167 HD
ATOM     61  C   UNL A   1      45.350  26.628  31.176  1.00  0.00     0.074 A 
ATOM     62  C   UNL A   1      44.746  26.258  32.440  1.00  0.00     0.031 C 
ATOM     63  C   UNL A   1      45.441  25.910  30.030  1.00  0.00     0.037 A 
BRANCH  50  64
ATOM     64  C   UNL A   1      42.406  22.529  26.772  1.00  0.00     0.064 A 
ATOM     65  C   UNL A   1      41.864  21.239  27.006  1.00  0.00     0.173 A 
ATOM     66  C   UNL A   1      43.417  22.598  25.804  1.00  0.00     0.173 A 
ATOM     67  F   UNL A   1      40.839  21.069  27.855  1.00  0.00    -0.203 F 
ATOM     68  C   UNL A   1      42.408  20.088  26.437  1.00  0.00     0.198 A 
ATOM     69  C   UNL A   1      43.920  21.445  25.187  1.00  0.00     0.198 A 
ATOM     70  F   UNL A   1      44.010  23.760  25.503  1.00  0.00    -0.203 F 
ATOM     71  F   UNL A   1      41.958  18.881  26.811  1.00  0.00    -0.200 F 
ATOM     72  C   UNL A   1      43.450  20.190  25.540  1.00  0.00     0.200 A 
ATOM     73  F   UNL A   1      44.918  21.549  24.301  1.00  0.00    -0.200 F 
ATOM     74  F   UNL A   1      44.021  19.086  25.040  1.00  0.00    -0.200 F 
ENDBRANCH  50  64
BRANCH  51  75
ATOM     75  C   UNL A   1      44.367  30.488  33.543  1.00  0.00     0.064 A 
ATOM     76  C   UNL A   1      43.529  30.675  34.651  1.00  0.00     0.173 A 
ATOM     77  C   UNL A   1      45.675  31.018  33.715  1.00  0.00     0.173 A 
ATOM     78  F   UNL A   1      42.222  30.410  34.591  1.00  0.00    -0.203 F 
ATOM     79  C   UNL A   1      44.006  31.172  35.877  1.00  0.00     0.198 A 
ATOM     80  C   UNL A   1      46.161  31.482  34.939  1.00  0.00     0.198 A 
ATOM     81  F   UNL A   1      46.541  31.080  32.692  1.00  0.00    -0.203 F 
ATOM     82  F   UNL A   1      43.168  31.280  36.919  1.00  0.00    -0.200 F 
ATOM     83  C   UNL A   1      45.331  31.528  36.034  1.00  0.00     0.200 A 
ATOM     84  F   UNL A   1      47.446  31.849  35.050  1.00  0.00    -0.200 F 
ATOM     85  F   UNL A   1      45.800  31.928  37.224  1.00  0.00    -0.200 F 
ENDBRANCH  51  75
BRANCH  63  86
ATOM     86  C   UNL A   1      45.880  26.737  28.839  1.00  0.00     0.064 A 
ATOM     87  C   UNL A   1      47.231  27.012  28.618  1.00  0.00     0.173 A 
ATOM     88  C   UNL A   1      44.966  27.374  27.979  1.00  0.00     0.173 A 
ATOM     89  F   UNL A   1      48.164  26.453  29.401  1.00  0.00    -0.203 F 
ATOM     90  C   UNL A   1      47.638  27.870  27.590  1.00  0.00     0.198 A 
ATOM     91  C   UNL A   1      45.364  28.217  26.946  1.00  0.00     0.198 A 
ATOM     92  F   UNL A   1      43.658  27.171  28.120  1.00  0.00    -0.203 F 
ATOM     93  F   UNL A   1      48.941  28.113  27.403  1.00  0.00    -0.200 F 
ATOM     94  C   UNL A   1      46.706  28.469  26.754  1.00  0.00     0.200 A 
ATOM     95  F   UNL A   1      44.446  28.769  26.138  1.00  0.00    -0.200 F 
ATOM     96  F   UNL A   1      47.100  29.277  25.760  1.00  0.00    -0.200 F 
ENDBRANCH  63  86
ENDBRANCH  37  38
ENDBRANCH  29  32
ENDBRANCH  27  28
ENDBRANCH  26  27
ENDBRANCH   1  26
TORSDOF 13
ENDMDL
