MODEL 1
REMARK VINA RESULT:     -10.5      0.000      0.000
REMARK SMILES CCN(CCC#N)C(=O)c1ccncc1/C=C/C(=O)NCCCCNC(=O)c1ccc(-c2c3nc(c(-c4c(F)c(F)c(F)c(F)c4F)c4ccc([nH]4)c(-c4c(F)c(F)c(F)c(F)c4F)c4nc(c(-c5c(F)c(F)c(F)c(F)c5F)c5ccc2[nH]5)C=C4)C=C3)cc1
REMARK SMILES IDX 18 1 19 2 20 3 17 5 16 6 15 7 10 8 11 9 12 10 14 11 13 12
REMARK SMILES IDX 8 13 9 14 3 15 2 16 1 17 4 18 5 19 6 20 7 21 21 22 22 23
REMARK SMILES IDX 23 24 24 25 25 26 26 27 27 29 28 30 29 31 90 32 30 33 89 34
REMARK SMILES IDX 31 35 32 36 33 37 83 38 34 39 88 40 82 41 84 42 35 43 87 44
REMARK SMILES IDX 81 45 80 46 36 48 68 49 48 50 67 51 49 52 52 53 66 54 85 55
REMARK SMILES IDX 50 56 51 57 65 59 86 60 53 61 37 62 38 63 46 64 39 65 40 66
REMARK SMILES IDX 44 67 47 68 41 69 42 70 45 71 43 72 69 73 70 74 78 75 71 76
REMARK SMILES IDX 72 77 76 78 79 79 73 80 74 81 77 82 75 83 54 84 55 85 63 86
REMARK SMILES IDX 56 87 57 88 61 89 64 90 58 91 59 92 62 93 60 94
REMARK H PARENT 20 4 25 28 84 47 52 58
REMARK Flexibility Score: inf
ROOT
ATOM      1  C   UNL A   1      32.865  25.941  21.606  1.00  0.00     0.244 C 
ATOM      2  O   UNL A   1      33.274  25.946  20.447  1.00  0.00    -0.270 OA
ATOM      3  N   UNL A   1      32.404  27.093  22.157  1.00  0.00    -0.353 N 
ATOM      4  H   UNL A   1      32.439  27.882  21.569  1.00  0.00     0.163 HD
ENDROOT
BRANCH   1   5
ATOM      5  C   UNL A   1      32.769  24.653  22.336  1.00  0.00     0.072 C 
ATOM      6  C   UNL A   1      33.332  23.478  22.001  1.00  0.00     0.016 C 
BRANCH   6   7
ATOM      7  C   UNL A   1      33.261  22.297  22.875  1.00  0.00     0.006 A 
ATOM      8  C   UNL A   1      34.227  21.975  23.844  1.00  0.00     0.050 A 
ATOM      9  C   UNL A   1      33.957  20.962  24.762  1.00  0.00     0.034 A 
ATOM     10  C   UNL A   1      32.850  20.162  24.575  1.00  0.00     0.112 A 
ATOM     11  C   UNL A   1      32.170  21.429  22.784  1.00  0.00     0.119 A 
ATOM     12  N   UNL A   1      31.966  20.356  23.582  1.00  0.00    -0.264 NA
BRANCH   8  13
ATOM     13  C   UNL A   1      35.494  22.735  24.037  1.00  0.00     0.254 C 
ATOM     14  O   UNL A   1      36.375  22.588  23.193  1.00  0.00    -0.269 OA
BRANCH  13  15
ATOM     15  N   UNL A   1      35.645  23.599  25.144  1.00  0.00    -0.338 N 
BRANCH  15  16
ATOM     16  C   UNL A   1      36.675  23.248  26.137  1.00  0.00     0.116 C 
ATOM     17  C   UNL A   1      37.951  24.072  26.025  1.00  0.00     0.027 C 
ENDBRANCH  15  16
BRANCH  15  18
ATOM     18  C   UNL A   1      34.778  24.754  25.476  1.00  0.00     0.135 C 
BRANCH  18  19
ATOM     19  C   UNL A   1      33.659  24.470  26.497  1.00  0.00     0.141 C 
BRANCH  19  20
ATOM     20  C   UNL A   1      32.327  24.324  25.897  1.00  0.00     0.064 C 
ATOM     21  N   UNL A   1      31.278  24.191  25.425  1.00  0.00    -0.198 NA
ENDBRANCH  19  20
ENDBRANCH  18  19
ENDBRANCH  15  18
ENDBRANCH  13  15
ENDBRANCH   8  13
ENDBRANCH   6   7
ENDBRANCH   1   5
BRANCH   3  22
ATOM     22  C   UNL A   1      31.870  27.337  23.480  1.00  0.00     0.116 C 
BRANCH  22  23
ATOM     23  C   UNL A   1      32.989  27.797  24.414  1.00  0.00     0.023 C 
BRANCH  23  24
ATOM     24  C   UNL A   1      32.962  29.293  24.714  1.00  0.00     0.023 C 
BRANCH  24  25
ATOM     25  C   UNL A   1      32.868  29.629  26.194  1.00  0.00     0.116 C 
BRANCH  25  26
ATOM     26  N   UNL A   1      32.623  31.042  26.446  1.00  0.00    -0.352 N 
ATOM     27  C   UNL A   1      33.337  31.887  27.260  1.00  0.00     0.251 C 
ATOM     28  H   UNL A   1      31.855  31.439  25.977  1.00  0.00     0.163 HD
ATOM     29  O   UNL A   1      32.931  33.017  27.507  1.00  0.00    -0.269 OA
BRANCH  27  30
ATOM     30  C   UNL A   1      34.591  31.392  27.862  1.00  0.00     0.039 A 
ATOM     31  C   UNL A   1      35.673  32.263  27.986  1.00  0.00     0.014 A 
ATOM     32  C   UNL A   1      34.672  30.084  28.347  1.00  0.00     0.014 A 
ATOM     33  C   UNL A   1      36.827  31.828  28.637  1.00  0.00     0.010 A 
ATOM     34  C   UNL A   1      35.780  29.690  29.086  1.00  0.00     0.010 A 
ATOM     35  C   UNL A   1      36.880  30.547  29.215  1.00  0.00    -0.014 A 
BRANCH  35  36
ATOM     36  C   UNL A   1      38.103  30.079  29.916  1.00  0.00     0.031 A 
ATOM     37  C   UNL A   1      38.398  30.563  31.311  1.00  0.00     0.074 A 
ATOM     38  C   UNL A   1      38.955  29.242  29.292  1.00  0.00     0.049 A 
ATOM     39  N   UNL A   1      39.412  30.275  32.089  1.00  0.00    -0.248 NA
ATOM     40  C   UNL A   1      37.447  31.519  31.905  1.00  0.00     0.031 C 
ATOM     41  C   UNL A   1      38.806  28.751  27.920  1.00  0.00     0.029 A 
ATOM     42  N   UNL A   1      40.117  28.658  29.729  1.00  0.00    -0.354 N 
ATOM     43  C   UNL A   1      39.223  31.020  33.246  1.00  0.00     0.074 A 
ATOM     44  C   UNL A   1      38.038  31.821  33.050  1.00  0.00     0.031 C 
ATOM     45  C   UNL A   1      39.818  27.913  27.641  1.00  0.00     0.029 A 
ATOM     46  C   UNL A   1      40.710  27.842  28.794  1.00  0.00     0.049 A 
ATOM     47  H   UNL A   1      40.490  28.808  30.627  1.00  0.00     0.167 HD
ATOM     48  C   UNL A   1      39.958  31.014  34.383  1.00  0.00     0.037 A 
ATOM     49  C   UNL A   1      41.849  27.127  28.862  1.00  0.00     0.037 A 
ATOM     50  C   UNL A   1      41.123  30.194  34.584  1.00  0.00     0.049 A 
ATOM     51  C   UNL A   1      42.643  27.141  30.142  1.00  0.00     0.074 A 
ATOM     52  C   UNL A   1      41.899  30.067  35.722  1.00  0.00     0.029 A 
ATOM     53  N   UNL A   1      41.683  29.368  33.622  1.00  0.00    -0.354 N 
ATOM     54  N   UNL A   1      42.408  27.784  31.261  1.00  0.00    -0.248 NA
ATOM     55  C   UNL A   1      43.856  26.313  30.175  1.00  0.00     0.031 C 
ATOM     56  C   UNL A   1      42.972  29.222  35.426  1.00  0.00     0.029 A 
ATOM     57  C   UNL A   1      42.812  28.749  34.133  1.00  0.00     0.049 A 
ATOM     58  H   UNL A   1      41.329  29.238  32.712  1.00  0.00     0.167 HD
ATOM     59  C   UNL A   1      43.413  27.404  32.141  1.00  0.00     0.074 A 
ATOM     60  C   UNL A   1      44.249  26.459  31.431  1.00  0.00     0.031 C 
ATOM     61  C   UNL A   1      43.625  27.797  33.421  1.00  0.00     0.037 A 
BRANCH  48  62
ATOM     62  C   UNL A   1      39.534  31.921  35.503  1.00  0.00     0.064 A 
ATOM     63  C   UNL A   1      40.017  33.233  35.618  1.00  0.00     0.173 A 
ATOM     64  C   UNL A   1      38.573  31.493  36.432  1.00  0.00     0.173 A 
ATOM     65  F   UNL A   1      40.949  33.689  34.766  1.00  0.00    -0.203 F 
ATOM     66  C   UNL A   1      39.566  34.077  36.630  1.00  0.00     0.198 A 
ATOM     67  C   UNL A   1      38.097  32.351  37.419  1.00  0.00     0.198 A 
ATOM     68  F   UNL A   1      38.076  30.248  36.367  1.00  0.00    -0.203 F 
ATOM     69  F   UNL A   1      40.071  35.313  36.745  1.00  0.00    -0.200 F 
ATOM     70  C   UNL A   1      38.597  33.640  37.521  1.00  0.00     0.200 A 
ATOM     71  F   UNL A   1      37.148  31.931  38.267  1.00  0.00    -0.200 F 
ATOM     72  F   UNL A   1      38.146  34.461  38.478  1.00  0.00    -0.200 F 
ENDBRANCH  48  62
BRANCH  49  73
ATOM     73  C   UNL A   1      42.313  26.332  27.691  1.00  0.00     0.064 A 
ATOM     74  C   UNL A   1      41.794  25.056  27.422  1.00  0.00     0.173 A 
ATOM     75  C   UNL A   1      43.328  26.808  26.848  1.00  0.00     0.173 A 
ATOM     76  F   UNL A   1      40.833  24.545  28.206  1.00  0.00    -0.203 F 
ATOM     77  C   UNL A   1      42.309  24.269  26.394  1.00  0.00     0.198 A 
ATOM     78  C   UNL A   1      43.812  26.038  25.794  1.00  0.00     0.198 A 
ATOM     79  F   UNL A   1      43.853  28.025  27.050  1.00  0.00    -0.203 F 
ATOM     80  F   UNL A   1      41.852  23.023  26.213  1.00  0.00    -0.200 F 
ATOM     81  C   UNL A   1      43.316  24.762  25.577  1.00  0.00     0.200 A 
ATOM     82  F   UNL A   1      44.771  26.528  24.995  1.00  0.00    -0.200 F 
ATOM     83  F   UNL A   1      43.817  24.002  24.595  1.00  0.00    -0.200 F 
ENDBRANCH  49  73
BRANCH  61  84
ATOM     84  C   UNL A   1      44.760  27.148  34.164  1.00  0.00     0.064 A 
ATOM     85  C   UNL A   1      44.614  25.926  34.838  1.00  0.00     0.173 A 
ATOM     86  C   UNL A   1      46.022  27.763  34.192  1.00  0.00     0.173 A 
ATOM     87  F   UNL A   1      43.428  25.298  34.851  1.00  0.00    -0.203 F 
ATOM     88  C   UNL A   1      45.672  25.374  35.557  1.00  0.00     0.198 A 
ATOM     89  C   UNL A   1      47.089  27.184  34.872  1.00  0.00     0.198 A 
ATOM     90  F   UNL A   1      46.225  28.924  33.552  1.00  0.00    -0.203 F 
ATOM     91  F   UNL A   1      45.484  24.249  36.261  1.00  0.00    -0.200 F 
ATOM     92  C   UNL A   1      46.908  26.000  35.569  1.00  0.00     0.200 A 
ATOM     93  F   UNL A   1      48.290  27.778  34.860  1.00  0.00    -0.200 F 
ATOM     94  F   UNL A   1      47.924  25.466  36.261  1.00  0.00    -0.200 F 
ENDBRANCH  61  84
ENDBRANCH  35  36
ENDBRANCH  27  30
ENDBRANCH  25  26
ENDBRANCH  24  25
ENDBRANCH  23  24
ENDBRANCH  22  23
ENDBRANCH   3  22
TORSDOF 18
ENDMDL
MODEL 2
REMARK VINA RESULT:     -10.1      1.855      3.306
REMARK SMILES CCN(CCC#N)C(=O)c1ccncc1/C=C/C(=O)NCCCCNC(=O)c1ccc(-c2c3nc(c(-c4c(F)c(F)c(F)c(F)c4F)c4ccc([nH]4)c(-c4c(F)c(F)c(F)c(F)c4F)c4nc(c(-c5c(F)c(F)c(F)c(F)c5F)c5ccc2[nH]5)C=C4)C=C3)cc1
REMARK SMILES IDX 18 1 19 2 20 3 17 5 16 6 15 7 10 8 11 9 12 10 14 11 13 12
REMARK SMILES IDX 8 13 9 14 3 15 2 16 1 17 4 18 5 19 6 20 7 21 21 22 22 23
REMARK SMILES IDX 23 24 24 25 25 26 26 27 27 29 28 30 29 31 90 32 30 33 89 34
REMARK SMILES IDX 31 35 32 36 33 37 83 38 34 39 88 40 82 41 84 42 35 43 87 44
REMARK SMILES IDX 81 45 80 46 36 48 68 49 48 50 67 51 49 52 52 53 66 54 85 55
REMARK SMILES IDX 50 56 51 57 65 59 86 60 53 61 37 62 38 63 46 64 39 65 40 66
REMARK SMILES IDX 44 67 47 68 41 69 42 70 45 71 43 72 69 73 70 74 78 75 71 76
REMARK SMILES IDX 72 77 76 78 79 79 73 80 74 81 77 82 75 83 54 84 55 85 63 86
REMARK SMILES IDX 56 87 57 88 61 89 64 90 58 91 59 92 62 93 60 94
REMARK H PARENT 20 4 25 28 84 47 52 58
REMARK Flexibility Score: inf
ROOT
ATOM      1  C   UNL A   1      30.669  27.994  24.496  1.00  0.00     0.244 C 
ATOM      2  O   UNL A   1      29.856  27.746  23.608  1.00  0.00    -0.270 OA
ATOM      3  N   UNL A   1      30.910  29.286  24.838  1.00  0.00    -0.353 N 
ATOM      4  H   UNL A   1      30.402  29.957  24.327  1.00  0.00     0.163 HD
ENDROOT
BRANCH   1   5
ATOM      5  C   UNL A   1      31.277  26.875  25.256  1.00  0.00     0.072 C 
ATOM      6  C   UNL A   1      30.921  25.578  25.231  1.00  0.00     0.016 C 
BRANCH   6   7
ATOM      7  C   UNL A   1      31.684  24.541  25.942  1.00  0.00     0.006 A 
ATOM      8  C   UNL A   1      33.063  24.325  25.778  1.00  0.00     0.050 A 
ATOM      9  C   UNL A   1      33.726  23.469  26.654  1.00  0.00     0.034 A 
ATOM     10  C   UNL A   1      32.988  22.695  27.526  1.00  0.00     0.112 A 
ATOM     11  C   UNL A   1      31.039  23.714  26.865  1.00  0.00     0.119 A 
ATOM     12  N   UNL A   1      31.651  22.778  27.626  1.00  0.00    -0.264 NA
BRANCH   8  13
ATOM     13  C   UNL A   1      33.904  25.054  24.788  1.00  0.00     0.254 C 
ATOM     14  O   UNL A   1      34.588  25.987  25.204  1.00  0.00    -0.269 OA
BRANCH  13  15
ATOM     15  N   UNL A   1      33.913  24.658  23.432  1.00  0.00    -0.338 N 
BRANCH  15  16
ATOM     16  C   UNL A   1      33.644  25.699  22.424  1.00  0.00     0.116 C 
ATOM     17  C   UNL A   1      32.248  25.630  21.819  1.00  0.00     0.027 C 
ENDBRANCH  15  16
BRANCH  15  18
ATOM     18  C   UNL A   1      34.035  23.271  22.927  1.00  0.00     0.135 C 
BRANCH  18  19
ATOM     19  C   UNL A   1      32.702  22.531  22.697  1.00  0.00     0.141 C 
BRANCH  19  20
ATOM     20  C   UNL A   1      32.362  21.571  23.754  1.00  0.00     0.064 C 
ATOM     21  N   UNL A   1      32.083  20.827  24.596  1.00  0.00    -0.198 NA
ENDBRANCH  19  20
ENDBRANCH  18  19
ENDBRANCH  15  18
ENDBRANCH  13  15
ENDBRANCH   8  13
ENDBRANCH   6   7
ENDBRANCH   1   5
BRANCH   3  22
ATOM     22  C   UNL A   1      31.802  29.826  25.843  1.00  0.00     0.116 C 
BRANCH  22  23
ATOM     23  C   UNL A   1      31.400  31.262  26.174  1.00  0.00     0.023 C 
BRANCH  23  24
ATOM     24  C   UNL A   1      32.158  31.853  27.360  1.00  0.00     0.023 C 
BRANCH  24  25
ATOM     25  C   UNL A   1      33.046  33.035  27.005  1.00  0.00     0.116 C 
BRANCH  25  26
ATOM     26  N   UNL A   1      32.621  34.279  27.630  1.00  0.00    -0.352 N 
ATOM     27  C   UNL A   1      33.083  34.834  28.798  1.00  0.00     0.251 C 
ATOM     28  H   UNL A   1      31.919  34.782  27.159  1.00  0.00     0.163 HD
ATOM     29  O   UNL A   1      32.529  35.808  29.296  1.00  0.00    -0.269 OA
BRANCH  27  30
ATOM     30  C   UNL A   1      34.245  34.211  29.463  1.00  0.00     0.039 A 
ATOM     31  C   UNL A   1      34.027  33.234  30.434  1.00  0.00     0.014 A 
ATOM     32  C   UNL A   1      35.544  34.561  29.085  1.00  0.00     0.014 A 
ATOM     33  C   UNL A   1      35.120  32.579  30.998  1.00  0.00     0.010 A 
ATOM     34  C   UNL A   1      36.623  33.833  29.570  1.00  0.00     0.010 A 
ATOM     35  C   UNL A   1      36.426  32.853  30.552  1.00  0.00    -0.014 A 
BRANCH  35  36
ATOM     36  C   UNL A   1      37.595  32.154  31.143  1.00  0.00     0.031 A 
ATOM     37  C   UNL A   1      38.078  32.535  32.518  1.00  0.00     0.074 A 
ATOM     38  C   UNL A   1      38.233  31.200  30.438  1.00  0.00     0.049 A 
ATOM     39  N   UNL A   1      39.081  32.048  33.206  1.00  0.00    -0.248 NA
ATOM     40  C   UNL A   1      37.361  33.625  33.203  1.00  0.00     0.031 C 
ATOM     41  C   UNL A   1      37.894  30.786  29.074  1.00  0.00     0.029 A 
ATOM     42  N   UNL A   1      39.302  30.406  30.770  1.00  0.00    -0.354 N 
ATOM     43  C   UNL A   1      39.117  32.778  34.387  1.00  0.00     0.074 A 
ATOM     44  C   UNL A   1      38.082  33.782  34.302  1.00  0.00     0.031 C 
ATOM     45  C   UNL A   1      38.716  29.792  28.700  1.00  0.00     0.029 A 
ATOM     46  C   UNL A   1      39.666  29.528  29.776  1.00  0.00     0.049 A 
ATOM     47  H   UNL A   1      39.764  30.460  31.637  1.00  0.00     0.167 HD
ATOM     48  C   UNL A   1      39.924  32.606  35.460  1.00  0.00     0.037 A 
ATOM     49  C   UNL A   1      40.661  28.621  29.739  1.00  0.00     0.037 A 
ATOM     50  C   UNL A   1      40.936  31.588  35.552  1.00  0.00     0.049 A 
ATOM     51  C   UNL A   1      41.541  28.455  30.951  1.00  0.00     0.074 A 
ATOM     52  C   UNL A   1      41.761  31.290  36.622  1.00  0.00     0.029 A 
ATOM     53  N   UNL A   1      41.263  30.706  34.534  1.00  0.00    -0.354 N 
ATOM     54  N   UNL A   1      41.511  29.094  32.095  1.00  0.00    -0.248 NA
ATOM     55  C   UNL A   1      42.586  27.425  30.871  1.00  0.00     0.031 C 
ATOM     56  C   UNL A   1      42.640  30.279  36.225  1.00  0.00     0.029 A 
ATOM     57  C   UNL A   1      42.300  29.882  34.942  1.00  0.00     0.049 A 
ATOM     58  H   UNL A   1      40.824  30.670  33.654  1.00  0.00     0.167 HD
ATOM     59  C   UNL A   1      42.496  28.515  32.884  1.00  0.00     0.074 A 
ATOM     60  C   UNL A   1      43.093  27.460  32.094  1.00  0.00     0.031 C 
ATOM     61  C   UNL A   1      42.872  28.824  34.150  1.00  0.00     0.037 A 
BRANCH  48  62
ATOM     62  C   UNL A   1      39.756  33.539  36.626  1.00  0.00     0.064 A 
ATOM     63  C   UNL A   1      40.429  34.768  36.697  1.00  0.00     0.173 A 
ATOM     64  C   UNL A   1      38.851  33.228  37.653  1.00  0.00     0.173 A 
ATOM     65  F   UNL A   1      41.317  35.109  35.750  1.00  0.00    -0.203 F 
ATOM     66  C   UNL A   1      40.213  35.644  37.758  1.00  0.00     0.198 A 
ATOM     67  C   UNL A   1      38.611  34.122  38.693  1.00  0.00     0.198 A 
ATOM     68  F   UNL A   1      38.179  32.066  37.635  1.00  0.00    -0.203 F 
ATOM     69  F   UNL A   1      40.896  36.795  37.824  1.00  0.00    -0.200 F 
ATOM     70  C   UNL A   1      39.295  35.326  38.747  1.00  0.00     0.200 A 
ATOM     71  F   UNL A   1      37.710  33.820  39.638  1.00  0.00    -0.200 F 
ATOM     72  F   UNL A   1      39.070  36.181  39.754  1.00  0.00    -0.200 F 
ENDBRANCH  48  62
BRANCH  49  73
ATOM     73  C   UNL A   1      40.885  27.794  28.521  1.00  0.00     0.064 A 
ATOM     74  C   UNL A   1      41.767  28.205  27.510  1.00  0.00     0.173 A 
ATOM     75  C   UNL A   1      40.177  26.600  28.315  1.00  0.00     0.173 A 
ATOM     76  F   UNL A   1      42.458  29.346  27.648  1.00  0.00    -0.203 F 
ATOM     77  C   UNL A   1      41.890  27.486  26.323  1.00  0.00     0.198 A 
ATOM     78  C   UNL A   1      40.333  25.860  27.146  1.00  0.00     0.198 A 
ATOM     79  F   UNL A   1      39.328  26.152  29.252  1.00  0.00    -0.203 F 
ATOM     80  F   UNL A   1      42.677  27.948  25.341  1.00  0.00    -0.200 F 
ATOM     81  C   UNL A   1      41.175  26.311  26.143  1.00  0.00     0.200 A 
ATOM     82  F   UNL A   1      39.655  24.714  26.986  1.00  0.00    -0.200 F 
ATOM     83  F   UNL A   1      41.287  25.626  24.997  1.00  0.00    -0.200 F 
ENDBRANCH  49  73
BRANCH  61  84
ATOM     84  C   UNL A   1      43.926  27.962  34.788  1.00  0.00     0.064 A 
ATOM     85  C   UNL A   1      45.292  28.280  34.730  1.00  0.00     0.173 A 
ATOM     86  C   UNL A   1      43.556  26.796  35.479  1.00  0.00     0.173 A 
ATOM     87  F   UNL A   1      45.703  29.377  34.077  1.00  0.00    -0.203 F 
ATOM     88  C   UNL A   1      46.248  27.436  35.290  1.00  0.00     0.198 A 
ATOM     89  C   UNL A   1      44.511  25.981  36.078  1.00  0.00     0.198 A 
ATOM     90  F   UNL A   1      42.264  26.451  35.580  1.00  0.00    -0.203 F 
ATOM     91  F   UNL A   1      47.550  27.719  35.150  1.00  0.00    -0.200 F 
ATOM     92  C   UNL A   1      45.857  26.291  35.968  1.00  0.00     0.200 A 
ATOM     93  F   UNL A   1      44.128  24.889  36.754  1.00  0.00    -0.200 F 
ATOM     94  F   UNL A   1      46.779  25.482  36.506  1.00  0.00    -0.200 F 
ENDBRANCH  61  84
ENDBRANCH  35  36
ENDBRANCH  27  30
ENDBRANCH  25  26
ENDBRANCH  24  25
ENDBRANCH  23  24
ENDBRANCH  22  23
ENDBRANCH   3  22
TORSDOF 18
ENDMDL
MODEL 3
REMARK VINA RESULT:     -10.0      4.481      9.161
REMARK SMILES CCN(CCC#N)C(=O)c1ccncc1/C=C/C(=O)NCCCCNC(=O)c1ccc(-c2c3nc(c(-c4c(F)c(F)c(F)c(F)c4F)c4ccc([nH]4)c(-c4c(F)c(F)c(F)c(F)c4F)c4nc(c(-c5c(F)c(F)c(F)c(F)c5F)c5ccc2[nH]5)C=C4)C=C3)cc1
REMARK SMILES IDX 18 1 19 2 20 3 17 5 16 6 15 7 10 8 11 9 12 10 14 11 13 12
REMARK SMILES IDX 8 13 9 14 3 15 2 16 1 17 4 18 5 19 6 20 7 21 21 22 22 23
REMARK SMILES IDX 23 24 24 25 25 26 26 27 27 29 28 30 29 31 90 32 30 33 89 34
REMARK SMILES IDX 31 35 32 36 33 37 83 38 34 39 88 40 82 41 84 42 35 43 87 44
REMARK SMILES IDX 81 45 80 46 36 48 68 49 48 50 67 51 49 52 52 53 66 54 85 55
REMARK SMILES IDX 50 56 51 57 65 59 86 60 53 61 37 62 38 63 46 64 39 65 40 66
REMARK SMILES IDX 44 67 47 68 41 69 42 70 45 71 43 72 69 73 70 74 78 75 71 76
REMARK SMILES IDX 72 77 76 78 79 79 73 80 74 81 77 82 75 83 54 84 55 85 63 86
REMARK SMILES IDX 56 87 57 88 61 89 64 90 58 91 59 92 62 93 60 94
REMARK H PARENT 20 4 25 28 84 47 52 58
REMARK Flexibility Score: inf
ROOT
ATOM      1  C   UNL A   1      37.956  31.125  34.055  1.00  0.00     0.244 C 
ATOM      2  O   UNL A   1      38.589  30.104  34.316  1.00  0.00    -0.270 OA
ATOM      3  N   UNL A   1      36.834  31.039  33.296  1.00  0.00    -0.353 N 
ATOM      4  H   UNL A   1      36.602  30.132  32.991  1.00  0.00     0.163 HD
ENDROOT
BRANCH   1   5
ATOM      5  C   UNL A   1      38.363  32.409  34.676  1.00  0.00     0.072 C 
ATOM      6  C   UNL A   1      38.388  32.714  35.986  1.00  0.00     0.016 C 
BRANCH   6   7
ATOM      7  C   UNL A   1      38.929  33.987  36.485  1.00  0.00     0.006 A 
ATOM      8  C   UNL A   1      39.285  34.222  37.824  1.00  0.00     0.050 A 
ATOM      9  C   UNL A   1      39.988  35.381  38.147  1.00  0.00     0.034 A 
ATOM     10  C   UNL A   1      40.136  36.366  37.193  1.00  0.00     0.112 A 
ATOM     11  C   UNL A   1      39.139  35.047  35.599  1.00  0.00     0.119 A 
ATOM     12  N   UNL A   1      39.695  36.235  35.930  1.00  0.00    -0.264 NA
BRANCH   8  13
ATOM     13  C   UNL A   1      39.064  33.243  38.924  1.00  0.00     0.254 C 
ATOM     14  O   UNL A   1      39.899  32.352  39.064  1.00  0.00    -0.269 OA
BRANCH  13  15
ATOM     15  N   UNL A   1      37.942  33.366  39.774  1.00  0.00    -0.338 N 
BRANCH  15  16
ATOM     16  C   UNL A   1      38.200  33.684  41.189  1.00  0.00     0.116 C 
ATOM     17  C   UNL A   1      38.082  35.165  41.522  1.00  0.00     0.027 C 
ENDBRANCH  15  16
BRANCH  15  18
ATOM     18  C   UNL A   1      36.536  33.074  39.410  1.00  0.00     0.135 C 
BRANCH  18  19
ATOM     19  C   UNL A   1      36.032  31.667  39.790  1.00  0.00     0.141 C 
BRANCH  19  20
ATOM     20  C   UNL A   1      36.606  30.588  38.976  1.00  0.00     0.064 C 
ATOM     21  N   UNL A   1      37.045  29.740  38.322  1.00  0.00    -0.198 NA
ENDBRANCH  19  20
ENDBRANCH  18  19
ENDBRANCH  15  18
ENDBRANCH  13  15
ENDBRANCH   8  13
ENDBRANCH   6   7
ENDBRANCH   1   5
BRANCH   3  22
ATOM     22  C   UNL A   1      35.925  32.081  32.866  1.00  0.00     0.116 C 
BRANCH  22  23
ATOM     23  C   UNL A   1      36.066  32.303  31.361  1.00  0.00     0.023 C 
BRANCH  23  24
ATOM     24  C   UNL A   1      34.744  32.607  30.660  1.00  0.00     0.023 C 
BRANCH  24  25
ATOM     25  C   UNL A   1      34.851  32.699  29.146  1.00  0.00     0.116 C 
BRANCH  25  26
ATOM     26  N   UNL A   1      34.064  31.688  28.454  1.00  0.00    -0.352 N 
ATOM     27  C   UNL A   1      34.481  30.459  28.005  1.00  0.00     0.251 C 
ATOM     28  H   UNL A   1      33.120  31.912  28.290  1.00  0.00     0.163 HD
ATOM     29  O   UNL A   1      33.757  29.767  27.297  1.00  0.00    -0.269 OA
BRANCH  27  30
ATOM     30  C   UNL A   1      35.838  30.001  28.364  1.00  0.00     0.039 A 
ATOM     31  C   UNL A   1      36.901  30.296  27.511  1.00  0.00     0.014 A 
ATOM     32  C   UNL A   1      36.059  29.327  29.568  1.00  0.00     0.014 A 
ATOM     33  C   UNL A   1      38.197  29.946  27.889  1.00  0.00     0.010 A 
ATOM     34  C   UNL A   1      37.358  29.077  29.990  1.00  0.00     0.010 A 
ATOM     35  C   UNL A   1      38.439  29.357  29.143  1.00  0.00    -0.014 A 
BRANCH  35  36
ATOM     36  C   UNL A   1      39.816  28.988  29.557  1.00  0.00     0.031 A 
ATOM     37  C   UNL A   1      40.580  29.882  30.499  1.00  0.00     0.074 A 
ATOM     38  C   UNL A   1      40.386  27.868  29.070  1.00  0.00     0.049 A 
ATOM     39  N   UNL A   1      41.791  29.738  30.975  1.00  0.00    -0.248 NA
ATOM     40  C   UNL A   1      39.909  31.116  30.944  1.00  0.00     0.031 C 
ATOM     41  C   UNL A   1      39.767  26.954  28.107  1.00  0.00     0.029 A 
ATOM     42  N   UNL A   1      41.614  27.309  29.318  1.00  0.00    -0.354 N 
ATOM     43  C   UNL A   1      42.025  30.861  31.758  1.00  0.00     0.074 A 
ATOM     44  C   UNL A   1      40.862  31.710  31.646  1.00  0.00     0.031 C 
ATOM     45  C   UNL A   1      40.605  25.931  27.873  1.00  0.00     0.029 A 
ATOM     46  C   UNL A   1      41.834  26.138  28.631  1.00  0.00     0.049 A 
ATOM     47  H   UNL A   1      42.274  27.708  29.929  1.00  0.00     0.167 HD
ATOM     48  C   UNL A   1      43.103  31.145  32.526  1.00  0.00     0.037 A 
ATOM     49  C   UNL A   1      42.912  25.330  28.613  1.00  0.00     0.037 A 
ATOM     50  C   UNL A   1      44.248  30.284  32.656  1.00  0.00     0.049 A 
ATOM     51  C   UNL A   1      44.095  25.675  29.480  1.00  0.00     0.074 A 
ATOM     52  C   UNL A   1      45.362  30.451  33.459  1.00  0.00     0.029 A 
ATOM     53  N   UNL A   1      44.428  29.099  31.960  1.00  0.00    -0.354 N 
ATOM     54  N   UNL A   1      44.270  26.697  30.282  1.00  0.00    -0.248 NA
ATOM     55  C   UNL A   1      45.229  24.740  29.452  1.00  0.00     0.031 C 
ATOM     56  C   UNL A   1      46.251  29.406  33.193  1.00  0.00     0.029 A 
ATOM     57  C   UNL A   1      45.650  28.539  32.295  1.00  0.00     0.049 A 
ATOM     58  H   UNL A   1      43.783  28.712  31.325  1.00  0.00     0.167 HD
ATOM     59  C   UNL A   1      45.505  26.505  30.886  1.00  0.00     0.074 A 
ATOM     60  C   UNL A   1      46.029  25.258  30.371  1.00  0.00     0.031 C 
ATOM     61  C   UNL A   1      46.150  27.287  31.788  1.00  0.00     0.037 A 
BRANCH  48  62
ATOM     62  C   UNL A   1      43.107  32.441  33.287  1.00  0.00     0.064 A 
ATOM     63  C   UNL A   1      42.648  32.526  34.610  1.00  0.00     0.173 A 
ATOM     64  C   UNL A   1      43.647  33.599  32.705  1.00  0.00     0.173 A 
ATOM     65  F   UNL A   1      42.108  31.454  35.209  1.00  0.00    -0.203 F 
ATOM     66  C   UNL A   1      42.715  33.724  35.316  1.00  0.00     0.198 A 
ATOM     67  C   UNL A   1      43.746  34.785  33.427  1.00  0.00     0.198 A 
ATOM     68  F   UNL A   1      44.102  33.573  31.443  1.00  0.00    -0.203 F 
ATOM     69  F   UNL A   1      42.234  33.792  36.565  1.00  0.00    -0.200 F 
ATOM     70  C   UNL A   1      43.276  34.848  34.729  1.00  0.00     0.200 A 
ATOM     71  F   UNL A   1      44.304  35.864  32.863  1.00  0.00    -0.200 F 
ATOM     72  F   UNL A   1      43.363  35.994  35.419  1.00  0.00    -0.200 F 
ENDBRANCH  48  62
BRANCH  49  73
ATOM     73  C   UNL A   1      42.932  24.115  27.753  1.00  0.00     0.064 A 
ATOM     74  C   UNL A   1      43.272  24.188  26.393  1.00  0.00     0.173 A 
ATOM     75  C   UNL A   1      42.554  22.862  28.259  1.00  0.00     0.173 A 
ATOM     76  F   UNL A   1      43.627  25.363  25.853  1.00  0.00    -0.203 F 
ATOM     77  C   UNL A   1      43.182  23.070  25.565  1.00  0.00     0.198 A 
ATOM     78  C   UNL A   1      42.506  21.737  27.440  1.00  0.00     0.198 A 
ATOM     79  F   UNL A   1      42.229  22.731  29.553  1.00  0.00    -0.203 F 
ATOM     80  F   UNL A   1      43.433  23.188  24.254  1.00  0.00    -0.200 F 
ATOM     81  C   UNL A   1      42.802  21.844  26.090  1.00  0.00     0.200 A 
ATOM     82  F   UNL A   1      42.158  20.550  27.957  1.00  0.00    -0.200 F 
ATOM     83  F   UNL A   1      42.706  20.772  25.292  1.00  0.00    -0.200 F 
ENDBRANCH  49  73
BRANCH  61  84
ATOM     84  C   UNL A   1      47.455  26.779  32.334  1.00  0.00     0.064 A 
ATOM     85  C   UNL A   1      47.522  25.927  33.447  1.00  0.00     0.173 A 
ATOM     86  C   UNL A   1      48.664  27.148  31.722  1.00  0.00     0.173 A 
ATOM     87  F   UNL A   1      46.399  25.547  34.076  1.00  0.00    -0.203 F 
ATOM     88  C   UNL A   1      48.749  25.511  33.959  1.00  0.00     0.198 A 
ATOM     89  C   UNL A   1      49.885  26.693  32.207  1.00  0.00     0.198 A 
ATOM     90  F   UNL A   1      48.660  27.947  30.644  1.00  0.00    -0.203 F 
ATOM     91  F   UNL A   1      48.790  24.766  35.072  1.00  0.00    -0.200 F 
ATOM     92  C   UNL A   1      49.928  25.890  33.336  1.00  0.00     0.200 A 
ATOM     93  F   UNL A   1      51.022  27.039  31.587  1.00  0.00    -0.200 F 
ATOM     94  F   UNL A   1      51.108  25.488  33.829  1.00  0.00    -0.200 F 
ENDBRANCH  61  84
ENDBRANCH  35  36
ENDBRANCH  27  30
ENDBRANCH  25  26
ENDBRANCH  24  25
ENDBRANCH  23  24
ENDBRANCH  22  23
ENDBRANCH   3  22
TORSDOF 18
ENDMDL
