MODEL 1
REMARK VINA RESULT:     -13.1      0.000      0.000
REMARK SMILES CCCCOC(=O)[C@@H]1[C@H]2c3ccccc3[C@H](c3ccccc32)[C@@H]1C(=O)NCCCCNC(=O)c1ccc(-c2c3nc(c(-c4c(F)c(F)c(F)c(F)c4F)c4ccc([nH]4)c(-c4c(F)c(F)c(F)c(F)c4F)c4nc(c(-c5c(F)c(F)c(F)c(F)c5F)c5ccc2[nH]5)C=C4)C=C3)cc1
REMARK SMILES IDX 27 1 26 2 24 3 25 4 23 6 8 7 9 8 22 9 10 10 16 11 21 12
REMARK SMILES IDX 17 13 15 14 11 15 20 16 18 17 14 18 12 19 19 20 13 21 6 22
REMARK SMILES IDX 7 23 5 24 4 25 3 26 2 27 1 28 28 29 29 30 30 31 31 32 32 33
REMARK SMILES IDX 33 35 34 36 35 37 96 38 36 39 95 40 37 41 38 42 39 43 89 44
REMARK SMILES IDX 40 45 94 46 88 47 90 48 41 49 93 50 87 51 86 52 42 54 74 55
REMARK SMILES IDX 54 56 73 57 55 58 58 59 72 60 91 61 56 62 57 63 71 65 92 66
REMARK SMILES IDX 59 67 43 68 44 69 52 70 45 71 46 72 50 73 53 74 47 75 48 76
REMARK SMILES IDX 51 77 49 78 75 79 76 80 84 81 77 82 78 83 82 84 85 85 79 86
REMARK SMILES IDX 80 87 83 88 81 89 60 90 61 91 69 92 62 93 63 94 67 95 70 96
REMARK SMILES IDX 64 97 65 98 68 99 66 100
REMARK H PARENT 26 5 31 34 90 53 58 64
REMARK Flexibility Score: inf
ROOT
ATOM      1  C   UNL A   1      34.571  23.011  23.576  1.00  0.00     0.116 C 
ENDROOT
BRANCH   1   2
ATOM      2  N   UNL A   1      34.092  23.937  22.580  1.00  0.00    -0.356 N 
ATOM      3  C   UNL A   1      33.652  25.212  22.680  1.00  0.00     0.224 C 
ATOM      4  O   UNL A   1      33.586  25.835  21.612  1.00  0.00    -0.275 OA
ATOM      5  H   UNL A   1      34.083  23.577  21.664  1.00  0.00     0.163 HD
BRANCH   3   6
ATOM      6  C   UNL A   1      33.171  25.886  23.958  1.00  0.00     0.105 C 
ATOM      7  C   UNL A   1      32.021  25.302  24.851  1.00  0.00     0.124 C 
ATOM      8  C   UNL A   1      31.173  26.490  25.411  1.00  0.00     0.065 C 
ATOM      9  C   UNL A   1      30.619  27.255  24.206  1.00  0.00    -0.036 A 
ATOM     10  C   UNL A   1      32.141  27.460  26.107  1.00  0.00    -0.036 A 
ATOM     11  C   UNL A   1      33.044  27.443  23.814  1.00  0.00     0.063 C 
ATOM     12  C   UNL A   1      29.276  27.481  23.940  1.00  0.00     0.004 A 
ATOM     13  C   UNL A   1      31.629  27.807  23.375  1.00  0.00    -0.036 A 
ATOM     14  C   UNL A   1      33.148  27.978  25.245  1.00  0.00    -0.036 A 
ATOM     15  C   UNL A   1      32.020  27.931  27.406  1.00  0.00     0.004 A 
ATOM     16  C   UNL A   1      28.939  28.311  22.872  1.00  0.00     0.000 A 
ATOM     17  C   UNL A   1      31.291  28.680  22.351  1.00  0.00     0.004 A 
ATOM     18  C   UNL A   1      34.030  28.954  25.682  1.00  0.00     0.004 A 
ATOM     19  C   UNL A   1      32.907  28.919  27.842  1.00  0.00     0.000 A 
ATOM     20  C   UNL A   1      29.938  28.928  22.103  1.00  0.00     0.000 A 
ATOM     21  C   UNL A   1      33.903  29.424  26.989  1.00  0.00     0.000 A 
BRANCH   7  22
ATOM     22  C   UNL A   1      31.086  24.235  24.311  1.00  0.00     0.310 C 
ATOM     23  O   UNL A   1      30.748  24.164  23.135  1.00  0.00    -0.252 OA
BRANCH  22  24
ATOM     24  O   UNL A   1      30.587  23.430  25.283  1.00  0.00    -0.465 OA
BRANCH  24  25
ATOM     25  C   UNL A   1      31.509  22.467  25.827  1.00  0.00     0.233 C 
BRANCH  25  26
ATOM     26  C   UNL A   1      31.940  22.918  27.217  1.00  0.00     0.041 C 
BRANCH  26  27
ATOM     27  C   UNL A   1      33.219  22.233  27.701  1.00  0.00     0.000 C 
ATOM     28  C   UNL A   1      34.486  22.950  27.255  1.00  0.00     0.004 C 
ENDBRANCH  26  27
ENDBRANCH  25  26
ENDBRANCH  24  25
ENDBRANCH  22  24
ENDBRANCH   7  22
ENDBRANCH   3   6
ENDBRANCH   1   2
BRANCH   1  29
ATOM     29  C   UNL A   1      35.987  23.324  24.036  1.00  0.00     0.023 C 
BRANCH  29  30
ATOM     30  C   UNL A   1      36.932  22.131  23.998  1.00  0.00     0.023 C 
BRANCH  30  31
ATOM     31  C   UNL A   1      37.267  21.532  25.359  1.00  0.00     0.116 C 
BRANCH  31  32
ATOM     32  N   UNL A   1      38.388  20.596  25.371  1.00  0.00    -0.352 N 
ATOM     33  C   UNL A   1      39.587  20.735  26.043  1.00  0.00     0.251 C 
ATOM     34  H   UNL A   1      38.276  19.776  24.840  1.00  0.00     0.163 HD
ATOM     35  O   UNL A   1      40.475  19.897  25.960  1.00  0.00    -0.269 OA
BRANCH  33  36
ATOM     36  C   UNL A   1      39.789  21.975  26.819  1.00  0.00     0.039 A 
ATOM     37  C   UNL A   1      39.167  23.148  26.394  1.00  0.00     0.014 A 
ATOM     38  C   UNL A   1      40.779  22.002  27.803  1.00  0.00     0.014 A 
ATOM     39  C   UNL A   1      39.712  24.366  26.772  1.00  0.00     0.010 A 
ATOM     40  C   UNL A   1      41.248  23.235  28.266  1.00  0.00     0.010 A 
ATOM     41  C   UNL A   1      40.778  24.426  27.690  1.00  0.00    -0.014 A 
BRANCH  41  42
ATOM     42  C   UNL A   1      41.419  25.742  27.971  1.00  0.00     0.031 A 
ATOM     43  C   UNL A   1      42.782  26.078  27.417  1.00  0.00     0.074 A 
ATOM     44  C   UNL A   1      40.716  26.683  28.631  1.00  0.00     0.049 A 
ATOM     45  N   UNL A   1      43.477  27.183  27.549  1.00  0.00    -0.248 NA
ATOM     46  C   UNL A   1      43.462  25.047  26.612  1.00  0.00     0.031 C 
ATOM     47  C   UNL A   1      39.373  26.492  29.183  1.00  0.00     0.029 A 
ATOM     48  N   UNL A   1      41.002  27.996  28.904  1.00  0.00    -0.354 N 
ATOM     49  C   UNL A   1      44.677  26.967  26.881  1.00  0.00     0.074 A 
ATOM     50  C   UNL A   1      44.628  25.624  26.349  1.00  0.00     0.031 C 
ATOM     51  C   UNL A   1      38.914  27.667  29.637  1.00  0.00     0.029 A 
ATOM     52  C   UNL A   1      39.960  28.673  29.489  1.00  0.00     0.049 A 
ATOM     53  H   UNL A   1      41.870  28.413  28.698  1.00  0.00     0.167 HD
ATOM     54  C   UNL A   1      45.719  27.817  26.723  1.00  0.00     0.037 A 
ATOM     55  C   UNL A   1      39.859  29.958  29.875  1.00  0.00     0.037 A 
ATOM     56  C   UNL A   1      45.749  29.171  27.211  1.00  0.00     0.049 A 
ATOM     57  C   UNL A   1      41.037  30.869  29.701  1.00  0.00     0.074 A 
ATOM     58  C   UNL A   1      46.772  30.100  27.119  1.00  0.00     0.029 A 
ATOM     59  N   UNL A   1      44.697  29.798  27.861  1.00  0.00    -0.354 N 
ATOM     60  N   UNL A   1      42.188  30.627  29.125  1.00  0.00    -0.248 NA
ATOM     61  C   UNL A   1      40.912  32.225  30.256  1.00  0.00     0.031 C 
ATOM     62  C   UNL A   1      46.347  31.283  27.730  1.00  0.00     0.029 A 
ATOM     63  C   UNL A   1      45.048  31.100  28.174  1.00  0.00     0.049 A 
ATOM     64  H   UNL A   1      43.831  29.380  28.069  1.00  0.00     0.167 HD
ATOM     65  C   UNL A   1      42.923  31.797  29.244  1.00  0.00     0.074 A 
ATOM     66  C   UNL A   1      42.081  32.758  29.924  1.00  0.00     0.031 C 
ATOM     67  C   UNL A   1      44.191  32.046  28.838  1.00  0.00     0.037 A 
BRANCH  54  68
ATOM     68  C   UNL A   1      46.933  27.326  25.989  1.00  0.00     0.064 A 
ATOM     69  C   UNL A   1      47.072  27.499  24.606  1.00  0.00     0.173 A 
ATOM     70  C   UNL A   1      48.018  26.784  26.697  1.00  0.00     0.173 A 
ATOM     71  F   UNL A   1      46.060  28.004  23.884  1.00  0.00    -0.203 F 
ATOM     72  C   UNL A   1      48.254  27.150  23.956  1.00  0.00     0.198 A 
ATOM     73  C   UNL A   1      49.205  26.455  26.048  1.00  0.00     0.198 A 
ATOM     74  F   UNL A   1      47.937  26.607  28.025  1.00  0.00    -0.203 F 
ATOM     75  F   UNL A   1      48.362  27.314  22.630  1.00  0.00    -0.200 F 
ATOM     76  C   UNL A   1      49.322  26.640  24.679  1.00  0.00     0.200 A 
ATOM     77  F   UNL A   1      50.241  25.975  26.751  1.00  0.00    -0.200 F 
ATOM     78  F   UNL A   1      50.468  26.328  24.056  1.00  0.00    -0.200 F 
ENDBRANCH  54  68
BRANCH  55  79
ATOM     79  C   UNL A   1      38.587  30.452  30.463  1.00  0.00     0.064 A 
ATOM     80  C   UNL A   1      38.424  30.532  31.852  1.00  0.00     0.173 A 
ATOM     81  C   UNL A   1      37.523  30.877  29.654  1.00  0.00     0.173 A 
ATOM     82  F   UNL A   1      39.407  30.118  32.667  1.00  0.00    -0.203 F 
ATOM     83  C   UNL A   1      37.243  31.016  32.410  1.00  0.00     0.198 A 
ATOM     84  C   UNL A   1      36.356  31.388  30.212  1.00  0.00     0.198 A 
ATOM     85  F   UNL A   1      37.633  30.821  28.318  1.00  0.00    -0.203 F 
ATOM     86  F   UNL A   1      37.101  31.055  33.741  1.00  0.00    -0.200 F 
ATOM     87  C   UNL A   1      36.213  31.453  31.589  1.00  0.00     0.200 A 
ATOM     88  F   UNL A   1      35.371  31.825  29.415  1.00  0.00    -0.200 F 
ATOM     89  F   UNL A   1      35.084  31.933  32.126  1.00  0.00    -0.200 F 
ENDBRANCH  55  79
BRANCH  67  90
ATOM     90  C   UNL A   1      44.740  33.415  29.096  1.00  0.00     0.064 A 
ATOM     91  C   UNL A   1      44.540  34.460  28.184  1.00  0.00     0.173 A 
ATOM     92  C   UNL A   1      45.413  33.698  30.293  1.00  0.00     0.173 A 
ATOM     93  F   UNL A   1      43.912  34.230  27.021  1.00  0.00    -0.203 F 
ATOM     94  C   UNL A   1      45.008  35.742  28.456  1.00  0.00     0.198 A 
ATOM     95  C   UNL A   1      45.861  34.986  30.571  1.00  0.00     0.198 A 
ATOM     96  F   UNL A   1      45.620  32.729  31.197  1.00  0.00    -0.203 F 
ATOM     97  F   UNL A   1      44.831  36.722  27.560  1.00  0.00    -0.200 F 
ATOM     98  C   UNL A   1      45.660  36.005  29.652  1.00  0.00     0.200 A 
ATOM     99  F   UNL A   1      46.484  35.241  31.730  1.00  0.00    -0.200 F 
ATOM    100  F   UNL A   1      46.100  37.243  29.917  1.00  0.00    -0.200 F 
ENDBRANCH  67  90
ENDBRANCH  41  42
ENDBRANCH  33  36
ENDBRANCH  31  32
ENDBRANCH  30  31
ENDBRANCH  29  30
ENDBRANCH   1  29
TORSDOF 16
ENDMDL
MODEL 2
REMARK VINA RESULT:     -13.0      0.515      7.126
REMARK SMILES CCCCOC(=O)[C@@H]1[C@H]2c3ccccc3[C@H](c3ccccc32)[C@@H]1C(=O)NCCCCNC(=O)c1ccc(-c2c3nc(c(-c4c(F)c(F)c(F)c(F)c4F)c4ccc([nH]4)c(-c4c(F)c(F)c(F)c(F)c4F)c4nc(c(-c5c(F)c(F)c(F)c(F)c5F)c5ccc2[nH]5)C=C4)C=C3)cc1
REMARK SMILES IDX 27 1 26 2 24 3 25 4 23 6 8 7 9 8 22 9 10 10 16 11 21 12
REMARK SMILES IDX 17 13 15 14 11 15 20 16 18 17 14 18 12 19 19 20 13 21 6 22
REMARK SMILES IDX 7 23 5 24 4 25 3 26 2 27 1 28 28 29 29 30 30 31 31 32 32 33
REMARK SMILES IDX 33 35 34 36 35 37 96 38 36 39 95 40 37 41 38 42 39 43 89 44
REMARK SMILES IDX 40 45 94 46 88 47 90 48 41 49 93 50 87 51 86 52 42 54 74 55
REMARK SMILES IDX 54 56 73 57 55 58 58 59 72 60 91 61 56 62 57 63 71 65 92 66
REMARK SMILES IDX 59 67 43 68 44 69 52 70 45 71 46 72 50 73 53 74 47 75 48 76
REMARK SMILES IDX 51 77 49 78 75 79 76 80 84 81 77 82 78 83 82 84 85 85 79 86
REMARK SMILES IDX 80 87 83 88 81 89 60 90 61 91 69 92 62 93 63 94 67 95 70 96
REMARK SMILES IDX 64 97 65 98 68 99 66 100
REMARK H PARENT 26 5 31 34 90 53 58 64
REMARK Flexibility Score: inf
ROOT
ATOM      1  C   UNL A   1      34.298  22.967  23.171  1.00  0.00     0.116 C 
ENDROOT
BRANCH   1   2
ATOM      2  N   UNL A   1      33.794  23.942  22.236  1.00  0.00    -0.356 N 
ATOM      3  C   UNL A   1      33.387  25.220  22.407  1.00  0.00     0.224 C 
ATOM      4  O   UNL A   1      33.284  25.887  21.369  1.00  0.00    -0.275 OA
ATOM      5  H   UNL A   1      33.734  23.620  21.309  1.00  0.00     0.163 HD
BRANCH   3   6
ATOM      6  C   UNL A   1      32.980  25.851  23.733  1.00  0.00     0.105 C 
ATOM      7  C   UNL A   1      31.848  25.264  24.647  1.00  0.00     0.124 C 
ATOM      8  C   UNL A   1      31.062  26.452  25.292  1.00  0.00     0.065 C 
ATOM      9  C   UNL A   1      30.486  27.287  24.145  1.00  0.00    -0.036 A 
ATOM     10  C   UNL A   1      32.090  27.360  25.988  1.00  0.00    -0.036 A 
ATOM     11  C   UNL A   1      32.898  27.417  23.660  1.00  0.00     0.063 C 
ATOM     12  C   UNL A   1      29.141  27.565  23.946  1.00  0.00     0.004 A 
ATOM     13  C   UNL A   1      31.479  27.843  23.298  1.00  0.00    -0.036 A 
ATOM     14  C   UNL A   1      33.077  27.884  25.108  1.00  0.00    -0.036 A 
ATOM     15  C   UNL A   1      32.036  27.777  27.310  1.00  0.00     0.004 A 
ATOM     16  C   UNL A   1      28.788  28.452  22.930  1.00  0.00     0.000 A 
ATOM     17  C   UNL A   1      31.128  28.771  22.327  1.00  0.00     0.004 A 
ATOM     18  C   UNL A   1      34.008  28.812  25.549  1.00  0.00     0.004 A 
ATOM     19  C   UNL A   1      32.973  28.716  27.750  1.00  0.00     0.000 A 
ATOM     20  C   UNL A   1      29.775  29.071  22.147  1.00  0.00     0.000 A 
ATOM     21  C   UNL A   1      33.949  29.228  26.879  1.00  0.00     0.000 A 
BRANCH   7  22
ATOM     22  C   UNL A   1      30.857  24.252  24.101  1.00  0.00     0.310 C 
ATOM     23  O   UNL A   1      30.195  24.434  23.086  1.00  0.00    -0.252 OA
BRANCH  22  24
ATOM     24  O   UNL A   1      30.711  23.170  24.907  1.00  0.00    -0.465 OA
BRANCH  24  25
ATOM     25  C   UNL A   1      31.745  22.985  25.893  1.00  0.00     0.233 C 
BRANCH  25  26
ATOM     26  C   UNL A   1      32.282  21.563  25.793  1.00  0.00     0.041 C 
BRANCH  26  27
ATOM     27  C   UNL A   1      33.642  21.386  26.471  1.00  0.00     0.000 C 
ATOM     28  C   UNL A   1      34.060  22.595  27.295  1.00  0.00     0.004 C 
ENDBRANCH  26  27
ENDBRANCH  25  26
ENDBRANCH  24  25
ENDBRANCH  22  24
ENDBRANCH   7  22
ENDBRANCH   3   6
ENDBRANCH   1   2
BRANCH   1  29
ATOM     29  C   UNL A   1      35.651  23.356  23.751  1.00  0.00     0.023 C 
BRANCH  29  30
ATOM     30  C   UNL A   1      36.637  22.201  23.858  1.00  0.00     0.023 C 
BRANCH  30  31
ATOM     31  C   UNL A   1      37.163  21.933  25.264  1.00  0.00     0.116 C 
BRANCH  31  32
ATOM     32  N   UNL A   1      38.222  20.931  25.353  1.00  0.00    -0.352 N 
ATOM     33  C   UNL A   1      39.404  21.023  26.063  1.00  0.00     0.251 C 
ATOM     34  H   UNL A   1      38.077  20.097  24.852  1.00  0.00     0.163 HD
ATOM     35  O   UNL A   1      40.240  20.130  26.046  1.00  0.00    -0.269 OA
BRANCH  33  36
ATOM     36  C   UNL A   1      39.657  22.280  26.796  1.00  0.00     0.039 A 
ATOM     37  C   UNL A   1      38.955  23.428  26.433  1.00  0.00     0.014 A 
ATOM     38  C   UNL A   1      40.753  22.350  27.658  1.00  0.00     0.014 A 
ATOM     39  C   UNL A   1      39.503  24.667  26.731  1.00  0.00     0.010 A 
ATOM     40  C   UNL A   1      41.235  23.603  28.049  1.00  0.00     0.010 A 
ATOM     41  C   UNL A   1      40.666  24.771  27.518  1.00  0.00    -0.014 A 
BRANCH  41  42
ATOM     42  C   UNL A   1      41.295  26.109  27.708  1.00  0.00     0.031 A 
ATOM     43  C   UNL A   1      40.639  27.162  28.567  1.00  0.00     0.074 A 
ATOM     44  C   UNL A   1      42.520  26.333  27.195  1.00  0.00     0.049 A 
ATOM     45  N   UNL A   1      41.058  28.372  28.853  1.00  0.00    -0.248 NA
ATOM     46  C   UNL A   1      39.346  26.825  29.189  1.00  0.00     0.031 C 
ATOM     47  C   UNL A   1      43.275  25.380  26.379  1.00  0.00     0.029 A 
ATOM     48  N   UNL A   1      43.370  27.401  27.327  1.00  0.00    -0.354 N 
ATOM     49  C   UNL A   1      40.073  28.944  29.649  1.00  0.00     0.074 A 
ATOM     50  C   UNL A   1      39.026  27.959  29.800  1.00  0.00     0.031 C 
ATOM     51  C   UNL A   1      44.507  25.862  26.167  1.00  0.00     0.029 A 
ATOM     52  C   UNL A   1      44.603  27.193  26.756  1.00  0.00     0.049 A 
ATOM     53  H   UNL A   1      43.122  28.236  27.787  1.00  0.00     0.167 HD
ATOM     54  C   UNL A   1      40.050  30.178  30.208  1.00  0.00     0.037 A 
ATOM     55  C   UNL A   1      45.687  27.988  26.703  1.00  0.00     0.037 A 
ATOM     56  C   UNL A   1      41.113  31.143  30.099  1.00  0.00     0.049 A 
ATOM     57  C   UNL A   1      45.624  29.355  27.317  1.00  0.00     0.074 A 
ATOM     58  C   UNL A   1      41.169  32.428  30.611  1.00  0.00     0.029 A 
ATOM     59  N   UNL A   1      42.318  30.917  29.452  1.00  0.00    -0.354 N 
ATOM     60  N   UNL A   1      44.657  29.903  28.010  1.00  0.00    -0.248 NA
ATOM     61  C   UNL A   1      46.792  30.224  27.117  1.00  0.00     0.031 C 
ATOM     62  C   UNL A   1      42.400  32.988  30.259  1.00  0.00     0.029 A 
ATOM     63  C   UNL A   1      43.123  32.039  29.555  1.00  0.00     0.049 A 
ATOM     64  H   UNL A   1      42.565  30.085  28.990  1.00  0.00     0.167 HD
ATOM     65  C   UNL A   1      45.099  31.177  28.333  1.00  0.00     0.074 A 
ATOM     66  C   UNL A   1      46.431  31.314  27.782  1.00  0.00     0.031 C 
ATOM     67  C   UNL A   1      44.451  32.152  29.013  1.00  0.00     0.037 A 
BRANCH  54  68
ATOM     68  C   UNL A   1      38.839  30.580  30.998  1.00  0.00     0.064 A 
ATOM     69  C   UNL A   1      38.798  30.448  32.393  1.00  0.00     0.173 A 
ATOM     70  C   UNL A   1      37.756  31.211  30.365  1.00  0.00     0.173 A 
ATOM     71  F   UNL A   1      39.803  29.843  33.043  1.00  0.00    -0.203 F 
ATOM     72  C   UNL A   1      37.719  30.936  33.126  1.00  0.00     0.198 A 
ATOM     73  C   UNL A   1      36.688  31.716  31.103  1.00  0.00     0.198 A 
ATOM     74  F   UNL A   1      37.753  31.369  29.032  1.00  0.00    -0.203 F 
ATOM     75  F   UNL A   1      37.695  30.791  34.458  1.00  0.00    -0.200 F 
ATOM     76  C   UNL A   1      36.672  31.579  32.482  1.00  0.00     0.200 A 
ATOM     77  F   UNL A   1      35.685  32.349  30.480  1.00  0.00    -0.200 F 
ATOM     78  F   UNL A   1      35.646  32.071  33.192  1.00  0.00    -0.200 F 
ENDBRANCH  54  68
BRANCH  55  79
ATOM     79  C   UNL A   1      46.925  27.500  26.041  1.00  0.00     0.064 A 
ATOM     80  C   UNL A   1      47.093  27.627  24.656  1.00  0.00     0.173 A 
ATOM     81  C   UNL A   1      47.970  26.924  26.778  1.00  0.00     0.173 A 
ATOM     82  F   UNL A   1      46.112  28.154  23.907  1.00  0.00    -0.203 F 
ATOM     83  C   UNL A   1      48.261  27.195  24.033  1.00  0.00     0.198 A 
ATOM     84  C   UNL A   1      49.148  26.519  26.157  1.00  0.00     0.198 A 
ATOM     85  F   UNL A   1      47.856  26.783  28.107  1.00  0.00    -0.203 F 
ATOM     86  F   UNL A   1      48.386  27.301  22.703  1.00  0.00    -0.200 F 
ATOM     87  C   UNL A   1      49.291  26.649  24.784  1.00  0.00     0.200 A 
ATOM     88  F   UNL A   1      50.147  26.010  26.891  1.00  0.00    -0.200 F 
ATOM     89  F   UNL A   1      50.420  26.247  24.186  1.00  0.00    -0.200 F 
ENDBRANCH  55  79
BRANCH  67  90
ATOM     90  C   UNL A   1      45.176  33.446  29.220  1.00  0.00     0.064 A 
ATOM     91  C   UNL A   1      45.011  34.519  28.334  1.00  0.00     0.173 A 
ATOM     92  C   UNL A   1      45.988  33.634  30.347  1.00  0.00     0.173 A 
ATOM     93  F   UNL A   1      44.252  34.378  27.237  1.00  0.00    -0.203 F 
ATOM     94  C   UNL A   1      45.647  35.736  28.563  1.00  0.00     0.198 A 
ATOM     95  C   UNL A   1      46.606  34.858  30.583  1.00  0.00     0.198 A 
ATOM     96  F   UNL A   1      46.168  32.635  31.224  1.00  0.00    -0.203 F 
ATOM     97  F   UNL A   1      45.499  36.741  27.691  1.00  0.00    -0.200 F 
ATOM     98  C   UNL A   1      46.437  35.906  29.691  1.00  0.00     0.200 A 
ATOM     99  F   UNL A   1      47.362  35.025  31.678  1.00  0.00    -0.200 F 
ATOM    100  F   UNL A   1      47.039  37.082  29.916  1.00  0.00    -0.200 F 
ENDBRANCH  67  90
ENDBRANCH  41  42
ENDBRANCH  33  36
ENDBRANCH  31  32
ENDBRANCH  30  31
ENDBRANCH  29  30
ENDBRANCH   1  29
TORSDOF 16
ENDMDL
MODEL 3
REMARK VINA RESULT:     -12.8      1.769      2.927
REMARK SMILES CCCCOC(=O)[C@@H]1[C@H]2c3ccccc3[C@H](c3ccccc32)[C@@H]1C(=O)NCCCCNC(=O)c1ccc(-c2c3nc(c(-c4c(F)c(F)c(F)c(F)c4F)c4ccc([nH]4)c(-c4c(F)c(F)c(F)c(F)c4F)c4nc(c(-c5c(F)c(F)c(F)c(F)c5F)c5ccc2[nH]5)C=C4)C=C3)cc1
REMARK SMILES IDX 27 1 26 2 24 3 25 4 23 6 8 7 9 8 22 9 10 10 16 11 21 12
REMARK SMILES IDX 17 13 15 14 11 15 20 16 18 17 14 18 12 19 19 20 13 21 6 22
REMARK SMILES IDX 7 23 5 24 4 25 3 26 2 27 1 28 28 29 29 30 30 31 31 32 32 33
REMARK SMILES IDX 33 35 34 36 35 37 96 38 36 39 95 40 37 41 38 42 39 43 89 44
REMARK SMILES IDX 40 45 94 46 88 47 90 48 41 49 93 50 87 51 86 52 42 54 74 55
REMARK SMILES IDX 54 56 73 57 55 58 58 59 72 60 91 61 56 62 57 63 71 65 92 66
REMARK SMILES IDX 59 67 43 68 44 69 52 70 45 71 46 72 50 73 53 74 47 75 48 76
REMARK SMILES IDX 51 77 49 78 75 79 76 80 84 81 77 82 78 83 82 84 85 85 79 86
REMARK SMILES IDX 80 87 83 88 81 89 60 90 61 91 69 92 62 93 63 94 67 95 70 96
REMARK SMILES IDX 64 97 65 98 68 99 66 100
REMARK H PARENT 26 5 31 34 90 53 58 64
REMARK Flexibility Score: inf
ROOT
ATOM      1  C   UNL A   1      36.285  23.314  26.083  1.00  0.00     0.116 C 
ENDROOT
BRANCH   1   2
ATOM      2  N   UNL A   1      35.550  23.483  24.854  1.00  0.00    -0.356 N 
ATOM      3  C   UNL A   1      34.726  24.468  24.431  1.00  0.00     0.224 C 
ATOM      4  O   UNL A   1      34.480  24.469  23.218  1.00  0.00    -0.275 OA
ATOM      5  H   UNL A   1      35.669  22.751  24.208  1.00  0.00     0.163 HD
BRANCH   3   6
ATOM      6  C   UNL A   1      34.037  25.492  25.325  1.00  0.00     0.105 C 
ATOM      7  C   UNL A   1      33.030  25.094  26.461  1.00  0.00     0.124 C 
ATOM      8  C   UNL A   1      31.889  26.162  26.511  1.00  0.00     0.065 C 
ATOM      9  C   UNL A   1      31.216  26.168  25.136  1.00  0.00    -0.036 A 
ATOM     10  C   UNL A   1      32.555  27.541  26.652  1.00  0.00    -0.036 A 
ATOM     11  C   UNL A   1      33.532  26.749  24.532  1.00  0.00     0.063 C 
ATOM     12  C   UNL A   1      29.872  25.922  24.895  1.00  0.00     0.004 A 
ATOM     13  C   UNL A   1      32.092  26.531  24.081  1.00  0.00    -0.036 A 
ATOM     14  C   UNL A   1      33.437  27.860  25.582  1.00  0.00    -0.036 A 
ATOM     15  C   UNL A   1      32.263  28.485  27.625  1.00  0.00     0.004 A 
ATOM     16  C   UNL A   1      29.385  26.096  23.600  1.00  0.00     0.000 A 
ATOM     17  C   UNL A   1      31.592  26.761  22.807  1.00  0.00     0.004 A 
ATOM     18  C   UNL A   1      34.029  29.110  25.492  1.00  0.00     0.004 A 
ATOM     19  C   UNL A   1      32.858  29.746  27.529  1.00  0.00     0.000 A 
ATOM     20  C   UNL A   1      30.232  26.540  22.571  1.00  0.00     0.000 A 
ATOM     21  C   UNL A   1      33.733  30.055  26.474  1.00  0.00     0.000 A 
BRANCH   7  22
ATOM     22  C   UNL A   1      32.414  23.707  26.501  1.00  0.00     0.310 C 
ATOM     23  O   UNL A   1      31.795  23.270  27.465  1.00  0.00    -0.252 OA
BRANCH  22  24
ATOM     24  O   UNL A   1      32.703  22.970  25.400  1.00  0.00    -0.465 OA
BRANCH  24  25
ATOM     25  C   UNL A   1      31.574  22.365  24.742  1.00  0.00     0.233 C 
BRANCH  25  26
ATOM     26  C   UNL A   1      31.504  22.867  23.306  1.00  0.00     0.041 C 
BRANCH  26  27
ATOM     27  C   UNL A   1      32.153  21.911  22.303  1.00  0.00     0.000 C 
ATOM     28  C   UNL A   1      32.153  20.463  22.773  1.00  0.00     0.004 C 
ENDBRANCH  26  27
ENDBRANCH  25  26
ENDBRANCH  24  25
ENDBRANCH  22  24
ENDBRANCH   7  22
ENDBRANCH   3   6
ENDBRANCH   1   2
BRANCH   1  29
ATOM     29  C   UNL A   1      37.785  23.196  25.858  1.00  0.00     0.023 C 
BRANCH  29  30
ATOM     30  C   UNL A   1      38.268  21.773  25.614  1.00  0.00     0.023 C 
BRANCH  30  31
ATOM     31  C   UNL A   1      39.423  21.324  26.501  1.00  0.00     0.116 C 
BRANCH  31  32
ATOM     32  N   UNL A   1      40.044  20.057  26.125  1.00  0.00    -0.352 N 
ATOM     33  C   UNL A   1      41.392  19.755  26.116  1.00  0.00     0.251 C 
ATOM     34  H   UNL A   1      39.433  19.338  25.845  1.00  0.00     0.163 HD
ATOM     35  O   UNL A   1      41.809  18.663  25.753  1.00  0.00    -0.269 OA
BRANCH  33  36
ATOM     36  C   UNL A   1      42.329  20.830  26.501  1.00  0.00     0.039 A 
ATOM     37  C   UNL A   1      42.527  21.103  27.854  1.00  0.00     0.014 A 
ATOM     38  C   UNL A   1      42.801  21.700  25.516  1.00  0.00     0.014 A 
ATOM     39  C   UNL A   1      42.972  22.364  28.221  1.00  0.00     0.010 A 
ATOM     40  C   UNL A   1      43.355  22.926  25.896  1.00  0.00     0.010 A 
ATOM     41  C   UNL A   1      43.365  23.303  27.248  1.00  0.00    -0.014 A 
BRANCH  41  42
ATOM     42  C   UNL A   1      43.713  24.687  27.677  1.00  0.00     0.031 A 
ATOM     43  C   UNL A   1      45.129  25.199  27.576  1.00  0.00     0.074 A 
ATOM     44  C   UNL A   1      42.725  25.524  28.049  1.00  0.00     0.049 A 
ATOM     45  N   UNL A   1      45.603  26.383  27.888  1.00  0.00    -0.248 NA
ATOM     46  C   UNL A   1      46.153  24.273  27.062  1.00  0.00     0.031 C 
ATOM     47  C   UNL A   1      41.311  25.158  28.150  1.00  0.00     0.029 A 
ATOM     48  N   UNL A   1      42.744  26.860  28.358  1.00  0.00    -0.354 N 
ATOM     49  C   UNL A   1      46.970  26.329  27.644  1.00  0.00     0.074 A 
ATOM     50  C   UNL A   1      47.261  24.996  27.166  1.00  0.00     0.031 C 
ATOM     51  C   UNL A   1      40.589  26.260  28.398  1.00  0.00     0.029 A 
ATOM     52  C   UNL A   1      41.494  27.392  28.560  1.00  0.00     0.049 A 
ATOM     53  H   UNL A   1      43.573  27.386  28.427  1.00  0.00     0.167 HD
ATOM     54  C   UNL A   1      47.895  27.306  27.800  1.00  0.00     0.037 A 
ATOM     55  C   UNL A   1      41.116  28.650  28.853  1.00  0.00     0.037 A 
ATOM     56  C   UNL A   1      47.598  28.648  28.229  1.00  0.00     0.049 A 
ATOM     57  C   UNL A   1      42.165  29.706  29.035  1.00  0.00     0.074 A 
ATOM     58  C   UNL A   1      48.473  29.700  28.439  1.00  0.00     0.029 A 
ATOM     59  N   UNL A   1      46.325  29.129  28.491  1.00  0.00    -0.354 N 
ATOM     60  N   UNL A   1      43.461  29.619  28.864  1.00  0.00    -0.248 NA
ATOM     61  C   UNL A   1      41.703  31.029  29.478  1.00  0.00     0.031 C 
ATOM     62  C   UNL A   1      47.732  30.813  28.846  1.00  0.00     0.029 A 
ATOM     63  C   UNL A   1      46.392  30.462  28.858  1.00  0.00     0.049 A 
ATOM     64  H   UNL A   1      45.497  28.602  28.425  1.00  0.00     0.167 HD
ATOM     65  C   UNL A   1      43.968  30.871  29.174  1.00  0.00     0.074 A 
ATOM     66  C   UNL A   1      42.840  31.710  29.520  1.00  0.00     0.031 C 
ATOM     67  C   UNL A   1      45.258  31.284  29.185  1.00  0.00     0.037 A 
BRANCH  54  68
ATOM     68  C   UNL A   1      49.330  26.982  27.507  1.00  0.00     0.064 A 
ATOM     69  C   UNL A   1      50.231  26.660  28.530  1.00  0.00     0.173 A 
ATOM     70  C   UNL A   1      49.777  26.879  26.179  1.00  0.00     0.173 A 
ATOM     71  F   UNL A   1      49.855  26.753  29.814  1.00  0.00    -0.203 F 
ATOM     72  C   UNL A   1      51.528  26.242  28.236  1.00  0.00     0.198 A 
ATOM     73  C   UNL A   1      51.067  26.442  25.888  1.00  0.00     0.198 A 
ATOM     74  F   UNL A   1      48.949  27.168  25.164  1.00  0.00    -0.203 F 
ATOM     75  F   UNL A   1      52.378  25.949  29.230  1.00  0.00    -0.200 F 
ATOM     76  C   UNL A   1      51.940  26.123  26.917  1.00  0.00     0.200 A 
ATOM     77  F   UNL A   1      51.458  26.314  24.613  1.00  0.00    -0.200 F 
ATOM     78  F   UNL A   1      53.180  25.696  26.636  1.00  0.00    -0.200 F 
ENDBRANCH  54  68
BRANCH  55  79
ATOM     79  C   UNL A   1      39.672  28.972  28.989  1.00  0.00     0.064 A 
ATOM     80  C   UNL A   1      38.922  29.380  27.878  1.00  0.00     0.173 A 
ATOM     81  C   UNL A   1      39.009  28.853  30.219  1.00  0.00     0.173 A 
ATOM     82  F   UNL A   1      39.517  29.526  26.685  1.00  0.00    -0.203 F 
ATOM     83  C   UNL A   1      37.563  29.660  27.994  1.00  0.00     0.198 A 
ATOM     84  C   UNL A   1      37.645  29.106  30.327  1.00  0.00     0.198 A 
ATOM     85  F   UNL A   1      39.684  28.464  31.311  1.00  0.00    -0.203 F 
ATOM     86  F   UNL A   1      36.874  30.077  26.923  1.00  0.00    -0.200 F 
ATOM     87  C   UNL A   1      36.923  29.514  29.216  1.00  0.00     0.200 A 
ATOM     88  F   UNL A   1      37.028  28.945  31.506  1.00  0.00    -0.200 F 
ATOM     89  F   UNL A   1      35.612  29.768  29.323  1.00  0.00    -0.200 F 
ENDBRANCH  55  79
BRANCH  67  90
ATOM     90  C   UNL A   1      45.521  32.709  29.562  1.00  0.00     0.064 A 
ATOM     91  C   UNL A   1      45.507  33.728  28.599  1.00  0.00     0.173 A 
ATOM     92  C   UNL A   1      45.724  33.065  30.902  1.00  0.00     0.173 A 
ATOM     93  F   UNL A   1      45.327  33.430  27.304  1.00  0.00    -0.203 F 
ATOM     94  C   UNL A   1      45.700  35.056  28.966  1.00  0.00     0.198 A 
ATOM     95  C   UNL A   1      45.897  34.397  31.268  1.00  0.00     0.198 A 
ATOM     96  F   UNL A   1      45.740  32.122  31.857  1.00  0.00    -0.203 F 
ATOM     97  F   UNL A   1      45.709  36.014  28.029  1.00  0.00    -0.200 F 
ATOM     98  C   UNL A   1      45.887  35.390  30.300  1.00  0.00     0.200 A 
ATOM     99  F   UNL A   1      46.069  34.719  32.558  1.00  0.00    -0.200 F 
ATOM    100  F   UNL A   1      46.061  36.671  30.653  1.00  0.00    -0.200 F 
ENDBRANCH  67  90
ENDBRANCH  41  42
ENDBRANCH  33  36
ENDBRANCH  31  32
ENDBRANCH  30  31
ENDBRANCH  29  30
ENDBRANCH   1  29
TORSDOF 16
ENDMDL
