MODEL 1
REMARK VINA RESULT:     -11.1      0.000      0.000
REMARK SMILES C[C@H](C(=O)NCCCCNC(=O)c1ccc(-c2c3nc(c(-c4c(F)c(F)c(F)c(F)c4F)c4ccc([nH]4)c(-c4c(F)c(F)c(F)c(F)c4F)c4nc(c(-c5c(F)c(F)c(F)c(F)c5F)c5ccc2[nH]5)C=C4)C=C3)cc1)[C@@H](C)[NH2+]C[C@@H]1CCCC[C@@H]1CO
REMARK SMILES IDX 3 1 4 2 5 3 2 5 1 6 76 7 77 8 78 9 79 12 80 13 81 14 85 15
REMARK SMILES IDX 82 16 84 17 83 18 86 19 87 20 6 22 7 23 8 24 9 25 10 26
REMARK SMILES IDX 11 27 12 29 13 30 14 31 75 32 15 33 74 34 16 35 17 36 18 37
REMARK SMILES IDX 68 38 19 39 73 40 67 41 69 42 20 43 72 44 66 45 65 46 21 48
REMARK SMILES IDX 53 49 33 50 52 51 34 52 37 53 51 54 70 55 35 56 36 57 50 59
REMARK SMILES IDX 71 60 38 61 22 62 23 63 31 64 24 65 25 66 29 67 32 68 26 69
REMARK SMILES IDX 27 70 30 71 28 72 54 73 55 74 63 75 56 76 57 77 61 78 64 79
REMARK SMILES IDX 58 80 59 81 62 82 60 83 39 84 40 85 48 86 41 87 42 88 46 89
REMARK SMILES IDX 49 90 43 91 44 92 47 93 45 94
REMARK H PARENT 5 4 78 10 78 11 87 21 10 28 69 47 37 58
REMARK Flexibility Score: inf
ROOT
ATOM      1  C   UNL A   1      32.540  28.574  23.830  1.00  0.00     0.228 C 
ATOM      2  O   UNL A   1      33.131  28.308  22.783  1.00  0.00    -0.275 OA
ATOM      3  N   UNL A   1      33.084  29.544  24.629  1.00  0.00    -0.356 N 
ATOM      4  H   UNL A   1      33.909  29.950  24.276  1.00  0.00     0.163 HD
ENDROOT
BRANCH   1   5
ATOM      5  C   UNL A   1      31.253  27.849  24.246  1.00  0.00     0.133 C 
ATOM      6  C   UNL A   1      30.440  27.510  22.986  1.00  0.00     0.024 C 
BRANCH   5   7
ATOM      7  C   UNL A   1      31.488  26.549  25.089  1.00  0.00     0.191 C 
ATOM      8  C   UNL A   1      30.489  25.454  24.767  1.00  0.00     0.076 C 
BRANCH   7   9
ATOM      9  N   UNL A   1      32.905  26.126  24.964  1.00  0.00    -0.343 N 
ATOM     10  H   UNL A   1      33.248  25.951  25.909  1.00  0.00     0.346 HD
ATOM     11  H   UNL A   1      33.344  26.890  24.451  1.00  0.00     0.346 HD
BRANCH   9  12
ATOM     12  C   UNL A   1      33.227  24.938  24.165  1.00  0.00     0.264 C 
BRANCH  12  13
ATOM     13  C   UNL A   1      34.694  24.437  24.262  1.00  0.00     0.049 C 
ATOM     14  C   UNL A   1      34.974  23.276  23.293  1.00  0.00     0.010 C 
ATOM     15  C   UNL A   1      35.189  24.106  25.692  1.00  0.00     0.023 C 
ATOM     16  C   UNL A   1      36.475  22.974  23.249  1.00  0.00     0.001 C 
ATOM     17  C   UNL A   1      36.701  23.794  25.641  1.00  0.00     0.006 C 
ATOM     18  C   UNL A   1      37.055  22.700  24.634  1.00  0.00     0.000 C 
BRANCH  15  19
ATOM     19  C   UNL A   1      34.388  22.985  26.370  1.00  0.00     0.160 C 
BRANCH  19  20
ATOM     20  O   UNL A   1      35.091  22.500  27.508  1.00  0.00    -0.396 OA
ATOM     21  H   UNL A   1      36.045  22.606  27.369  1.00  0.00     0.210 HD
ENDBRANCH  19  20
ENDBRANCH  15  19
ENDBRANCH  12  13
ENDBRANCH   9  12
ENDBRANCH   7   9
ENDBRANCH   5   7
ENDBRANCH   1   5
BRANCH   3  22
ATOM     22  C   UNL A   1      32.652  30.075  25.913  1.00  0.00     0.116 C 
BRANCH  22  23
ATOM     23  C   UNL A   1      31.357  30.890  25.817  1.00  0.00     0.023 C 
BRANCH  23  24
ATOM     24  C   UNL A   1      31.239  32.072  26.761  1.00  0.00     0.023 C 
BRANCH  24  25
ATOM     25  C   UNL A   1      32.551  32.766  27.038  1.00  0.00     0.116 C 
BRANCH  25  26
ATOM     26  N   UNL A   1      32.379  34.101  27.593  1.00  0.00    -0.352 N 
ATOM     27  C   UNL A   1      33.067  34.710  28.615  1.00  0.00     0.251 C 
ATOM     28  H   UNL A   1      31.670  34.645  27.177  1.00  0.00     0.163 HD
ATOM     29  O   UNL A   1      32.691  35.782  29.064  1.00  0.00    -0.269 OA
BRANCH  27  30
ATOM     30  C   UNL A   1      34.255  34.036  29.176  1.00  0.00     0.039 A 
ATOM     31  C   UNL A   1      35.524  34.523  28.867  1.00  0.00     0.014 A 
ATOM     32  C   UNL A   1      34.107  32.939  30.028  1.00  0.00     0.014 A 
ATOM     33  C   UNL A   1      36.644  33.924  29.443  1.00  0.00     0.010 A 
ATOM     34  C   UNL A   1      35.205  32.440  30.707  1.00  0.00     0.010 A 
ATOM     35  C   UNL A   1      36.489  32.891  30.383  1.00  0.00    -0.014 A 
BRANCH  35  36
ATOM     36  C   UNL A   1      37.659  32.201  30.969  1.00  0.00     0.031 A 
ATOM     37  C   UNL A   1      38.110  32.566  32.360  1.00  0.00     0.074 A 
ATOM     38  C   UNL A   1      38.330  31.287  30.245  1.00  0.00     0.049 A 
ATOM     39  N   UNL A   1      39.115  32.098  33.054  1.00  0.00    -0.248 NA
ATOM     40  C   UNL A   1      37.355  33.628  33.048  1.00  0.00     0.031 C 
ATOM     41  C   UNL A   1      38.022  30.904  28.866  1.00  0.00     0.029 A 
ATOM     42  N   UNL A   1      39.409  30.509  30.573  1.00  0.00    -0.354 N 
ATOM     43  C   UNL A   1      39.121  32.822  34.239  1.00  0.00     0.074 A 
ATOM     44  C   UNL A   1      38.077  33.815  34.140  1.00  0.00     0.031 C 
ATOM     45  C   UNL A   1      38.862  29.929  28.483  1.00  0.00     0.029 A 
ATOM     46  C   UNL A   1      39.787  29.644  29.576  1.00  0.00     0.049 A 
ATOM     47  H   UNL A   1      39.871  30.565  31.441  1.00  0.00     0.167 HD
ATOM     48  C   UNL A   1      39.900  32.649  35.332  1.00  0.00     0.037 A 
ATOM     49  C   UNL A   1      40.764  28.719  29.557  1.00  0.00     0.037 A 
ATOM     50  C   UNL A   1      40.909  31.630  35.435  1.00  0.00     0.049 A 
ATOM     51  C   UNL A   1      41.605  28.531  30.793  1.00  0.00     0.074 A 
ATOM     52  C   UNL A   1      41.714  31.318  36.514  1.00  0.00     0.029 A 
ATOM     53  N   UNL A   1      41.245  30.754  34.413  1.00  0.00    -0.354 N 
ATOM     54  N   UNL A   1      41.548  29.163  31.941  1.00  0.00    -0.248 NA
ATOM     55  C   UNL A   1      42.634  27.486  30.735  1.00  0.00     0.031 C 
ATOM     56  C   UNL A   1      42.578  30.288  36.126  1.00  0.00     0.029 A 
ATOM     57  C   UNL A   1      42.263  29.912  34.829  1.00  0.00     0.049 A 
ATOM     58  H   UNL A   1      40.824  30.734  33.523  1.00  0.00     0.167 HD
ATOM     59  C   UNL A   1      42.501  28.566  32.755  1.00  0.00     0.074 A 
ATOM     60  C   UNL A   1      43.112  27.512  31.970  1.00  0.00     0.031 C 
ATOM     61  C   UNL A   1      42.841  28.858  34.035  1.00  0.00     0.037 A 
BRANCH  48  62
ATOM     62  C   UNL A   1      39.687  33.578  36.494  1.00  0.00     0.064 A 
ATOM     63  C   UNL A   1      38.857  33.236  37.573  1.00  0.00     0.173 A 
ATOM     64  C   UNL A   1      40.331  34.824  36.535  1.00  0.00     0.173 A 
ATOM     65  F   UNL A   1      38.201  32.065  37.578  1.00  0.00    -0.203 F 
ATOM     66  C   UNL A   1      38.650  34.120  38.630  1.00  0.00     0.198 A 
ATOM     67  C   UNL A   1      40.152  35.689  37.611  1.00  0.00     0.198 A 
ATOM     68  F   UNL A   1      41.136  35.203  35.531  1.00  0.00    -0.203 F 
ATOM     69  F   UNL A   1      37.801  33.798  39.615  1.00  0.00    -0.200 F 
ATOM     70  C   UNL A   1      39.304  35.342  38.652  1.00  0.00     0.200 A 
ATOM     71  F   UNL A   1      40.796  36.865  37.636  1.00  0.00    -0.200 F 
ATOM     72  F   UNL A   1      39.110  36.190  39.671  1.00  0.00    -0.200 F 
ENDBRANCH  48  62
BRANCH  49  73
ATOM     73  C   UNL A   1      40.964  27.866  28.357  1.00  0.00     0.064 A 
ATOM     74  C   UNL A   1      41.811  28.276  27.317  1.00  0.00     0.173 A 
ATOM     75  C   UNL A   1      40.309  26.635  28.215  1.00  0.00     0.173 A 
ATOM     76  F   UNL A   1      42.451  29.452  27.397  1.00  0.00    -0.203 F 
ATOM     77  C   UNL A   1      41.971  27.502  26.168  1.00  0.00     0.198 A 
ATOM     78  C   UNL A   1      40.494  25.847  27.081  1.00  0.00     0.198 A 
ATOM     79  F   UNL A   1      39.496  26.192  29.185  1.00  0.00    -0.203 F 
ATOM     80  F   UNL A   1      42.744  27.945  25.167  1.00  0.00    -0.200 F 
ATOM     81  C   UNL A   1      41.315  26.286  26.054  1.00  0.00     0.200 A 
ATOM     82  F   UNL A   1      39.873  24.664  26.982  1.00  0.00    -0.200 F 
ATOM     83  F   UNL A   1      41.469  25.541  24.950  1.00  0.00    -0.200 F 
ENDBRANCH  49  73
BRANCH  61  84
ATOM     84  C   UNL A   1      43.875  27.985  34.686  1.00  0.00     0.064 A 
ATOM     85  C   UNL A   1      45.236  28.325  34.699  1.00  0.00     0.173 A 
ATOM     86  C   UNL A   1      43.488  26.799  35.329  1.00  0.00     0.173 A 
ATOM     87  F   UNL A   1      45.658  29.444  34.089  1.00  0.00    -0.203 F 
ATOM     88  C   UNL A   1      46.176  27.489  35.294  1.00  0.00     0.198 A 
ATOM     89  C   UNL A   1      44.426  25.985  35.957  1.00  0.00     0.198 A 
ATOM     90  F   UNL A   1      42.198  26.434  35.358  1.00  0.00    -0.203 F 
ATOM     91  F   UNL A   1      47.479  27.801  35.235  1.00  0.00    -0.200 F 
ATOM     92  C   UNL A   1      45.770  26.324  35.927  1.00  0.00     0.200 A 
ATOM     93  F   UNL A   1      44.029  24.871  36.586  1.00  0.00    -0.200 F 
ATOM     94  F   UNL A   1      46.676  25.522  36.502  1.00  0.00    -0.200 F 
ENDBRANCH  61  84
ENDBRANCH  35  36
ENDBRANCH  27  30
ENDBRANCH  25  26
ENDBRANCH  24  25
ENDBRANCH  23  24
ENDBRANCH  22  23
ENDBRANCH   3  22
TORSDOF 17
ENDMDL
MODEL 2
REMARK VINA RESULT:     -11.0      0.921      2.380
REMARK SMILES C[C@H](C(=O)NCCCCNC(=O)c1ccc(-c2c3nc(c(-c4c(F)c(F)c(F)c(F)c4F)c4ccc([nH]4)c(-c4c(F)c(F)c(F)c(F)c4F)c4nc(c(-c5c(F)c(F)c(F)c(F)c5F)c5ccc2[nH]5)C=C4)C=C3)cc1)[C@@H](C)[NH2+]C[C@@H]1CCCC[C@@H]1CO
REMARK SMILES IDX 3 1 4 2 5 3 2 5 1 6 76 7 77 8 78 9 79 12 80 13 81 14 85 15
REMARK SMILES IDX 82 16 84 17 83 18 86 19 87 20 6 22 7 23 8 24 9 25 10 26
REMARK SMILES IDX 11 27 12 29 13 30 14 31 75 32 15 33 74 34 16 35 17 36 18 37
REMARK SMILES IDX 68 38 19 39 73 40 67 41 69 42 20 43 72 44 66 45 65 46 21 48
REMARK SMILES IDX 53 49 33 50 52 51 34 52 37 53 51 54 70 55 35 56 36 57 50 59
REMARK SMILES IDX 71 60 38 61 22 62 23 63 31 64 24 65 25 66 29 67 32 68 26 69
REMARK SMILES IDX 27 70 30 71 28 72 54 73 55 74 63 75 56 76 57 77 61 78 64 79
REMARK SMILES IDX 58 80 59 81 62 82 60 83 39 84 40 85 48 86 41 87 42 88 46 89
REMARK SMILES IDX 49 90 43 91 44 92 47 93 45 94
REMARK H PARENT 5 4 78 10 78 11 87 21 10 28 69 47 37 58
REMARK Flexibility Score: inf
ROOT
ATOM      1  C   UNL A   1      33.221  28.767  23.661  1.00  0.00     0.228 C 
ATOM      2  O   UNL A   1      33.968  28.815  22.683  1.00  0.00    -0.275 OA
ATOM      3  N   UNL A   1      33.427  29.686  24.655  1.00  0.00    -0.356 N 
ATOM      4  H   UNL A   1      34.164  30.317  24.483  1.00  0.00     0.163 HD
ENDROOT
BRANCH   1   5
ATOM      5  C   UNL A   1      32.108  27.718  23.785  1.00  0.00     0.133 C 
ATOM      6  C   UNL A   1      30.993  28.048  22.778  1.00  0.00     0.024 C 
BRANCH   5   7
ATOM      7  C   UNL A   1      32.586  26.241  23.577  1.00  0.00     0.191 C 
ATOM      8  C   UNL A   1      32.236  25.699  22.205  1.00  0.00     0.076 C 
BRANCH   7   9
ATOM      9  N   UNL A   1      34.027  26.133  23.916  1.00  0.00    -0.343 N 
ATOM     10  H   UNL A   1      34.399  27.083  23.942  1.00  0.00     0.346 HD
ATOM     11  H   UNL A   1      34.402  25.515  23.198  1.00  0.00     0.346 HD
BRANCH   9  12
ATOM     12  C   UNL A   1      34.418  25.486  25.174  1.00  0.00     0.264 C 
BRANCH  12  13
ATOM     13  C   UNL A   1      34.233  23.944  25.225  1.00  0.00     0.049 C 
ATOM     14  C   UNL A   1      34.762  23.341  26.537  1.00  0.00     0.010 C 
ATOM     15  C   UNL A   1      34.769  23.170  23.995  1.00  0.00     0.023 C 
ATOM     16  C   UNL A   1      34.349  21.871  26.648  1.00  0.00     0.001 C 
ATOM     17  C   UNL A   1      34.358  21.687  24.116  1.00  0.00     0.006 C 
ATOM     18  C   UNL A   1      34.786  21.049  25.438  1.00  0.00     0.000 C 
BRANCH  15  19
ATOM     19  C   UNL A   1      36.281  23.337  23.783  1.00  0.00     0.160 C 
BRANCH  19  20
ATOM     20  O   UNL A   1      36.636  22.948  22.461  1.00  0.00    -0.396 OA
ATOM     21  H   UNL A   1      36.590  21.983  22.384  1.00  0.00     0.210 HD
ENDBRANCH  19  20
ENDBRANCH  15  19
ENDBRANCH  12  13
ENDBRANCH   9  12
ENDBRANCH   7   9
ENDBRANCH   5   7
ENDBRANCH   1   5
BRANCH   3  22
ATOM     22  C   UNL A   1      32.744  29.888  25.924  1.00  0.00     0.116 C 
BRANCH  22  23
ATOM     23  C   UNL A   1      31.402  30.614  25.771  1.00  0.00     0.023 C 
BRANCH  23  24
ATOM     24  C   UNL A   1      31.274  31.941  26.495  1.00  0.00     0.023 C 
BRANCH  24  25
ATOM     25  C   UNL A   1      32.570  32.444  27.085  1.00  0.00     0.116 C 
BRANCH  25  26
ATOM     26  N   UNL A   1      32.516  33.852  27.451  1.00  0.00    -0.352 N 
ATOM     27  C   UNL A   1      33.276  34.538  28.368  1.00  0.00     0.251 C 
ATOM     28  H   UNL A   1      31.842  34.389  26.974  1.00  0.00     0.163 HD
ATOM     29  O   UNL A   1      32.996  35.688  28.669  1.00  0.00    -0.269 OA
BRANCH  27  30
ATOM     30  C   UNL A   1      34.422  33.854  29.000  1.00  0.00     0.039 A 
ATOM     31  C   UNL A   1      34.191  32.744  29.811  1.00  0.00     0.014 A 
ATOM     32  C   UNL A   1      35.726  34.299  28.765  1.00  0.00     0.014 A 
ATOM     33  C   UNL A   1      35.276  32.063  30.360  1.00  0.00     0.010 A 
ATOM     34  C   UNL A   1      36.800  33.540  29.192  1.00  0.00     0.010 A 
ATOM     35  C   UNL A   1      36.589  32.445  30.037  1.00  0.00    -0.014 A 
BRANCH  35  36
ATOM     36  C   UNL A   1      37.759  31.776  30.647  1.00  0.00     0.031 A 
ATOM     37  C   UNL A   1      38.154  32.123  32.059  1.00  0.00     0.074 A 
ATOM     38  C   UNL A   1      38.479  30.896  29.927  1.00  0.00     0.049 A 
ATOM     39  N   UNL A   1      39.148  31.668  32.776  1.00  0.00    -0.248 NA
ATOM     40  C   UNL A   1      37.347  33.148  32.744  1.00  0.00     0.031 C 
ATOM     41  C   UNL A   1      38.226  30.535  28.530  1.00  0.00     0.029 A 
ATOM     42  N   UNL A   1      39.568  30.142  30.274  1.00  0.00    -0.354 N 
ATOM     43  C   UNL A   1      39.095  32.367  33.976  1.00  0.00     0.074 A 
ATOM     44  C   UNL A   1      38.028  33.332  33.862  1.00  0.00     0.031 C 
ATOM     45  C   UNL A   1      39.106  29.592  28.156  1.00  0.00     0.029 A 
ATOM     46  C   UNL A   1      40.002  29.309  29.272  1.00  0.00     0.049 A 
ATOM     47  H   UNL A   1      40.000  30.191  31.158  1.00  0.00     0.167 HD
ATOM     48  C   UNL A   1      39.844  32.191  35.090  1.00  0.00     0.037 A 
ATOM     49  C   UNL A   1      41.006  28.413  29.267  1.00  0.00     0.037 A 
ATOM     50  C   UNL A   1      40.877  31.199  35.205  1.00  0.00     0.049 A 
ATOM     51  C   UNL A   1      41.811  28.221  30.526  1.00  0.00     0.074 A 
ATOM     52  C   UNL A   1      41.656  30.886  36.304  1.00  0.00     0.029 A 
ATOM     53  N   UNL A   1      41.271  30.354  34.176  1.00  0.00    -0.354 N 
ATOM     54  N   UNL A   1      41.699  28.827  31.684  1.00  0.00    -0.248 NA
ATOM     55  C   UNL A   1      42.870  27.206  30.480  1.00  0.00     0.031 C 
ATOM     56  C   UNL A   1      42.560  29.889  35.923  1.00  0.00     0.029 A 
ATOM     57  C   UNL A   1      42.299  29.533  34.609  1.00  0.00     0.049 A 
ATOM     58  H   UNL A   1      40.880  30.342  33.273  1.00  0.00     0.167 HD
ATOM     59  C   UNL A   1      42.642  28.239  32.516  1.00  0.00     0.074 A 
ATOM     60  C   UNL A   1      43.307  27.219  31.731  1.00  0.00     0.031 C 
ATOM     61  C   UNL A   1      42.932  28.513  33.813  1.00  0.00     0.037 A 
BRANCH  48  62
ATOM     62  C   UNL A   1      39.566  33.089  36.263  1.00  0.00     0.064 A 
ATOM     63  C   UNL A   1      40.257  34.296  36.453  1.00  0.00     0.173 A 
ATOM     64  C   UNL A   1      38.586  32.743  37.205  1.00  0.00     0.173 A 
ATOM     65  F   UNL A   1      41.218  34.668  35.593  1.00  0.00    -0.203 F 
ATOM     66  C   UNL A   1      40.005  35.102  37.560  1.00  0.00     0.198 A 
ATOM     67  C   UNL A   1      38.309  33.570  38.290  1.00  0.00     0.198 A 
ATOM     68  F   UNL A   1      37.894  31.601  37.073  1.00  0.00    -0.203 F 
ATOM     69  F   UNL A   1      40.724  36.216  37.755  1.00  0.00    -0.200 F 
ATOM     70  C   UNL A   1      39.025  34.743  38.473  1.00  0.00     0.200 A 
ATOM     71  F   UNL A   1      37.352  33.227  39.164  1.00  0.00    -0.200 F 
ATOM     72  F   UNL A   1      38.778  35.523  39.535  1.00  0.00    -0.200 F 
ENDBRANCH  48  62
BRANCH  49  73
ATOM     73  C   UNL A   1      41.269  27.592  28.057  1.00  0.00     0.064 A 
ATOM     74  C   UNL A   1      40.664  26.337  27.893  1.00  0.00     0.173 A 
ATOM     75  C   UNL A   1      42.134  28.032  27.045  1.00  0.00     0.173 A 
ATOM     76  F   UNL A   1      39.838  25.863  28.839  1.00  0.00    -0.203 F 
ATOM     77  C   UNL A   1      40.938  25.542  26.782  1.00  0.00     0.198 A 
ATOM     78  C   UNL A   1      42.383  27.251  25.919  1.00  0.00     0.198 A 
ATOM     79  F   UNL A   1      42.730  29.229  27.146  1.00  0.00    -0.203 F 
ATOM     80  F   UNL A   1      40.388  24.324  26.681  1.00  0.00    -0.200 F 
ATOM     81  C   UNL A   1      41.794  26.002  25.793  1.00  0.00     0.200 A 
ATOM     82  F   UNL A   1      43.197  27.707  24.957  1.00  0.00    -0.200 F 
ATOM     83  F   UNL A   1      42.057  25.238  24.724  1.00  0.00    -0.200 F 
ENDBRANCH  49  73
BRANCH  61  84
ATOM     84  C   UNL A   1      43.968  27.655  34.479  1.00  0.00     0.064 A 
ATOM     85  C   UNL A   1      43.640  26.447  35.111  1.00  0.00     0.173 A 
ATOM     86  C   UNL A   1      45.318  28.041  34.461  1.00  0.00     0.173 A 
ATOM     87  F   UNL A   1      42.363  26.037  35.166  1.00  0.00    -0.203 F 
ATOM     88  C   UNL A   1      44.617  25.679  35.738  1.00  0.00     0.198 A 
ATOM     89  C   UNL A   1      46.298  27.251  35.054  1.00  0.00     0.198 A 
ATOM     90  F   UNL A   1      45.688  29.181  33.858  1.00  0.00    -0.203 F 
ATOM     91  F   UNL A   1      44.271  24.563  36.395  1.00  0.00    -0.200 F 
ATOM     92  C   UNL A   1      45.945  26.078  35.703  1.00  0.00     0.200 A 
ATOM     93  F   UNL A   1      47.582  27.629  35.002  1.00  0.00    -0.200 F 
ATOM     94  F   UNL A   1      46.885  25.337  36.304  1.00  0.00    -0.200 F 
ENDBRANCH  61  84
ENDBRANCH  35  36
ENDBRANCH  27  30
ENDBRANCH  25  26
ENDBRANCH  24  25
ENDBRANCH  23  24
ENDBRANCH  22  23
ENDBRANCH   3  22
TORSDOF 17
ENDMDL
MODEL 3
REMARK VINA RESULT:     -10.9      2.470      3.482
REMARK SMILES C[C@H](C(=O)NCCCCNC(=O)c1ccc(-c2c3nc(c(-c4c(F)c(F)c(F)c(F)c4F)c4ccc([nH]4)c(-c4c(F)c(F)c(F)c(F)c4F)c4nc(c(-c5c(F)c(F)c(F)c(F)c5F)c5ccc2[nH]5)C=C4)C=C3)cc1)[C@@H](C)[NH2+]C[C@@H]1CCCC[C@@H]1CO
REMARK SMILES IDX 3 1 4 2 5 3 2 5 1 6 76 7 77 8 78 9 79 12 80 13 81 14 85 15
REMARK SMILES IDX 82 16 84 17 83 18 86 19 87 20 6 22 7 23 8 24 9 25 10 26
REMARK SMILES IDX 11 27 12 29 13 30 14 31 75 32 15 33 74 34 16 35 17 36 18 37
REMARK SMILES IDX 68 38 19 39 73 40 67 41 69 42 20 43 72 44 66 45 65 46 21 48
REMARK SMILES IDX 53 49 33 50 52 51 34 52 37 53 51 54 70 55 35 56 36 57 50 59
REMARK SMILES IDX 71 60 38 61 22 62 23 63 31 64 24 65 25 66 29 67 32 68 26 69
REMARK SMILES IDX 27 70 30 71 28 72 54 73 55 74 63 75 56 76 57 77 61 78 64 79
REMARK SMILES IDX 58 80 59 81 62 82 60 83 39 84 40 85 48 86 41 87 42 88 46 89
REMARK SMILES IDX 49 90 43 91 44 92 47 93 45 94
REMARK H PARENT 5 4 78 10 78 11 87 21 10 28 69 47 37 58
REMARK Flexibility Score: inf
ROOT
ATOM      1  C   UNL A   1      34.800  24.477  25.296  1.00  0.00     0.228 C 
ATOM      2  O   UNL A   1      35.542  23.953  26.128  1.00  0.00    -0.275 OA
ATOM      3  N   UNL A   1      34.386  25.759  25.542  1.00  0.00    -0.356 N 
ATOM      4  H   UNL A   1      34.738  26.150  26.375  1.00  0.00     0.163 HD
ENDROOT
BRANCH   1   5
ATOM      5  C   UNL A   1      34.334  23.733  24.037  1.00  0.00     0.133 C 
ATOM      6  C   UNL A   1      35.513  22.927  23.467  1.00  0.00     0.024 C 
BRANCH   5   7
ATOM      7  C   UNL A   1      33.107  22.786  24.262  1.00  0.00     0.191 C 
ATOM      8  C   UNL A   1      32.469  22.335  22.962  1.00  0.00     0.076 C 
BRANCH   7   9
ATOM      9  N   UNL A   1      33.500  21.670  25.158  1.00  0.00    -0.343 N 
ATOM     10  H   UNL A   1      33.668  22.074  26.081  1.00  0.00     0.346 HD
ATOM     11  H   UNL A   1      34.302  21.251  24.689  1.00  0.00     0.346 HD
BRANCH   9  12
ATOM     12  C   UNL A   1      32.576  20.546  25.345  1.00  0.00     0.264 C 
BRANCH  12  13
ATOM     13  C   UNL A   1      33.172  19.133  25.095  1.00  0.00     0.049 C 
ATOM     14  C   UNL A   1      34.635  19.198  24.625  1.00  0.00     0.010 C 
ATOM     15  C   UNL A   1      32.330  18.210  24.181  1.00  0.00     0.023 C 
ATOM     16  C   UNL A   1      35.252  17.796  24.620  1.00  0.00     0.001 C 
ATOM     17  C   UNL A   1      32.961  16.800  24.172  1.00  0.00     0.006 C 
ATOM     18  C   UNL A   1      34.440  16.805  23.790  1.00  0.00     0.000 C 
BRANCH  15  19
ATOM     19  C   UNL A   1      32.137  18.767  22.763  1.00  0.00     0.160 C 
BRANCH  19  20
ATOM     20  O   UNL A   1      31.966  17.700  21.836  1.00  0.00    -0.396 OA
ATOM     21  H   UNL A   1      32.470  17.888  21.029  1.00  0.00     0.210 HD
ENDBRANCH  19  20
ENDBRANCH  15  19
ENDBRANCH  12  13
ENDBRANCH   9  12
ENDBRANCH   7   9
ENDBRANCH   5   7
ENDBRANCH   1   5
BRANCH   3  22
ATOM     22  C   UNL A   1      33.513  26.641  24.784  1.00  0.00     0.116 C 
BRANCH  22  23
ATOM     23  C   UNL A   1      32.199  26.953  25.512  1.00  0.00     0.023 C 
BRANCH  23  24
ATOM     24  C   UNL A   1      32.183  28.219  26.347  1.00  0.00     0.023 C 
BRANCH  24  25
ATOM     25  C   UNL A   1      33.224  29.234  25.941  1.00  0.00     0.116 C 
BRANCH  25  26
ATOM     26  N   UNL A   1      32.846  30.599  26.277  1.00  0.00    -0.352 N 
ATOM     27  C   UNL A   1      33.401  31.449  27.202  1.00  0.00     0.251 C 
ATOM     28  H   UNL A   1      32.085  30.965  25.769  1.00  0.00     0.163 HD
ATOM     29  O   UNL A   1      32.862  32.512  27.471  1.00  0.00    -0.269 OA
BRANCH  27  30
ATOM     30  C   UNL A   1      34.649  31.047  27.883  1.00  0.00     0.039 A 
ATOM     31  C   UNL A   1      35.694  31.964  27.986  1.00  0.00     0.014 A 
ATOM     32  C   UNL A   1      34.769  29.772  28.439  1.00  0.00     0.014 A 
ATOM     33  C   UNL A   1      36.849  31.605  28.679  1.00  0.00     0.010 A 
ATOM     34  C   UNL A   1      35.852  29.471  29.245  1.00  0.00     0.010 A 
ATOM     35  C   UNL A   1      36.927  30.362  29.330  1.00  0.00    -0.014 A 
BRANCH  35  36
ATOM     36  C   UNL A   1      38.160  29.933  30.027  1.00  0.00     0.031 A 
ATOM     37  C   UNL A   1      38.425  30.425  31.426  1.00  0.00     0.074 A 
ATOM     38  C   UNL A   1      39.046  29.143  29.395  1.00  0.00     0.049 A 
ATOM     39  N   UNL A   1      39.445  30.186  32.209  1.00  0.00    -0.248 NA
ATOM     40  C   UNL A   1      37.431  31.342  32.010  1.00  0.00     0.031 C 
ATOM     41  C   UNL A   1      38.923  28.661  28.018  1.00  0.00     0.029 A 
ATOM     42  N   UNL A   1      40.226  28.601  29.832  1.00  0.00    -0.354 N 
ATOM     43  C   UNL A   1      39.223  30.937  33.356  1.00  0.00     0.074 A 
ATOM     44  C   UNL A   1      38.019  31.704  33.138  1.00  0.00     0.031 C 
ATOM     45  C   UNL A   1      39.961  27.855  27.740  1.00  0.00     0.029 A 
ATOM     46  C   UNL A   1      40.837  27.793  28.905  1.00  0.00     0.049 A 
ATOM     47  H   UNL A   1      40.602  28.775  30.726  1.00  0.00     0.167 HD
ATOM     48  C   UNL A   1      39.936  30.955  34.505  1.00  0.00     0.037 A 
ATOM     49  C   UNL A   1      41.972  27.076  28.998  1.00  0.00     0.037 A 
ATOM     50  C   UNL A   1      41.110  30.156  34.725  1.00  0.00     0.049 A 
ATOM     51  C   UNL A   1      42.737  27.097  30.296  1.00  0.00     0.074 A 
ATOM     52  C   UNL A   1      41.876  30.043  35.871  1.00  0.00     0.029 A 
ATOM     53  N   UNL A   1      41.685  29.328  33.772  1.00  0.00    -0.354 N 
ATOM     54  N   UNL A   1      42.473  27.744  31.405  1.00  0.00    -0.248 NA
ATOM     55  C   UNL A   1      43.948  26.270  30.358  1.00  0.00     0.031 C 
ATOM     56  C   UNL A   1      42.947  29.188  35.592  1.00  0.00     0.029 A 
ATOM     57  C   UNL A   1      42.810  28.715  34.296  1.00  0.00     0.049 A 
ATOM     58  H   UNL A   1      41.344  29.196  32.857  1.00  0.00     0.167 HD
ATOM     59  C   UNL A   1      43.459  27.371  32.309  1.00  0.00     0.074 A 
ATOM     60  C   UNL A   1      44.317  26.430  31.619  1.00  0.00     0.031 C 
ATOM     61  C   UNL A   1      43.638  27.767  33.594  1.00  0.00     0.037 A 
BRANCH  48  62
ATOM     62  C   UNL A   1      39.460  31.864  35.605  1.00  0.00     0.064 A 
ATOM     63  C   UNL A   1      39.980  33.156  35.775  1.00  0.00     0.173 A 
ATOM     64  C   UNL A   1      38.462  31.440  36.494  1.00  0.00     0.173 A 
ATOM     65  F   UNL A   1      40.950  33.608  34.964  1.00  0.00    -0.203 F 
ATOM     66  C   UNL A   1      39.546  33.975  36.815  1.00  0.00     0.198 A 
ATOM     67  C   UNL A   1      38.002  32.274  37.509  1.00  0.00     0.198 A 
ATOM     68  F   UNL A   1      37.929  30.213  36.378  1.00  0.00    -0.203 F 
ATOM     69  F   UNL A   1      40.104  35.179  36.996  1.00  0.00    -0.200 F 
ATOM     70  C   UNL A   1      38.551  33.537  37.676  1.00  0.00     0.200 A 
ATOM     71  F   UNL A   1      37.032  31.853  38.333  1.00  0.00    -0.200 F 
ATOM     72  F   UNL A   1      38.130  34.327  38.673  1.00  0.00    -0.200 F 
ENDBRANCH  48  62
BRANCH  49  73
ATOM     73  C   UNL A   1      42.422  26.238  27.856  1.00  0.00     0.064 A 
ATOM     74  C   UNL A   1      43.370  26.719  26.940  1.00  0.00     0.173 A 
ATOM     75  C   UNL A   1      41.911  24.949  27.646  1.00  0.00     0.173 A 
ATOM     76  F   UNL A   1      43.879  27.951  27.089  1.00  0.00    -0.203 F 
ATOM     77  C   UNL A   1      43.765  25.957  25.843  1.00  0.00     0.198 A 
ATOM     78  C   UNL A   1      42.331  24.175  26.566  1.00  0.00     0.198 A 
ATOM     79  F   UNL A   1      41.011  24.437  28.497  1.00  0.00    -0.203 F 
ATOM     80  F   UNL A   1      44.630  26.465  24.954  1.00  0.00    -0.200 F 
ATOM     81  C   UNL A   1      43.249  24.683  25.659  1.00  0.00     0.200 A 
ATOM     82  F   UNL A   1      41.843  22.938  26.402  1.00  0.00    -0.200 F 
ATOM     83  F   UNL A   1      43.629  23.950  24.604  1.00  0.00    -0.200 F 
ENDBRANCH  49  73
BRANCH  61  84
ATOM     84  C   UNL A   1      44.767  27.134  34.355  1.00  0.00     0.064 A 
ATOM     85  C   UNL A   1      46.045  27.709  34.406  1.00  0.00     0.173 A 
ATOM     86  C   UNL A   1      44.554  25.943  35.066  1.00  0.00     0.173 A 
ATOM     87  F   UNL A   1      46.303  28.843  33.735  1.00  0.00    -0.203 F 
ATOM     88  C   UNL A   1      47.079  27.093  35.103  1.00  0.00     0.198 A 
ATOM     89  C   UNL A   1      45.581  25.349  35.795  1.00  0.00     0.198 A 
ATOM     90  F   UNL A   1      43.347  25.358  35.062  1.00  0.00    -0.203 F 
ATOM     91  F   UNL A   1      48.310  27.625  35.081  1.00  0.00    -0.200 F 
ATOM     92  C   UNL A   1      46.845  25.918  35.802  1.00  0.00     0.200 A 
ATOM     93  F   UNL A   1      45.346  24.226  36.486  1.00  0.00    -0.200 F 
ATOM     94  F   UNL A   1      47.841  25.327  36.475  1.00  0.00    -0.200 F 
ENDBRANCH  61  84
ENDBRANCH  35  36
ENDBRANCH  27  30
ENDBRANCH  25  26
ENDBRANCH  24  25
ENDBRANCH  23  24
ENDBRANCH  22  23
ENDBRANCH   3  22
TORSDOF 17
ENDMDL
