MODEL 1
REMARK VINA RESULT:     -12.6      0.000      0.000
REMARK SMILES CCc1ncc(C[N@H+]2CCC[C@@H](c3cccc(C(=O)NCCCCNC(=O)c4ccc(-c5c6nc(c(-c7c(F)c(F)c(F)c(F)c7F)c7ccc([nH]7)c(-c7c(F)c(F)c(F)c(F)c7F)c7nc(c(-c8c(F)c(F)c(F)c(F)c8F)c8ccc5[nH]8)C=C7)C=C6)cc4)c3)C2)cn1
REMARK SMILES IDX 21 1 20 2 18 3 19 4 17 6 13 7 14 8 91 9 15 10 16 11 12 12
REMARK SMILES IDX 8 13 9 14 92 15 10 17 11 18 7 19 6 20 3 21 4 22 94 23 5 24
REMARK SMILES IDX 93 25 2 26 1 27 22 28 23 29 24 30 25 31 26 32 27 34 28 35
REMARK SMILES IDX 29 36 90 37 30 38 89 39 31 40 32 41 33 42 83 43 34 44 88 45
REMARK SMILES IDX 82 46 84 47 35 48 87 49 81 50 80 51 36 53 68 54 48 55 67 56
REMARK SMILES IDX 49 57 52 58 66 59 85 60 50 61 51 62 65 64 86 65 53 66 37 67
REMARK SMILES IDX 38 68 46 69 39 70 40 71 44 72 47 73 41 74 42 75 45 76 43 77
REMARK SMILES IDX 69 78 70 79 78 80 71 81 72 82 76 83 79 84 73 85 74 86 77 87
REMARK SMILES IDX 75 88 54 89 55 90 63 91 56 92 57 93 61 94 64 95 58 96 59 97
REMARK SMILES IDX 62 98 60 99
REMARK H PARENT 20 5 8 16 25 33 84 52 52 63
REMARK Flexibility Score: inf
ROOT
ATOM      1  C   UNL A   1      34.032  30.005  27.388  1.00  0.00     0.116 C 
ENDROOT
BRANCH   1   2
ATOM      2  N   UNL A   1      33.916  29.939  25.938  1.00  0.00    -0.352 N 
ATOM      3  C   UNL A   1      33.317  29.004  25.118  1.00  0.00     0.251 C 
ATOM      4  O   UNL A   1      33.350  29.175  23.901  1.00  0.00    -0.269 OA
ATOM      5  H   UNL A   1      34.336  30.690  25.461  1.00  0.00     0.163 HD
BRANCH   3   6
ATOM      6  C   UNL A   1      32.701  27.765  25.665  1.00  0.00     0.040 A 
ATOM      7  C   UNL A   1      32.755  25.353  25.931  1.00  0.00    -0.039 A 
ATOM      8  C   UNL A   1      31.403  25.373  26.291  1.00  0.00     0.004 A 
ATOM      9  C   UNL A   1      33.415  26.574  25.765  1.00  0.00     0.018 A 
ATOM     10  C   UNL A   1      30.715  26.586  26.380  1.00  0.00     0.001 A 
ATOM     11  C   UNL A   1      31.352  27.779  26.029  1.00  0.00     0.014 A 
BRANCH   7  12
ATOM     12  C   UNL A   1      33.549  24.084  25.682  1.00  0.00     0.074 C 
ATOM     13  N   UNL A   1      33.498  21.909  24.454  1.00  0.00    -0.331 N 
ATOM     14  C   UNL A   1      34.853  22.149  23.942  1.00  0.00     0.262 C 
ATOM     15  C   UNL A   1      32.788  23.171  24.721  1.00  0.00     0.270 C 
ATOM     16  H   UNL A   1      33.611  21.425  25.346  1.00  0.00     0.348 HD
ATOM     17  C   UNL A   1      35.677  22.999  24.914  1.00  0.00     0.062 C 
ATOM     18  C   UNL A   1      34.986  24.331  25.197  1.00  0.00     0.020 C 
BRANCH  13  19
ATOM     19  C   UNL A   1      32.705  20.999  23.600  1.00  0.00     0.302 C 
BRANCH  19  20
ATOM     20  C   UNL A   1      32.678  19.566  24.043  1.00  0.00     0.043 A 
ATOM     21  C   UNL A   1      33.029  16.989  24.821  1.00  0.00     0.127 A 
ATOM     22  N   UNL A   1      32.950  17.932  25.781  1.00  0.00    -0.241 NA
ATOM     23  N   UNL A   1      32.887  17.230  23.505  1.00  0.00    -0.241 NA
ATOM     24  C   UNL A   1      32.762  19.199  25.367  1.00  0.00     0.124 A 
ATOM     25  C   UNL A   1      32.703  18.513  23.149  1.00  0.00     0.124 A 
BRANCH  21  26
ATOM     26  C   UNL A   1      33.442  15.601  25.224  1.00  0.00     0.074 C 
ATOM     27  C   UNL A   1      32.274  14.750  25.692  1.00  0.00     0.012 C 
ENDBRANCH  21  26
ENDBRANCH  19  20
ENDBRANCH  13  19
ENDBRANCH   7  12
ENDBRANCH   3   6
ENDBRANCH   1   2
BRANCH   1  28
ATOM     28  C   UNL A   1      34.182  31.404  27.963  1.00  0.00     0.023 C 
BRANCH  28  29
ATOM     29  C   UNL A   1      32.954  32.296  27.888  1.00  0.00     0.023 C 
BRANCH  29  30
ATOM     30  C   UNL A   1      33.169  33.668  27.268  1.00  0.00     0.116 C 
BRANCH  30  31
ATOM     31  N   UNL A   1      32.655  34.772  28.064  1.00  0.00    -0.352 N 
ATOM     32  C   UNL A   1      33.096  35.253  29.279  1.00  0.00     0.251 C 
ATOM     33  H   UNL A   1      31.880  35.243  27.681  1.00  0.00     0.163 HD
ATOM     34  O   UNL A   1      32.501  36.158  29.839  1.00  0.00    -0.269 OA
BRANCH  32  35
ATOM     35  C   UNL A   1      34.274  34.629  29.922  1.00  0.00     0.039 A 
ATOM     36  C   UNL A   1      34.080  33.826  31.049  1.00  0.00     0.014 A 
ATOM     37  C   UNL A   1      35.554  34.801  29.393  1.00  0.00     0.014 A 
ATOM     38  C   UNL A   1      35.160  33.131  31.595  1.00  0.00     0.010 A 
ATOM     39  C   UNL A   1      36.607  34.034  29.877  1.00  0.00     0.010 A 
ATOM     40  C   UNL A   1      36.425  33.199  30.989  1.00  0.00    -0.014 A 
BRANCH  40  41
ATOM     41  C   UNL A   1      37.579  32.430  31.516  1.00  0.00     0.031 A 
ATOM     42  C   UNL A   1      38.133  32.753  32.875  1.00  0.00     0.074 A 
ATOM     43  C   UNL A   1      38.171  31.491  30.752  1.00  0.00     0.049 A 
ATOM     44  N   UNL A   1      39.170  32.245  33.493  1.00  0.00    -0.248 NA
ATOM     45  C   UNL A   1      37.449  33.817  33.627  1.00  0.00     0.031 C 
ATOM     46  C   UNL A   1      37.760  31.118  29.397  1.00  0.00     0.029 A 
ATOM     47  N   UNL A   1      39.248  30.680  31.007  1.00  0.00    -0.354 N 
ATOM     48  C   UNL A   1      39.274  32.944  34.689  1.00  0.00     0.074 A 
ATOM     49  C   UNL A   1      38.238  33.953  34.681  1.00  0.00     0.031 C 
ATOM     50  C   UNL A   1      38.549  30.125  28.956  1.00  0.00     0.029 A 
ATOM     51  C   UNL A   1      39.542  29.816  29.981  1.00  0.00     0.049 A 
ATOM     52  H   UNL A   1      39.762  30.715  31.846  1.00  0.00     0.167 HD
ATOM     53  C   UNL A   1      40.133  32.742  35.716  1.00  0.00     0.037 A 
ATOM     54  C   UNL A   1      40.501  28.875  29.885  1.00  0.00     0.037 A 
ATOM     55  C   UNL A   1      41.140  31.715  35.735  1.00  0.00     0.049 A 
ATOM     56  C   UNL A   1      41.445  28.669  31.039  1.00  0.00     0.074 A 
ATOM     57  C   UNL A   1      42.021  31.385  36.749  1.00  0.00     0.029 A 
ATOM     58  N   UNL A   1      41.398  30.850  34.682  1.00  0.00    -0.354 N 
ATOM     59  N   UNL A   1      41.489  29.286  32.194  1.00  0.00    -0.248 NA
ATOM     60  C   UNL A   1      42.470  27.630  30.873  1.00  0.00     0.031 C 
ATOM     61  C   UNL A   1      42.841  30.347  36.294  1.00  0.00     0.029 A 
ATOM     62  C   UNL A   1      42.438  29.996  35.015  1.00  0.00     0.049 A 
ATOM     63  H   UNL A   1      40.915  30.843  33.824  1.00  0.00     0.167 HD
ATOM     64  C   UNL A   1      42.516  28.684  32.909  1.00  0.00     0.074 A 
ATOM     65  C   UNL A   1      43.066  27.650  32.057  1.00  0.00     0.031 C 
ATOM     66  C   UNL A   1      42.962  28.961  34.160  1.00  0.00     0.037 A 
BRANCH  53  67
ATOM     67  C   UNL A   1      40.009  33.657  36.901  1.00  0.00     0.064 A 
ATOM     68  C   UNL A   1      39.150  33.363  37.973  1.00  0.00     0.173 A 
ATOM     69  C   UNL A   1      40.749  34.847  36.963  1.00  0.00     0.173 A 
ATOM     70  F   UNL A   1      38.410  32.246  37.958  1.00  0.00    -0.203 F 
ATOM     71  C   UNL A   1      39.001  34.250  39.037  1.00  0.00     0.198 A 
ATOM     72  C   UNL A   1      40.624  35.715  38.046  1.00  0.00     0.198 A 
ATOM     73  F   UNL A   1      41.589  35.175  35.970  1.00  0.00    -0.203 F 
ATOM     74  F   UNL A   1      38.121  33.982  40.011  1.00  0.00    -0.200 F 
ATOM     75  C   UNL A   1      39.740  35.422  39.074  1.00  0.00     0.200 A 
ATOM     76  F   UNL A   1      41.348  36.841  38.087  1.00  0.00    -0.200 F 
ATOM     77  F   UNL A   1      39.592  36.277  40.096  1.00  0.00    -0.200 F 
ENDBRANCH  53  67
BRANCH  54  78
ATOM     78  C   UNL A   1      40.575  28.011  28.679  1.00  0.00     0.064 A 
ATOM     79  C   UNL A   1      39.884  26.792  28.636  1.00  0.00     0.173 A 
ATOM     80  C   UNL A   1      41.324  28.377  27.553  1.00  0.00     0.173 A 
ATOM     81  F   UNL A   1      39.170  26.389  29.697  1.00  0.00    -0.203 F 
ATOM     82  C   UNL A   1      39.954  25.964  27.518  1.00  0.00     0.198 A 
ATOM     83  C   UNL A   1      41.373  27.560  26.425  1.00  0.00     0.198 A 
ATOM     84  F   UNL A   1      42.000  29.536  27.544  1.00  0.00    -0.203 F 
ATOM     85  F   UNL A   1      39.315  24.785  27.519  1.00  0.00    -0.200 F 
ATOM     86  C   UNL A   1      40.694  26.350  26.411  1.00  0.00     0.200 A 
ATOM     87  F   UNL A   1      42.079  27.942  25.352  1.00  0.00    -0.200 F 
ATOM     88  F   UNL A   1      40.757  25.556  25.334  1.00  0.00    -0.200 F 
ENDBRANCH  54  78
BRANCH  66  89
ATOM     89  C   UNL A   1      44.062  28.097  34.704  1.00  0.00     0.064 A 
ATOM     90  C   UNL A   1      45.413  28.450  34.572  1.00  0.00     0.173 A 
ATOM     91  C   UNL A   1      43.755  26.916  35.399  1.00  0.00     0.173 A 
ATOM     92  F   UNL A   1      45.759  29.561  33.904  1.00  0.00    -0.203 F 
ATOM     93  C   UNL A   1      46.417  27.638  35.091  1.00  0.00     0.198 A 
ATOM     94  C   UNL A   1      44.761  26.124  35.943  1.00  0.00     0.198 A 
ATOM     95  F   UNL A   1      42.478  26.538  35.558  1.00  0.00    -0.203 F 
ATOM     96  F   UNL A   1      47.704  27.968  34.910  1.00  0.00    -0.200 F 
ATOM     97  C   UNL A   1      46.090  26.480  35.782  1.00  0.00     0.200 A 
ATOM     98  F   UNL A   1      44.442  25.013  36.621  1.00  0.00    -0.200 F 
ATOM     99  F   UNL A   1      47.059  25.703  36.286  1.00  0.00    -0.200 F 
ENDBRANCH  66  89
ENDBRANCH  40  41
ENDBRANCH  32  35
ENDBRANCH  30  31
ENDBRANCH  29  30
ENDBRANCH  28  29
ENDBRANCH   1  28
TORSDOF 15
ENDMDL
MODEL 2
REMARK VINA RESULT:     -12.5      1.613      7.300
REMARK SMILES CCc1ncc(C[N@H+]2CCC[C@@H](c3cccc(C(=O)NCCCCNC(=O)c4ccc(-c5c6nc(c(-c7c(F)c(F)c(F)c(F)c7F)c7ccc([nH]7)c(-c7c(F)c(F)c(F)c(F)c7F)c7nc(c(-c8c(F)c(F)c(F)c(F)c8F)c8ccc5[nH]8)C=C7)C=C6)cc4)c3)C2)cn1
REMARK SMILES IDX 21 1 20 2 18 3 19 4 17 6 13 7 14 8 91 9 15 10 16 11 12 12
REMARK SMILES IDX 8 13 9 14 92 15 10 17 11 18 7 19 6 20 3 21 4 22 94 23 5 24
REMARK SMILES IDX 93 25 2 26 1 27 22 28 23 29 24 30 25 31 26 32 27 34 28 35
REMARK SMILES IDX 29 36 90 37 30 38 89 39 31 40 32 41 33 42 83 43 34 44 88 45
REMARK SMILES IDX 82 46 84 47 35 48 87 49 81 50 80 51 36 53 68 54 48 55 67 56
REMARK SMILES IDX 49 57 52 58 66 59 85 60 50 61 51 62 65 64 86 65 53 66 37 67
REMARK SMILES IDX 38 68 46 69 39 70 40 71 44 72 47 73 41 74 42 75 45 76 43 77
REMARK SMILES IDX 69 78 70 79 78 80 71 81 72 82 76 83 79 84 73 85 74 86 77 87
REMARK SMILES IDX 75 88 54 89 55 90 63 91 56 92 57 93 61 94 64 95 58 96 59 97
REMARK SMILES IDX 62 98 60 99
REMARK H PARENT 20 5 8 16 25 33 84 52 52 63
REMARK Flexibility Score: inf
ROOT
ATOM      1  C   UNL A   1      29.642  31.448  24.479  1.00  0.00     0.116 C 
ENDROOT
BRANCH   1   2
ATOM      2  N   UNL A   1      29.719  31.045  23.083  1.00  0.00    -0.352 N 
ATOM      3  C   UNL A   1      29.578  29.808  22.486  1.00  0.00     0.251 C 
ATOM      4  O   UNL A   1      29.686  29.724  21.264  1.00  0.00    -0.269 OA
ATOM      5  H   UNL A   1      29.904  31.781  22.456  1.00  0.00     0.163 HD
BRANCH   3   6
ATOM      6  C   UNL A   1      29.373  28.573  23.289  1.00  0.00     0.040 A 
ATOM      7  C   UNL A   1      30.317  26.663  24.452  1.00  0.00    -0.039 A 
ATOM      8  C   UNL A   1      29.064  26.042  24.428  1.00  0.00     0.004 A 
ATOM      9  C   UNL A   1      30.411  27.985  24.006  1.00  0.00     0.018 A 
ATOM     10  C   UNL A   1      27.961  26.700  23.877  1.00  0.00     0.001 A 
ATOM     11  C   UNL A   1      28.123  27.949  23.272  1.00  0.00     0.014 A 
BRANCH   7  12
ATOM     12  C   UNL A   1      31.594  25.982  24.909  1.00  0.00     0.074 C 
ATOM     13  N   UNL A   1      33.246  24.217  24.279  1.00  0.00    -0.331 N 
ATOM     14  C   UNL A   1      34.356  25.145  24.529  1.00  0.00     0.262 C 
ATOM     15  C   UNL A   1      32.022  24.931  23.884  1.00  0.00     0.270 C 
ATOM     16  H   UNL A   1      33.058  23.751  25.168  1.00  0.00     0.348 HD
ATOM     17  C   UNL A   1      33.997  26.171  25.608  1.00  0.00     0.062 C 
ATOM     18  C   UNL A   1      32.743  26.953  25.223  1.00  0.00     0.020 C 
BRANCH  13  19
ATOM     19  C   UNL A   1      33.591  23.140  23.326  1.00  0.00     0.302 C 
BRANCH  19  20
ATOM     20  C   UNL A   1      33.538  21.749  23.884  1.00  0.00     0.043 A 
ATOM     21  C   UNL A   1      33.639  19.123  24.565  1.00  0.00     0.127 A 
ATOM     22  N   UNL A   1      34.627  19.926  25.006  1.00  0.00    -0.241 NA
ATOM     23  N   UNL A   1      32.573  19.544  23.860  1.00  0.00    -0.241 NA
ATOM     24  C   UNL A   1      34.544  21.226  24.665  1.00  0.00     0.124 A 
ATOM     25  C   UNL A   1      32.544  20.851  23.547  1.00  0.00     0.124 A 
BRANCH  21  26
ATOM     26  C   UNL A   1      33.798  17.639  24.746  1.00  0.00     0.074 C 
ATOM     27  C   UNL A   1      33.543  16.857  23.469  1.00  0.00     0.012 C 
ENDBRANCH  21  26
ENDBRANCH  19  20
ENDBRANCH  13  19
ENDBRANCH   7  12
ENDBRANCH   3   6
ENDBRANCH   1   2
BRANCH   1  28
ATOM     28  C   UNL A   1      30.899  31.196  25.297  1.00  0.00     0.023 C 
BRANCH  28  29
ATOM     29  C   UNL A   1      31.009  31.953  26.609  1.00  0.00     0.023 C 
BRANCH  29  30
ATOM     30  C   UNL A   1      32.348  32.623  26.877  1.00  0.00     0.116 C 
BRANCH  30  31
ATOM     31  N   UNL A   1      32.246  33.967  27.425  1.00  0.00    -0.352 N 
ATOM     32  C   UNL A   1      33.043  34.593  28.361  1.00  0.00     0.251 C 
ATOM     33  H   UNL A   1      31.500  34.508  27.078  1.00  0.00     0.163 HD
ATOM     34  O   UNL A   1      32.771  35.715  28.754  1.00  0.00    -0.269 OA
BRANCH  32  35
ATOM     35  C   UNL A   1      34.207  33.871  28.920  1.00  0.00     0.039 A 
ATOM     36  C   UNL A   1      35.480  34.432  28.776  1.00  0.00     0.014 A 
ATOM     37  C   UNL A   1      34.043  32.673  29.617  1.00  0.00     0.014 A 
ATOM     38  C   UNL A   1      36.574  33.831  29.400  1.00  0.00     0.010 A 
ATOM     39  C   UNL A   1      35.113  32.131  30.318  1.00  0.00     0.010 A 
ATOM     40  C   UNL A   1      36.392  32.697  30.209  1.00  0.00    -0.014 A 
BRANCH  40  41
ATOM     41  C   UNL A   1      37.527  32.068  30.928  1.00  0.00     0.031 A 
ATOM     42  C   UNL A   1      38.341  31.002  30.250  1.00  0.00     0.074 A 
ATOM     43  C   UNL A   1      37.786  32.404  32.207  1.00  0.00     0.049 A 
ATOM     44  N   UNL A   1      39.330  30.285  30.721  1.00  0.00    -0.248 NA
ATOM     45  C   UNL A   1      37.967  30.671  28.866  1.00  0.00     0.031 C 
ATOM     46  C   UNL A   1      37.040  33.388  32.993  1.00  0.00     0.029 A 
ATOM     47  N   UNL A   1      38.749  31.950  33.072  1.00  0.00    -0.354 N 
ATOM     48  C   UNL A   1      39.677  29.407  29.701  1.00  0.00     0.074 A 
ATOM     49  C   UNL A   1      38.751  29.635  28.614  1.00  0.00     0.031 C 
ATOM     50  C   UNL A   1      37.597  33.492  34.210  1.00  0.00     0.029 A 
ATOM     51  C   UNL A   1      38.717  32.559  34.302  1.00  0.00     0.049 A 
ATOM     52  H   UNL A   1      39.403  31.253  32.834  1.00  0.00     0.167 HD
ATOM     53  C   UNL A   1      40.695  28.515  29.662  1.00  0.00     0.037 A 
ATOM     54  C   UNL A   1      39.508  32.388  35.379  1.00  0.00     0.037 A 
ATOM     55  C   UNL A   1      41.634  28.315  30.732  1.00  0.00     0.049 A 
ATOM     56  C   UNL A   1      40.632  31.390  35.311  1.00  0.00     0.074 A 
ATOM     57  C   UNL A   1      42.738  27.482  30.772  1.00  0.00     0.029 A 
ATOM     58  N   UNL A   1      41.577  28.962  31.958  1.00  0.00    -0.354 N 
ATOM     59  N   UNL A   1      40.997  30.617  34.318  1.00  0.00    -0.248 NA
ATOM     60  C   UNL A   1      41.459  31.246  36.518  1.00  0.00     0.031 C 
ATOM     61  C   UNL A   1      43.324  27.594  32.036  1.00  0.00     0.029 A 
ATOM     62  C   UNL A   1      42.616  28.533  32.769  1.00  0.00     0.049 A 
ATOM     63  H   UNL A   1      40.898  29.627  32.216  1.00  0.00     0.167 HD
ATOM     64  C   UNL A   1      42.117  29.926  34.762  1.00  0.00     0.074 A 
ATOM     65  C   UNL A   1      42.374  30.377  36.115  1.00  0.00     0.031 C 
ATOM     66  C   UNL A   1      42.866  29.005  34.108  1.00  0.00     0.037 A 
BRANCH  53  67
ATOM     67  C   UNL A   1      40.835  27.693  28.412  1.00  0.00     0.064 A 
ATOM     68  C   UNL A   1      40.212  26.441  28.280  1.00  0.00     0.173 A 
ATOM     69  C   UNL A   1      41.608  28.156  27.337  1.00  0.00     0.173 A 
ATOM     70  F   UNL A   1      39.473  25.946  29.283  1.00  0.00    -0.203 F 
ATOM     71  C   UNL A   1      40.399  25.664  27.139  1.00  0.00     0.198 A 
ATOM     72  C   UNL A   1      41.764  27.391  26.183  1.00  0.00     0.198 A 
ATOM     73  F   UNL A   1      42.221  29.348  27.406  1.00  0.00    -0.203 F 
ATOM     74  F   UNL A   1      39.854  24.441  27.068  1.00  0.00    -0.200 F 
ATOM     75  C   UNL A   1      41.171  26.140  26.091  1.00  0.00     0.200 A 
ATOM     76  F   UNL A   1      42.499  27.858  25.166  1.00  0.00    -0.200 F 
ATOM     77  F   UNL A   1      41.354  25.389  24.996  1.00  0.00    -0.200 F 
ENDBRANCH  53  67
BRANCH  54  78
ATOM     78  C   UNL A   1      39.307  33.226  36.588  1.00  0.00     0.064 A 
ATOM     79  C   UNL A   1      38.477  32.784  37.628  1.00  0.00     0.173 A 
ATOM     80  C   UNL A   1      39.931  34.472  36.736  1.00  0.00     0.173 A 
ATOM     81  F   UNL A   1      37.841  31.608  37.524  1.00  0.00    -0.203 F 
ATOM     82  C   UNL A   1      38.267  33.564  38.763  1.00  0.00     0.198 A 
ATOM     83  C   UNL A   1      39.740  35.240  37.883  1.00  0.00     0.198 A 
ATOM     84  F   UNL A   1      40.737  34.938  35.770  1.00  0.00    -0.203 F 
ATOM     85  F   UNL A   1      37.437  33.135  39.725  1.00  0.00    -0.200 F 
ATOM     86  C   UNL A   1      38.902  34.790  38.893  1.00  0.00     0.200 A 
ATOM     87  F   UNL A   1      40.365  36.419  38.010  1.00  0.00    -0.200 F 
ATOM     88  F   UNL A   1      38.704  35.538  39.986  1.00  0.00    -0.200 F 
ENDBRANCH  54  78
BRANCH  66  89
ATOM     89  C   UNL A   1      44.069  28.463  34.824  1.00  0.00     0.064 A 
ATOM     90  C   UNL A   1      45.304  29.128  34.805  1.00  0.00     0.173 A 
ATOM     91  C   UNL A   1      43.971  27.278  35.571  1.00  0.00     0.173 A 
ATOM     92  F   UNL A   1      45.452  30.256  34.094  1.00  0.00    -0.203 F 
ATOM     93  C   UNL A   1      46.404  28.611  35.483  1.00  0.00     0.198 A 
ATOM     94  C   UNL A   1      45.065  26.781  36.272  1.00  0.00     0.198 A 
ATOM     95  F   UNL A   1      42.810  26.608  35.627  1.00  0.00    -0.203 F 
ATOM     96  F   UNL A   1      47.587  29.236  35.410  1.00  0.00    -0.200 F 
ATOM     97  C   UNL A   1      46.282  27.443  36.222  1.00  0.00     0.200 A 
ATOM     98  F   UNL A   1      44.942  25.660  36.995  1.00  0.00    -0.200 F 
ATOM     99  F   UNL A   1      47.341  26.950  36.878  1.00  0.00    -0.200 F 
ENDBRANCH  66  89
ENDBRANCH  40  41
ENDBRANCH  32  35
ENDBRANCH  30  31
ENDBRANCH  29  30
ENDBRANCH  28  29
ENDBRANCH   1  28
TORSDOF 15
ENDMDL
MODEL 3
REMARK VINA RESULT:     -12.5      0.640      7.157
REMARK SMILES CCc1ncc(C[N@H+]2CCC[C@@H](c3cccc(C(=O)NCCCCNC(=O)c4ccc(-c5c6nc(c(-c7c(F)c(F)c(F)c(F)c7F)c7ccc([nH]7)c(-c7c(F)c(F)c(F)c(F)c7F)c7nc(c(-c8c(F)c(F)c(F)c(F)c8F)c8ccc5[nH]8)C=C7)C=C6)cc4)c3)C2)cn1
REMARK SMILES IDX 21 1 20 2 18 3 19 4 17 6 13 7 14 8 91 9 15 10 16 11 12 12
REMARK SMILES IDX 8 13 9 14 92 15 10 17 11 18 7 19 6 20 3 21 4 22 94 23 5 24
REMARK SMILES IDX 93 25 2 26 1 27 22 28 23 29 24 30 25 31 26 32 27 34 28 35
REMARK SMILES IDX 29 36 90 37 30 38 89 39 31 40 32 41 33 42 83 43 34 44 88 45
REMARK SMILES IDX 82 46 84 47 35 48 87 49 81 50 80 51 36 53 68 54 48 55 67 56
REMARK SMILES IDX 49 57 52 58 66 59 85 60 50 61 51 62 65 64 86 65 53 66 37 67
REMARK SMILES IDX 38 68 46 69 39 70 40 71 44 72 47 73 41 74 42 75 45 76 43 77
REMARK SMILES IDX 69 78 70 79 78 80 71 81 72 82 76 83 79 84 73 85 74 86 77 87
REMARK SMILES IDX 75 88 54 89 55 90 63 91 56 92 57 93 61 94 64 95 58 96 59 97
REMARK SMILES IDX 62 98 60 99
REMARK H PARENT 20 5 8 16 25 33 84 52 52 63
REMARK Flexibility Score: inf
ROOT
ATOM      1  C   UNL A   1      34.331  29.716  27.303  1.00  0.00     0.116 C 
ENDROOT
BRANCH   1   2
ATOM      2  N   UNL A   1      34.029  29.791  25.881  1.00  0.00    -0.352 N 
ATOM      3  C   UNL A   1      33.283  28.961  25.068  1.00  0.00     0.251 C 
ATOM      4  O   UNL A   1      33.170  29.245  23.877  1.00  0.00    -0.269 OA
ATOM      5  H   UNL A   1      34.423  30.567  25.421  1.00  0.00     0.163 HD
BRANCH   3   6
ATOM      6  C   UNL A   1      32.680  27.702  25.580  1.00  0.00     0.040 A 
ATOM      7  C   UNL A   1      32.833  25.302  25.911  1.00  0.00    -0.039 A 
ATOM      8  C   UNL A   1      31.452  25.255  26.130  1.00  0.00     0.004 A 
ATOM      9  C   UNL A   1      33.442  26.554  25.783  1.00  0.00     0.018 A 
ATOM     10  C   UNL A   1      30.695  26.430  26.116  1.00  0.00     0.001 A 
ATOM     11  C   UNL A   1      31.302  27.648  25.803  1.00  0.00     0.014 A 
BRANCH   7  12
ATOM     12  C   UNL A   1      33.715  24.074  25.778  1.00  0.00     0.074 C 
ATOM     13  N   UNL A   1      33.878  21.851  24.650  1.00  0.00    -0.331 N 
ATOM     14  C   UNL A   1      35.252  22.150  24.226  1.00  0.00     0.262 C 
ATOM     15  C   UNL A   1      33.080  23.078  24.807  1.00  0.00     0.270 C 
ATOM     16  H   UNL A   1      33.952  21.412  25.569  1.00  0.00     0.348 HD
ATOM     17  C   UNL A   1      35.952  23.088  25.214  1.00  0.00     0.062 C 
ATOM     18  C   UNL A   1      35.167  24.386  25.386  1.00  0.00     0.020 C 
BRANCH  13  19
ATOM     19  C   UNL A   1      33.204  20.860  23.784  1.00  0.00     0.302 C 
BRANCH  19  20
ATOM     20  C   UNL A   1      33.121  19.471  24.344  1.00  0.00     0.043 A 
ATOM     21  C   UNL A   1      32.579  16.984  25.287  1.00  0.00     0.127 A 
ATOM     22  N   UNL A   1      32.921  17.104  23.989  1.00  0.00    -0.241 NA
ATOM     23  N   UNL A   1      32.545  18.004  26.163  1.00  0.00    -0.241 NA
ATOM     24  C   UNL A   1      33.198  18.347  23.552  1.00  0.00     0.124 A 
ATOM     25  C   UNL A   1      32.829  19.223  25.671  1.00  0.00     0.124 A 
BRANCH  21  26
ATOM     26  C   UNL A   1      32.065  15.654  25.763  1.00  0.00     0.074 C 
ATOM     27  C   UNL A   1      33.007  14.507  25.441  1.00  0.00     0.012 C 
ENDBRANCH  21  26
ENDBRANCH  19  20
ENDBRANCH  13  19
ENDBRANCH   7  12
ENDBRANCH   3   6
ENDBRANCH   1   2
BRANCH   1  28
ATOM     28  C   UNL A   1      34.440  31.056  28.014  1.00  0.00     0.023 C 
BRANCH  28  29
ATOM     29  C   UNL A   1      33.186  31.914  28.023  1.00  0.00     0.023 C 
BRANCH  29  30
ATOM     30  C   UNL A   1      33.197  33.113  27.087  1.00  0.00     0.116 C 
BRANCH  30  31
ATOM     31  N   UNL A   1      32.658  34.332  27.669  1.00  0.00    -0.352 N 
ATOM     32  C   UNL A   1      33.065  35.018  28.795  1.00  0.00     0.251 C 
ATOM     33  H   UNL A   1      31.892  34.724  27.192  1.00  0.00     0.163 HD
ATOM     34  O   UNL A   1      32.453  36.000  29.177  1.00  0.00    -0.269 OA
BRANCH  32  35
ATOM     35  C   UNL A   1      34.229  34.522  29.564  1.00  0.00     0.039 A 
ATOM     36  C   UNL A   1      34.009  33.928  30.810  1.00  0.00     0.014 A 
ATOM     37  C   UNL A   1      35.521  34.606  29.044  1.00  0.00     0.014 A 
ATOM     38  C   UNL A   1      35.076  33.345  31.494  1.00  0.00     0.010 A 
ATOM     39  C   UNL A   1      36.564  33.941  29.679  1.00  0.00     0.010 A 
ATOM     40  C   UNL A   1      36.356  33.313  30.915  1.00  0.00    -0.014 A 
BRANCH  40  41
ATOM     41  C   UNL A   1      37.498  32.654  31.595  1.00  0.00     0.031 A 
ATOM     42  C   UNL A   1      38.218  31.522  30.917  1.00  0.00     0.074 A 
ATOM     43  C   UNL A   1      37.845  33.023  32.843  1.00  0.00     0.049 A 
ATOM     44  N   UNL A   1      39.197  30.774  31.362  1.00  0.00    -0.248 NA
ATOM     45  C   UNL A   1      37.751  31.159  29.570  1.00  0.00     0.031 C 
ATOM     46  C   UNL A   1      37.194  34.073  33.629  1.00  0.00     0.029 A 
ATOM     47  N   UNL A   1      38.832  32.554  33.672  1.00  0.00    -0.354 N 
ATOM     48  C   UNL A   1      39.442  29.842  30.360  1.00  0.00     0.074 A 
ATOM     49  C   UNL A   1      38.468  30.076  29.317  1.00  0.00     0.031 C 
ATOM     50  C   UNL A   1      37.824  34.195  34.808  1.00  0.00     0.029 A 
ATOM     51  C   UNL A   1      38.900  33.210  34.876  1.00  0.00     0.049 A 
ATOM     52  H   UNL A   1      39.437  31.815  33.426  1.00  0.00     0.167 HD
ATOM     53  C   UNL A   1      40.411  28.898  30.301  1.00  0.00     0.037 A 
ATOM     54  C   UNL A   1      39.742  33.038  35.914  1.00  0.00     0.037 A 
ATOM     55  C   UNL A   1      41.398  28.691  31.325  1.00  0.00     0.049 A 
ATOM     56  C   UNL A   1      40.810  31.982  35.825  1.00  0.00     0.074 A 
ATOM     57  C   UNL A   1      42.460  27.804  31.338  1.00  0.00     0.029 A 
ATOM     58  N   UNL A   1      41.442  29.385  32.526  1.00  0.00    -0.354 N 
ATOM     59  N   UNL A   1      41.079  31.155  34.845  1.00  0.00    -0.248 NA
ATOM     60  C   UNL A   1      41.696  31.842  36.989  1.00  0.00     0.031 C 
ATOM     61  C   UNL A   1      43.122  27.933  32.563  1.00  0.00     0.029 A 
ATOM     62  C   UNL A   1      42.503  28.935  33.295  1.00  0.00     0.049 A 
ATOM     63  H   UNL A   1      40.812  30.093  32.793  1.00  0.00     0.167 HD
ATOM     64  C   UNL A   1      42.187  30.425  35.254  1.00  0.00     0.074 A 
ATOM     65  C   UNL A   1      42.543  30.912  36.572  1.00  0.00     0.031 C 
ATOM     66  C   UNL A   1      42.853  29.443  34.598  1.00  0.00     0.037 A 
BRANCH  53  67
ATOM     67  C   UNL A   1      40.439  28.024  29.079  1.00  0.00     0.064 A 
ATOM     68  C   UNL A   1      41.183  28.373  27.941  1.00  0.00     0.173 A 
ATOM     69  C   UNL A   1      39.707  26.828  29.041  1.00  0.00     0.173 A 
ATOM     70  F   UNL A   1      41.891  29.511  27.919  1.00  0.00    -0.203 F 
ATOM     71  C   UNL A   1      41.153  27.583  26.794  1.00  0.00     0.198 A 
ATOM     72  C   UNL A   1      39.707  26.022  27.905  1.00  0.00     0.198 A 
ATOM     73  F   UNL A   1      38.982  26.443  30.103  1.00  0.00    -0.203 F 
ATOM     74  F   UNL A   1      41.813  27.975  25.695  1.00  0.00    -0.200 F 
ATOM     75  C   UNL A   1      40.418  26.408  26.778  1.00  0.00     0.200 A 
ATOM     76  F   UNL A   1      39.006  24.881  27.895  1.00  0.00    -0.200 F 
ATOM     77  F   UNL A   1      40.385  25.651  25.672  1.00  0.00    -0.200 F 
ENDBRANCH  53  67
BRANCH  54  78
ATOM     78  C   UNL A   1      39.651  33.931  37.097  1.00  0.00     0.064 A 
ATOM     79  C   UNL A   1      38.932  33.532  38.234  1.00  0.00     0.173 A 
ATOM     80  C   UNL A   1      40.273  35.186  37.125  1.00  0.00     0.173 A 
ATOM     81  F   UNL A   1      38.303  32.348  38.246  1.00  0.00    -0.203 F 
ATOM     82  C   UNL A   1      38.826  34.363  39.347  1.00  0.00     0.198 A 
ATOM     83  C   UNL A   1      40.187  36.006  38.250  1.00  0.00     0.198 A 
ATOM     84  F   UNL A   1      40.975  35.612  36.065  1.00  0.00    -0.203 F 
ATOM     85  F   UNL A   1      38.100  33.974  40.404  1.00  0.00    -0.200 F 
ATOM     86  C   UNL A   1      39.458  35.597  39.357  1.00  0.00     0.200 A 
ATOM     87  F   UNL A   1      40.808  37.193  38.260  1.00  0.00    -0.200 F 
ATOM     88  F   UNL A   1      39.360  36.394  40.429  1.00  0.00    -0.200 F 
ENDBRANCH  54  78
BRANCH  66  89
ATOM     89  C   UNL A   1      44.066  28.867  35.269  1.00  0.00     0.064 A 
ATOM     90  C   UNL A   1      45.347  29.397  35.061  1.00  0.00     0.173 A 
ATOM     91  C   UNL A   1      43.935  27.790  36.159  1.00  0.00     0.173 A 
ATOM     92  F   UNL A   1      45.526  30.418  34.208  1.00  0.00    -0.203 F 
ATOM     93  C   UNL A   1      46.458  28.853  35.699  1.00  0.00     0.198 A 
ATOM     94  C   UNL A   1      45.044  27.268  36.819  1.00  0.00     0.198 A 
ATOM     95  F   UNL A   1      42.730  27.251  36.397  1.00  0.00    -0.203 F 
ATOM     96  F   UNL A   1      47.680  29.343  35.449  1.00  0.00    -0.200 F 
ATOM     97  C   UNL A   1      46.304  27.794  36.583  1.00  0.00     0.200 A 
ATOM     98  F   UNL A   1      44.892  26.254  37.682  1.00  0.00    -0.200 F 
ATOM     99  F   UNL A   1      47.374  27.275  37.201  1.00  0.00    -0.200 F 
ENDBRANCH  66  89
ENDBRANCH  40  41
ENDBRANCH  32  35
ENDBRANCH  30  31
ENDBRANCH  29  30
ENDBRANCH  28  29
ENDBRANCH   1  28
TORSDOF 15
ENDMDL
