MODEL 1
REMARK VINA RESULT:     -13.2      0.000      0.000
REMARK SMILES NS(=O)(=O)c1ccc(-n2nc(C(F)(F)F)cc2-c2ccc(CC(=O)NCCCCNC(=O)c3ccc(-c4c5nc(c(-c6c(F)c(F)c(F)c(F)c6F)c6ccc([nH]6)c(-c6c(F)c(F)c(F)c(F)c6F)c6nc(c(-c7c(F)c(F)c(F)c(F)c7F)c7ccc4[nH]7)C=C6)C=C5)cc3)cc2)cc1
REMARK SMILES IDX 26 1 25 2 23 3 24 4 22 6 21 7 18 8 19 9 97 10 20 11 96 12
REMARK SMILES IDX 17 13 9 14 10 15 11 16 16 17 8 18 5 19 6 20 99 21 7 22 98 23
REMARK SMILES IDX 2 24 3 25 4 26 1 27 12 30 13 31 14 32 15 33 27 34 28 35
REMARK SMILES IDX 29 36 30 37 31 38 32 40 33 41 34 42 95 43 35 44 94 45 36 46
REMARK SMILES IDX 37 47 38 48 88 49 39 50 93 51 87 52 89 53 40 54 92 55 86 56
REMARK SMILES IDX 85 57 41 59 73 60 53 61 72 62 54 63 57 64 71 65 90 66 55 67
REMARK SMILES IDX 56 68 70 70 91 71 58 72 42 73 43 74 51 75 44 76 45 77 49 78
REMARK SMILES IDX 52 79 46 80 47 81 50 82 48 83 74 84 75 85 83 86 76 87 77 88
REMARK SMILES IDX 81 89 84 90 78 91 79 92 82 93 80 94 59 95 60 96 68 97 61 98
REMARK SMILES IDX 62 99 66 100 69 101 63 102 64 103 67 104 65 105
REMARK H PARENT 25 5 1 28 1 29 30 39 89 58 57 69
REMARK Flexibility Score: inf
ROOT
ATOM      1  C   UNL A   1      31.649  28.583  24.144  1.00  0.00     0.116 C 
ENDROOT
BRANCH   1   2
ATOM      2  N   UNL A   1      30.916  27.787  25.110  1.00  0.00    -0.356 N 
ATOM      3  C   UNL A   1      30.631  26.452  25.098  1.00  0.00     0.224 C 
ATOM      4  O   UNL A   1      29.906  26.007  25.990  1.00  0.00    -0.275 OA
ATOM      5  H   UNL A   1      30.573  28.282  25.888  1.00  0.00     0.163 HD
BRANCH   3   6
ATOM      6  C   UNL A   1      31.236  25.541  24.041  1.00  0.00     0.135 C 
BRANCH   6   7
ATOM      7  C   UNL A   1      32.591  24.984  24.407  1.00  0.00    -0.039 A 
ATOM      8  C   UNL A   1      35.066  23.797  25.052  1.00  0.00     0.000 A 
ATOM      9  C   UNL A   1      34.128  24.085  26.054  1.00  0.00     0.010 A 
ATOM     10  C   UNL A   1      34.780  24.167  23.735  1.00  0.00     0.010 A 
ATOM     11  C   UNL A   1      32.901  24.674  25.735  1.00  0.00     0.005 A 
ATOM     12  C   UNL A   1      33.557  24.763  23.417  1.00  0.00     0.005 A 
BRANCH   8  13
ATOM     13  C   UNL A   1      36.346  23.167  25.384  1.00  0.00     0.075 A 
ATOM     14  N   UNL A   1      36.560  21.805  25.570  1.00  0.00    -0.233 N 
ATOM     15  N   UNL A   1      37.752  21.556  26.165  1.00  0.00    -0.163 NA
ATOM     16  C   UNL A   1      38.416  22.727  26.110  1.00  0.00     0.167 A 
ATOM     17  C   UNL A   1      37.562  23.763  25.658  1.00  0.00     0.064 A 
BRANCH  14  18
ATOM     18  C   UNL A   1      35.755  20.719  25.145  1.00  0.00     0.065 A 
ATOM     19  C   UNL A   1      34.166  18.593  24.305  1.00  0.00     0.082 A 
ATOM     20  C   UNL A   1      35.551  18.439  24.387  1.00  0.00     0.024 A 
ATOM     21  C   UNL A   1      33.566  19.791  24.698  1.00  0.00     0.024 A 
ATOM     22  C   UNL A   1      36.355  19.517  24.757  1.00  0.00     0.030 A 
ATOM     23  C   UNL A   1      34.360  20.842  25.168  1.00  0.00     0.030 A 
BRANCH  19  24
ATOM     24  S   UNL A   1      33.153  17.299  23.650  1.00  0.00     0.238 S 
ATOM     25  O   UNL A   1      33.791  16.028  23.932  1.00  0.00    -0.207 OA
ATOM     26  O   UNL A   1      32.704  17.679  22.339  1.00  0.00    -0.207 OA
BRANCH  24  27
ATOM     27  N   UNL A   1      31.777  17.299  24.626  1.00  0.00    -0.225 NA
ATOM     28  H   UNL A   1      30.986  16.932  24.099  1.00  0.00     0.137 HD
ATOM     29  H   UNL A   1      31.574  18.251  24.927  1.00  0.00     0.137 HD
ENDBRANCH  24  27
ENDBRANCH  19  24
ENDBRANCH  14  18
BRANCH  16  30
ATOM     30  C   UNL A   1      39.862  22.870  26.499  1.00  0.00     0.435 C 
ATOM     31  F   UNL A   1      40.695  22.109  25.743  1.00  0.00    -0.164 F 
ATOM     32  F   UNL A   1      40.290  24.156  26.398  1.00  0.00    -0.164 F 
ATOM     33  F   UNL A   1      40.070  22.501  27.794  1.00  0.00    -0.164 F 
ENDBRANCH  16  30
ENDBRANCH   8  13
ENDBRANCH   6   7
ENDBRANCH   3   6
ENDBRANCH   1   2
BRANCH   1  34
ATOM     34  C   UNL A   1      32.863  29.270  24.774  1.00  0.00     0.023 C 
BRANCH  34  35
ATOM     35  C   UNL A   1      33.677  28.382  25.721  1.00  0.00     0.023 C 
BRANCH  35  36
ATOM     36  C   UNL A   1      34.133  29.046  27.010  1.00  0.00     0.116 C 
BRANCH  36  37
ATOM     37  N   UNL A   1      34.262  30.499  26.900  1.00  0.00    -0.352 N 
ATOM     38  C   UNL A   1      35.107  31.321  27.621  1.00  0.00     0.251 C 
ATOM     39  H   UNL A   1      33.683  30.941  26.239  1.00  0.00     0.163 HD
ATOM     40  O   UNL A   1      34.910  32.524  27.714  1.00  0.00    -0.269 OA
BRANCH  38  41
ATOM     41  C   UNL A   1      36.258  30.696  28.291  1.00  0.00     0.039 A 
ATOM     42  C   UNL A   1      36.488  29.322  28.193  1.00  0.00     0.014 A 
ATOM     43  C   UNL A   1      37.180  31.542  28.901  1.00  0.00     0.014 A 
ATOM     44  C   UNL A   1      37.717  28.818  28.615  1.00  0.00     0.010 A 
ATOM     45  C   UNL A   1      38.436  31.063  29.190  1.00  0.00     0.010 A 
ATOM     46  C   UNL A   1      38.710  29.698  29.078  1.00  0.00    -0.014 A 
BRANCH  46  47
ATOM     47  C   UNL A   1      40.066  29.209  29.341  1.00  0.00     0.031 A 
ATOM     48  C   UNL A   1      40.483  29.104  30.774  1.00  0.00     0.074 A 
ATOM     49  C   UNL A   1      40.842  28.647  28.388  1.00  0.00     0.049 A 
ATOM     50  N   UNL A   1      41.503  29.654  31.350  1.00  0.00    -0.248 NA
ATOM     51  C   UNL A   1      39.643  28.316  31.690  1.00  0.00     0.031 C 
ATOM     52  C   UNL A   1      40.502  28.358  26.991  1.00  0.00     0.029 A 
ATOM     53  N   UNL A   1      42.080  28.090  28.520  1.00  0.00    -0.354 N 
ATOM     54  C   UNL A   1      41.529  29.175  32.660  1.00  0.00     0.074 A 
ATOM     55  C   UNL A   1      40.302  28.444  32.844  1.00  0.00     0.031 C 
ATOM     56  C   UNL A   1      41.388  27.473  26.487  1.00  0.00     0.029 A 
ATOM     57  C   UNL A   1      42.452  27.284  27.455  1.00  0.00     0.049 A 
ATOM     58  H   UNL A   1      42.658  28.248  29.301  1.00  0.00     0.167 HD
ATOM     59  C   UNL A   1      42.648  29.264  33.436  1.00  0.00     0.037 A 
ATOM     60  C   UNL A   1      43.543  26.489  27.375  1.00  0.00     0.037 A 
ATOM     61  C   UNL A   1      43.578  30.228  32.908  1.00  0.00     0.049 A 
ATOM     62  C   UNL A   1      44.526  26.974  28.371  1.00  0.00     0.074 A 
ATOM     63  C   UNL A   1      43.528  31.580  32.629  1.00  0.00     0.029 A 
ATOM     64  N   UNL A   1      44.702  29.771  32.265  1.00  0.00    -0.354 N 
ATOM     65  N   UNL A   1      45.159  28.110  28.278  1.00  0.00    -0.248 NA
ATOM     66  C   UNL A   1      44.516  26.371  29.693  1.00  0.00     0.031 C 
ATOM     67  C   UNL A   1      44.297  31.739  31.437  1.00  0.00     0.029 A 
ATOM     68  C   UNL A   1      44.807  30.484  31.100  1.00  0.00     0.049 A 
ATOM     69  H   UNL A   1      45.313  29.066  32.580  1.00  0.00     0.167 HD
ATOM     70  C   UNL A   1      45.234  28.573  29.582  1.00  0.00     0.074 A 
ATOM     71  C   UNL A   1      44.938  27.412  30.415  1.00  0.00     0.031 C 
ATOM     72  C   UNL A   1      45.248  29.911  29.853  1.00  0.00     0.037 A 
BRANCH  59  73
ATOM     73  C   UNL A   1      43.064  28.261  34.489  1.00  0.00     0.064 A 
ATOM     74  C   UNL A   1      43.379  28.711  35.790  1.00  0.00     0.173 A 
ATOM     75  C   UNL A   1      43.461  26.941  34.194  1.00  0.00     0.173 A 
ATOM     76  F   UNL A   1      43.060  29.955  36.179  1.00  0.00    -0.203 F 
ATOM     77  C   UNL A   1      44.114  27.931  36.687  1.00  0.00     0.198 A 
ATOM     78  C   UNL A   1      44.148  26.146  35.112  1.00  0.00     0.198 A 
ATOM     79  F   UNL A   1      43.305  26.408  32.976  1.00  0.00    -0.203 F 
ATOM     80  F   UNL A   1      44.505  28.453  37.857  1.00  0.00    -0.200 F 
ATOM     81  C   UNL A   1      44.506  26.652  36.344  1.00  0.00     0.200 A 
ATOM     82  F   UNL A   1      44.533  24.911  34.756  1.00  0.00    -0.200 F 
ATOM     83  F   UNL A   1      45.268  25.927  37.173  1.00  0.00    -0.200 F 
ENDBRANCH  59  73
BRANCH  60  84
ATOM     84  C   UNL A   1      43.696  25.210  26.654  1.00  0.00     0.064 A 
ATOM     85  C   UNL A   1      44.545  25.102  25.543  1.00  0.00     0.173 A 
ATOM     86  C   UNL A   1      43.217  24.003  27.202  1.00  0.00     0.173 A 
ATOM     87  F   UNL A   1      45.070  26.203  24.987  1.00  0.00    -0.203 F 
ATOM     88  C   UNL A   1      44.920  23.858  25.028  1.00  0.00     0.198 A 
ATOM     89  C   UNL A   1      43.585  22.762  26.682  1.00  0.00     0.198 A 
ATOM     90  F   UNL A   1      42.461  24.003  28.310  1.00  0.00    -0.203 F 
ATOM     91  F   UNL A   1      45.784  23.791  24.006  1.00  0.00    -0.200 F 
ATOM     92  C   UNL A   1      44.448  22.689  25.605  1.00  0.00     0.200 A 
ATOM     93  F   UNL A   1      43.146  21.640  27.269  1.00  0.00    -0.200 F 
ATOM     94  F   UNL A   1      44.857  21.497  25.151  1.00  0.00    -0.200 F 
ENDBRANCH  60  84
BRANCH  72  95
ATOM     95  C   UNL A   1      45.489  30.857  28.710  1.00  0.00     0.064 A 
ATOM     96  C   UNL A   1      44.482  31.329  27.849  1.00  0.00     0.173 A 
ATOM     97  C   UNL A   1      46.772  31.397  28.553  1.00  0.00     0.173 A 
ATOM     98  F   UNL A   1      43.207  30.954  28.003  1.00  0.00    -0.203 F 
ATOM     99  C   UNL A   1      44.765  32.246  26.838  1.00  0.00     0.198 A 
ATOM    100  C   UNL A   1      47.043  32.343  27.569  1.00  0.00     0.198 A 
ATOM    101  F   UNL A   1      47.762  31.033  29.384  1.00  0.00    -0.203 F 
ATOM    102  F   UNL A   1      43.791  32.659  26.013  1.00  0.00    -0.200 F 
ATOM    103  C   UNL A   1      46.045  32.755  26.702  1.00  0.00     0.200 A 
ATOM    104  F   UNL A   1      48.271  32.873  27.475  1.00  0.00    -0.200 F 
ATOM    105  F   UNL A   1      46.311  33.661  25.751  1.00  0.00    -0.200 F 
ENDBRANCH  72  95
ENDBRANCH  46  47
ENDBRANCH  38  41
ENDBRANCH  36  37
ENDBRANCH  35  36
ENDBRANCH  34  35
ENDBRANCH   1  34
TORSDOF 17
ENDMDL
MODEL 2
REMARK VINA RESULT:     -12.3      4.360      6.758
REMARK SMILES NS(=O)(=O)c1ccc(-n2nc(C(F)(F)F)cc2-c2ccc(CC(=O)NCCCCNC(=O)c3ccc(-c4c5nc(c(-c6c(F)c(F)c(F)c(F)c6F)c6ccc([nH]6)c(-c6c(F)c(F)c(F)c(F)c6F)c6nc(c(-c7c(F)c(F)c(F)c(F)c7F)c7ccc4[nH]7)C=C6)C=C5)cc3)cc2)cc1
REMARK SMILES IDX 26 1 25 2 23 3 24 4 22 6 21 7 18 8 19 9 97 10 20 11 96 12
REMARK SMILES IDX 17 13 9 14 10 15 11 16 16 17 8 18 5 19 6 20 99 21 7 22 98 23
REMARK SMILES IDX 2 24 3 25 4 26 1 27 12 30 13 31 14 32 15 33 27 34 28 35
REMARK SMILES IDX 29 36 30 37 31 38 32 40 33 41 34 42 95 43 35 44 94 45 36 46
REMARK SMILES IDX 37 47 38 48 88 49 39 50 93 51 87 52 89 53 40 54 92 55 86 56
REMARK SMILES IDX 85 57 41 59 73 60 53 61 72 62 54 63 57 64 71 65 90 66 55 67
REMARK SMILES IDX 56 68 70 70 91 71 58 72 42 73 43 74 51 75 44 76 45 77 49 78
REMARK SMILES IDX 52 79 46 80 47 81 50 82 48 83 74 84 75 85 83 86 76 87 77 88
REMARK SMILES IDX 81 89 84 90 78 91 79 92 82 93 80 94 59 95 60 96 68 97 61 98
REMARK SMILES IDX 62 99 66 100 69 101 63 102 64 103 67 104 65 105
REMARK H PARENT 25 5 1 28 1 29 30 39 89 58 57 69
REMARK Flexibility Score: inf
ROOT
ATOM      1  C   UNL A   1      34.574  32.293  27.730  1.00  0.00     0.116 C 
ENDROOT
BRANCH   1   2
ATOM      2  N   UNL A   1      35.793  31.527  27.555  1.00  0.00    -0.356 N 
ATOM      3  C   UNL A   1      35.999  30.183  27.677  1.00  0.00     0.224 C 
ATOM      4  O   UNL A   1      37.153  29.763  27.570  1.00  0.00    -0.275 OA
ATOM      5  H   UNL A   1      36.588  32.054  27.314  1.00  0.00     0.163 HD
BRANCH   3   6
ATOM      6  C   UNL A   1      34.828  29.235  27.885  1.00  0.00     0.135 C 
BRANCH   6   7
ATOM      7  C   UNL A   1      33.774  29.308  26.806  1.00  0.00    -0.039 A 
ATOM      8  C   UNL A   1      31.762  29.291  24.830  1.00  0.00     0.000 A 
ATOM      9  C   UNL A   1      33.095  29.008  24.497  1.00  0.00     0.010 A 
ATOM     10  C   UNL A   1      31.458  29.646  26.147  1.00  0.00     0.010 A 
ATOM     11  C   UNL A   1      34.093  29.015  25.476  1.00  0.00     0.005 A 
ATOM     12  C   UNL A   1      32.457  29.662  27.125  1.00  0.00     0.005 A 
BRANCH   8  13
ATOM     13  C   UNL A   1      30.714  29.269  23.808  1.00  0.00     0.075 A 
ATOM     14  N   UNL A   1      30.474  28.235  22.908  1.00  0.00    -0.233 N 
ATOM     15  N   UNL A   1      29.659  28.621  21.896  1.00  0.00    -0.163 NA
ATOM     16  C   UNL A   1      29.160  29.809  22.291  1.00  0.00     0.167 A 
ATOM     17  C   UNL A   1      29.816  30.260  23.462  1.00  0.00     0.064 A 
BRANCH  14  18
ATOM     18  C   UNL A   1      30.892  26.884  22.986  1.00  0.00     0.065 A 
ATOM     19  C   UNL A   1      31.724  24.231  23.138  1.00  0.00     0.082 A 
ATOM     20  C   UNL A   1      30.697  24.688  23.964  1.00  0.00     0.024 A 
ATOM     21  C   UNL A   1      32.300  25.082  22.192  1.00  0.00     0.024 A 
ATOM     22  C   UNL A   1      30.312  26.028  23.929  1.00  0.00     0.030 A 
ATOM     23  C   UNL A   1      31.847  26.401  22.081  1.00  0.00     0.030 A 
BRANCH  19  24
ATOM     24  S   UNL A   1      32.355  22.587  23.310  1.00  0.00     0.238 S 
ATOM     25  O   UNL A   1      31.721  21.969  24.458  1.00  0.00    -0.207 OA
ATOM     26  O   UNL A   1      33.778  22.613  23.117  1.00  0.00    -0.207 OA
BRANCH  24  27
ATOM     27  N   UNL A   1      31.726  21.748  21.988  1.00  0.00    -0.225 NA
ATOM     28  H   UNL A   1      31.132  20.989  22.318  1.00  0.00     0.137 HD
ATOM     29  H   UNL A   1      32.491  21.365  21.433  1.00  0.00     0.137 HD
ENDBRANCH  24  27
ENDBRANCH  19  24
ENDBRANCH  14  18
BRANCH  16  30
ATOM     30  C   UNL A   1      28.066  30.526  21.549  1.00  0.00     0.435 C 
ATOM     31  F   UNL A   1      28.419  31.778  21.157  1.00  0.00    -0.164 F 
ATOM     32  F   UNL A   1      27.681  29.850  20.434  1.00  0.00    -0.164 F 
ATOM     33  F   UNL A   1      26.947  30.663  22.315  1.00  0.00    -0.164 F 
ENDBRANCH  16  30
ENDBRANCH   8  13
ENDBRANCH   6   7
ENDBRANCH   3   6
ENDBRANCH   1   2
BRANCH   1  34
ATOM     34  C   UNL A   1      34.678  33.273  28.901  1.00  0.00     0.023 C 
BRANCH  34  35
ATOM     35  C   UNL A   1      33.476  34.211  29.056  1.00  0.00     0.023 C 
BRANCH  35  36
ATOM     36  C   UNL A   1      33.731  35.474  29.861  1.00  0.00     0.116 C 
BRANCH  36  37
ATOM     37  N   UNL A   1      32.843  35.615  31.015  1.00  0.00    -0.352 N 
ATOM     38  C   UNL A   1      32.954  34.983  32.239  1.00  0.00     0.251 C 
ATOM     39  H   UNL A   1      32.082  36.229  30.909  1.00  0.00     0.163 HD
ATOM     40  O   UNL A   1      32.004  34.890  33.004  1.00  0.00    -0.269 OA
BRANCH  38  41
ATOM     41  C   UNL A   1      34.261  34.407  32.593  1.00  0.00     0.039 A 
ATOM     42  C   UNL A   1      34.482  33.030  32.525  1.00  0.00     0.014 A 
ATOM     43  C   UNL A   1      35.300  35.294  32.858  1.00  0.00     0.014 A 
ATOM     44  C   UNL A   1      35.790  32.558  32.612  1.00  0.00     0.010 A 
ATOM     45  C   UNL A   1      36.596  34.837  32.808  1.00  0.00     0.010 A 
ATOM     46  C   UNL A   1      36.855  33.468  32.714  1.00  0.00    -0.014 A 
BRANCH  46  47
ATOM     47  C   UNL A   1      38.239  33.000  32.610  1.00  0.00     0.031 A 
ATOM     48  C   UNL A   1      39.041  32.971  33.874  1.00  0.00     0.074 A 
ATOM     49  C   UNL A   1      38.730  32.393  31.507  1.00  0.00     0.049 A 
ATOM     50  N   UNL A   1      40.170  33.555  34.114  1.00  0.00    -0.248 NA
ATOM     51  C   UNL A   1      38.505  32.228  35.025  1.00  0.00     0.031 C 
ATOM     52  C   UNL A   1      38.020  32.030  30.276  1.00  0.00     0.029 A 
ATOM     53  N   UNL A   1      39.966  31.849  31.315  1.00  0.00    -0.354 N 
ATOM     54  C   UNL A   1      40.570  33.145  35.387  1.00  0.00     0.074 A 
ATOM     55  C   UNL A   1      39.456  32.418  35.941  1.00  0.00     0.031 C 
ATOM     56  C   UNL A   1      38.747  31.124  29.588  1.00  0.00     0.029 A 
ATOM     57  C   UNL A   1      40.041  30.990  30.229  1.00  0.00     0.049 A 
ATOM     58  H   UNL A   1      40.736  32.050  31.895  1.00  0.00     0.167 HD
ATOM     59  C   UNL A   1      41.859  33.279  35.814  1.00  0.00     0.037 A 
ATOM     60  C   UNL A   1      41.082  30.198  29.886  1.00  0.00     0.037 A 
ATOM     61  C   UNL A   1      42.587  34.219  35.001  1.00  0.00     0.049 A 
ATOM     62  C   UNL A   1      42.294  30.739  30.543  1.00  0.00     0.074 A 
ATOM     63  C   UNL A   1      42.434  35.554  34.682  1.00  0.00     0.029 A 
ATOM     64  N   UNL A   1      43.495  33.734  34.094  1.00  0.00    -0.354 N 
ATOM     65  N   UNL A   1      42.854  31.871  30.223  1.00  0.00    -0.248 NA
ATOM     66  C   UNL A   1      42.664  30.204  31.843  1.00  0.00     0.031 C 
ATOM     67  C   UNL A   1      42.838  35.654  33.317  1.00  0.00     0.029 A 
ATOM     68  C   UNL A   1      43.258  34.386  32.912  1.00  0.00     0.049 A 
ATOM     69  H   UNL A   1      44.183  33.049  34.259  1.00  0.00     0.167 HD
ATOM     70  C   UNL A   1      43.281  32.401  31.430  1.00  0.00     0.074 A 
ATOM     71  C   UNL A   1      43.251  31.283  32.367  1.00  0.00     0.031 C 
ATOM     72  C   UNL A   1      43.345  33.751  31.621  1.00  0.00     0.037 A 
BRANCH  59  73
ATOM     73  C   UNL A   1      42.570  32.334  36.756  1.00  0.00     0.064 A 
ATOM     74  C   UNL A   1      43.239  32.853  37.886  1.00  0.00     0.173 A 
ATOM     75  C   UNL A   1      42.882  30.997  36.432  1.00  0.00     0.173 A 
ATOM     76  F   UNL A   1      43.031  34.118  38.283  1.00  0.00    -0.203 F 
ATOM     77  C   UNL A   1      44.210  32.120  38.576  1.00  0.00     0.198 A 
ATOM     78  C   UNL A   1      43.812  30.251  37.156  1.00  0.00     0.198 A 
ATOM     79  F   UNL A   1      42.389  30.399  35.340  1.00  0.00    -0.203 F 
ATOM     80  F   UNL A   1      44.914  32.705  39.555  1.00  0.00    -0.200 F 
ATOM     81  C   UNL A   1      44.502  30.823  38.205  1.00  0.00     0.200 A 
ATOM     82  F   UNL A   1      44.093  28.997  36.772  1.00  0.00    -0.200 F 
ATOM     83  F   UNL A   1      45.478  30.141  38.818  1.00  0.00    -0.200 F 
ENDBRANCH  59  73
BRANCH  60  84
ATOM     84  C   UNL A   1      41.052  28.883  29.213  1.00  0.00     0.064 A 
ATOM     85  C   UNL A   1      40.217  27.855  29.672  1.00  0.00     0.173 A 
ATOM     86  C   UNL A   1      41.644  28.700  27.948  1.00  0.00     0.173 A 
ATOM     87  F   UNL A   1      39.589  27.972  30.851  1.00  0.00    -0.203 F 
ATOM     88  C   UNL A   1      39.963  26.721  28.897  1.00  0.00     0.198 A 
ATOM     89  C   UNL A   1      41.397  27.563  27.179  1.00  0.00     0.198 A 
ATOM     90  F   UNL A   1      42.397  29.662  27.394  1.00  0.00    -0.203 F 
ATOM     91  F   UNL A   1      39.109  25.787  29.339  1.00  0.00    -0.200 F 
ATOM     92  C   UNL A   1      40.544  26.581  27.646  1.00  0.00     0.200 A 
ATOM     93  F   UNL A   1      41.942  27.456  25.958  1.00  0.00    -0.200 F 
ATOM     94  F   UNL A   1      40.251  25.523  26.877  1.00  0.00    -0.200 F 
ENDBRANCH  60  84
BRANCH  72  95
ATOM     95  C   UNL A   1      43.239  34.638  30.412  1.00  0.00     0.064 A 
ATOM     96  C   UNL A   1      44.343  35.106  29.676  1.00  0.00     0.173 A 
ATOM     97  C   UNL A   1      41.964  34.931  29.911  1.00  0.00     0.173 A 
ATOM     98  F   UNL A   1      45.594  34.776  30.018  1.00  0.00    -0.203 F 
ATOM     99  C   UNL A   1      44.173  35.886  28.534  1.00  0.00     0.198 A 
ATOM    100  C   UNL A   1      41.797  35.676  28.747  1.00  0.00     0.198 A 
ATOM    101  F   UNL A   1      40.872  34.460  30.534  1.00  0.00    -0.203 F 
ATOM    102  F   UNL A   1      45.244  36.342  27.866  1.00  0.00    -0.200 F 
ATOM    103  C   UNL A   1      42.900  36.166  28.068  1.00  0.00     0.200 A 
ATOM    104  F   UNL A   1      40.564  35.900  28.271  1.00  0.00    -0.200 F 
ATOM    105  F   UNL A   1      42.736  36.889  26.951  1.00  0.00    -0.200 F 
ENDBRANCH  72  95
ENDBRANCH  46  47
ENDBRANCH  38  41
ENDBRANCH  36  37
ENDBRANCH  35  36
ENDBRANCH  34  35
ENDBRANCH   1  34
TORSDOF 17
ENDMDL
MODEL 3
REMARK VINA RESULT:     -12.1      4.966     10.272
REMARK SMILES NS(=O)(=O)c1ccc(-n2nc(C(F)(F)F)cc2-c2ccc(CC(=O)NCCCCNC(=O)c3ccc(-c4c5nc(c(-c6c(F)c(F)c(F)c(F)c6F)c6ccc([nH]6)c(-c6c(F)c(F)c(F)c(F)c6F)c6nc(c(-c7c(F)c(F)c(F)c(F)c7F)c7ccc4[nH]7)C=C6)C=C5)cc3)cc2)cc1
REMARK SMILES IDX 26 1 25 2 23 3 24 4 22 6 21 7 18 8 19 9 97 10 20 11 96 12
REMARK SMILES IDX 17 13 9 14 10 15 11 16 16 17 8 18 5 19 6 20 99 21 7 22 98 23
REMARK SMILES IDX 2 24 3 25 4 26 1 27 12 30 13 31 14 32 15 33 27 34 28 35
REMARK SMILES IDX 29 36 30 37 31 38 32 40 33 41 34 42 95 43 35 44 94 45 36 46
REMARK SMILES IDX 37 47 38 48 88 49 39 50 93 51 87 52 89 53 40 54 92 55 86 56
REMARK SMILES IDX 85 57 41 59 73 60 53 61 72 62 54 63 57 64 71 65 90 66 55 67
REMARK SMILES IDX 56 68 70 70 91 71 58 72 42 73 43 74 51 75 44 76 45 77 49 78
REMARK SMILES IDX 52 79 46 80 47 81 50 82 48 83 74 84 75 85 83 86 76 87 77 88
REMARK SMILES IDX 81 89 84 90 78 91 79 92 82 93 80 94 59 95 60 96 68 97 61 98
REMARK SMILES IDX 62 99 66 100 69 101 63 102 64 103 67 104 65 105
REMARK H PARENT 25 5 1 28 1 29 30 39 89 58 57 69
REMARK Flexibility Score: inf
ROOT
ATOM      1  C   UNL A   1      47.949  25.536  29.341  1.00  0.00     0.116 C 
ENDROOT
BRANCH   1   2
ATOM      2  N   UNL A   1      47.064  26.618  29.728  1.00  0.00    -0.356 N 
ATOM      3  C   UNL A   1      45.824  26.564  30.297  1.00  0.00     0.224 C 
ATOM      4  O   UNL A   1      45.214  27.624  30.454  1.00  0.00    -0.275 OA
ATOM      5  H   UNL A   1      47.407  27.524  29.553  1.00  0.00     0.163 HD
BRANCH   3   6
ATOM      6  C   UNL A   1      45.245  25.239  30.767  1.00  0.00     0.135 C 
BRANCH   6   7
ATOM      7  C   UNL A   1      44.073  24.751  29.949  1.00  0.00    -0.039 A 
ATOM      8  C   UNL A   1      41.991  23.794  28.305  1.00  0.00     0.000 A 
ATOM      9  C   UNL A   1      42.321  25.157  28.322  1.00  0.00     0.010 A 
ATOM     10  C   UNL A   1      42.670  22.926  29.166  1.00  0.00     0.010 A 
ATOM     11  C   UNL A   1      43.353  25.632  29.136  1.00  0.00     0.005 A 
ATOM     12  C   UNL A   1      43.696  23.402  29.987  1.00  0.00     0.005 A 
BRANCH   8  13
ATOM     13  C   UNL A   1      40.920  23.293  27.442  1.00  0.00     0.075 A 
ATOM     14  N   UNL A   1      41.086  22.488  26.321  1.00  0.00    -0.233 N 
ATOM     15  N   UNL A   1      39.968  22.445  25.556  1.00  0.00    -0.163 NA
ATOM     16  C   UNL A   1      39.006  22.995  26.322  1.00  0.00     0.167 A 
ATOM     17  C   UNL A   1      39.566  23.564  27.492  1.00  0.00     0.064 A 
BRANCH  14  18
ATOM     18  C   UNL A   1      42.200  21.686  25.968  1.00  0.00     0.065 A 
ATOM     19  C   UNL A   1      44.381  20.101  25.270  1.00  0.00     0.082 A 
ATOM     20  C   UNL A   1      44.465  21.491  25.165  1.00  0.00     0.024 A 
ATOM     21  C   UNL A   1      43.226  19.502  25.779  1.00  0.00     0.024 A 
ATOM     22  C   UNL A   1      43.359  22.285  25.463  1.00  0.00     0.030 A 
ATOM     23  C   UNL A   1      42.149  20.301  26.177  1.00  0.00     0.030 A 
BRANCH  19  24
ATOM     24  S   UNL A   1      45.706  19.073  24.709  1.00  0.00     0.238 S 
ATOM     25  O   UNL A   1      46.960  19.741  24.997  1.00  0.00    -0.207 OA
ATOM     26  O   UNL A   1      45.373  18.551  23.412  1.00  0.00    -0.207 OA
BRANCH  24  27
ATOM     27  N   UNL A   1      45.691  17.750  25.755  1.00  0.00    -0.225 NA
ATOM     28  H   UNL A   1      45.016  17.914  26.501  1.00  0.00     0.137 HD
ATOM     29  H   UNL A   1      46.620  17.625  26.158  1.00  0.00     0.137 HD
ENDBRANCH  24  27
ENDBRANCH  19  24
ENDBRANCH  14  18
BRANCH  16  30
ATOM     30  C   UNL A   1      37.551  22.995  25.938  1.00  0.00     0.435 C 
ATOM     31  F   UNL A   1      36.931  21.816  26.200  1.00  0.00    -0.164 F 
ATOM     32  F   UNL A   1      36.856  23.968  26.586  1.00  0.00    -0.164 F 
ATOM     33  F   UNL A   1      37.385  23.232  24.607  1.00  0.00    -0.164 F 
ENDBRANCH  16  30
ENDBRANCH   8  13
ENDBRANCH   6   7
ENDBRANCH   3   6
ENDBRANCH   1   2
BRANCH   1  34
ATOM     34  C   UNL A   1      47.850  25.223  27.846  1.00  0.00     0.023 C 
BRANCH  34  35
ATOM     35  C   UNL A   1      46.760  24.211  27.478  1.00  0.00     0.023 C 
BRANCH  35  36
ATOM     36  C   UNL A   1      45.800  24.650  26.387  1.00  0.00     0.116 C 
BRANCH  36  37
ATOM     37  N   UNL A   1      46.448  25.401  25.311  1.00  0.00    -0.352 N 
ATOM     38  C   UNL A   1      46.271  26.735  24.997  1.00  0.00     0.251 C 
ATOM     39  H   UNL A   1      47.080  24.900  24.748  1.00  0.00     0.163 HD
ATOM     40  O   UNL A   1      46.575  27.184  23.901  1.00  0.00    -0.269 OA
BRANCH  38  41
ATOM     41  C   UNL A   1      45.690  27.607  26.030  1.00  0.00     0.039 A 
ATOM     42  C   UNL A   1      46.500  28.423  26.822  1.00  0.00     0.014 A 
ATOM     43  C   UNL A   1      44.302  27.691  26.087  1.00  0.00     0.014 A 
ATOM     44  C   UNL A   1      45.898  29.415  27.594  1.00  0.00     0.010 A 
ATOM     45  C   UNL A   1      43.725  28.754  26.743  1.00  0.00     0.010 A 
ATOM     46  C   UNL A   1      44.508  29.606  27.524  1.00  0.00    -0.014 A 
BRANCH  46  47
ATOM     47  C   UNL A   1      43.888  30.763  28.176  1.00  0.00     0.031 A 
ATOM     48  C   UNL A   1      44.286  32.116  27.677  1.00  0.00     0.074 A 
ATOM     49  C   UNL A   1      42.834  30.656  29.014  1.00  0.00     0.049 A 
ATOM     50  N   UNL A   1      44.787  33.099  28.354  1.00  0.00    -0.248 NA
ATOM     51  C   UNL A   1      44.141  32.403  26.241  1.00  0.00     0.031 C 
ATOM     52  C   UNL A   1      42.083  29.451  29.383  1.00  0.00     0.029 A 
ATOM     53  N   UNL A   1      42.125  31.651  29.619  1.00  0.00    -0.354 N 
ATOM     54  C   UNL A   1      44.889  34.178  27.476  1.00  0.00     0.074 A 
ATOM     55  C   UNL A   1      44.580  33.661  26.167  1.00  0.00     0.031 C 
ATOM     56  C   UNL A   1      40.900  29.807  29.929  1.00  0.00     0.029 A 
ATOM     57  C   UNL A   1      40.896  31.246  30.117  1.00  0.00     0.049 A 
ATOM     58  H   UNL A   1      42.456  32.575  29.696  1.00  0.00     0.167 HD
ATOM     59  C   UNL A   1      45.040  35.458  27.924  1.00  0.00     0.037 A 
ATOM     60  C   UNL A   1      39.921  32.034  30.626  1.00  0.00     0.037 A 
ATOM     61  C   UNL A   1      45.480  35.486  29.295  1.00  0.00     0.049 A 
ATOM     62  C   UNL A   1      40.544  33.317  31.025  1.00  0.00     0.074 A 
ATOM     63  C   UNL A   1      46.578  34.997  29.976  1.00  0.00     0.029 A 
ATOM     64  N   UNL A   1      44.570  35.814  30.268  1.00  0.00    -0.354 N 
ATOM     65  N   UNL A   1      41.377  33.446  32.019  1.00  0.00    -0.248 NA
ATOM     66  C   UNL A   1      40.547  34.405  30.062  1.00  0.00     0.031 C 
ATOM     67  C   UNL A   1      46.068  34.576  31.241  1.00  0.00     0.029 A 
ATOM     68  C   UNL A   1      44.707  34.883  31.265  1.00  0.00     0.049 A 
ATOM     69  H   UNL A   1      43.939  36.570  30.253  1.00  0.00     0.167 HD
ATOM     70  C   UNL A   1      42.301  34.379  31.578  1.00  0.00     0.074 A 
ATOM     71  C   UNL A   1      41.673  35.022  30.428  1.00  0.00     0.031 C 
ATOM     72  C   UNL A   1      43.596  34.344  32.009  1.00  0.00     0.037 A 
BRANCH  59  73
ATOM     73  C   UNL A   1      44.487  36.693  27.248  1.00  0.00     0.064 A 
ATOM     74  C   UNL A   1      45.336  37.798  27.020  1.00  0.00     0.173 A 
ATOM     75  C   UNL A   1      43.109  36.950  27.100  1.00  0.00     0.173 A 
ATOM     76  F   UNL A   1      46.667  37.676  27.143  1.00  0.00    -0.203 F 
ATOM     77  C   UNL A   1      44.835  39.077  26.757  1.00  0.00     0.198 A 
ATOM     78  C   UNL A   1      42.616  38.216  26.784  1.00  0.00     0.198 A 
ATOM     79  F   UNL A   1      42.182  36.021  27.366  1.00  0.00    -0.203 F 
ATOM     80  F   UNL A   1      45.675  40.118  26.685  1.00  0.00    -0.200 F 
ATOM     81  C   UNL A   1      43.475  39.286  26.649  1.00  0.00     0.200 A 
ATOM     82  F   UNL A   1      41.291  38.404  26.697  1.00  0.00    -0.200 F 
ATOM     83  F   UNL A   1      42.988  40.520  26.465  1.00  0.00    -0.200 F 
ENDBRANCH  59  73
BRANCH  60  84
ATOM     84  C   UNL A   1      38.459  31.830  30.581  1.00  0.00     0.064 A 
ATOM     85  C   UNL A   1      37.639  32.239  31.642  1.00  0.00     0.173 A 
ATOM     86  C   UNL A   1      37.811  31.472  29.382  1.00  0.00     0.173 A 
ATOM     87  F   UNL A   1      38.183  32.630  32.803  1.00  0.00    -0.203 F 
ATOM     88  C   UNL A   1      36.250  32.317  31.503  1.00  0.00     0.198 A 
ATOM     89  C   UNL A   1      36.424  31.541  29.248  1.00  0.00     0.198 A 
ATOM     90  F   UNL A   1      38.516  31.140  28.291  1.00  0.00    -0.203 F 
ATOM     91  F   UNL A   1      35.502  32.774  32.517  1.00  0.00    -0.200 F 
ATOM     92  C   UNL A   1      35.645  31.978  30.303  1.00  0.00     0.200 A 
ATOM     93  F   UNL A   1      35.856  31.240  28.072  1.00  0.00    -0.200 F 
ATOM     94  F   UNL A   1      34.321  32.112  30.150  1.00  0.00    -0.200 F 
ENDBRANCH  60  84
BRANCH  72  95
ATOM     95  C   UNL A   1      43.920  33.475  33.192  1.00  0.00     0.064 A 
ATOM     96  C   UNL A   1      43.778  33.878  34.532  1.00  0.00     0.173 A 
ATOM     97  C   UNL A   1      44.278  32.140  32.957  1.00  0.00     0.173 A 
ATOM     98  F   UNL A   1      43.329  35.099  34.844  1.00  0.00    -0.203 F 
ATOM     99  C   UNL A   1      44.049  33.004  35.583  1.00  0.00     0.198 A 
ATOM    100  C   UNL A   1      44.508  31.258  34.009  1.00  0.00     0.198 A 
ATOM    101  F   UNL A   1      44.368  31.679  31.700  1.00  0.00    -0.203 F 
ATOM    102  F   UNL A   1      43.933  33.423  36.852  1.00  0.00    -0.200 F 
ATOM    103  C   UNL A   1      44.410  31.694  35.320  1.00  0.00     0.200 A 
ATOM    104  F   UNL A   1      44.806  29.977  33.751  1.00  0.00    -0.200 F 
ATOM    105  F   UNL A   1      44.639  30.844  36.331  1.00  0.00    -0.200 F 
ENDBRANCH  72  95
ENDBRANCH  46  47
ENDBRANCH  38  41
ENDBRANCH  36  37
ENDBRANCH  35  36
ENDBRANCH  34  35
ENDBRANCH   1  34
TORSDOF 17
ENDMDL
