MODEL 1
REMARK VINA RESULT:     -12.6      0.000      0.000
REMARK SMILES Cc1sc(-c2ccco2)nc1C(=O)N[C@@H](C(=O)NCCCCNC(=O)c1ccc(-c2c3nc(c(-c4c(F)c(F)c(F)c(F)c4F)c4ccc([nH]4)c(-c4c(F)c(F)c(F)c(F)c4F)c4nc(c(-c5c(F)c(F)c(F)c(F)c5F)c5ccc2[nH]5)C=C4)C=C3)cc1)C(C)C
REMARK SMILES IDX 20 1 19 2 18 3 16 4 17 5 15 7 14 8 12 9 13 10 11 12 1 13
REMARK SMILES IDX 2 14 3 15 4 16 10 17 5 18 6 19 9 20 7 21 8 22 89 23 90 24
REMARK SMILES IDX 91 25 21 26 22 27 23 28 24 29 25 31 26 32 27 33 88 34 28 35
REMARK SMILES IDX 87 36 29 37 30 38 31 39 81 40 32 41 86 42 80 43 82 44 33 45
REMARK SMILES IDX 85 46 79 47 78 48 34 50 66 51 46 52 65 53 47 54 50 55 64 56
REMARK SMILES IDX 83 57 48 58 49 59 63 61 84 62 51 63 35 64 36 65 44 66 37 67
REMARK SMILES IDX 38 68 42 69 45 70 39 71 40 72 43 73 41 74 67 75 68 76 76 77
REMARK SMILES IDX 69 78 70 79 74 80 77 81 71 82 72 83 75 84 73 85 52 86 53 87
REMARK SMILES IDX 61 88 54 89 55 90 59 91 62 92 56 93 57 94 60 95 58 96
REMARK H PARENT 18 6 14 11 23 30 82 49 50 60
REMARK Flexibility Score: inf
ROOT
ATOM      1  C   UNL A   1      31.460  30.967  25.748  1.00  0.00     0.023 C 
ENDROOT
BRANCH   1   2
ATOM      2  C   UNL A   1      32.318  29.708  25.746  1.00  0.00     0.116 C 
BRANCH   2   3
ATOM      3  N   UNL A   1      33.259  29.708  24.644  1.00  0.00    -0.354 N 
ATOM      4  C   UNL A   1      33.355  28.885  23.554  1.00  0.00     0.242 C 
ATOM      5  O   UNL A   1      34.304  29.088  22.793  1.00  0.00    -0.273 OA
ATOM      6  H   UNL A   1      33.941  30.417  24.685  1.00  0.00     0.163 HD
BRANCH   4   7
ATOM      7  C   UNL A   1      32.224  27.874  23.224  1.00  0.00     0.174 C 
BRANCH   7   8
ATOM      8  N   UNL A   1      32.484  27.173  21.982  1.00  0.00    -0.339 N 
ATOM      9  C   UNL A   1      32.817  25.882  21.661  1.00  0.00     0.271 C 
ATOM     10  O   UNL A   1      32.977  25.722  20.445  1.00  0.00    -0.267 OA
ATOM     11  H   UNL A   1      32.403  27.755  21.191  1.00  0.00     0.164 HD
BRANCH   9  12
ATOM     12  C   UNL A   1      33.019  24.728  22.596  1.00  0.00     0.142 A 
ATOM     13  C   UNL A   1      30.725  23.675  23.560  1.00  0.00     0.059 C 
ATOM     14  C   UNL A   1      32.183  23.839  23.291  1.00  0.00     0.035 A 
ATOM     15  S   UNL A   1      33.142  22.595  24.032  1.00  0.00    -0.115 S 
ATOM     16  C   UNL A   1      34.549  23.473  23.701  1.00  0.00     0.160 A 
ATOM     17  N   UNL A   1      34.379  24.532  22.955  1.00  0.00    -0.227 NA
BRANCH  16  18
ATOM     18  C   UNL A   1      35.792  23.088  24.291  1.00  0.00     0.162 A 
ATOM     19  C   UNL A   1      36.441  23.656  25.374  1.00  0.00     0.053 A 
ATOM     20  O   UNL A   1      36.495  21.978  23.890  1.00  0.00    -0.462 OA
ATOM     21  C   UNL A   1      37.567  22.845  25.657  1.00  0.00     0.043 A 
ATOM     22  C   UNL A   1      37.565  21.851  24.710  1.00  0.00     0.196 A 
ENDBRANCH  16  18
ENDBRANCH   9  12
ENDBRANCH   7   8
BRANCH   7  23
ATOM     23  C   UNL A   1      30.805  28.491  23.280  1.00  0.00     0.015 C 
ATOM     24  C   UNL A   1      30.533  29.431  22.098  1.00  0.00     0.010 C 
ATOM     25  C   UNL A   1      29.746  27.377  23.257  1.00  0.00     0.010 C 
ENDBRANCH   7  23
ENDBRANCH   4   7
ENDBRANCH   2   3
ENDBRANCH   1   2
BRANCH   1  26
ATOM     26  C   UNL A   1      31.528  31.738  27.067  1.00  0.00     0.023 C 
BRANCH  26  27
ATOM     27  C   UNL A   1      32.738  32.658  27.203  1.00  0.00     0.116 C 
BRANCH  27  28
ATOM     28  N   UNL A   1      32.379  34.030  27.528  1.00  0.00    -0.352 N 
ATOM     29  C   UNL A   1      32.918  34.848  28.490  1.00  0.00     0.251 C 
ATOM     30  H   UNL A   1      31.657  34.423  26.986  1.00  0.00     0.163 HD
ATOM     31  O   UNL A   1      32.420  35.944  28.732  1.00  0.00    -0.269 OA
BRANCH  29  32
ATOM     32  C   UNL A   1      34.087  34.380  29.262  1.00  0.00     0.039 A 
ATOM     33  C   UNL A   1      33.875  33.716  30.472  1.00  0.00     0.014 A 
ATOM     34  C   UNL A   1      35.384  34.559  28.770  1.00  0.00     0.014 A 
ATOM     35  C   UNL A   1      34.961  33.168  31.155  1.00  0.00     0.010 A 
ATOM     36  C   UNL A   1      36.454  33.943  29.411  1.00  0.00     0.010 A 
ATOM     37  C   UNL A   1      36.255  33.242  30.611  1.00  0.00    -0.014 A 
BRANCH  37  38
ATOM     38  C   UNL A   1      37.409  32.590  31.279  1.00  0.00     0.031 A 
ATOM     39  C   UNL A   1      38.117  31.443  30.614  1.00  0.00     0.074 A 
ATOM     40  C   UNL A   1      37.781  32.991  32.511  1.00  0.00     0.049 A 
ATOM     41  N   UNL A   1      39.105  30.707  31.061  1.00  0.00    -0.248 NA
ATOM     42  C   UNL A   1      37.634  31.051  29.282  1.00  0.00     0.031 C 
ATOM     43  C   UNL A   1      37.142  34.058  33.282  1.00  0.00     0.029 A 
ATOM     44  N   UNL A   1      38.783  32.541  33.335  1.00  0.00    -0.354 N 
ATOM     45  C   UNL A   1      39.352  29.766  30.072  1.00  0.00     0.074 A 
ATOM     46  C   UNL A   1      38.371  29.979  29.029  1.00  0.00     0.031 C 
ATOM     47  C   UNL A   1      37.781  34.197  34.454  1.00  0.00     0.029 A 
ATOM     48  C   UNL A   1      38.847  33.203  34.536  1.00  0.00     0.049 A 
ATOM     49  H   UNL A   1      39.395  31.810  33.090  1.00  0.00     0.167 HD
ATOM     50  C   UNL A   1      40.324  28.823  30.025  1.00  0.00     0.037 A 
ATOM     51  C   UNL A   1      39.668  33.023  35.590  1.00  0.00     0.037 A 
ATOM     52  C   UNL A   1      41.308  28.625  31.056  1.00  0.00     0.049 A 
ATOM     53  C   UNL A   1      40.729  31.958  35.518  1.00  0.00     0.074 A 
ATOM     54  C   UNL A   1      42.368  27.736  31.078  1.00  0.00     0.029 A 
ATOM     55  N   UNL A   1      41.350  29.324  32.254  1.00  0.00    -0.354 N 
ATOM     56  N   UNL A   1      41.000  31.122  34.547  1.00  0.00    -0.248 NA
ATOM     57  C   UNL A   1      41.606  31.819  36.690  1.00  0.00     0.031 C 
ATOM     58  C   UNL A   1      43.015  27.856  32.311  1.00  0.00     0.029 A 
ATOM     59  C   UNL A   1      42.400  28.866  33.033  1.00  0.00     0.049 A 
ATOM     60  H   UNL A   1      40.725  30.040  32.512  1.00  0.00     0.167 HD
ATOM     61  C   UNL A   1      42.093  30.380  34.974  1.00  0.00     0.074 A 
ATOM     62  C   UNL A   1      42.446  30.877  36.286  1.00  0.00     0.031 C 
ATOM     63  C   UNL A   1      42.745  29.376  34.336  1.00  0.00     0.037 A 
BRANCH  50  64
ATOM     64  C   UNL A   1      40.372  27.935  28.813  1.00  0.00     0.064 A 
ATOM     65  C   UNL A   1      41.111  28.282  27.673  1.00  0.00     0.173 A 
ATOM     66  C   UNL A   1      39.698  26.704  28.807  1.00  0.00     0.173 A 
ATOM     67  F   UNL A   1      41.765  29.452  27.622  1.00  0.00    -0.203 F 
ATOM     68  C   UNL A   1      41.147  27.447  26.559  1.00  0.00     0.198 A 
ATOM     69  C   UNL A   1      39.765  25.855  27.705  1.00  0.00     0.198 A 
ATOM     70  F   UNL A   1      38.981  26.319  29.873  1.00  0.00    -0.203 F 
ATOM     71  F   UNL A   1      41.815  27.826  25.461  1.00  0.00    -0.200 F 
ATOM     72  C   UNL A   1      40.481  26.231  26.579  1.00  0.00     0.200 A 
ATOM     73  F   UNL A   1      39.133  24.674  27.732  1.00  0.00    -0.200 F 
ATOM     74  F   UNL A   1      40.524  25.424  25.509  1.00  0.00    -0.200 F 
ENDBRANCH  50  64
BRANCH  51  75
ATOM     75  C   UNL A   1      39.532  33.884  36.795  1.00  0.00     0.064 A 
ATOM     76  C   UNL A   1      38.756  33.477  37.889  1.00  0.00     0.173 A 
ATOM     77  C   UNL A   1      40.164  35.134  36.875  1.00  0.00     0.173 A 
ATOM     78  F   UNL A   1      38.114  32.298  37.853  1.00  0.00    -0.203 F 
ATOM     79  C   UNL A   1      38.596  34.295  39.005  1.00  0.00     0.198 A 
ATOM     80  C   UNL A   1      40.029  35.938  38.004  1.00  0.00     0.198 A 
ATOM     81  F   UNL A   1      40.922  35.570  35.858  1.00  0.00    -0.203 F 
ATOM     82  F   UNL A   1      37.805  33.903  40.013  1.00  0.00    -0.200 F 
ATOM     83  C   UNL A   1      39.237  35.524  39.064  1.00  0.00     0.200 A 
ATOM     84  F   UNL A   1      40.665  37.117  38.064  1.00  0.00    -0.200 F 
ATOM     85  F   UNL A   1      39.086  36.310  40.138  1.00  0.00    -0.200 F 
ENDBRANCH  51  75
BRANCH  63  86
ATOM     86  C   UNL A   1      43.934  28.775  35.031  1.00  0.00     0.064 A 
ATOM     87  C   UNL A   1      45.227  29.294  34.868  1.00  0.00     0.173 A 
ATOM     88  C   UNL A   1      43.769  27.687  35.903  1.00  0.00     0.173 A 
ATOM     89  F   UNL A   1      45.441  30.323  34.035  1.00  0.00    -0.203 F 
ATOM     90  C   UNL A   1      46.314  28.727  35.528  1.00  0.00     0.198 A 
ATOM     91  C   UNL A   1      44.852  27.146  36.588  1.00  0.00     0.198 A 
ATOM     92  F   UNL A   1      42.553  27.158  36.102  1.00  0.00    -0.203 F 
ATOM     93  F   UNL A   1      47.548  29.205  35.315  1.00  0.00    -0.200 F 
ATOM     94  C   UNL A   1      46.124  27.659  36.393  1.00  0.00     0.200 A 
ATOM     95  F   UNL A   1      44.664  26.126  37.438  1.00  0.00    -0.200 F 
ATOM     96  F   UNL A   1      47.172  27.122  37.035  1.00  0.00    -0.200 F 
ENDBRANCH  63  86
ENDBRANCH  37  38
ENDBRANCH  29  32
ENDBRANCH  27  28
ENDBRANCH  26  27
ENDBRANCH   1  26
TORSDOF 15
ENDMDL
MODEL 2
REMARK VINA RESULT:     -12.5      0.308      1.605
REMARK SMILES Cc1sc(-c2ccco2)nc1C(=O)N[C@@H](C(=O)NCCCCNC(=O)c1ccc(-c2c3nc(c(-c4c(F)c(F)c(F)c(F)c4F)c4ccc([nH]4)c(-c4c(F)c(F)c(F)c(F)c4F)c4nc(c(-c5c(F)c(F)c(F)c(F)c5F)c5ccc2[nH]5)C=C4)C=C3)cc1)C(C)C
REMARK SMILES IDX 20 1 19 2 18 3 16 4 17 5 15 7 14 8 12 9 13 10 11 12 1 13
REMARK SMILES IDX 2 14 3 15 4 16 10 17 5 18 6 19 9 20 7 21 8 22 89 23 90 24
REMARK SMILES IDX 91 25 21 26 22 27 23 28 24 29 25 31 26 32 27 33 88 34 28 35
REMARK SMILES IDX 87 36 29 37 30 38 31 39 81 40 32 41 86 42 80 43 82 44 33 45
REMARK SMILES IDX 85 46 79 47 78 48 34 50 66 51 46 52 65 53 47 54 50 55 64 56
REMARK SMILES IDX 83 57 48 58 49 59 63 61 84 62 51 63 35 64 36 65 44 66 37 67
REMARK SMILES IDX 38 68 42 69 45 70 39 71 40 72 43 73 41 74 67 75 68 76 76 77
REMARK SMILES IDX 69 78 70 79 74 80 77 81 71 82 72 83 75 84 73 85 52 86 53 87
REMARK SMILES IDX 61 88 54 89 55 90 59 91 62 92 56 93 57 94 60 95 58 96
REMARK H PARENT 18 6 14 11 23 30 82 49 50 60
REMARK Flexibility Score: inf
ROOT
ATOM      1  C   UNL A   1      32.074  30.516  26.888  1.00  0.00     0.023 C 
ENDROOT
BRANCH   1   2
ATOM      2  C   UNL A   1      31.694  29.832  25.580  1.00  0.00     0.116 C 
BRANCH   2   3
ATOM      3  N   UNL A   1      32.819  29.766  24.669  1.00  0.00    -0.354 N 
ATOM      4  C   UNL A   1      33.122  28.856  23.693  1.00  0.00     0.242 C 
ATOM      5  O   UNL A   1      34.190  29.020  23.100  1.00  0.00    -0.273 OA
ATOM      6  H   UNL A   1      33.473  30.494  24.770  1.00  0.00     0.163 HD
BRANCH   4   7
ATOM      7  C   UNL A   1      32.083  27.788  23.255  1.00  0.00     0.174 C 
BRANCH   7   8
ATOM      8  N   UNL A   1      32.458  27.163  22.002  1.00  0.00    -0.339 N 
ATOM      9  C   UNL A   1      32.855  25.901  21.641  1.00  0.00     0.271 C 
ATOM     10  O   UNL A   1      33.111  25.813  20.434  1.00  0.00    -0.267 OA
ATOM     11  H   UNL A   1      32.419  27.785  21.239  1.00  0.00     0.164 HD
BRANCH   9  12
ATOM     12  C   UNL A   1      33.022  24.705  22.527  1.00  0.00     0.142 A 
ATOM     13  C   UNL A   1      30.694  23.622  23.370  1.00  0.00     0.059 C 
ATOM     14  C   UNL A   1      32.160  23.789  23.154  1.00  0.00     0.035 A 
ATOM     15  S   UNL A   1      33.090  22.506  23.865  1.00  0.00    -0.115 S 
ATOM     16  C   UNL A   1      34.510  23.389  23.620  1.00  0.00     0.160 A 
ATOM     17  N   UNL A   1      34.368  24.483  22.918  1.00  0.00    -0.227 NA
BRANCH  16  18
ATOM     18  C   UNL A   1      35.732  22.969  24.229  1.00  0.00     0.162 A 
ATOM     19  C   UNL A   1      36.670  23.742  24.894  1.00  0.00     0.053 A 
ATOM     20  O   UNL A   1      36.106  21.651  24.319  1.00  0.00    -0.462 OA
ATOM     21  C   UNL A   1      37.636  22.855  25.430  1.00  0.00     0.043 A 
ATOM     22  C   UNL A   1      37.257  21.597  25.030  1.00  0.00     0.196 A 
ENDBRANCH  16  18
ENDBRANCH   9  12
ENDBRANCH   7   8
BRANCH   7  23
ATOM     23  C   UNL A   1      30.624  28.307  23.255  1.00  0.00     0.015 C 
ATOM     24  C   UNL A   1      30.308  29.154  22.015  1.00  0.00     0.010 C 
ATOM     25  C   UNL A   1      29.645  27.122  23.286  1.00  0.00     0.010 C 
ENDBRANCH   7  23
ENDBRANCH   4   7
ENDBRANCH   2   3
ENDBRANCH   1   2
BRANCH   1  26
ATOM     26  C   UNL A   1      31.762  32.013  26.895  1.00  0.00     0.023 C 
BRANCH  26  27
ATOM     27  C   UNL A   1      32.943  32.907  27.259  1.00  0.00     0.116 C 
BRANCH  27  28
ATOM     28  N   UNL A   1      32.545  34.250  27.651  1.00  0.00    -0.352 N 
ATOM     29  C   UNL A   1      33.043  35.025  28.670  1.00  0.00     0.251 C 
ATOM     30  H   UNL A   1      31.825  34.657  27.116  1.00  0.00     0.163 HD
ATOM     31  O   UNL A   1      32.513  36.093  28.961  1.00  0.00    -0.269 OA
BRANCH  29  32
ATOM     32  C   UNL A   1      34.206  34.541  29.441  1.00  0.00     0.039 A 
ATOM     33  C   UNL A   1      33.990  33.944  30.684  1.00  0.00     0.014 A 
ATOM     34  C   UNL A   1      35.499  34.638  28.917  1.00  0.00     0.014 A 
ATOM     35  C   UNL A   1      35.065  33.380  31.372  1.00  0.00     0.010 A 
ATOM     36  C   UNL A   1      36.554  34.005  29.565  1.00  0.00     0.010 A 
ATOM     37  C   UNL A   1      36.349  33.370  30.800  1.00  0.00    -0.014 A 
BRANCH  37  38
ATOM     38  C   UNL A   1      37.487  32.698  31.478  1.00  0.00     0.031 A 
ATOM     39  C   UNL A   1      38.165  31.524  30.828  1.00  0.00     0.074 A 
ATOM     40  C   UNL A   1      37.871  33.106  32.703  1.00  0.00     0.049 A 
ATOM     41  N   UNL A   1      39.135  30.770  31.285  1.00  0.00    -0.248 NA
ATOM     42  C   UNL A   1      37.671  31.126  29.501  1.00  0.00     0.031 C 
ATOM     43  C   UNL A   1      37.260  34.201  33.460  1.00  0.00     0.029 A 
ATOM     44  N   UNL A   1      38.861  32.643  33.533  1.00  0.00    -0.354 N 
ATOM     45  C   UNL A   1      39.356  29.809  30.308  1.00  0.00     0.074 A 
ATOM     46  C   UNL A   1      38.380  30.032  29.264  1.00  0.00     0.031 C 
ATOM     47  C   UNL A   1      37.903  34.340  34.629  1.00  0.00     0.029 A 
ATOM     48  C   UNL A   1      38.943  33.320  34.725  1.00  0.00     0.049 A 
ATOM     49  H   UNL A   1      39.455  31.894  33.297  1.00  0.00     0.167 HD
ATOM     50  C   UNL A   1      40.304  28.841  30.274  1.00  0.00     0.037 A 
ATOM     51  C   UNL A   1      39.761  33.134  35.780  1.00  0.00     0.037 A 
ATOM     52  C   UNL A   1      41.284  28.633  31.307  1.00  0.00     0.049 A 
ATOM     53  C   UNL A   1      40.795  32.042  35.722  1.00  0.00     0.074 A 
ATOM     54  C   UNL A   1      42.321  27.717  31.340  1.00  0.00     0.029 A 
ATOM     55  N   UNL A   1      41.344  29.348  32.495  1.00  0.00    -0.354 N 
ATOM     56  N   UNL A   1      41.043  31.185  34.763  1.00  0.00    -0.248 NA
ATOM     57  C   UNL A   1      41.669  31.897  36.895  1.00  0.00     0.031 C 
ATOM     58  C   UNL A   1      42.972  27.838  32.572  1.00  0.00     0.029 A 
ATOM     59  C   UNL A   1      42.384  28.874  33.279  1.00  0.00     0.049 A 
ATOM     60  H   UNL A   1      40.738  30.082  32.744  1.00  0.00     0.167 HD
ATOM     61  C   UNL A   1      42.117  30.422  35.199  1.00  0.00     0.074 A 
ATOM     62  C   UNL A   1      42.484  30.928  36.505  1.00  0.00     0.031 C 
ATOM     63  C   UNL A   1      42.743  29.393  34.575  1.00  0.00     0.037 A 
BRANCH  50  64
ATOM     64  C   UNL A   1      40.328  27.935  29.075  1.00  0.00     0.064 A 
ATOM     65  C   UNL A   1      39.575  26.753  29.030  1.00  0.00     0.173 A 
ATOM     66  C   UNL A   1      41.087  28.272  27.944  1.00  0.00     0.173 A 
ATOM     67  F   UNL A   1      38.840  26.378  30.088  1.00  0.00    -0.203 F 
ATOM     68  C   UNL A   1      39.606  25.924  27.911  1.00  0.00     0.198 A 
ATOM     69  C   UNL A   1      41.088  27.459  26.813  1.00  0.00     0.198 A 
ATOM     70  F   UNL A   1      41.822  29.393  27.930  1.00  0.00    -0.203 F 
ATOM     71  F   UNL A   1      38.920  24.773  27.913  1.00  0.00    -0.200 F 
ATOM     72  C   UNL A   1      40.356  26.282  26.800  1.00  0.00     0.200 A 
ATOM     73  F   UNL A   1      41.801  27.813  25.736  1.00  0.00    -0.200 F 
ATOM     74  F   UNL A   1      40.377  25.487  25.721  1.00  0.00    -0.200 F 
ENDBRANCH  50  64
BRANCH  51  75
ATOM     75  C   UNL A   1      39.648  34.015  36.973  1.00  0.00     0.064 A 
ATOM     76  C   UNL A   1      38.881  33.633  38.082  1.00  0.00     0.173 A 
ATOM     77  C   UNL A   1      40.294  35.259  37.026  1.00  0.00     0.173 A 
ATOM     78  F   UNL A   1      38.226  32.461  38.071  1.00  0.00    -0.203 F 
ATOM     79  C   UNL A   1      38.742  34.471  39.187  1.00  0.00     0.198 A 
ATOM     80  C   UNL A   1      40.181  36.082  38.144  1.00  0.00     0.198 A 
ATOM     81  F   UNL A   1      41.045  35.671  35.994  1.00  0.00    -0.203 F 
ATOM     82  F   UNL A   1      37.959  34.103  40.210  1.00  0.00    -0.200 F 
ATOM     83  C   UNL A   1      39.397  35.693  39.219  1.00  0.00     0.200 A 
ATOM     84  F   UNL A   1      40.830  37.255  38.178  1.00  0.00    -0.200 F 
ATOM     85  F   UNL A   1      39.267  36.497  40.283  1.00  0.00    -0.200 F 
ENDBRANCH  51  75
BRANCH  63  86
ATOM     86  C   UNL A   1      43.917  28.771  35.278  1.00  0.00     0.064 A 
ATOM     87  C   UNL A   1      43.764  27.695  36.164  1.00  0.00     0.173 A 
ATOM     88  C   UNL A   1      45.218  29.238  35.030  1.00  0.00     0.173 A 
ATOM     89  F   UNL A   1      42.541  27.221  36.446  1.00  0.00    -0.203 F 
ATOM     90  C   UNL A   1      44.866  27.129  36.799  1.00  0.00     0.198 A 
ATOM     91  C   UNL A   1      46.320  28.646  35.639  1.00  0.00     0.198 A 
ATOM     92  F   UNL A   1      45.421  30.259  34.184  1.00  0.00    -0.203 F 
ATOM     93  F   UNL A   1      44.692  26.137  37.683  1.00  0.00    -0.200 F 
ATOM     94  C   UNL A   1      46.143  27.599  36.529  1.00  0.00     0.200 A 
ATOM     95  F   UNL A   1      47.555  29.091  35.364  1.00  0.00    -0.200 F 
ATOM     96  F   UNL A   1      47.204  27.046  37.135  1.00  0.00    -0.200 F 
ENDBRANCH  63  86
ENDBRANCH  37  38
ENDBRANCH  29  32
ENDBRANCH  27  28
ENDBRANCH  26  27
ENDBRANCH   1  26
TORSDOF 15
ENDMDL
MODEL 3
REMARK VINA RESULT:     -12.4      5.509     11.180
REMARK SMILES Cc1sc(-c2ccco2)nc1C(=O)N[C@@H](C(=O)NCCCCNC(=O)c1ccc(-c2c3nc(c(-c4c(F)c(F)c(F)c(F)c4F)c4ccc([nH]4)c(-c4c(F)c(F)c(F)c(F)c4F)c4nc(c(-c5c(F)c(F)c(F)c(F)c5F)c5ccc2[nH]5)C=C4)C=C3)cc1)C(C)C
REMARK SMILES IDX 20 1 19 2 18 3 16 4 17 5 15 7 14 8 12 9 13 10 11 12 1 13
REMARK SMILES IDX 2 14 3 15 4 16 10 17 5 18 6 19 9 20 7 21 8 22 89 23 90 24
REMARK SMILES IDX 91 25 21 26 22 27 23 28 24 29 25 31 26 32 27 33 88 34 28 35
REMARK SMILES IDX 87 36 29 37 30 38 31 39 81 40 32 41 86 42 80 43 82 44 33 45
REMARK SMILES IDX 85 46 79 47 78 48 34 50 66 51 46 52 65 53 47 54 50 55 64 56
REMARK SMILES IDX 83 57 48 58 49 59 63 61 84 62 51 63 35 64 36 65 44 66 37 67
REMARK SMILES IDX 38 68 42 69 45 70 39 71 40 72 43 73 41 74 67 75 68 76 76 77
REMARK SMILES IDX 69 78 70 79 74 80 77 81 71 82 72 83 75 84 73 85 52 86 53 87
REMARK SMILES IDX 61 88 54 89 55 90 59 91 62 92 56 93 57 94 60 95 58 96
REMARK H PARENT 18 6 14 11 23 30 82 49 50 60
REMARK Flexibility Score: inf
ROOT
ATOM      1  C   UNL A   1      37.103  21.101  24.664  1.00  0.00     0.023 C 
ENDROOT
BRANCH   1   2
ATOM      2  C   UNL A   1      36.092  21.407  25.764  1.00  0.00     0.116 C 
BRANCH   2   3
ATOM      3  N   UNL A   1      35.018  20.434  25.783  1.00  0.00    -0.354 N 
ATOM      4  C   UNL A   1      33.660  20.605  25.787  1.00  0.00     0.242 C 
ATOM      5  O   UNL A   1      32.977  19.583  25.862  1.00  0.00    -0.273 OA
ATOM      6  H   UNL A   1      35.314  19.495  25.796  1.00  0.00     0.163 HD
BRANCH   4   7
ATOM      7  C   UNL A   1      33.039  22.006  25.533  1.00  0.00     0.174 C 
BRANCH   7   8
ATOM      8  N   UNL A   1      31.886  22.237  26.381  1.00  0.00    -0.339 N 
ATOM      9  C   UNL A   1      31.035  23.295  26.575  1.00  0.00     0.271 C 
ATOM     10  O   UNL A   1      30.182  23.063  27.441  1.00  0.00    -0.267 OA
ATOM     11  H   UNL A   1      31.666  21.460  26.945  1.00  0.00     0.164 HD
BRANCH   9  12
ATOM     12  C   UNL A   1      31.062  24.629  25.894  1.00  0.00     0.142 A 
ATOM     13  C   UNL A   1      30.210  24.577  23.330  1.00  0.00     0.059 C 
ATOM     14  C   UNL A   1      30.683  25.124  24.635  1.00  0.00     0.035 A 
ATOM     15  S   UNL A   1      30.811  26.856  24.626  1.00  0.00    -0.115 S 
ATOM     16  C   UNL A   1      31.656  26.808  26.090  1.00  0.00     0.160 A 
ATOM     17  N   UNL A   1      31.715  25.632  26.657  1.00  0.00    -0.227 NA
BRANCH  16  18
ATOM     18  C   UNL A   1      32.310  27.979  26.581  1.00  0.00     0.162 A 
ATOM     19  C   UNL A   1      33.670  28.231  26.668  1.00  0.00     0.053 A 
ATOM     20  O   UNL A   1      31.628  29.109  26.963  1.00  0.00    -0.462 OA
ATOM     21  C   UNL A   1      33.817  29.574  27.095  1.00  0.00     0.043 A 
ATOM     22  C   UNL A   1      32.545  30.054  27.283  1.00  0.00     0.196 A 
ENDBRANCH  16  18
ENDBRANCH   9  12
ENDBRANCH   7   8
BRANCH   7  23
ATOM     23  C   UNL A   1      32.754  22.296  24.039  1.00  0.00     0.015 C 
ATOM     24  C   UNL A   1      33.958  22.931  23.330  1.00  0.00     0.010 C 
ATOM     25  C   UNL A   1      32.404  20.989  23.308  1.00  0.00     0.010 C 
ENDBRANCH   7  23
ENDBRANCH   4   7
ENDBRANCH   2   3
ENDBRANCH   1   2
BRANCH   1  26
ATOM     26  C   UNL A   1      38.003  19.909  24.990  1.00  0.00     0.023 C 
BRANCH  26  27
ATOM     27  C   UNL A   1      39.281  20.266  25.742  1.00  0.00     0.116 C 
BRANCH  27  28
ATOM     28  N   UNL A   1      40.207  19.149  25.858  1.00  0.00    -0.352 N 
ATOM     29  C   UNL A   1      41.559  19.183  26.100  1.00  0.00     0.251 C 
ATOM     30  H   UNL A   1      39.813  18.254  25.749  1.00  0.00     0.163 HD
ATOM     31  O   UNL A   1      42.232  18.158  26.040  1.00  0.00    -0.269 OA
BRANCH  29  32
ATOM     32  C   UNL A   1      42.206  20.477  26.397  1.00  0.00     0.039 A 
ATOM     33  C   UNL A   1      42.718  21.233  25.341  1.00  0.00     0.014 A 
ATOM     34  C   UNL A   1      42.266  20.959  27.708  1.00  0.00     0.014 A 
ATOM     35  C   UNL A   1      43.229  22.507  25.592  1.00  0.00     0.010 A 
ATOM     36  C   UNL A   1      42.701  22.259  27.944  1.00  0.00     0.010 A 
ATOM     37  C   UNL A   1      43.189  23.047  26.890  1.00  0.00    -0.014 A 
BRANCH  37  38
ATOM     38  C   UNL A   1      43.647  24.433  27.160  1.00  0.00     0.031 A 
ATOM     39  C   UNL A   1      42.679  25.460  27.678  1.00  0.00     0.074 A 
ATOM     40  C   UNL A   1      44.919  24.782  26.885  1.00  0.00     0.049 A 
ATOM     41  N   UNL A   1      42.873  26.734  27.920  1.00  0.00    -0.248 NA
ATOM     42  C   UNL A   1      41.304  25.006  27.930  1.00  0.00     0.031 C 
ATOM     43  C   UNL A   1      45.940  23.889  26.333  1.00  0.00     0.029 A 
ATOM     44  N   UNL A   1      45.569  25.983  27.022  1.00  0.00    -0.354 N 
ATOM     45  C   UNL A   1      41.646  27.228  28.341  1.00  0.00     0.074 A 
ATOM     46  C   UNL A   1      40.699  26.137  28.262  1.00  0.00     0.031 C 
ATOM     47  C   UNL A   1      47.092  24.566  26.203  1.00  0.00     0.029 A 
ATOM     48  C   UNL A   1      46.881  25.949  26.620  1.00  0.00     0.049 A 
ATOM     49  H   UNL A   1      45.134  26.794  27.373  1.00  0.00     0.167 HD
ATOM     50  C   UNL A   1      41.342  28.474  28.779  1.00  0.00     0.037 A 
ATOM     51  C   UNL A   1      47.809  26.925  26.585  1.00  0.00     0.037 A 
ATOM     52  C   UNL A   1      42.291  29.551  28.872  1.00  0.00     0.049 A 
ATOM     53  C   UNL A   1      47.441  28.304  27.062  1.00  0.00     0.074 A 
ATOM     54  C   UNL A   1      42.095  30.834  29.356  1.00  0.00     0.029 A 
ATOM     55  N   UNL A   1      43.616  29.476  28.468  1.00  0.00    -0.354 N 
ATOM     56  N   UNL A   1      46.297  28.742  27.527  1.00  0.00    -0.248 NA
ATOM     57  C   UNL A   1      48.498  29.325  27.016  1.00  0.00     0.031 C 
ATOM     58  C   UNL A   1      43.284  31.550  29.190  1.00  0.00     0.029 A 
ATOM     59  C   UNL A   1      44.241  30.697  28.665  1.00  0.00     0.049 A 
ATOM     60  H   UNL A   1      44.048  28.673  28.096  1.00  0.00     0.167 HD
ATOM     61  C   UNL A   1      46.502  30.075  27.858  1.00  0.00     0.074 A 
ATOM     62  C   UNL A   1      47.887  30.369  27.554  1.00  0.00     0.031 C 
ATOM     63  C   UNL A   1      45.623  30.974  28.365  1.00  0.00     0.037 A 
BRANCH  50  64
ATOM     64  C   UNL A   1      39.921  28.736  29.193  1.00  0.00     0.064 A 
ATOM     65  C   UNL A   1      38.974  29.250  28.295  1.00  0.00     0.173 A 
ATOM     66  C   UNL A   1      39.494  28.437  30.496  1.00  0.00     0.173 A 
ATOM     67  F   UNL A   1      39.332  29.563  27.041  1.00  0.00    -0.203 F 
ATOM     68  C   UNL A   1      37.660  29.485  28.694  1.00  0.00     0.198 A 
ATOM     69  C   UNL A   1      38.171  28.641  30.881  1.00  0.00     0.198 A 
ATOM     70  F   UNL A   1      40.355  27.939  31.395  1.00  0.00    -0.203 F 
ATOM     71  F   UNL A   1      36.788  30.028  27.833  1.00  0.00    -0.200 F 
ATOM     72  C   UNL A   1      37.258  29.173  29.983  1.00  0.00     0.200 A 
ATOM     73  F   UNL A   1      37.780  28.325  32.123  1.00  0.00    -0.200 F 
ATOM     74  F   UNL A   1      35.991  29.393  30.363  1.00  0.00    -0.200 F 
ENDBRANCH  50  64
BRANCH  51  75
ATOM     75  C   UNL A   1      49.184  26.629  26.098  1.00  0.00     0.064 A 
ATOM     76  C   UNL A   1      50.142  26.058  26.946  1.00  0.00     0.173 A 
ATOM     77  C   UNL A   1      49.570  26.920  24.781  1.00  0.00     0.173 A 
ATOM     78  F   UNL A   1      49.827  25.780  28.221  1.00  0.00    -0.203 F 
ATOM     79  C   UNL A   1      51.441  25.812  26.505  1.00  0.00     0.198 A 
ATOM     80  C   UNL A   1      50.859  26.645  24.332  1.00  0.00     0.198 A 
ATOM     81  F   UNL A   1      48.690  27.463  23.927  1.00  0.00    -0.203 F 
ATOM     82  F   UNL A   1      52.351  25.314  27.353  1.00  0.00    -0.200 F 
ATOM     83  C   UNL A   1      51.797  26.101  25.197  1.00  0.00     0.200 A 
ATOM     84  F   UNL A   1      51.194  26.909  23.061  1.00  0.00    -0.200 F 
ATOM     85  F   UNL A   1      53.045  25.862  24.771  1.00  0.00    -0.200 F 
ENDBRANCH  51  75
BRANCH  63  86
ATOM     86  C   UNL A   1      46.142  32.352  28.665  1.00  0.00     0.064 A 
ATOM     87  C   UNL A   1      46.717  32.673  29.903  1.00  0.00     0.173 A 
ATOM     88  C   UNL A   1      46.097  33.354  27.683  1.00  0.00     0.173 A 
ATOM     89  F   UNL A   1      46.771  31.756  30.881  1.00  0.00    -0.203 F 
ATOM     90  C   UNL A   1      47.199  33.955  30.158  1.00  0.00     0.198 A 
ATOM     91  C   UNL A   1      46.612  34.623  27.929  1.00  0.00     0.198 A 
ATOM     92  F   UNL A   1      45.566  33.098  26.478  1.00  0.00    -0.203 F 
ATOM     93  F   UNL A   1      47.694  34.254  31.367  1.00  0.00    -0.200 F 
ATOM     94  C   UNL A   1      47.154  34.925  29.168  1.00  0.00     0.200 A 
ATOM     95  F   UNL A   1      46.583  35.555  26.965  1.00  0.00    -0.200 F 
ATOM     96  F   UNL A   1      47.627  36.155  29.413  1.00  0.00    -0.200 F 
ENDBRANCH  63  86
ENDBRANCH  37  38
ENDBRANCH  29  32
ENDBRANCH  27  28
ENDBRANCH  26  27
ENDBRANCH   1  26
TORSDOF 15
ENDMDL
