MODEL 1
REMARK VINA RESULT:     -12.0      0.000      0.000
REMARK SMILES C[C@H]1OCC[C@H]1c1nnnn1CC(=O)NCCCCNC(=O)c1ccc(-c2c3nc(c(-c4c(F)c(F)c(F)c(F)c4F)c4ccc([nH]4)c(-c4c(F)c(F)c(F)c(F)c4F)c4nc(c(-c5c(F)c(F)c(F)c(F)c5F)c5ccc2[nH]5)C=C4)C=C3)cc1
REMARK SMILES IDX 17 1 16 2 15 3 13 4 14 5 12 7 11 8 7 9 8 10 9 11 10 12 6 13
REMARK SMILES IDX 1 14 2 15 3 16 4 17 5 18 18 19 19 20 20 21 21 22 22 24 23 25
REMARK SMILES IDX 24 26 85 27 25 28 84 29 26 30 27 31 28 32 78 33 29 34 83 35
REMARK SMILES IDX 77 36 79 37 30 38 82 39 76 40 75 41 31 43 63 44 43 45 62 46
REMARK SMILES IDX 44 47 47 48 61 49 80 50 45 51 46 52 60 54 81 55 48 56 32 57
REMARK SMILES IDX 33 58 41 59 34 60 35 61 39 62 42 63 36 64 37 65 40 66 38 67
REMARK SMILES IDX 64 68 65 69 73 70 66 71 67 72 71 73 74 74 68 75 69 76 72 77
REMARK SMILES IDX 70 78 49 79 50 80 58 81 51 82 52 83 56 84 59 85 53 86 54 87
REMARK SMILES IDX 57 88 55 89
REMARK H PARENT 15 6 20 23 79 42 47 53
REMARK Flexibility Score: inf
ROOT
ATOM      1  C   UNL A   1      34.849  34.065  28.073  1.00  0.00     0.023 C 
ENDROOT
BRANCH   1   2
ATOM      2  C   UNL A   1      33.815  32.956  27.907  1.00  0.00     0.116 C 
BRANCH   2   3
ATOM      3  N   UNL A   1      34.413  31.672  27.615  1.00  0.00    -0.354 N 
ATOM      4  C   UNL A   1      33.802  30.489  27.309  1.00  0.00     0.241 C 
ATOM      5  O   UNL A   1      34.523  29.516  27.079  1.00  0.00    -0.273 OA
ATOM      6  H   UNL A   1      35.396  31.647  27.641  1.00  0.00     0.163 HD
BRANCH   4   7
ATOM      7  C   UNL A   1      32.306  30.420  27.115  1.00  0.00     0.248 C 
BRANCH   7   8
ATOM      8  N   UNL A   1      31.801  29.099  26.824  1.00  0.00    -0.220 N 
ATOM      9  C   UNL A   1      31.571  28.482  25.613  1.00  0.00     0.157 A 
ATOM     10  N   UNL A   1      31.168  27.253  25.878  1.00  0.00    -0.113 NA
ATOM     11  N   UNL A   1      31.174  27.116  27.240  1.00  0.00    -0.024 NA
ATOM     12  N   UNL A   1      31.572  28.233  27.825  1.00  0.00    -0.044 NA
BRANCH   9  13
ATOM     13  C   UNL A   1      31.627  29.127  24.259  1.00  0.00     0.090 C 
ATOM     14  C   UNL A   1      34.012  28.067  23.920  1.00  0.00     0.039 C 
ATOM     15  C   UNL A   1      32.784  28.736  23.328  1.00  0.00     0.126 C 
ATOM     16  O   UNL A   1      32.261  27.873  22.303  1.00  0.00    -0.378 OA
ATOM     17  C   UNL A   1      30.883  27.616  22.583  1.00  0.00     0.161 C 
ATOM     18  C   UNL A   1      30.406  28.785  23.411  1.00  0.00     0.043 C 
ENDBRANCH   9  13
ENDBRANCH   7   8
ENDBRANCH   4   7
ENDBRANCH   2   3
ENDBRANCH   1   2
BRANCH   1  19
ATOM     19  C   UNL A   1      34.341  35.309  28.813  1.00  0.00     0.023 C 
BRANCH  19  20
ATOM     20  C   UNL A   1      32.965  35.153  29.455  1.00  0.00     0.116 C 
BRANCH  20  21
ATOM     21  N   UNL A   1      32.810  35.959  30.662  1.00  0.00    -0.352 N 
ATOM     22  C   UNL A   1      33.269  35.681  31.934  1.00  0.00     0.251 C 
ATOM     23  H   UNL A   1      32.318  36.805  30.556  1.00  0.00     0.163 HD
ATOM     24  O   UNL A   1      32.732  36.171  32.916  1.00  0.00    -0.269 OA
BRANCH  22  25
ATOM     25  C   UNL A   1      34.432  34.788  32.097  1.00  0.00     0.039 A 
ATOM     26  C   UNL A   1      34.339  33.433  31.779  1.00  0.00     0.014 A 
ATOM     27  C   UNL A   1      35.627  35.324  32.575  1.00  0.00     0.014 A 
ATOM     28  C   UNL A   1      35.484  32.644  31.861  1.00  0.00     0.010 A 
ATOM     29  C   UNL A   1      36.783  34.577  32.548  1.00  0.00     0.010 A 
ATOM     30  C   UNL A   1      36.713  33.230  32.216  1.00  0.00    -0.014 A 
BRANCH  30  31
ATOM     31  C   UNL A   1      37.952  32.471  32.042  1.00  0.00     0.031 A 
ATOM     32  C   UNL A   1      38.655  32.214  33.327  1.00  0.00     0.074 A 
ATOM     33  C   UNL A   1      38.344  31.890  30.886  1.00  0.00     0.049 A 
ATOM     34  N   UNL A   1      39.761  32.745  33.725  1.00  0.00    -0.248 NA
ATOM     35  C   UNL A   1      37.972  31.421  34.364  1.00  0.00     0.031 C 
ATOM     36  C   UNL A   1      37.588  31.811  29.631  1.00  0.00     0.029 A 
ATOM     37  N   UNL A   1      39.460  31.151  30.609  1.00  0.00    -0.354 N 
ATOM     38  C   UNL A   1      40.040  32.164  34.958  1.00  0.00     0.074 A 
ATOM     39  C   UNL A   1      38.820  31.538  35.390  1.00  0.00     0.031 C 
ATOM     40  C   UNL A   1      38.148  30.885  28.820  1.00  0.00     0.029 A 
ATOM     41  C   UNL A   1      39.387  30.424  29.421  1.00  0.00     0.049 A 
ATOM     42  H   UNL A   1      40.250  31.135  31.197  1.00  0.00     0.167 HD
ATOM     43  C   UNL A   1      41.335  31.969  35.331  1.00  0.00     0.037 A 
ATOM     44  C   UNL A   1      40.271  29.502  28.966  1.00  0.00     0.037 A 
ATOM     45  C   UNL A   1      42.212  32.756  34.495  1.00  0.00     0.049 A 
ATOM     46  C   UNL A   1      41.559  29.759  29.645  1.00  0.00     0.074 A 
ATOM     47  C   UNL A   1      42.464  34.093  34.276  1.00  0.00     0.029 A 
ATOM     48  N   UNL A   1      42.688  32.074  33.407  1.00  0.00    -0.354 N 
ATOM     49  N   UNL A   1      42.298  30.807  29.413  1.00  0.00    -0.248 NA
ATOM     50  C   UNL A   1      41.885  29.018  30.855  1.00  0.00     0.031 C 
ATOM     51  C   UNL A   1      42.887  34.194  32.914  1.00  0.00     0.029 A 
ATOM     52  C   UNL A   1      42.938  32.913  32.364  1.00  0.00     0.049 A 
ATOM     53  H   UNL A   1      42.830  31.100  33.383  1.00  0.00     0.167 HD
ATOM     54  C   UNL A   1      42.836  31.117  30.645  1.00  0.00     0.074 A 
ATOM     55  C   UNL A   1      42.716  29.892  31.429  1.00  0.00     0.031 C 
ATOM     56  C   UNL A   1      43.009  32.422  31.006  1.00  0.00     0.037 A 
BRANCH  43  57
ATOM     57  C   UNL A   1      41.857  30.697  35.993  1.00  0.00     0.064 A 
ATOM     58  C   UNL A   1      42.890  30.820  36.951  1.00  0.00     0.173 A 
ATOM     59  C   UNL A   1      41.669  29.393  35.484  1.00  0.00     0.173 A 
ATOM     60  F   UNL A   1      43.173  32.010  37.501  1.00  0.00    -0.203 F 
ATOM     61  C   UNL A   1      43.732  29.752  37.279  1.00  0.00     0.198 A 
ATOM     62  C   UNL A   1      42.481  28.321  35.850  1.00  0.00     0.198 A 
ATOM     63  F   UNL A   1      40.777  29.113  34.530  1.00  0.00    -0.203 F 
ATOM     64  F   UNL A   1      44.788  29.957  38.078  1.00  0.00    -0.200 F 
ATOM     65  C   UNL A   1      43.535  28.506  36.717  1.00  0.00     0.200 A 
ATOM     66  F   UNL A   1      42.287  27.125  35.274  1.00  0.00    -0.200 F 
ATOM     67  F   UNL A   1      44.382  27.499  36.969  1.00  0.00    -0.200 F 
ENDBRANCH  43  57
BRANCH  44  68
ATOM     68  C   UNL A   1      40.066  28.298  28.123  1.00  0.00     0.064 A 
ATOM     69  C   UNL A   1      40.757  28.137  26.906  1.00  0.00     0.173 A 
ATOM     70  C   UNL A   1      39.429  27.150  28.631  1.00  0.00     0.173 A 
ATOM     71  F   UNL A   1      41.417  29.170  26.361  1.00  0.00    -0.203 F 
ATOM     72  C   UNL A   1      40.852  26.895  26.270  1.00  0.00     0.198 A 
ATOM     73  C   UNL A   1      39.519  25.912  27.990  1.00  0.00     0.198 A 
ATOM     74  F   UNL A   1      38.792  27.184  29.809  1.00  0.00    -0.203 F 
ATOM     75  F   UNL A   1      41.587  26.769  25.156  1.00  0.00    -0.200 F 
ATOM     76  C   UNL A   1      40.247  25.779  26.821  1.00  0.00     0.200 A 
ATOM     77  F   UNL A   1      38.955  24.833  28.550  1.00  0.00    -0.200 F 
ATOM     78  F   UNL A   1      40.400  24.575  26.255  1.00  0.00    -0.200 F 
ENDBRANCH  44  68
BRANCH  56  79
ATOM     79  C   UNL A   1      43.129  33.427  29.901  1.00  0.00     0.064 A 
ATOM     80  C   UNL A   1      44.282  33.643  29.128  1.00  0.00     0.173 A 
ATOM     81  C   UNL A   1      41.985  34.170  29.579  1.00  0.00     0.173 A 
ATOM     82  F   UNL A   1      45.389  32.912  29.313  1.00  0.00    -0.203 F 
ATOM     83  C   UNL A   1      44.297  34.602  28.117  1.00  0.00     0.198 A 
ATOM     84  C   UNL A   1      41.990  35.094  28.541  1.00  0.00     0.198 A 
ATOM     85  F   UNL A   1      40.844  33.976  30.259  1.00  0.00    -0.203 F 
ATOM     86  F   UNL A   1      45.418  34.817  27.412  1.00  0.00    -0.200 F 
ATOM     87  C   UNL A   1      43.150  35.322  27.821  1.00  0.00     0.200 A 
ATOM     88  F   UNL A   1      40.866  35.754  28.233  1.00  0.00    -0.200 F 
ATOM     89  F   UNL A   1      43.157  36.223  26.829  1.00  0.00    -0.200 F 
ENDBRANCH  56  79
ENDBRANCH  30  31
ENDBRANCH  22  25
ENDBRANCH  20  21
ENDBRANCH  19  20
ENDBRANCH   1  19
TORSDOF 13
ENDMDL
MODEL 2
REMARK VINA RESULT:     -11.6      4.160      9.037
REMARK SMILES C[C@H]1OCC[C@H]1c1nnnn1CC(=O)NCCCCNC(=O)c1ccc(-c2c3nc(c(-c4c(F)c(F)c(F)c(F)c4F)c4ccc([nH]4)c(-c4c(F)c(F)c(F)c(F)c4F)c4nc(c(-c5c(F)c(F)c(F)c(F)c5F)c5ccc2[nH]5)C=C4)C=C3)cc1
REMARK SMILES IDX 17 1 16 2 15 3 13 4 14 5 12 7 11 8 7 9 8 10 9 11 10 12 6 13
REMARK SMILES IDX 1 14 2 15 3 16 4 17 5 18 18 19 19 20 20 21 21 22 22 24 23 25
REMARK SMILES IDX 24 26 85 27 25 28 84 29 26 30 27 31 28 32 78 33 29 34 83 35
REMARK SMILES IDX 77 36 79 37 30 38 82 39 76 40 75 41 31 43 63 44 43 45 62 46
REMARK SMILES IDX 44 47 47 48 61 49 80 50 45 51 46 52 60 54 81 55 48 56 32 57
REMARK SMILES IDX 33 58 41 59 34 60 35 61 39 62 42 63 36 64 37 65 40 66 38 67
REMARK SMILES IDX 64 68 65 69 73 70 66 71 67 72 71 73 74 74 68 75 69 76 72 77
REMARK SMILES IDX 70 78 49 79 50 80 58 81 51 82 52 83 56 84 59 85 53 86 54 87
REMARK SMILES IDX 57 88 55 89
REMARK H PARENT 15 6 20 23 79 42 47 53
REMARK Flexibility Score: inf
ROOT
ATOM      1  C   UNL A   1      33.015  29.258  25.594  1.00  0.00     0.023 C 
ENDROOT
BRANCH   1   2
ATOM      2  C   UNL A   1      31.547  28.982  25.280  1.00  0.00     0.116 C 
BRANCH   2   3
ATOM      3  N   UNL A   1      31.173  29.399  23.947  1.00  0.00    -0.354 N 
ATOM      4  C   UNL A   1      30.858  28.631  22.862  1.00  0.00     0.241 C 
ATOM      5  O   UNL A   1      30.550  29.211  21.819  1.00  0.00    -0.273 OA
ATOM      6  H   UNL A   1      31.141  30.372  23.801  1.00  0.00     0.163 HD
BRANCH   4   7
ATOM      7  C   UNL A   1      30.748  27.130  22.986  1.00  0.00     0.248 C 
BRANCH   7   8
ATOM      8  N   UNL A   1      31.936  26.409  22.593  1.00  0.00    -0.220 N 
ATOM      9  C   UNL A   1      32.828  25.683  23.354  1.00  0.00     0.157 A 
ATOM     10  N   UNL A   1      33.711  25.164  22.520  1.00  0.00    -0.113 NA
ATOM     11  N   UNL A   1      33.346  25.555  21.259  1.00  0.00    -0.024 NA
ATOM     12  N   UNL A   1      32.257  26.303  21.294  1.00  0.00    -0.044 NA
BRANCH   9  13
ATOM     13  C   UNL A   1      32.872  25.615  24.852  1.00  0.00     0.090 C 
ATOM     14  C   UNL A   1      31.060  23.708  24.758  1.00  0.00     0.039 C 
ATOM     15  C   UNL A   1      32.122  24.464  25.539  1.00  0.00     0.126 C 
ATOM     16  O   UNL A   1      33.094  23.509  26.000  1.00  0.00    -0.378 OA
ATOM     17  C   UNL A   1      34.388  23.930  25.567  1.00  0.00     0.161 C 
ATOM     18  C   UNL A   1      34.293  25.425  25.375  1.00  0.00     0.043 C 
ENDBRANCH   9  13
ENDBRANCH   7   8
ENDBRANCH   4   7
ENDBRANCH   2   3
ENDBRANCH   1   2
BRANCH   1  19
ATOM     19  C   UNL A   1      33.499  28.692  26.936  1.00  0.00     0.023 C 
BRANCH  19  20
ATOM     20  C   UNL A   1      34.976  28.933  27.235  1.00  0.00     0.116 C 
BRANCH  20  21
ATOM     21  N   UNL A   1      35.186  29.959  28.252  1.00  0.00    -0.352 N 
ATOM     22  C   UNL A   1      36.210  30.043  29.175  1.00  0.00     0.251 C 
ATOM     23  H   UNL A   1      34.516  30.680  28.283  1.00  0.00     0.163 HD
ATOM     24  O   UNL A   1      36.063  30.659  30.220  1.00  0.00    -0.269 OA
BRANCH  22  25
ATOM     25  C   UNL A   1      37.497  29.386  28.879  1.00  0.00     0.039 A 
ATOM     26  C   UNL A   1      38.221  29.721  27.735  1.00  0.00     0.014 A 
ATOM     27  C   UNL A   1      37.977  28.422  29.766  1.00  0.00     0.014 A 
ATOM     28  C   UNL A   1      39.473  29.144  27.540  1.00  0.00     0.010 A 
ATOM     29  C   UNL A   1      39.259  27.938  29.636  1.00  0.00     0.010 A 
ATOM     30  C   UNL A   1      40.003  28.275  28.512  1.00  0.00    -0.014 A 
BRANCH  30  31
ATOM     31  C   UNL A   1      41.411  27.885  28.444  1.00  0.00     0.031 A 
ATOM     32  C   UNL A   1      41.622  26.618  27.695  1.00  0.00     0.074 A 
ATOM     33  C   UNL A   1      42.446  28.662  28.836  1.00  0.00     0.049 A 
ATOM     34  N   UNL A   1      41.968  25.476  28.186  1.00  0.00    -0.248 NA
ATOM     35  C   UNL A   1      41.234  26.558  26.275  1.00  0.00     0.031 C 
ATOM     36  C   UNL A   1      42.387  30.051  29.303  1.00  0.00     0.029 A 
ATOM     37  N   UNL A   1      43.790  28.415  28.806  1.00  0.00    -0.354 N 
ATOM     38  C   UNL A   1      42.081  24.614  27.100  1.00  0.00     0.074 A 
ATOM     39  C   UNL A   1      41.418  25.263  26.003  1.00  0.00     0.031 C 
ATOM     40  C   UNL A   1      43.626  30.591  29.286  1.00  0.00     0.029 A 
ATOM     41  C   UNL A   1      44.586  29.549  28.967  1.00  0.00     0.049 A 
ATOM     42  H   UNL A   1      44.165  27.513  28.683  1.00  0.00     0.167 HD
ATOM     43  C   UNL A   1      43.004  23.612  27.132  1.00  0.00     0.037 A 
ATOM     44  C   UNL A   1      45.934  29.633  28.838  1.00  0.00     0.037 A 
ATOM     45  C   UNL A   1      43.465  23.411  28.486  1.00  0.00     0.049 A 
ATOM     46  C   UNL A   1      46.474  28.269  29.015  1.00  0.00     0.074 A 
ATOM     47  C   UNL A   1      42.931  22.972  29.678  1.00  0.00     0.029 A 
ATOM     48  N   UNL A   1      44.596  24.120  28.790  1.00  0.00    -0.354 N 
ATOM     49  N   UNL A   1      46.469  27.633  30.153  1.00  0.00    -0.248 NA
ATOM     50  C   UNL A   1      46.726  27.446  27.840  1.00  0.00     0.031 C 
ATOM     51  C   UNL A   1      43.656  23.652  30.706  1.00  0.00     0.029 A 
ATOM     52  C   UNL A   1      44.646  24.435  30.114  1.00  0.00     0.049 A 
ATOM     53  H   UNL A   1      45.287  24.370  28.133  1.00  0.00     0.167 HD
ATOM     54  C   UNL A   1      46.242  26.318  29.802  1.00  0.00     0.074 A 
ATOM     55  C   UNL A   1      46.608  26.235  28.392  1.00  0.00     0.031 C 
ATOM     56  C   UNL A   1      45.466  25.525  30.595  1.00  0.00     0.037 A 
BRANCH  43  57
ATOM     57  C   UNL A   1      43.905  23.236  25.959  1.00  0.00     0.064 A 
ATOM     58  C   UNL A   1      44.020  21.868  25.619  1.00  0.00     0.173 A 
ATOM     59  C   UNL A   1      44.908  24.071  25.418  1.00  0.00     0.173 A 
ATOM     60  F   UNL A   1      43.133  20.973  26.081  1.00  0.00    -0.203 F 
ATOM     61  C   UNL A   1      45.111  21.369  24.899  1.00  0.00     0.198 A 
ATOM     62  C   UNL A   1      45.968  23.574  24.660  1.00  0.00     0.198 A 
ATOM     63  F   UNL A   1      44.982  25.377  25.687  1.00  0.00    -0.203 F 
ATOM     64  F   UNL A   1      45.250  20.047  24.732  1.00  0.00    -0.200 F 
ATOM     65  C   UNL A   1      46.091  22.222  24.431  1.00  0.00     0.200 A 
ATOM     66  F   UNL A   1      46.921  24.417  24.236  1.00  0.00    -0.200 F 
ATOM     67  F   UNL A   1      47.175  21.743  23.806  1.00  0.00    -0.200 F 
ENDBRANCH  43  57
BRANCH  44  68
ATOM     68  C   UNL A   1      46.795  30.759  28.400  1.00  0.00     0.064 A 
ATOM     69  C   UNL A   1      46.488  31.500  27.243  1.00  0.00     0.173 A 
ATOM     70  C   UNL A   1      47.755  31.322  29.262  1.00  0.00     0.173 A 
ATOM     71  F   UNL A   1      45.565  31.054  26.378  1.00  0.00    -0.203 F 
ATOM     72  C   UNL A   1      47.062  32.751  26.994  1.00  0.00     0.198 A 
ATOM     73  C   UNL A   1      48.333  32.569  29.008  1.00  0.00     0.198 A 
ATOM     74  F   UNL A   1      48.076  30.723  30.416  1.00  0.00    -0.203 F 
ATOM     75  F   UNL A   1      46.681  33.461  25.922  1.00  0.00    -0.200 F 
ATOM     76  C   UNL A   1      47.972  33.293  27.886  1.00  0.00     0.200 A 
ATOM     77  F   UNL A   1      49.189  33.096  29.895  1.00  0.00    -0.200 F 
ATOM     78  F   UNL A   1      48.465  34.522  27.689  1.00  0.00    -0.200 F 
ENDBRANCH  44  68
BRANCH  56  79
ATOM     79  C   UNL A   1      45.344  25.910  32.039  1.00  0.00     0.064 A 
ATOM     80  C   UNL A   1      46.313  25.661  33.025  1.00  0.00     0.173 A 
ATOM     81  C   UNL A   1      44.199  26.621  32.421  1.00  0.00     0.173 A 
ATOM     82  F   UNL A   1      47.475  25.066  32.723  1.00  0.00    -0.203 F 
ATOM     83  C   UNL A   1      46.111  26.061  34.345  1.00  0.00     0.198 A 
ATOM     84  C   UNL A   1      44.020  27.057  33.728  1.00  0.00     0.198 A 
ATOM     85  F   UNL A   1      43.258  26.921  31.510  1.00  0.00    -0.203 F 
ATOM     86  F   UNL A   1      47.033  25.784  35.279  1.00  0.00    -0.200 F 
ATOM     87  C   UNL A   1      44.968  26.763  34.693  1.00  0.00     0.200 A 
ATOM     88  F   UNL A   1      42.934  27.774  34.047  1.00  0.00    -0.200 F 
ATOM     89  F   UNL A   1      44.787  27.174  35.956  1.00  0.00    -0.200 F 
ENDBRANCH  56  79
ENDBRANCH  30  31
ENDBRANCH  22  25
ENDBRANCH  20  21
ENDBRANCH  19  20
ENDBRANCH   1  19
TORSDOF 13
ENDMDL
MODEL 3
REMARK VINA RESULT:     -11.6      4.472      9.627
REMARK SMILES C[C@H]1OCC[C@H]1c1nnnn1CC(=O)NCCCCNC(=O)c1ccc(-c2c3nc(c(-c4c(F)c(F)c(F)c(F)c4F)c4ccc([nH]4)c(-c4c(F)c(F)c(F)c(F)c4F)c4nc(c(-c5c(F)c(F)c(F)c(F)c5F)c5ccc2[nH]5)C=C4)C=C3)cc1
REMARK SMILES IDX 17 1 16 2 15 3 13 4 14 5 12 7 11 8 7 9 8 10 9 11 10 12 6 13
REMARK SMILES IDX 1 14 2 15 3 16 4 17 5 18 18 19 19 20 20 21 21 22 22 24 23 25
REMARK SMILES IDX 24 26 85 27 25 28 84 29 26 30 27 31 28 32 78 33 29 34 83 35
REMARK SMILES IDX 77 36 79 37 30 38 82 39 76 40 75 41 31 43 63 44 43 45 62 46
REMARK SMILES IDX 44 47 47 48 61 49 80 50 45 51 46 52 60 54 81 55 48 56 32 57
REMARK SMILES IDX 33 58 41 59 34 60 35 61 39 62 42 63 36 64 37 65 40 66 38 67
REMARK SMILES IDX 64 68 65 69 73 70 66 71 67 72 71 73 74 74 68 75 69 76 72 77
REMARK SMILES IDX 70 78 49 79 50 80 58 81 51 82 52 83 56 84 59 85 53 86 54 87
REMARK SMILES IDX 57 88 55 89
REMARK H PARENT 15 6 20 23 79 42 47 53
REMARK Flexibility Score: inf
ROOT
ATOM      1  C   UNL A   1      37.117  20.971  24.604  1.00  0.00     0.023 C 
ENDROOT
BRANCH   1   2
ATOM      2  C   UNL A   1      36.222  21.295  25.796  1.00  0.00     0.116 C 
BRANCH   2   3
ATOM      3  N   UNL A   1      34.887  20.759  25.656  1.00  0.00    -0.354 N 
ATOM      4  C   UNL A   1      33.735  21.143  26.283  1.00  0.00     0.241 C 
ATOM      5  O   UNL A   1      32.697  20.545  25.991  1.00  0.00    -0.273 OA
ATOM      6  H   UNL A   1      34.794  20.013  25.020  1.00  0.00     0.163 HD
BRANCH   4   7
ATOM      7  C   UNL A   1      33.716  22.352  27.188  1.00  0.00     0.248 C 
BRANCH   7   8
ATOM      8  N   UNL A   1      32.771  23.373  26.800  1.00  0.00    -0.220 N 
ATOM      9  C   UNL A   1      32.828  24.293  25.776  1.00  0.00     0.157 A 
ATOM     10  N   UNL A   1      31.691  24.964  25.798  1.00  0.00    -0.113 NA
ATOM     11  N   UNL A   1      30.940  24.441  26.817  1.00  0.00    -0.024 NA
ATOM     12  N   UNL A   1      31.585  23.461  27.424  1.00  0.00    -0.044 NA
BRANCH   9  13
ATOM     13  C   UNL A   1      34.010  24.577  24.896  1.00  0.00     0.090 C 
ATOM     14  C   UNL A   1      33.097  22.788  23.195  1.00  0.00     0.039 C 
ATOM     15  C   UNL A   1      34.023  23.955  23.492  1.00  0.00     0.126 C 
ATOM     16  O   UNL A   1      33.742  24.996  22.540  1.00  0.00    -0.378 OA
ATOM     17  C   UNL A   1      33.458  26.201  23.251  1.00  0.00     0.161 C 
ATOM     18  C   UNL A   1      34.150  26.064  24.587  1.00  0.00     0.043 C 
ENDBRANCH   9  13
ENDBRANCH   7   8
ENDBRANCH   4   7
ENDBRANCH   2   3
ENDBRANCH   1   2
BRANCH   1  19
ATOM     19  C   UNL A   1      38.112  19.828  24.842  1.00  0.00     0.023 C 
BRANCH  19  20
ATOM     20  C   UNL A   1      39.160  20.106  25.916  1.00  0.00     0.116 C 
BRANCH  20  21
ATOM     21  N   UNL A   1      40.345  19.265  25.780  1.00  0.00    -0.352 N 
ATOM     22  C   UNL A   1      41.669  19.656  25.783  1.00  0.00     0.251 C 
ATOM     23  H   UNL A   1      40.180  18.300  25.675  1.00  0.00     0.163 HD
ATOM     24  O   UNL A   1      42.526  18.973  25.242  1.00  0.00    -0.269 OA
BRANCH  22  25
ATOM     25  C   UNL A   1      42.044  20.912  26.460  1.00  0.00     0.039 A 
ATOM     26  C   UNL A   1      42.310  22.066  25.723  1.00  0.00     0.014 A 
ATOM     27  C   UNL A   1      42.126  20.924  27.852  1.00  0.00     0.014 A 
ATOM     28  C   UNL A   1      42.572  23.252  26.405  1.00  0.00     0.010 A 
ATOM     29  C   UNL A   1      42.271  22.114  28.528  1.00  0.00     0.010 A 
ATOM     30  C   UNL A   1      42.519  23.278  27.811  1.00  0.00    -0.014 A 
BRANCH  30  31
ATOM     31  C   UNL A   1      42.525  24.562  28.511  1.00  0.00     0.031 A 
ATOM     32  C   UNL A   1      41.314  25.378  28.228  1.00  0.00     0.074 A 
ATOM     33  C   UNL A   1      43.416  24.916  29.464  1.00  0.00     0.049 A 
ATOM     34  N   UNL A   1      41.256  26.460  27.528  1.00  0.00    -0.248 NA
ATOM     35  C   UNL A   1      39.993  24.846  28.607  1.00  0.00     0.031 C 
ATOM     36  C   UNL A   1      44.469  24.080  30.050  1.00  0.00     0.029 A 
ATOM     37  N   UNL A   1      43.512  26.070  30.191  1.00  0.00    -0.354 N 
ATOM     38  C   UNL A   1      39.929  26.878  27.585  1.00  0.00     0.074 A 
ATOM     39  C   UNL A   1      39.176  25.754  28.066  1.00  0.00     0.031 C 
ATOM     40  C   UNL A   1      44.932  24.657  31.181  1.00  0.00     0.029 A 
ATOM     41  C   UNL A   1      44.331  25.973  31.315  1.00  0.00     0.049 A 
ATOM     42  H   UNL A   1      43.043  26.899  29.942  1.00  0.00     0.167 HD
ATOM     43  C   UNL A   1      39.645  28.210  27.555  1.00  0.00     0.037 A 
ATOM     44  C   UNL A   1      44.500  26.898  32.292  1.00  0.00     0.037 A 
ATOM     45  C   UNL A   1      40.797  28.950  27.095  1.00  0.00     0.049 A 
ATOM     46  C   UNL A   1      44.100  28.205  31.729  1.00  0.00     0.074 A 
ATOM     47  C   UNL A   1      41.520  29.067  25.928  1.00  0.00     0.029 A 
ATOM     48  N   UNL A   1      41.597  29.402  28.111  1.00  0.00    -0.354 N 
ATOM     49  N   UNL A   1      44.776  28.831  30.808  1.00  0.00    -0.248 NA
ATOM     50  C   UNL A   1      42.741  28.684  31.941  1.00  0.00     0.031 C 
ATOM     51  C   UNL A   1      42.857  29.378  26.326  1.00  0.00     0.029 A 
ATOM     52  C   UNL A   1      42.897  29.500  27.714  1.00  0.00     0.049 A 
ATOM     53  H   UNL A   1      41.273  29.627  29.013  1.00  0.00     0.167 HD
ATOM     54  C   UNL A   1      43.808  29.429  30.029  1.00  0.00     0.074 A 
ATOM     55  C   UNL A   1      42.619  29.475  30.873  1.00  0.00     0.031 C 
ATOM     56  C   UNL A   1      43.976  29.513  28.677  1.00  0.00     0.037 A 
BRANCH  43  57
ATOM     57  C   UNL A   1      38.615  28.889  28.455  1.00  0.00     0.064 A 
ATOM     58  C   UNL A   1      37.800  29.897  27.890  1.00  0.00     0.173 A 
ATOM     59  C   UNL A   1      38.646  28.867  29.866  1.00  0.00     0.173 A 
ATOM     60  F   UNL A   1      37.697  30.027  26.559  1.00  0.00    -0.203 F 
ATOM     61  C   UNL A   1      37.167  30.869  28.675  1.00  0.00     0.198 A 
ATOM     62  C   UNL A   1      37.974  29.810  30.645  1.00  0.00     0.198 A 
ATOM     63  F   UNL A   1      39.410  28.019  30.559  1.00  0.00    -0.203 F 
ATOM     64  F   UNL A   1      36.530  31.889  28.086  1.00  0.00    -0.200 F 
ATOM     65  C   UNL A   1      37.267  30.831  30.052  1.00  0.00     0.200 A 
ATOM     66  F   UNL A   1      38.104  29.769  31.980  1.00  0.00    -0.200 F 
ATOM     67  F   UNL A   1      36.727  31.798  30.804  1.00  0.00    -0.200 F 
ENDBRANCH  43  57
BRANCH  44  68
ATOM     68  C   UNL A   1      44.812  26.737  33.734  1.00  0.00     0.064 A 
ATOM     69  C   UNL A   1      43.827  26.312  34.647  1.00  0.00     0.173 A 
ATOM     70  C   UNL A   1      46.141  26.700  34.194  1.00  0.00     0.173 A 
ATOM     71  F   UNL A   1      42.535  26.287  34.285  1.00  0.00    -0.203 F 
ATOM     72  C   UNL A   1      44.157  25.828  35.917  1.00  0.00     0.198 A 
ATOM     73  C   UNL A   1      46.469  26.223  35.466  1.00  0.00     0.198 A 
ATOM     74  F   UNL A   1      47.157  27.031  33.385  1.00  0.00    -0.203 F 
ATOM     75  F   UNL A   1      43.196  25.357  36.724  1.00  0.00    -0.200 F 
ATOM     76  C   UNL A   1      45.480  25.768  36.319  1.00  0.00     0.200 A 
ATOM     77  F   UNL A   1      47.756  26.141  35.833  1.00  0.00    -0.200 F 
ATOM     78  F   UNL A   1      45.805  25.234  37.504  1.00  0.00    -0.200 F 
ENDBRANCH  44  68
BRANCH  56  79
ATOM     79  C   UNL A   1      45.380  29.463  28.157  1.00  0.00     0.064 A 
ATOM     80  C   UNL A   1      46.078  28.290  27.826  1.00  0.00     0.173 A 
ATOM     81  C   UNL A   1      46.027  30.686  27.932  1.00  0.00     0.173 A 
ATOM     82  F   UNL A   1      45.499  27.085  27.928  1.00  0.00    -0.203 F 
ATOM     83  C   UNL A   1      47.385  28.345  27.345  1.00  0.00     0.198 A 
ATOM     84  C   UNL A   1      47.314  30.740  27.411  1.00  0.00     0.198 A 
ATOM     85  F   UNL A   1      45.392  31.841  28.193  1.00  0.00    -0.203 F 
ATOM     86  F   UNL A   1      48.047  27.212  27.067  1.00  0.00    -0.200 F 
ATOM     87  C   UNL A   1      47.999  29.569  27.133  1.00  0.00     0.200 A 
ATOM     88  F   UNL A   1      47.884  31.927  27.167  1.00  0.00    -0.200 F 
ATOM     89  F   UNL A   1      49.245  29.623  26.643  1.00  0.00    -0.200 F 
ENDBRANCH  56  79
ENDBRANCH  30  31
ENDBRANCH  22  25
ENDBRANCH  20  21
ENDBRANCH  19  20
ENDBRANCH   1  19
TORSDOF 13
ENDMDL
