MODEL 1
REMARK VINA RESULT:     -12.1      0.000      0.000
REMARK SMILES C[C@@H](C(=O)NCCCCNC(=O)c1ccc(-c2c3nc(c(-c4c(F)c(F)c(F)c(F)c4F)c4ccc([nH]4)c(-c4c(F)c(F)c(F)c(F)c4F)c4nc(c(-c5c(F)c(F)c(F)c(F)c5F)c5ccc2[nH]5)C=C4)C=C3)cc1)c1ccc(Cc2ccsc2)cc1F
REMARK SMILES IDX 7 1 6 2 5 3 3 4 4 5 2 7 1 8 76 9 77 10 87 11 78 12 86 13
REMARK SMILES IDX 88 14 79 15 80 16 81 17 82 18 85 19 83 20 84 21 8 22 9 23
REMARK SMILES IDX 10 24 11 25 12 27 13 28 14 29 75 30 15 31 74 32 16 33 17 34
REMARK SMILES IDX 18 35 68 36 19 37 73 38 67 39 69 40 20 41 72 42 66 43 65 44
REMARK SMILES IDX 21 46 53 47 33 48 52 49 34 50 37 51 51 52 70 53 35 54 36 55
REMARK SMILES IDX 50 57 71 58 38 59 22 60 23 61 31 62 24 63 25 64 29 65 32 66
REMARK SMILES IDX 26 67 27 68 30 69 28 70 54 71 55 72 63 73 56 74 57 75 61 76
REMARK SMILES IDX 64 77 58 78 59 79 62 80 60 81 39 82 40 83 48 84 41 85 42 86
REMARK SMILES IDX 46 87 49 88 43 89 44 90 47 91 45 92
REMARK H PARENT 5 6 10 26 69 45 37 56
REMARK Flexibility Score: inf
ROOT
ATOM      1  C   UNL A   1      31.426  30.693  26.601  1.00  0.00     0.023 C 
ENDROOT
BRANCH   1   2
ATOM      2  C   UNL A   1      32.396  30.070  25.589  1.00  0.00     0.116 C 
BRANCH   2   3
ATOM      3  N   UNL A   1      31.665  29.385  24.540  1.00  0.00    -0.356 N 
ATOM      4  C   UNL A   1      32.153  28.716  23.448  1.00  0.00     0.227 C 
ATOM      5  O   UNL A   1      31.408  28.629  22.473  1.00  0.00    -0.274 OA
ATOM      6  H   UNL A   1      30.684  29.402  24.625  1.00  0.00     0.163 HD
BRANCH   4   7
ATOM      7  C   UNL A   1      33.588  28.159  23.486  1.00  0.00     0.108 C 
ATOM      8  C   UNL A   1      34.154  28.256  22.057  1.00  0.00     0.023 C 
BRANCH   7   9
ATOM      9  C   UNL A   1      33.727  26.738  24.045  1.00  0.00    -0.000 A 
ATOM     10  C   UNL A   1      33.779  25.634  23.178  1.00  0.00     0.008 A 
ATOM     11  C   UNL A   1      33.863  26.462  25.411  1.00  0.00     0.127 A 
ATOM     12  C   UNL A   1      33.835  24.325  23.660  1.00  0.00     0.004 A 
ATOM     13  C   UNL A   1      33.868  25.151  25.904  1.00  0.00     0.043 A 
ATOM     14  F   UNL A   1      34.033  27.457  26.293  1.00  0.00    -0.207 F 
ATOM     15  C   UNL A   1      33.816  24.058  25.031  1.00  0.00    -0.041 A 
BRANCH  15  16
ATOM     16  C   UNL A   1      33.823  22.638  25.545  1.00  0.00     0.072 C 
BRANCH  16  17
ATOM     17  C   UNL A   1      35.229  22.102  25.451  1.00  0.00    -0.033 A 
ATOM     18  C   UNL A   1      35.609  20.799  24.967  1.00  0.00     0.015 A 
ATOM     19  C   UNL A   1      36.365  22.840  25.742  1.00  0.00     0.068 A 
ATOM     20  C   UNL A   1      36.971  20.598  24.953  1.00  0.00     0.065 A 
ATOM     21  S   UNL A   1      37.820  21.982  25.476  1.00  0.00    -0.152 S 
ENDBRANCH  16  17
ENDBRANCH  15  16
ENDBRANCH   7   9
ENDBRANCH   4   7
ENDBRANCH   2   3
ENDBRANCH   1   2
BRANCH   1  22
ATOM     22  C   UNL A   1      31.399  32.222  26.608  1.00  0.00     0.023 C 
BRANCH  22  23
ATOM     23  C   UNL A   1      32.642  32.882  27.185  1.00  0.00     0.116 C 
BRANCH  23  24
ATOM     24  N   UNL A   1      32.386  34.229  27.669  1.00  0.00    -0.352 N 
ATOM     25  C   UNL A   1      33.006  34.927  28.672  1.00  0.00     0.251 C 
ATOM     26  H   UNL A   1      31.661  34.710  27.209  1.00  0.00     0.163 HD
ATOM     27  O   UNL A   1      32.545  36.007  29.040  1.00  0.00    -0.269 OA
BRANCH  25  28
ATOM     28  C   UNL A   1      34.206  34.376  29.336  1.00  0.00     0.039 A 
ATOM     29  C   UNL A   1      34.031  33.578  30.469  1.00  0.00     0.014 A 
ATOM     30  C   UNL A   1      35.492  34.639  28.857  1.00  0.00     0.014 A 
ATOM     31  C   UNL A   1      35.141  33.000  31.086  1.00  0.00     0.010 A 
ATOM     32  C   UNL A   1      36.592  33.997  29.424  1.00  0.00     0.010 A 
ATOM     33  C   UNL A   1      36.427  33.172  30.545  1.00  0.00    -0.014 A 
BRANCH  33  34
ATOM     34  C   UNL A   1      37.593  32.472  31.141  1.00  0.00     0.031 A 
ATOM     35  C   UNL A   1      38.107  32.854  32.500  1.00  0.00     0.074 A 
ATOM     36  C   UNL A   1      38.206  31.502  30.434  1.00  0.00     0.049 A 
ATOM     37  N   UNL A   1      39.106  32.346  33.179  1.00  0.00    -0.248 NA
ATOM     38  C   UNL A   1      37.425  33.965  33.182  1.00  0.00     0.031 C 
ATOM     39  C   UNL A   1      37.841  31.085  29.078  1.00  0.00     0.029 A 
ATOM     40  N   UNL A   1      39.266  30.690  30.755  1.00  0.00    -0.354 N 
ATOM     41  C   UNL A   1      39.166  33.069  34.363  1.00  0.00     0.074 A 
ATOM     42  C   UNL A   1      38.148  34.093  34.286  1.00  0.00     0.031 C 
ATOM     43  C   UNL A   1      38.640  30.077  28.698  1.00  0.00     0.029 A 
ATOM     44  C   UNL A   1      39.597  29.799  29.764  1.00  0.00     0.049 A 
ATOM     45  H   UNL A   1      39.743  30.742  31.614  1.00  0.00     0.167 HD
ATOM     46  C   UNL A   1      39.977  32.875  35.430  1.00  0.00     0.037 A 
ATOM     47  C   UNL A   1      40.565  28.864  29.719  1.00  0.00     0.037 A 
ATOM     48  C   UNL A   1      40.986  31.849  35.508  1.00  0.00     0.049 A 
ATOM     49  C   UNL A   1      41.456  28.678  30.917  1.00  0.00     0.074 A 
ATOM     50  C   UNL A   1      41.833  31.549  36.560  1.00  0.00     0.029 A 
ATOM     51  N   UNL A   1      41.285  30.957  34.489  1.00  0.00    -0.354 N 
ATOM     52  N   UNL A   1      41.452  29.320  32.062  1.00  0.00    -0.248 NA
ATOM     53  C   UNL A   1      42.478  27.627  30.824  1.00  0.00     0.031 C 
ATOM     54  C   UNL A   1      42.677  30.507  36.161  1.00  0.00     0.029 A 
ATOM     55  C   UNL A   1      42.318  30.119  34.882  1.00  0.00     0.049 A 
ATOM     56  H   UNL A   1      40.832  30.924  33.616  1.00  0.00     0.167 HD
ATOM     57  C   UNL A   1      42.451  28.736  32.829  1.00  0.00     0.074 A 
ATOM     58  C   UNL A   1      43.018  27.667  32.033  1.00  0.00     0.031 C 
ATOM     59  C   UNL A   1      42.871  29.060  34.077  1.00  0.00     0.037 A 
BRANCH  46  60
ATOM     60  C   UNL A   1      39.800  33.781  36.615  1.00  0.00     0.064 A 
ATOM     61  C   UNL A   1      40.425  35.036  36.676  1.00  0.00     0.173 A 
ATOM     62  C   UNL A   1      38.948  33.423  37.671  1.00  0.00     0.173 A 
ATOM     63  F   UNL A   1      41.258  35.423  35.698  1.00  0.00    -0.203 F 
ATOM     64  C   UNL A   1      40.219  35.890  37.755  1.00  0.00     0.198 A 
ATOM     65  C   UNL A   1      38.721  34.292  38.735  1.00  0.00     0.198 A 
ATOM     66  F   UNL A   1      38.322  32.236  37.663  1.00  0.00    -0.203 F 
ATOM     67  F   UNL A   1      40.856  37.068  37.808  1.00  0.00    -0.200 F 
ATOM     68  C   UNL A   1      39.359  35.521  38.780  1.00  0.00     0.200 A 
ATOM     69  F   UNL A   1      37.878  33.941  39.717  1.00  0.00    -0.200 F 
ATOM     70  F   UNL A   1      39.148  36.352  39.810  1.00  0.00    -0.200 F 
ENDBRANCH  46  60
BRANCH  47  71
ATOM     71  C   UNL A   1      40.739  28.023  28.505  1.00  0.00     0.064 A 
ATOM     72  C   UNL A   1      41.516  28.461  27.423  1.00  0.00     0.173 A 
ATOM     73  C   UNL A   1      40.102  26.779  28.386  1.00  0.00     0.173 A 
ATOM     74  F   UNL A   1      42.131  29.652  27.479  1.00  0.00    -0.203 F 
ATOM     75  C   UNL A   1      41.621  27.705  26.257  1.00  0.00     0.198 A 
ATOM     76  C   UNL A   1      40.236  26.007  27.235  1.00  0.00     0.198 A 
ATOM     77  F   UNL A   1      39.352  26.309  29.394  1.00  0.00    -0.203 F 
ATOM     78  F   UNL A   1      42.317  28.179  25.215  1.00  0.00    -0.200 F 
ATOM     79  C   UNL A   1      40.984  26.476  26.165  1.00  0.00     0.200 A 
ATOM     80  F   UNL A   1      39.633  24.813  27.157  1.00  0.00    -0.200 F 
ATOM     81  F   UNL A   1      41.081  25.751  25.043  1.00  0.00    -0.200 F 
ENDBRANCH  47  71
BRANCH  59  82
ATOM     82  C   UNL A   1      43.978  28.229  34.661  1.00  0.00     0.064 A 
ATOM     83  C   UNL A   1      43.714  27.059  35.389  1.00  0.00     0.173 A 
ATOM     84  C   UNL A   1      45.318  28.606  34.488  1.00  0.00     0.173 A 
ATOM     85  F   UNL A   1      42.450  26.661  35.596  1.00  0.00    -0.203 F 
ATOM     86  C   UNL A   1      44.749  26.323  35.961  1.00  0.00     0.198 A 
ATOM     87  C   UNL A   1      46.352  27.847  35.030  1.00  0.00     0.198 A 
ATOM     88  F   UNL A   1      45.627  29.711  33.793  1.00  0.00    -0.203 F 
ATOM     89  F   UNL A   1      44.469  25.248  36.711  1.00  0.00    -0.200 F 
ATOM     90  C   UNL A   1      46.066  26.714  35.776  1.00  0.00     0.200 A 
ATOM     91  F   UNL A   1      47.626  28.218  34.837  1.00  0.00    -0.200 F 
ATOM     92  F   UNL A   1      47.061  26.006  36.329  1.00  0.00    -0.200 F 
ENDBRANCH  59  82
ENDBRANCH  33  34
ENDBRANCH  25  28
ENDBRANCH  23  24
ENDBRANCH  22  23
ENDBRANCH   1  22
TORSDOF 14
ENDMDL
MODEL 2
REMARK VINA RESULT:     -12.0      1.320      7.432
REMARK SMILES C[C@@H](C(=O)NCCCCNC(=O)c1ccc(-c2c3nc(c(-c4c(F)c(F)c(F)c(F)c4F)c4ccc([nH]4)c(-c4c(F)c(F)c(F)c(F)c4F)c4nc(c(-c5c(F)c(F)c(F)c(F)c5F)c5ccc2[nH]5)C=C4)C=C3)cc1)c1ccc(Cc2ccsc2)cc1F
REMARK SMILES IDX 7 1 6 2 5 3 3 4 4 5 2 7 1 8 76 9 77 10 87 11 78 12 86 13
REMARK SMILES IDX 88 14 79 15 80 16 81 17 82 18 85 19 83 20 84 21 8 22 9 23
REMARK SMILES IDX 10 24 11 25 12 27 13 28 14 29 75 30 15 31 74 32 16 33 17 34
REMARK SMILES IDX 18 35 68 36 19 37 73 38 67 39 69 40 20 41 72 42 66 43 65 44
REMARK SMILES IDX 21 46 53 47 33 48 52 49 34 50 37 51 51 52 70 53 35 54 36 55
REMARK SMILES IDX 50 57 71 58 38 59 22 60 23 61 31 62 24 63 25 64 29 65 32 66
REMARK SMILES IDX 26 67 27 68 30 69 28 70 54 71 55 72 63 73 56 74 57 75 61 76
REMARK SMILES IDX 64 77 58 78 59 79 62 80 60 81 39 82 40 83 48 84 41 85 42 86
REMARK SMILES IDX 46 87 49 88 43 89 44 90 47 91 45 92
REMARK H PARENT 5 6 10 26 69 45 37 56
REMARK Flexibility Score: inf
ROOT
ATOM      1  C   UNL A   1      31.557  31.044  26.126  1.00  0.00     0.023 C 
ENDROOT
BRANCH   1   2
ATOM      2  C   UNL A   1      32.720  30.283  26.776  1.00  0.00     0.116 C 
BRANCH   2   3
ATOM      3  N   UNL A   1      32.242  29.063  27.400  1.00  0.00    -0.356 N 
ATOM      4  C   UNL A   1      31.720  27.943  26.808  1.00  0.00     0.227 C 
ATOM      5  O   UNL A   1      30.964  27.255  27.494  1.00  0.00    -0.274 OA
ATOM      6  H   UNL A   1      32.301  29.037  28.382  1.00  0.00     0.163 HD
BRANCH   4   7
ATOM      7  C   UNL A   1      32.067  27.635  25.340  1.00  0.00     0.108 C 
ATOM      8  C   UNL A   1      30.746  27.623  24.551  1.00  0.00     0.023 C 
BRANCH   7   9
ATOM      9  C   UNL A   1      32.866  26.347  25.110  1.00  0.00    -0.000 A 
ATOM     10  C   UNL A   1      33.001  25.400  26.140  1.00  0.00     0.008 A 
ATOM     11  C   UNL A   1      33.446  26.014  23.881  1.00  0.00     0.127 A 
ATOM     12  C   UNL A   1      33.780  24.252  25.982  1.00  0.00     0.004 A 
ATOM     13  C   UNL A   1      34.270  24.891  23.731  1.00  0.00     0.043 A 
ATOM     14  F   UNL A   1      33.196  26.750  22.788  1.00  0.00    -0.207 F 
ATOM     15  C   UNL A   1      34.480  24.009  24.797  1.00  0.00    -0.041 A 
BRANCH  15  16
ATOM     16  C   UNL A   1      35.362  22.793  24.652  1.00  0.00     0.072 C 
BRANCH  16  17
ATOM     17  C   UNL A   1      34.482  21.571  24.562  1.00  0.00    -0.033 A 
ATOM     18  C   UNL A   1      33.164  21.517  23.982  1.00  0.00     0.015 A 
ATOM     19  C   UNL A   1      34.871  20.301  24.955  1.00  0.00     0.068 A 
ATOM     20  C   UNL A   1      32.612  20.256  24.000  1.00  0.00     0.065 A 
ATOM     21  S   UNL A   1      33.680  19.106  24.669  1.00  0.00    -0.152 S 
ENDBRANCH  16  17
ENDBRANCH  15  16
ENDBRANCH   7   9
ENDBRANCH   4   7
ENDBRANCH   2   3
ENDBRANCH   1   2
BRANCH   1  22
ATOM     22  C   UNL A   1      31.386  32.486  26.606  1.00  0.00     0.023 C 
BRANCH  22  23
ATOM     23  C   UNL A   1      32.575  33.053  27.368  1.00  0.00     0.116 C 
BRANCH  23  24
ATOM     24  N   UNL A   1      32.391  34.449  27.731  1.00  0.00    -0.352 N 
ATOM     25  C   UNL A   1      33.028  35.191  28.692  1.00  0.00     0.251 C 
ATOM     26  H   UNL A   1      31.708  34.932  27.212  1.00  0.00     0.163 HD
ATOM     27  O   UNL A   1      32.626  36.323  28.955  1.00  0.00    -0.269 OA
BRANCH  25  28
ATOM     28  C   UNL A   1      34.175  34.626  29.434  1.00  0.00     0.039 A 
ATOM     29  C   UNL A   1      33.937  34.045  30.681  1.00  0.00     0.014 A 
ATOM     30  C   UNL A   1      35.473  34.668  28.916  1.00  0.00     0.014 A 
ATOM     31  C   UNL A   1      34.991  33.455  31.382  1.00  0.00     0.010 A 
ATOM     32  C   UNL A   1      36.507  34.009  29.578  1.00  0.00     0.010 A 
ATOM     33  C   UNL A   1      36.277  33.399  30.819  1.00  0.00    -0.014 A 
BRANCH  33  34
ATOM     34  C   UNL A   1      37.373  32.680  31.518  1.00  0.00     0.031 A 
ATOM     35  C   UNL A   1      38.042  31.495  30.883  1.00  0.00     0.074 A 
ATOM     36  C   UNL A   1      37.745  33.089  32.747  1.00  0.00     0.049 A 
ATOM     37  N   UNL A   1      39.020  30.753  31.342  1.00  0.00    -0.248 NA
ATOM     38  C   UNL A   1      37.537  31.070  29.568  1.00  0.00     0.031 C 
ATOM     39  C   UNL A   1      37.128  34.188  33.495  1.00  0.00     0.029 A 
ATOM     40  N   UNL A   1      38.730  32.631  33.586  1.00  0.00    -0.354 N 
ATOM     41  C   UNL A   1      39.248  29.784  30.375  1.00  0.00     0.074 A 
ATOM     42  C   UNL A   1      38.267  29.988  29.332  1.00  0.00     0.031 C 
ATOM     43  C   UNL A   1      37.768  34.338  34.665  1.00  0.00     0.029 A 
ATOM     44  C   UNL A   1      38.816  33.327  34.767  1.00  0.00     0.049 A 
ATOM     45  H   UNL A   1      39.320  31.875  33.362  1.00  0.00     0.167 HD
ATOM     46  C   UNL A   1      40.210  28.830  30.345  1.00  0.00     0.037 A 
ATOM     47  C   UNL A   1      39.643  33.165  35.817  1.00  0.00     0.037 A 
ATOM     48  C   UNL A   1      41.191  28.634  31.381  1.00  0.00     0.049 A 
ATOM     49  C   UNL A   1      40.696  32.091  35.757  1.00  0.00     0.074 A 
ATOM     50  C   UNL A   1      42.228  27.719  31.426  1.00  0.00     0.029 A 
ATOM     51  N   UNL A   1      41.254  29.365  32.559  1.00  0.00    -0.354 N 
ATOM     52  N   UNL A   1      40.949  31.230  34.801  1.00  0.00    -0.248 NA
ATOM     53  C   UNL A   1      41.588  31.976  36.919  1.00  0.00     0.031 C 
ATOM     54  C   UNL A   1      42.889  27.864  32.651  1.00  0.00     0.029 A 
ATOM     55  C   UNL A   1      42.301  28.908  33.345  1.00  0.00     0.049 A 
ATOM     56  H   UNL A   1      40.645  30.100  32.801  1.00  0.00     0.167 HD
ATOM     57  C   UNL A   1      42.040  30.489  35.235  1.00  0.00     0.074 A 
ATOM     58  C   UNL A   1      42.421  31.025  36.526  1.00  0.00     0.031 C 
ATOM     59  C   UNL A   1      42.667  29.451  34.627  1.00  0.00     0.037 A 
BRANCH  46  60
ATOM     60  C   UNL A   1      40.263  27.930  29.144  1.00  0.00     0.064 A 
ATOM     61  C   UNL A   1      41.060  28.243  28.032  1.00  0.00     0.173 A 
ATOM     62  C   UNL A   1      39.565  26.714  29.127  1.00  0.00     0.173 A 
ATOM     63  F   UNL A   1      41.740  29.399  27.992  1.00  0.00    -0.203 F 
ATOM     64  C   UNL A   1      41.142  27.381  26.941  1.00  0.00     0.198 A 
ATOM     65  C   UNL A   1      39.673  25.840  28.048  1.00  0.00     0.198 A 
ATOM     66  F   UNL A   1      38.792  26.363  30.165  1.00  0.00    -0.203 F 
ATOM     67  F   UNL A   1      41.880  27.719  25.875  1.00  0.00    -0.200 F 
ATOM     68  C   UNL A   1      40.455  26.176  26.954  1.00  0.00     0.200 A 
ATOM     69  F   UNL A   1      39.020  24.669  28.068  1.00  0.00    -0.200 F 
ATOM     70  F   UNL A   1      40.548  25.340  25.911  1.00  0.00    -0.200 F 
ENDBRANCH  46  60
BRANCH  47  71
ATOM     71  C   UNL A   1      39.522  34.046  37.010  1.00  0.00     0.064 A 
ATOM     72  C   UNL A   1      40.176  35.285  37.065  1.00  0.00     0.173 A 
ATOM     73  C   UNL A   1      38.780  33.651  38.132  1.00  0.00     0.173 A 
ATOM     74  F   UNL A   1      40.915  35.701  36.025  1.00  0.00    -0.203 F 
ATOM     75  C   UNL A   1      40.122  36.078  38.210  1.00  0.00     0.198 A 
ATOM     76  C   UNL A   1      38.697  34.460  39.262  1.00  0.00     0.198 A 
ATOM     77  F   UNL A   1      38.129  32.478  38.130  1.00  0.00    -0.203 F 
ATOM     78  F   UNL A   1      40.811  37.227  38.259  1.00  0.00    -0.200 F 
ATOM     79  C   UNL A   1      39.379  35.667  39.307  1.00  0.00     0.200 A 
ATOM     80  F   UNL A   1      37.964  34.067  40.313  1.00  0.00    -0.200 F 
ATOM     81  F   UNL A   1      39.330  36.427  40.408  1.00  0.00    -0.200 F 
ENDBRANCH  47  71
BRANCH  59  82
ATOM     82  C   UNL A   1      43.843  28.851  35.343  1.00  0.00     0.064 A 
ATOM     83  C   UNL A   1      43.690  27.796  36.255  1.00  0.00     0.173 A 
ATOM     84  C   UNL A   1      45.139  29.335  35.112  1.00  0.00     0.173 A 
ATOM     85  F   UNL A   1      42.471  27.305  36.523  1.00  0.00    -0.203 F 
ATOM     86  C   UNL A   1      44.786  27.279  36.942  1.00  0.00     0.198 A 
ATOM     87  C   UNL A   1      46.237  28.792  35.774  1.00  0.00     0.198 A 
ATOM     88  F   UNL A   1      45.343  30.337  34.244  1.00  0.00    -0.203 F 
ATOM     89  F   UNL A   1      44.606  26.319  37.860  1.00  0.00    -0.200 F 
ATOM     90  C   UNL A   1      46.057  27.773  36.697  1.00  0.00     0.200 A 
ATOM     91  F   UNL A   1      47.468  29.260  35.524  1.00  0.00    -0.200 F 
ATOM     92  F   UNL A   1      47.110  27.277  37.362  1.00  0.00    -0.200 F 
ENDBRANCH  59  82
ENDBRANCH  33  34
ENDBRANCH  25  28
ENDBRANCH  23  24
ENDBRANCH  22  23
ENDBRANCH   1  22
TORSDOF 14
ENDMDL
MODEL 3
REMARK VINA RESULT:     -11.9      1.173      2.166
REMARK SMILES C[C@@H](C(=O)NCCCCNC(=O)c1ccc(-c2c3nc(c(-c4c(F)c(F)c(F)c(F)c4F)c4ccc([nH]4)c(-c4c(F)c(F)c(F)c(F)c4F)c4nc(c(-c5c(F)c(F)c(F)c(F)c5F)c5ccc2[nH]5)C=C4)C=C3)cc1)c1ccc(Cc2ccsc2)cc1F
REMARK SMILES IDX 7 1 6 2 5 3 3 4 4 5 2 7 1 8 76 9 77 10 87 11 78 12 86 13
REMARK SMILES IDX 88 14 79 15 80 16 81 17 82 18 85 19 83 20 84 21 8 22 9 23
REMARK SMILES IDX 10 24 11 25 12 27 13 28 14 29 75 30 15 31 74 32 16 33 17 34
REMARK SMILES IDX 18 35 68 36 19 37 73 38 67 39 69 40 20 41 72 42 66 43 65 44
REMARK SMILES IDX 21 46 53 47 33 48 52 49 34 50 37 51 51 52 70 53 35 54 36 55
REMARK SMILES IDX 50 57 71 58 38 59 22 60 23 61 31 62 24 63 25 64 29 65 32 66
REMARK SMILES IDX 26 67 27 68 30 69 28 70 54 71 55 72 63 73 56 74 57 75 61 76
REMARK SMILES IDX 64 77 58 78 59 79 62 80 60 81 39 82 40 83 48 84 41 85 42 86
REMARK SMILES IDX 46 87 49 88 43 89 44 90 47 91 45 92
REMARK H PARENT 5 6 10 26 69 45 37 56
REMARK Flexibility Score: inf
ROOT
ATOM      1  C   UNL A   1      31.450  30.907  26.212  1.00  0.00     0.023 C 
ENDROOT
BRANCH   1   2
ATOM      2  C   UNL A   1      32.663  30.206  26.836  1.00  0.00     0.116 C 
BRANCH   2   3
ATOM      3  N   UNL A   1      32.258  28.974  27.487  1.00  0.00    -0.356 N 
ATOM      4  C   UNL A   1      31.761  27.828  26.924  1.00  0.00     0.227 C 
ATOM      5  O   UNL A   1      31.058  27.117  27.642  1.00  0.00    -0.274 OA
ATOM      6  H   UNL A   1      32.353  28.960  28.467  1.00  0.00     0.163 HD
BRANCH   4   7
ATOM      7  C   UNL A   1      32.068  27.520  25.447  1.00  0.00     0.108 C 
ATOM      8  C   UNL A   1      30.726  27.504  24.694  1.00  0.00     0.023 C 
BRANCH   7   9
ATOM      9  C   UNL A   1      32.864  26.234  25.195  1.00  0.00    -0.000 A 
ATOM     10  C   UNL A   1      32.818  25.177  26.119  1.00  0.00     0.008 A 
ATOM     11  C   UNL A   1      33.620  26.015  24.037  1.00  0.00     0.127 A 
ATOM     12  C   UNL A   1      33.586  24.023  25.951  1.00  0.00     0.004 A 
ATOM     13  C   UNL A   1      34.432  24.883  23.887  1.00  0.00     0.043 A 
ATOM     14  F   UNL A   1      33.558  26.875  23.011  1.00  0.00    -0.207 F 
ATOM     15  C   UNL A   1      34.455  23.883  24.866  1.00  0.00    -0.041 A 
BRANCH  15  16
ATOM     16  C   UNL A   1      35.322  22.656  24.719  1.00  0.00     0.072 C 
BRANCH  16  17
ATOM     17  C   UNL A   1      34.426  21.453  24.563  1.00  0.00    -0.033 A 
ATOM     18  C   UNL A   1      33.170  21.416  23.857  1.00  0.00     0.015 A 
ATOM     19  C   UNL A   1      34.742  20.182  25.016  1.00  0.00     0.068 A 
ATOM     20  C   UNL A   1      32.589  20.168  23.842  1.00  0.00     0.065 A 
ATOM     21  S   UNL A   1      33.558  19.009  24.634  1.00  0.00    -0.152 S 
ENDBRANCH  16  17
ENDBRANCH  15  16
ENDBRANCH   7   9
ENDBRANCH   4   7
ENDBRANCH   2   3
ENDBRANCH   1   2
BRANCH   1  22
ATOM     22  C   UNL A   1      31.378  32.414  26.468  1.00  0.00     0.023 C 
BRANCH  22  23
ATOM     23  C   UNL A   1      32.579  32.999  27.196  1.00  0.00     0.116 C 
BRANCH  23  24
ATOM     24  N   UNL A   1      32.334  34.346  27.686  1.00  0.00    -0.352 N 
ATOM     25  C   UNL A   1      32.967  35.039  28.684  1.00  0.00     0.251 C 
ATOM     26  H   UNL A   1      31.606  34.831  27.234  1.00  0.00     0.163 HD
ATOM     27  O   UNL A   1      32.515  36.120  29.059  1.00  0.00    -0.269 OA
BRANCH  25  28
ATOM     28  C   UNL A   1      34.172  34.481  29.334  1.00  0.00     0.039 A 
ATOM     29  C   UNL A   1      34.023  33.830  30.561  1.00  0.00     0.014 A 
ATOM     30  C   UNL A   1      35.437  34.595  28.750  1.00  0.00     0.014 A 
ATOM     31  C   UNL A   1      35.133  33.246  31.173  1.00  0.00     0.010 A 
ATOM     32  C   UNL A   1      36.528  33.943  29.321  1.00  0.00     0.010 A 
ATOM     33  C   UNL A   1      36.388  33.264  30.539  1.00  0.00    -0.014 A 
BRANCH  33  34
ATOM     34  C   UNL A   1      37.544  32.553  31.141  1.00  0.00     0.031 A 
ATOM     35  C   UNL A   1      38.057  32.934  32.501  1.00  0.00     0.074 A 
ATOM     36  C   UNL A   1      38.150  31.575  30.439  1.00  0.00     0.049 A 
ATOM     37  N   UNL A   1      39.048  32.417  33.186  1.00  0.00    -0.248 NA
ATOM     38  C   UNL A   1      37.384  34.053  33.177  1.00  0.00     0.031 C 
ATOM     39  C   UNL A   1      37.785  31.158  29.083  1.00  0.00     0.029 A 
ATOM     40  N   UNL A   1      39.199  30.753  30.767  1.00  0.00    -0.354 N 
ATOM     41  C   UNL A   1      39.111  33.142  34.368  1.00  0.00     0.074 A 
ATOM     42  C   UNL A   1      38.104  34.177  34.284  1.00  0.00     0.031 C 
ATOM     43  C   UNL A   1      38.575  30.140  28.708  1.00  0.00     0.029 A 
ATOM     44  C   UNL A   1      39.525  29.855  29.779  1.00  0.00     0.049 A 
ATOM     45  H   UNL A   1      39.674  30.802  31.627  1.00  0.00     0.167 HD
ATOM     46  C   UNL A   1      39.917  32.943  35.438  1.00  0.00     0.037 A 
ATOM     47  C   UNL A   1      40.483  28.911  29.740  1.00  0.00     0.037 A 
ATOM     48  C   UNL A   1      40.914  31.907  35.523  1.00  0.00     0.049 A 
ATOM     49  C   UNL A   1      41.367  28.719  30.943  1.00  0.00     0.074 A 
ATOM     50  C   UNL A   1      41.754  31.601  36.579  1.00  0.00     0.029 A 
ATOM     51  N   UNL A   1      41.208  31.008  34.507  1.00  0.00    -0.354 N 
ATOM     52  N   UNL A   1      41.366  29.363  32.085  1.00  0.00    -0.248 NA
ATOM     53  C   UNL A   1      42.379  27.657  30.855  1.00  0.00     0.031 C 
ATOM     54  C   UNL A   1      42.588  30.548  36.186  1.00  0.00     0.029 A 
ATOM     55  C   UNL A   1      42.230  30.160  34.906  1.00  0.00     0.049 A 
ATOM     56  H   UNL A   1      40.757  30.978  33.632  1.00  0.00     0.167 HD
ATOM     57  C   UNL A   1      42.356  28.771  32.857  1.00  0.00     0.074 A 
ATOM     58  C   UNL A   1      42.915  27.694  32.066  1.00  0.00     0.031 C 
ATOM     59  C   UNL A   1      42.775  29.094  34.106  1.00  0.00     0.037 A 
BRANCH  46  60
ATOM     60  C   UNL A   1      39.745  33.853  36.620  1.00  0.00     0.064 A 
ATOM     61  C   UNL A   1      38.926  33.498  37.704  1.00  0.00     0.173 A 
ATOM     62  C   UNL A   1      40.452  35.062  36.704  1.00  0.00     0.173 A 
ATOM     63  F   UNL A   1      38.219  32.358  37.670  1.00  0.00    -0.203 F 
ATOM     64  C   UNL A   1      38.809  34.325  38.817  1.00  0.00     0.198 A 
ATOM     65  C   UNL A   1      40.355  35.873  37.832  1.00  0.00     0.198 A 
ATOM     66  F   UNL A   1      41.252  35.449  35.699  1.00  0.00    -0.203 F 
ATOM     67  F   UNL A   1      37.991  33.982  39.823  1.00  0.00    -0.200 F 
ATOM     68  C   UNL A   1      39.531  35.508  38.885  1.00  0.00     0.200 A 
ATOM     69  F   UNL A   1      41.065  37.008  37.902  1.00  0.00    -0.200 F 
ATOM     70  F   UNL A   1      39.429  36.295  39.964  1.00  0.00    -0.200 F 
ENDBRANCH  46  60
BRANCH  47  71
ATOM     71  C   UNL A   1      40.653  28.064  28.529  1.00  0.00     0.064 A 
ATOM     72  C   UNL A   1      40.037  26.808  28.430  1.00  0.00     0.173 A 
ATOM     73  C   UNL A   1      41.462  28.477  27.461  1.00  0.00     0.173 A 
ATOM     74  F   UNL A   1      39.268  26.357  29.433  1.00  0.00    -0.203 F 
ATOM     75  C   UNL A   1      40.253  25.983  27.327  1.00  0.00     0.198 A 
ATOM     76  C   UNL A   1      41.650  27.668  26.343  1.00  0.00     0.198 A 
ATOM     77  F   UNL A   1      42.069  29.673  27.501  1.00  0.00    -0.203 F 
ATOM     78  F   UNL A   1      39.705  24.761  27.290  1.00  0.00    -0.200 F 
ATOM     79  C   UNL A   1      41.056  26.416  26.282  1.00  0.00     0.200 A 
ATOM     80  F   UNL A   1      42.412  28.097  25.328  1.00  0.00    -0.200 F 
ATOM     81  F   UNL A   1      41.268  25.622  25.224  1.00  0.00    -0.200 F 
ENDBRANCH  47  71
BRANCH  59  82
ATOM     82  C   UNL A   1      43.871  28.253  34.697  1.00  0.00     0.064 A 
ATOM     83  C   UNL A   1      43.593  27.076  35.409  1.00  0.00     0.173 A 
ATOM     84  C   UNL A   1      45.214  28.627  34.546  1.00  0.00     0.173 A 
ATOM     85  F   UNL A   1      42.325  26.681  35.594  1.00  0.00    -0.203 F 
ATOM     86  C   UNL A   1      44.617  26.330  35.987  1.00  0.00     0.198 A 
ATOM     87  C   UNL A   1      46.239  27.858  35.094  1.00  0.00     0.198 A 
ATOM     88  F   UNL A   1      45.536  29.738  33.867  1.00  0.00    -0.203 F 
ATOM     89  F   UNL A   1      44.323  25.249  36.722  1.00  0.00    -0.200 F 
ATOM     90  C   UNL A   1      45.938  26.719  35.825  1.00  0.00     0.200 A 
ATOM     91  F   UNL A   1      47.516  28.227  34.923  1.00  0.00    -0.200 F 
ATOM     92  F   UNL A   1      46.923  26.002  36.384  1.00  0.00    -0.200 F 
ENDBRANCH  59  82
ENDBRANCH  33  34
ENDBRANCH  25  28
ENDBRANCH  23  24
ENDBRANCH  22  23
ENDBRANCH   1  22
TORSDOF 14
ENDMDL
