MODEL 1
REMARK VINA RESULT:     -13.1      0.000      0.000
REMARK SMILES COc1cccc(Cn2c(=O)c(=O)n(CC(=O)NCCCCNC(=O)c3ccc(-c4c5nc(c(-c6c(F)c(F)c(F)c(F)c6F)c6ccc([nH]6)c(-c6c(F)c(F)c(F)c(F)c6F)c6nc(c(-c7c(F)c(F)c(F)c(F)c7F)c7ccc4[nH]7)C=C6)C=C5)cc3)c3ccccc32)c1
REMARK SMILES IDX 19 1 18 2 16 3 17 4 15 6 14 7 9 8 10 9 94 10 11 11 12 12
REMARK SMILES IDX 89 13 93 14 13 15 90 16 92 17 91 18 8 19 7 20 3 21 4 22
REMARK SMILES IDX 95 23 5 24 6 25 2 26 1 27 20 28 21 29 22 30 23 31 24 32
REMARK SMILES IDX 25 34 26 35 27 36 88 37 28 38 87 39 29 40 30 41 31 42 81 43
REMARK SMILES IDX 32 44 86 45 80 46 82 47 33 48 85 49 79 50 78 51 34 53 66 54
REMARK SMILES IDX 46 55 65 56 47 57 50 58 64 59 83 60 48 61 49 62 63 64 84 65
REMARK SMILES IDX 51 66 35 67 36 68 44 69 37 70 38 71 42 72 45 73 39 74 40 75
REMARK SMILES IDX 43 76 41 77 67 78 68 79 76 80 69 81 70 82 74 83 77 84 71 85
REMARK SMILES IDX 72 86 75 87 73 88 52 89 53 90 61 91 54 92 55 93 59 94 62 95
REMARK SMILES IDX 56 96 57 97 60 98 58 99
REMARK H PARENT 18 5 23 33 82 52 50 63
REMARK Flexibility Score: inf
ROOT
ATOM      1  C   UNL A   1      33.603  29.686  26.550  1.00  0.00     0.116 C 
ENDROOT
BRANCH   1   2
ATOM      2  N   UNL A   1      33.579  29.681  25.103  1.00  0.00    -0.355 N 
ATOM      3  C   UNL A   1      32.982  28.834  24.225  1.00  0.00     0.240 C 
ATOM      4  O   UNL A   1      33.127  29.108  23.026  1.00  0.00    -0.273 OA
ATOM      5  H   UNL A   1      34.080  30.417  24.683  1.00  0.00     0.163 HD
BRANCH   3   6
ATOM      6  C   UNL A   1      31.999  27.724  24.620  1.00  0.00     0.226 C 
BRANCH   6   7
ATOM      7  N   UNL A   1      32.363  26.341  24.896  1.00  0.00    -0.293 N 
ATOM      8  N   UNL A   1      32.924  23.681  25.606  1.00  0.00    -0.298 N 
ATOM      9  C   UNL A   1      32.045  24.415  26.378  1.00  0.00     0.317 A 
ATOM     10  C   UNL A   1      32.980  24.045  24.235  1.00  0.00     0.068 A 
ATOM     11  O   UNL A   1      31.223  23.949  27.168  1.00  0.00    -0.263 OA
ATOM     12  C   UNL A   1      32.208  25.917  26.209  1.00  0.00     0.317 A 
ATOM     13  C   UNL A   1      32.637  25.379  23.869  1.00  0.00     0.069 A 
ATOM     14  C   UNL A   1      33.207  23.084  23.242  1.00  0.00     0.028 A 
ATOM     15  O   UNL A   1      32.150  26.657  27.191  1.00  0.00    -0.263 OA
ATOM     16  C   UNL A   1      32.588  25.719  22.513  1.00  0.00     0.028 A 
ATOM     17  C   UNL A   1      33.079  23.431  21.895  1.00  0.00     0.002 A 
ATOM     18  C   UNL A   1      32.785  24.744  21.533  1.00  0.00     0.002 A 
BRANCH   8  19
ATOM     19  C   UNL A   1      33.627  22.559  26.230  1.00  0.00     0.162 C 
BRANCH  19  20
ATOM     20  C   UNL A   1      35.059  22.514  25.677  1.00  0.00    -0.024 A 
ATOM     21  C   UNL A   1      36.879  21.045  25.016  1.00  0.00     0.119 A 
ATOM     22  C   UNL A   1      37.810  22.017  25.357  1.00  0.00     0.046 A 
ATOM     23  C   UNL A   1      35.519  21.327  25.077  1.00  0.00     0.052 A 
ATOM     24  C   UNL A   1      37.367  23.269  25.789  1.00  0.00     0.004 A 
ATOM     25  C   UNL A   1      35.999  23.507  25.988  1.00  0.00     0.006 A 
BRANCH  21  26
ATOM     26  O   UNL A   1      37.240  19.728  24.943  1.00  0.00    -0.497 OA
ATOM     27  C   UNL A   1      38.601  19.486  25.256  1.00  0.00     0.278 C 
ENDBRANCH  21  26
ENDBRANCH  19  20
ENDBRANCH   8  19
ENDBRANCH   6   7
ENDBRANCH   3   6
ENDBRANCH   1   2
BRANCH   1  28
ATOM     28  C   UNL A   1      32.288  30.205  27.129  1.00  0.00     0.023 C 
BRANCH  28  29
ATOM     29  C   UNL A   1      32.011  31.692  26.882  1.00  0.00     0.023 C 
BRANCH  29  30
ATOM     30  C   UNL A   1      33.028  32.635  27.508  1.00  0.00     0.116 C 
BRANCH  30  31
ATOM     31  N   UNL A   1      32.540  33.998  27.673  1.00  0.00    -0.352 N 
ATOM     32  C   UNL A   1      33.003  34.936  28.568  1.00  0.00     0.251 C 
ATOM     33  H   UNL A   1      31.802  34.276  27.084  1.00  0.00     0.163 HD
ATOM     34  O   UNL A   1      32.449  36.019  28.707  1.00  0.00    -0.269 OA
BRANCH  32  35
ATOM     35  C   UNL A   1      34.167  34.570  29.400  1.00  0.00     0.039 A 
ATOM     36  C   UNL A   1      33.961  34.094  30.696  1.00  0.00     0.014 A 
ATOM     37  C   UNL A   1      35.444  34.584  28.837  1.00  0.00     0.014 A 
ATOM     38  C   UNL A   1      35.035  33.549  31.402  1.00  0.00     0.010 A 
ATOM     39  C   UNL A   1      36.493  33.969  29.509  1.00  0.00     0.010 A 
ATOM     40  C   UNL A   1      36.299  33.442  30.796  1.00  0.00    -0.014 A 
BRANCH  40  41
ATOM     41  C   UNL A   1      37.441  32.794  31.486  1.00  0.00     0.031 A 
ATOM     42  C   UNL A   1      38.136  31.630  30.837  1.00  0.00     0.074 A 
ATOM     43  C   UNL A   1      37.791  33.185  32.728  1.00  0.00     0.049 A 
ATOM     44  N   UNL A   1      39.076  30.853  31.313  1.00  0.00    -0.248 NA
ATOM     45  C   UNL A   1      37.686  31.269  29.485  1.00  0.00     0.031 C 
ATOM     46  C   UNL A   1      37.155  34.261  33.489  1.00  0.00     0.029 A 
ATOM     47  N   UNL A   1      38.761  32.708  33.574  1.00  0.00    -0.354 N 
ATOM     48  C   UNL A   1      39.305  29.898  30.332  1.00  0.00     0.074 A 
ATOM     49  C   UNL A   1      38.370  30.158  29.259  1.00  0.00     0.031 C 
ATOM     50  C   UNL A   1      37.767  34.379  34.678  1.00  0.00     0.029 A 
ATOM     51  C   UNL A   1      38.814  33.365  34.779  1.00  0.00     0.049 A 
ATOM     52  H   UNL A   1      39.362  31.965  33.340  1.00  0.00     0.167 HD
ATOM     53  C   UNL A   1      40.230  28.910  30.314  1.00  0.00     0.037 A 
ATOM     54  C   UNL A   1      39.617  33.171  35.843  1.00  0.00     0.037 A 
ATOM     55  C   UNL A   1      41.187  28.682  31.363  1.00  0.00     0.049 A 
ATOM     56  C   UNL A   1      40.656  32.084  35.788  1.00  0.00     0.074 A 
ATOM     57  C   UNL A   1      42.211  27.754  31.412  1.00  0.00     0.029 A 
ATOM     58  N   UNL A   1      41.238  29.398  32.550  1.00  0.00    -0.354 N 
ATOM     59  N   UNL A   1      40.910  31.230  34.827  1.00  0.00    -0.248 NA
ATOM     60  C   UNL A   1      41.524  31.938  36.965  1.00  0.00     0.031 C 
ATOM     61  C   UNL A   1      42.863  27.887  32.643  1.00  0.00     0.029 A 
ATOM     62  C   UNL A   1      42.270  28.925  33.343  1.00  0.00     0.049 A 
ATOM     63  H   UNL A   1      40.630  30.134  32.792  1.00  0.00     0.167 HD
ATOM     64  C   UNL A   1      41.984  30.467  35.267  1.00  0.00     0.074 A 
ATOM     65  C   UNL A   1      42.339  30.965  36.580  1.00  0.00     0.031 C 
ATOM     66  C   UNL A   1      42.618  29.447  34.640  1.00  0.00     0.037 A 
BRANCH  53  67
ATOM     67  C   UNL A   1      40.252  28.011  29.112  1.00  0.00     0.064 A 
ATOM     68  C   UNL A   1      40.984  28.343  27.961  1.00  0.00     0.173 A 
ATOM     69  C   UNL A   1      39.541  26.803  29.112  1.00  0.00     0.173 A 
ATOM     70  F   UNL A   1      41.669  29.495  27.906  1.00  0.00    -0.203 F 
ATOM     71  C   UNL A   1      40.971  27.517  26.840  1.00  0.00     0.198 A 
ATOM     72  C   UNL A   1      39.555  25.964  28.000  1.00  0.00     0.198 A 
ATOM     73  F   UNL A   1      38.829  26.436  30.188  1.00  0.00    -0.203 F 
ATOM     74  F   UNL A   1      41.627  27.886  25.732  1.00  0.00    -0.200 F 
ATOM     75  C   UNL A   1      40.261  26.327  26.863  1.00  0.00     0.200 A 
ATOM     76  F   UNL A   1      38.877  24.808  28.027  1.00  0.00    -0.200 F 
ATOM     77  F   UNL A   1      40.247  25.533  25.783  1.00  0.00    -0.200 F 
ENDBRANCH  53  67
BRANCH  54  78
ATOM     78  C   UNL A   1      39.500  34.053  37.032  1.00  0.00     0.064 A 
ATOM     79  C   UNL A   1      38.740  33.658  38.142  1.00  0.00     0.173 A 
ATOM     80  C   UNL A   1      40.142  35.298  37.090  1.00  0.00     0.173 A 
ATOM     81  F   UNL A   1      38.090  32.484  38.124  1.00  0.00    -0.203 F 
ATOM     82  C   UNL A   1      38.611  34.483  39.257  1.00  0.00     0.198 A 
ATOM     83  C   UNL A   1      40.033  36.111  38.216  1.00  0.00     0.198 A 
ATOM     84  F   UNL A   1      40.887  35.718  36.057  1.00  0.00    -0.203 F 
ATOM     85  F   UNL A   1      37.846  34.098  40.288  1.00  0.00    -0.200 F 
ATOM     86  C   UNL A   1      39.262  35.707  39.296  1.00  0.00     0.200 A 
ATOM     87  F   UNL A   1      40.673  37.287  38.256  1.00  0.00    -0.200 F 
ATOM     88  F   UNL A   1      39.143  36.497  40.371  1.00  0.00    -0.200 F 
ENDBRANCH  54  78
BRANCH  66  89
ATOM     89  C   UNL A   1      43.787  28.826  35.343  1.00  0.00     0.064 A 
ATOM     90  C   UNL A   1      45.092  29.310  35.170  1.00  0.00     0.173 A 
ATOM     91  C   UNL A   1      43.590  27.767  36.242  1.00  0.00     0.173 A 
ATOM     92  F   UNL A   1      45.331  30.311  34.308  1.00  0.00    -0.203 F 
ATOM     93  C   UNL A   1      46.160  28.744  35.858  1.00  0.00     0.198 A 
ATOM     94  C   UNL A   1      44.658  27.221  36.950  1.00  0.00     0.198 A 
ATOM     95  F   UNL A   1      42.360  27.273  36.446  1.00  0.00    -0.203 F 
ATOM     96  F   UNL A   1      47.404  29.196  35.651  1.00  0.00    -0.200 F 
ATOM     97  C   UNL A   1      45.941  27.706  36.754  1.00  0.00     0.200 A 
ATOM     98  F   UNL A   1      44.443  26.227  37.822  1.00  0.00    -0.200 F 
ATOM     99  F   UNL A   1      46.971  27.171  37.424  1.00  0.00    -0.200 F 
ENDBRANCH  66  89
ENDBRANCH  40  41
ENDBRANCH  32  35
ENDBRANCH  30  31
ENDBRANCH  29  30
ENDBRANCH  28  29
ENDBRANCH   1  28
TORSDOF 15
ENDMDL
MODEL 2
REMARK VINA RESULT:     -13.0      5.350     10.025
REMARK SMILES COc1cccc(Cn2c(=O)c(=O)n(CC(=O)NCCCCNC(=O)c3ccc(-c4c5nc(c(-c6c(F)c(F)c(F)c(F)c6F)c6ccc([nH]6)c(-c6c(F)c(F)c(F)c(F)c6F)c6nc(c(-c7c(F)c(F)c(F)c(F)c7F)c7ccc4[nH]7)C=C6)C=C5)cc3)c3ccccc32)c1
REMARK SMILES IDX 19 1 18 2 16 3 17 4 15 6 14 7 9 8 10 9 94 10 11 11 12 12
REMARK SMILES IDX 89 13 93 14 13 15 90 16 92 17 91 18 8 19 7 20 3 21 4 22
REMARK SMILES IDX 95 23 5 24 6 25 2 26 1 27 20 28 21 29 22 30 23 31 24 32
REMARK SMILES IDX 25 34 26 35 27 36 88 37 28 38 87 39 29 40 30 41 31 42 81 43
REMARK SMILES IDX 32 44 86 45 80 46 82 47 33 48 85 49 79 50 78 51 34 53 66 54
REMARK SMILES IDX 46 55 65 56 47 57 50 58 64 59 83 60 48 61 49 62 63 64 84 65
REMARK SMILES IDX 51 66 35 67 36 68 44 69 37 70 38 71 42 72 45 73 39 74 40 75
REMARK SMILES IDX 43 76 41 77 67 78 68 79 76 80 69 81 70 82 74 83 77 84 71 85
REMARK SMILES IDX 72 86 75 87 73 88 52 89 53 90 61 91 54 92 55 93 59 94 62 95
REMARK SMILES IDX 56 96 57 97 60 98 58 99
REMARK H PARENT 18 5 23 33 82 52 50 63
REMARK Flexibility Score: inf
ROOT
ATOM      1  C   UNL A   1      35.668  20.919  25.213  1.00  0.00     0.116 C 
ENDROOT
BRANCH   1   2
ATOM      2  N   UNL A   1      35.262  21.447  26.498  1.00  0.00    -0.355 N 
ATOM      3  C   UNL A   1      34.063  21.916  26.928  1.00  0.00     0.240 C 
ATOM      4  O   UNL A   1      34.019  22.286  28.109  1.00  0.00    -0.273 OA
ATOM      5  H   UNL A   1      35.976  21.470  27.175  1.00  0.00     0.163 HD
BRANCH   3   6
ATOM      6  C   UNL A   1      32.754  21.817  26.133  1.00  0.00     0.226 C 
BRANCH   6   7
ATOM      7  N   UNL A   1      32.032  22.946  25.563  1.00  0.00    -0.293 N 
ATOM      8  N   UNL A   1      30.631  25.214  24.672  1.00  0.00    -0.298 N 
ATOM      9  C   UNL A   1      30.938  25.093  26.013  1.00  0.00     0.317 A 
ATOM     10  C   UNL A   1      31.537  24.581  23.781  1.00  0.00     0.068 A 
ATOM     11  O   UNL A   1      30.953  26.014  26.831  1.00  0.00    -0.263 OA
ATOM     12  C   UNL A   1      31.225  23.662  26.437  1.00  0.00     0.317 A 
ATOM     13  C   UNL A   1      32.291  23.467  24.253  1.00  0.00     0.069 A 
ATOM     14  C   UNL A   1      31.811  25.126  22.521  1.00  0.00     0.028 A 
ATOM     15  O   UNL A   1      30.788  23.238  27.508  1.00  0.00    -0.263 OA
ATOM     16  C   UNL A   1      33.262  22.902  23.418  1.00  0.00     0.028 A 
ATOM     17  C   UNL A   1      32.835  24.590  21.737  1.00  0.00     0.002 A 
ATOM     18  C   UNL A   1      33.546  23.476  22.177  1.00  0.00     0.002 A 
BRANCH   8  19
ATOM     19  C   UNL A   1      29.487  26.043  24.293  1.00  0.00     0.162 C 
BRANCH  19  20
ATOM     20  C   UNL A   1      29.995  27.455  23.967  1.00  0.00    -0.024 A 
ATOM     21  C   UNL A   1      29.819  29.310  22.406  1.00  0.00     0.119 A 
ATOM     22  C   UNL A   1      31.132  29.676  22.667  1.00  0.00     0.046 A 
ATOM     23  C   UNL A   1      29.226  28.277  23.123  1.00  0.00     0.052 A 
ATOM     24  C   UNL A   1      31.860  28.978  23.634  1.00  0.00     0.004 A 
ATOM     25  C   UNL A   1      31.310  27.847  24.254  1.00  0.00     0.006 A 
BRANCH  21  26
ATOM     26  O   UNL A   1      29.200  29.703  21.251  1.00  0.00    -0.497 OA
ATOM     27  C   UNL A   1      28.028  30.472  21.459  1.00  0.00     0.278 C 
ENDBRANCH  21  26
ENDBRANCH  19  20
ENDBRANCH   8  19
ENDBRANCH   6   7
ENDBRANCH   3   6
ENDBRANCH   1   2
BRANCH   1  28
ATOM     28  C   UNL A   1      37.127  21.253  24.908  1.00  0.00     0.023 C 
BRANCH  28  29
ATOM     29  C   UNL A   1      38.097  20.069  25.001  1.00  0.00     0.023 C 
BRANCH  29  30
ATOM     30  C   UNL A   1      39.351  20.345  25.817  1.00  0.00     0.116 C 
BRANCH  30  31
ATOM     31  N   UNL A   1      40.249  19.202  25.916  1.00  0.00    -0.352 N 
ATOM     32  C   UNL A   1      41.609  19.238  26.130  1.00  0.00     0.251 C 
ATOM     33  H   UNL A   1      39.841  18.312  25.821  1.00  0.00     0.163 HD
ATOM     34  O   UNL A   1      42.293  18.224  26.085  1.00  0.00    -0.269 OA
BRANCH  32  35
ATOM     35  C   UNL A   1      42.229  20.559  26.365  1.00  0.00     0.039 A 
ATOM     36  C   UNL A   1      42.566  21.361  25.274  1.00  0.00     0.014 A 
ATOM     37  C   UNL A   1      42.349  21.037  27.670  1.00  0.00     0.014 A 
ATOM     38  C   UNL A   1      42.949  22.686  25.493  1.00  0.00     0.010 A 
ATOM     39  C   UNL A   1      42.653  22.376  27.880  1.00  0.00     0.010 A 
ATOM     40  C   UNL A   1      42.952  23.215  26.795  1.00  0.00    -0.014 A 
BRANCH  40  41
ATOM     41  C   UNL A   1      43.274  24.640  27.055  1.00  0.00     0.031 A 
ATOM     42  C   UNL A   1      44.665  25.146  26.796  1.00  0.00     0.074 A 
ATOM     43  C   UNL A   1      42.350  25.450  27.610  1.00  0.00     0.049 A 
ATOM     44  N   UNL A   1      45.185  26.318  27.060  1.00  0.00    -0.248 NA
ATOM     45  C   UNL A   1      45.609  24.192  26.195  1.00  0.00     0.031 C 
ATOM     46  C   UNL A   1      40.984  25.062  27.964  1.00  0.00     0.029 A 
ATOM     47  N   UNL A   1      42.429  26.767  27.987  1.00  0.00    -0.354 N 
ATOM     48  C   UNL A   1      46.518  26.229  26.684  1.00  0.00     0.074 A 
ATOM     49  C   UNL A   1      46.742  24.875  26.227  1.00  0.00     0.031 C 
ATOM     50  C   UNL A   1      40.347  26.123  28.484  1.00  0.00     0.029 A 
ATOM     51  C   UNL A   1      41.267  27.256  28.532  1.00  0.00     0.049 A 
ATOM     52  H   UNL A   1      43.243  27.311  27.878  1.00  0.00     0.167 HD
ATOM     53  C   UNL A   1      47.464  27.197  26.693  1.00  0.00     0.037 A 
ATOM     54  C   UNL A   1      40.979  28.480  29.015  1.00  0.00     0.037 A 
ATOM     55  C   UNL A   1      47.227  28.554  27.107  1.00  0.00     0.049 A 
ATOM     56  C   UNL A   1      42.040  29.547  28.989  1.00  0.00     0.074 A 
ATOM     57  C   UNL A   1      48.098  29.628  27.088  1.00  0.00     0.029 A 
ATOM     58  N   UNL A   1      46.023  29.023  27.611  1.00  0.00    -0.354 N 
ATOM     59  N   UNL A   1      43.278  29.472  28.567  1.00  0.00    -0.248 NA
ATOM     60  C   UNL A   1      41.660  30.871  29.500  1.00  0.00     0.031 C 
ATOM     61  C   UNL A   1      47.430  30.741  27.611  1.00  0.00     0.029 A 
ATOM     62  C   UNL A   1      46.131  30.369  27.918  1.00  0.00     0.049 A 
ATOM     63  H   UNL A   1      45.211  28.478  27.733  1.00  0.00     0.167 HD
ATOM     64  C   UNL A   1      43.816  30.742  28.733  1.00  0.00     0.074 A 
ATOM     65  C   UNL A   1      42.766  31.571  29.286  1.00  0.00     0.031 C 
ATOM     66  C   UNL A   1      45.067  31.180  28.451  1.00  0.00     0.037 A 
BRANCH  53  67
ATOM     67  C   UNL A   1      48.840  26.817  26.229  1.00  0.00     0.064 A 
ATOM     68  C   UNL A   1      49.235  26.981  24.893  1.00  0.00     0.173 A 
ATOM     69  C   UNL A   1      49.776  26.289  27.130  1.00  0.00     0.173 A 
ATOM     70  F   UNL A   1      48.372  27.469  23.989  1.00  0.00    -0.203 F 
ATOM     71  C   UNL A   1      50.504  26.595  24.467  1.00  0.00     0.198 A 
ATOM     72  C   UNL A   1      51.055  25.933  26.708  1.00  0.00     0.198 A 
ATOM     73  F   UNL A   1      49.452  26.116  28.419  1.00  0.00    -0.203 F 
ATOM     74  F   UNL A   1      50.836  26.704  23.173  1.00  0.00    -0.200 F 
ATOM     75  C   UNL A   1      51.413  26.076  25.375  1.00  0.00     0.200 A 
ATOM     76  F   UNL A   1      51.937  25.441  27.588  1.00  0.00    -0.200 F 
ATOM     77  F   UNL A   1      52.633  25.702  24.964  1.00  0.00    -0.200 F 
ENDBRANCH  53  67
BRANCH  54  78
ATOM     78  C   UNL A   1      39.615  28.775  29.524  1.00  0.00     0.064 A 
ATOM     79  C   UNL A   1      39.290  28.549  30.868  1.00  0.00     0.173 A 
ATOM     80  C   UNL A   1      38.614  29.289  28.688  1.00  0.00     0.173 A 
ATOM     81  F   UNL A   1      40.209  28.039  31.702  1.00  0.00    -0.203 F 
ATOM     82  C   UNL A   1      38.010  28.809  31.354  1.00  0.00     0.198 A 
ATOM     83  C   UNL A   1      37.342  29.571  29.180  1.00  0.00     0.198 A 
ATOM     84  F   UNL A   1      38.876  29.529  27.395  1.00  0.00    -0.203 F 
ATOM     85  F   UNL A   1      37.716  28.546  32.636  1.00  0.00    -0.200 F 
ATOM     86  C   UNL A   1      37.038  29.325  30.511  1.00  0.00     0.200 A 
ATOM     87  F   UNL A   1      36.407  30.081  28.366  1.00  0.00    -0.200 F 
ATOM     88  F   UNL A   1      35.809  29.580  30.979  1.00  0.00    -0.200 F 
ENDBRANCH  54  78
BRANCH  66  89
ATOM     89  C   UNL A   1      45.360  32.630  28.696  1.00  0.00     0.064 A 
ATOM     90  C   UNL A   1      45.934  33.072  29.897  1.00  0.00     0.173 A 
ATOM     91  C   UNL A   1      45.112  33.580  27.694  1.00  0.00     0.173 A 
ATOM     92  F   UNL A   1      46.175  32.202  30.890  1.00  0.00    -0.203 F 
ATOM     93  C   UNL A   1      46.232  34.417  30.093  1.00  0.00     0.198 A 
ATOM     94  C   UNL A   1      45.437  34.921  27.883  1.00  0.00     0.198 A 
ATOM     95  F   UNL A   1      44.569  33.206  26.526  1.00  0.00    -0.203 F 
ATOM     96  F   UNL A   1      46.746  34.825  31.261  1.00  0.00    -0.200 F 
ATOM     97  C   UNL A   1      45.992  35.338  29.083  1.00  0.00     0.200 A 
ATOM     98  F   UNL A   1      45.213  35.807  26.904  1.00  0.00    -0.200 F 
ATOM     99  F   UNL A   1      46.290  36.631  29.270  1.00  0.00    -0.200 F 
ENDBRANCH  66  89
ENDBRANCH  40  41
ENDBRANCH  32  35
ENDBRANCH  30  31
ENDBRANCH  29  30
ENDBRANCH  28  29
ENDBRANCH   1  28
TORSDOF 15
ENDMDL
MODEL 3
REMARK VINA RESULT:     -13.0      1.154      7.126
REMARK SMILES COc1cccc(Cn2c(=O)c(=O)n(CC(=O)NCCCCNC(=O)c3ccc(-c4c5nc(c(-c6c(F)c(F)c(F)c(F)c6F)c6ccc([nH]6)c(-c6c(F)c(F)c(F)c(F)c6F)c6nc(c(-c7c(F)c(F)c(F)c(F)c7F)c7ccc4[nH]7)C=C6)C=C5)cc3)c3ccccc32)c1
REMARK SMILES IDX 19 1 18 2 16 3 17 4 15 6 14 7 9 8 10 9 94 10 11 11 12 12
REMARK SMILES IDX 89 13 93 14 13 15 90 16 92 17 91 18 8 19 7 20 3 21 4 22
REMARK SMILES IDX 95 23 5 24 6 25 2 26 1 27 20 28 21 29 22 30 23 31 24 32
REMARK SMILES IDX 25 34 26 35 27 36 88 37 28 38 87 39 29 40 30 41 31 42 81 43
REMARK SMILES IDX 32 44 86 45 80 46 82 47 33 48 85 49 79 50 78 51 34 53 66 54
REMARK SMILES IDX 46 55 65 56 47 57 50 58 64 59 83 60 48 61 49 62 63 64 84 65
REMARK SMILES IDX 51 66 35 67 36 68 44 69 37 70 38 71 42 72 45 73 39 74 40 75
REMARK SMILES IDX 43 76 41 77 67 78 68 79 76 80 69 81 70 82 74 83 77 84 71 85
REMARK SMILES IDX 72 86 75 87 73 88 52 89 53 90 61 91 54 92 55 93 59 94 62 95
REMARK SMILES IDX 56 96 57 97 60 98 58 99
REMARK H PARENT 18 5 23 33 82 52 50 63
REMARK Flexibility Score: inf
ROOT
ATOM      1  C   UNL A   1      32.353  29.752  25.666  1.00  0.00     0.116 C 
ENDROOT
BRANCH   1   2
ATOM      2  N   UNL A   1      31.452  30.005  24.563  1.00  0.00    -0.355 N 
ATOM      3  C   UNL A   1      30.574  29.188  23.926  1.00  0.00     0.240 C 
ATOM      4  O   UNL A   1      29.914  29.707  23.016  1.00  0.00    -0.273 OA
ATOM      5  H   UNL A   1      31.479  30.925  24.215  1.00  0.00     0.163 HD
BRANCH   3   6
ATOM      6  C   UNL A   1      30.210  27.770  24.391  1.00  0.00     0.226 C 
BRANCH   6   7
ATOM      7  N   UNL A   1      31.167  26.714  24.685  1.00  0.00    -0.293 N 
ATOM      8  N   UNL A   1      32.883  24.616  25.430  1.00  0.00    -0.298 N 
ATOM      9  C   UNL A   1      31.750  24.860  26.180  1.00  0.00     0.317 A 
ATOM     10  C   UNL A   1      32.790  24.964  24.057  1.00  0.00     0.068 A 
ATOM     11  O   UNL A   1      31.221  24.067  26.961  1.00  0.00    -0.263 OA
ATOM     12  C   UNL A   1      31.201  26.267  25.999  1.00  0.00     0.317 A 
ATOM     13  C   UNL A   1      31.876  25.987  23.673  1.00  0.00     0.069 A 
ATOM     14  C   UNL A   1      33.456  24.217  23.077  1.00  0.00     0.028 A 
ATOM     15  O   UNL A   1      30.788  26.896  26.974  1.00  0.00    -0.263 OA
ATOM     16  C   UNL A   1      31.701  26.265  22.313  1.00  0.00     0.028 A 
ATOM     17  C   UNL A   1      33.208  24.464  21.724  1.00  0.00     0.002 A 
ATOM     18  C   UNL A   1      32.346  25.492  21.345  1.00  0.00     0.002 A 
BRANCH   8  19
ATOM     19  C   UNL A   1      34.014  23.948  26.077  1.00  0.00     0.162 C 
BRANCH  19  20
ATOM     20  C   UNL A   1      34.227  22.587  25.398  1.00  0.00    -0.024 A 
ATOM     21  C   UNL A   1      33.331  20.342  25.142  1.00  0.00     0.119 A 
ATOM     22  C   UNL A   1      34.608  19.839  24.933  1.00  0.00     0.046 A 
ATOM     23  C   UNL A   1      33.133  21.712  25.269  1.00  0.00     0.052 A 
ATOM     24  C   UNL A   1      35.693  20.718  24.882  1.00  0.00     0.004 A 
ATOM     25  C   UNL A   1      35.512  22.082  25.153  1.00  0.00     0.006 A 
BRANCH  21  26
ATOM     26  O   UNL A   1      32.317  19.523  25.555  1.00  0.00    -0.497 OA
ATOM     27  C   UNL A   1      32.692  18.163  25.686  1.00  0.00     0.278 C 
ENDBRANCH  21  26
ENDBRANCH  19  20
ENDBRANCH   8  19
ENDBRANCH   6   7
ENDBRANCH   3   6
ENDBRANCH   1   2
BRANCH   1  28
ATOM     28  C   UNL A   1      31.904  30.478  26.933  1.00  0.00     0.023 C 
BRANCH  28  29
ATOM     29  C   UNL A   1      31.724  31.993  26.784  1.00  0.00     0.023 C 
BRANCH  29  30
ATOM     30  C   UNL A   1      32.843  32.823  27.396  1.00  0.00     0.116 C 
BRANCH  30  31
ATOM     31  N   UNL A   1      32.466  34.203  27.671  1.00  0.00    -0.352 N 
ATOM     32  C   UNL A   1      33.016  35.034  28.621  1.00  0.00     0.251 C 
ATOM     33  H   UNL A   1      31.744  34.581  27.120  1.00  0.00     0.163 HD
ATOM     34  O   UNL A   1      32.551  36.143  28.851  1.00  0.00    -0.269 OA
BRANCH  32  35
ATOM     35  C   UNL A   1      34.161  34.519  29.400  1.00  0.00     0.039 A 
ATOM     36  C   UNL A   1      33.926  33.843  30.598  1.00  0.00     0.014 A 
ATOM     37  C   UNL A   1      35.447  34.601  28.864  1.00  0.00     0.014 A 
ATOM     38  C   UNL A   1      34.980  33.173  31.222  1.00  0.00     0.010 A 
ATOM     39  C   UNL A   1      36.475  33.868  29.443  1.00  0.00     0.010 A 
ATOM     40  C   UNL A   1      36.252  33.144  30.625  1.00  0.00    -0.014 A 
BRANCH  40  41
ATOM     41  C   UNL A   1      37.373  32.372  31.217  1.00  0.00     0.031 A 
ATOM     42  C   UNL A   1      37.872  32.725  32.590  1.00  0.00     0.074 A 
ATOM     43  C   UNL A   1      37.999  31.426  30.490  1.00  0.00     0.049 A 
ATOM     44  N   UNL A   1      38.906  32.257  33.243  1.00  0.00    -0.248 NA
ATOM     45  C   UNL A   1      37.132  33.773  33.308  1.00  0.00     0.031 C 
ATOM     46  C   UNL A   1      37.648  31.033  29.125  1.00  0.00     0.029 A 
ATOM     47  N   UNL A   1      39.076  30.632  30.797  1.00  0.00    -0.354 N 
ATOM     48  C   UNL A   1      38.953  32.973  34.431  1.00  0.00     0.074 A 
ATOM     49  C   UNL A   1      37.882  33.944  34.386  1.00  0.00     0.031 C 
ATOM     50  C   UNL A   1      38.477  30.058  28.721  1.00  0.00     0.029 A 
ATOM     51  C   UNL A   1      39.439  29.779  29.784  1.00  0.00     0.049 A 
ATOM     52  H   UNL A   1      39.545  30.671  31.662  1.00  0.00     0.167 HD
ATOM     53  C   UNL A   1      39.797  32.818  35.478  1.00  0.00     0.037 A 
ATOM     54  C   UNL A   1      40.436  28.875  29.721  1.00  0.00     0.037 A 
ATOM     55  C   UNL A   1      40.833  31.823  35.538  1.00  0.00     0.049 A 
ATOM     56  C   UNL A   1      41.344  28.702  30.908  1.00  0.00     0.074 A 
ATOM     57  C   UNL A   1      41.696  31.535  36.580  1.00  0.00     0.029 A 
ATOM     58  N   UNL A   1      41.142  30.946  34.508  1.00  0.00    -0.354 N 
ATOM     59  N   UNL A   1      41.337  29.337  32.055  1.00  0.00    -0.248 NA
ATOM     60  C   UNL A   1      42.394  27.680  30.795  1.00  0.00     0.031 C 
ATOM     61  C   UNL A   1      42.549  30.505  36.169  1.00  0.00     0.029 A 
ATOM     62  C   UNL A   1      42.190  30.123  34.886  1.00  0.00     0.049 A 
ATOM     63  H   UNL A   1      40.683  30.914  33.637  1.00  0.00     0.167 HD
ATOM     64  C   UNL A   1      42.358  28.774  32.809  1.00  0.00     0.074 A 
ATOM     65  C   UNL A   1      42.959  27.739  31.994  1.00  0.00     0.031 C 
ATOM     66  C   UNL A   1      42.761  29.087  34.065  1.00  0.00     0.037 A 
BRANCH  53  67
ATOM     67  C   UNL A   1      39.620  33.744  36.646  1.00  0.00     0.064 A 
ATOM     68  C   UNL A   1      40.242  35.002  36.685  1.00  0.00     0.173 A 
ATOM     69  C   UNL A   1      38.817  33.375  37.734  1.00  0.00     0.173 A 
ATOM     70  F   UNL A   1      41.032  35.396  35.675  1.00  0.00    -0.203 F 
ATOM     71  C   UNL A   1      40.097  35.839  37.788  1.00  0.00     0.198 A 
ATOM     72  C   UNL A   1      38.649  34.228  38.822  1.00  0.00     0.198 A 
ATOM     73  F   UNL A   1      38.197  32.186  37.746  1.00  0.00    -0.203 F 
ATOM     74  F   UNL A   1      40.751  37.008  37.829  1.00  0.00    -0.200 F 
ATOM     75  C   UNL A   1      39.298  35.454  38.853  1.00  0.00     0.200 A 
ATOM     76  F   UNL A   1      37.867  33.860  39.847  1.00  0.00    -0.200 F 
ATOM     77  F   UNL A   1      39.161  36.260  39.915  1.00  0.00    -0.200 F 
ENDBRANCH  53  67
BRANCH  54  78
ATOM     78  C   UNL A   1      40.601  28.034  28.508  1.00  0.00     0.064 A 
ATOM     79  C   UNL A   1      39.981  26.779  28.420  1.00  0.00     0.173 A 
ATOM     80  C   UNL A   1      41.370  28.460  27.417  1.00  0.00     0.173 A 
ATOM     81  F   UNL A   1      39.252  26.319  29.448  1.00  0.00    -0.203 F 
ATOM     82  C   UNL A   1      40.139  25.975  27.293  1.00  0.00     0.198 A 
ATOM     83  C   UNL A   1      41.507  27.666  26.280  1.00  0.00     0.198 A 
ATOM     84  F   UNL A   1      41.977  29.655  27.449  1.00  0.00    -0.203 F 
ATOM     85  F   UNL A   1      39.567  24.763  27.252  1.00  0.00    -0.200 F 
ATOM     86  C   UNL A   1      40.898  26.421  26.222  1.00  0.00     0.200 A 
ATOM     87  F   UNL A   1      42.231  28.105  25.241  1.00  0.00    -0.200 F 
ATOM     88  F   UNL A   1      41.045  25.650  25.136  1.00  0.00    -0.200 F 
ENDBRANCH  54  78
BRANCH  66  89
ATOM     89  C   UNL A   1      43.876  28.275  34.653  1.00  0.00     0.064 A 
ATOM     90  C   UNL A   1      45.210  28.706  34.594  1.00  0.00     0.173 A 
ATOM     91  C   UNL A   1      43.599  27.078  35.330  1.00  0.00     0.173 A 
ATOM     92  F   UNL A   1      45.525  29.837  33.944  1.00  0.00    -0.203 F 
ATOM     93  C   UNL A   1      46.227  27.957  35.177  1.00  0.00     0.198 A 
ATOM     94  C   UNL A   1      44.616  26.346  35.935  1.00  0.00     0.198 A 
ATOM     95  F   UNL A   1      42.338  26.628  35.418  1.00  0.00    -0.203 F 
ATOM     96  F   UNL A   1      47.499  28.367  35.078  1.00  0.00    -0.200 F 
ATOM     97  C   UNL A   1      45.929  26.783  35.854  1.00  0.00     0.200 A 
ATOM     98  F   UNL A   1      44.325  25.218  36.597  1.00  0.00    -0.200 F 
ATOM     99  F   UNL A   1      46.910  26.070  36.424  1.00  0.00    -0.200 F 
ENDBRANCH  66  89
ENDBRANCH  40  41
ENDBRANCH  32  35
ENDBRANCH  30  31
ENDBRANCH  29  30
ENDBRANCH  28  29
ENDBRANCH   1  28
TORSDOF 15
ENDMDL
