MODEL 1
REMARK VINA RESULT:     -13.4      0.000      0.000
REMARK SMILES C[C@H](NC(=O)c1cccc(NC(=O)c2ccccc2C(=O)NCCCCNC(=O)c2ccc(-c3c4nc(c(-c5c(F)c(F)c(F)c(F)c5F)c5ccc([nH]5)c(-c5c(F)c(F)c(F)c(F)c5F)c5nc(c(-c6c(F)c(F)c(F)c(F)c6F)c6ccc3[nH]6)C=C5)C=C4)cc2)c1)c1ccccc1
REMARK SMILES IDX 23 1 22 2 20 3 21 4 19 6 14 7 15 8 16 9 18 10 17 11 12 12
REMARK SMILES IDX 11 13 13 15 10 16 6 17 7 18 93 19 8 20 9 21 4 22 3 23 5 25
REMARK SMILES IDX 2 26 1 27 94 28 95 29 99 30 96 31 98 32 97 33 24 34 25 35
REMARK SMILES IDX 26 36 27 37 28 38 29 40 30 41 31 42 92 43 32 44 91 45 33 46
REMARK SMILES IDX 34 47 35 48 85 49 36 50 90 51 84 52 86 53 37 54 89 55 83 56
REMARK SMILES IDX 82 57 38 59 70 60 50 61 69 62 51 63 54 64 68 65 87 66 52 67
REMARK SMILES IDX 53 68 67 70 88 71 55 72 39 73 40 74 48 75 41 76 42 77 46 78
REMARK SMILES IDX 49 79 43 80 44 81 47 82 45 83 71 84 72 85 80 86 73 87 74 88
REMARK SMILES IDX 78 89 81 90 75 91 76 92 79 93 77 94 56 95 57 96 65 97 58 98
REMARK SMILES IDX 59 99 63 100 66 101 60 102 61 103 64 104 62 105
REMARK H PARENT 22 5 11 14 3 24 27 39 86 58 54 69
REMARK Flexibility Score: inf
ROOT
ATOM      1  C   UNL A   1      32.528  29.666  26.867  1.00  0.00     0.116 C 
ENDROOT
BRANCH   1   2
ATOM      2  N   UNL A   1      31.969  28.352  27.118  1.00  0.00    -0.352 N 
ATOM      3  C   UNL A   1      31.377  27.462  26.255  1.00  0.00     0.252 C 
ATOM      4  O   UNL A   1      30.964  26.398  26.717  1.00  0.00    -0.269 OA
ATOM      5  H   UNL A   1      32.023  28.050  28.054  1.00  0.00     0.163 HD
BRANCH   3   6
ATOM      6  C   UNL A   1      31.134  27.760  24.818  1.00  0.00     0.052 A 
ATOM      7  C   UNL A   1      32.103  27.835  23.806  1.00  0.00     0.052 A 
ATOM      8  C   UNL A   1      31.725  28.204  22.500  1.00  0.00     0.014 A 
ATOM      9  C   UNL A   1      30.383  28.386  22.168  1.00  0.00     0.001 A 
ATOM     10  C   UNL A   1      29.778  27.897  24.453  1.00  0.00     0.014 A 
ATOM     11  C   UNL A   1      29.407  28.199  23.140  1.00  0.00     0.001 A 
BRANCH   7  12
ATOM     12  C   UNL A   1      33.539  27.545  23.973  1.00  0.00     0.256 C 
ATOM     13  N   UNL A   1      34.060  26.273  23.971  1.00  0.00    -0.322 N 
ATOM     14  H   UNL A   1      35.009  26.231  24.231  1.00  0.00     0.170 HD
ATOM     15  O   UNL A   1      34.289  28.501  24.183  1.00  0.00    -0.269 OA
BRANCH  13  16
ATOM     16  C   UNL A   1      33.497  25.023  23.667  1.00  0.00     0.042 A 
ATOM     17  C   UNL A   1      32.257  23.109  24.489  1.00  0.00     0.041 A 
ATOM     18  C   UNL A   1      32.142  22.616  23.189  1.00  0.00     0.014 A 
ATOM     19  C   UNL A   1      32.984  24.279  24.738  1.00  0.00     0.040 A 
ATOM     20  C   UNL A   1      32.738  23.305  22.136  1.00  0.00     0.003 A 
ATOM     21  C   UNL A   1      33.421  24.499  22.377  1.00  0.00     0.026 A 
BRANCH  17  22
ATOM     22  C   UNL A   1      31.774  22.262  25.588  1.00  0.00     0.251 C 
ATOM     23  N   UNL A   1      32.433  21.152  26.032  1.00  0.00    -0.346 N 
ATOM     24  H   UNL A   1      31.920  20.671  26.720  1.00  0.00     0.164 HD
ATOM     25  O   UNL A   1      30.716  22.580  26.129  1.00  0.00    -0.269 OA
BRANCH  23  26
ATOM     26  C   UNL A   1      33.704  20.502  25.744  1.00  0.00     0.109 C 
ATOM     27  C   UNL A   1      33.672  19.378  24.726  1.00  0.00     0.036 C 
BRANCH  26  28
ATOM     28  C   UNL A   1      34.849  21.464  25.516  1.00  0.00    -0.026 A 
ATOM     29  C   UNL A   1      35.462  21.513  24.251  1.00  0.00     0.006 A 
ATOM     30  C   UNL A   1      35.274  22.371  26.498  1.00  0.00     0.006 A 
ATOM     31  C   UNL A   1      36.440  22.465  23.962  1.00  0.00     0.000 A 
ATOM     32  C   UNL A   1      36.250  23.327  26.206  1.00  0.00     0.000 A 
ATOM     33  C   UNL A   1      36.827  23.379  24.939  1.00  0.00     0.000 A 
ENDBRANCH  26  28
ENDBRANCH  23  26
ENDBRANCH  17  22
ENDBRANCH  13  16
ENDBRANCH   7  12
ENDBRANCH   3   6
ENDBRANCH   1   2
BRANCH   1  34
ATOM     34  C   UNL A   1      31.616  30.603  26.078  1.00  0.00     0.023 C 
BRANCH  34  35
ATOM     35  C   UNL A   1      31.319  31.963  26.716  1.00  0.00     0.023 C 
BRANCH  35  36
ATOM     36  C   UNL A   1      32.516  32.802  27.156  1.00  0.00     0.116 C 
BRANCH  36  37
ATOM     37  N   UNL A   1      32.214  34.136  27.632  1.00  0.00    -0.352 N 
ATOM     38  C   UNL A   1      32.926  34.944  28.495  1.00  0.00     0.251 C 
ATOM     39  H   UNL A   1      31.377  34.524  27.289  1.00  0.00     0.163 HD
ATOM     40  O   UNL A   1      32.523  36.071  28.750  1.00  0.00    -0.269 OA
BRANCH  38  41
ATOM     41  C   UNL A   1      34.144  34.439  29.179  1.00  0.00     0.039 A 
ATOM     42  C   UNL A   1      33.981  33.795  30.408  1.00  0.00     0.014 A 
ATOM     43  C   UNL A   1      35.424  34.577  28.635  1.00  0.00     0.014 A 
ATOM     44  C   UNL A   1      35.080  33.201  31.038  1.00  0.00     0.010 A 
ATOM     45  C   UNL A   1      36.509  33.923  29.230  1.00  0.00     0.010 A 
ATOM     46  C   UNL A   1      36.345  33.210  30.428  1.00  0.00    -0.014 A 
BRANCH  46  47
ATOM     47  C   UNL A   1      37.478  32.448  31.026  1.00  0.00     0.031 A 
ATOM     48  C   UNL A   1      37.981  32.767  32.407  1.00  0.00     0.074 A 
ATOM     49  C   UNL A   1      38.076  31.472  30.310  1.00  0.00     0.049 A 
ATOM     50  N   UNL A   1      38.968  32.222  33.075  1.00  0.00    -0.248 NA
ATOM     51  C   UNL A   1      37.297  33.850  33.128  1.00  0.00     0.031 C 
ATOM     52  C   UNL A   1      37.714  31.080  28.947  1.00  0.00     0.029 A 
ATOM     53  N   UNL A   1      39.115  30.630  30.629  1.00  0.00    -0.354 N 
ATOM     54  C   UNL A   1      39.020  32.889  34.291  1.00  0.00     0.074 A 
ATOM     55  C   UNL A   1      38.003  33.920  34.248  1.00  0.00     0.031 C 
ATOM     56  C   UNL A   1      38.494  30.057  28.559  1.00  0.00     0.029 A 
ATOM     57  C   UNL A   1      39.436  29.743  29.629  1.00  0.00     0.049 A 
ATOM     58  H   UNL A   1      39.586  30.660  31.494  1.00  0.00     0.167 HD
ATOM     59  C   UNL A   1      39.819  32.649  35.359  1.00  0.00     0.037 A 
ATOM     60  C   UNL A   1      40.383  28.787  29.576  1.00  0.00     0.037 A 
ATOM     61  C   UNL A   1      40.822  31.618  35.416  1.00  0.00     0.049 A 
ATOM     62  C   UNL A   1      41.278  28.565  30.767  1.00  0.00     0.074 A 
ATOM     63  C   UNL A   1      41.669  31.294  36.464  1.00  0.00     0.029 A 
ATOM     64  N   UNL A   1      41.113  30.739  34.383  1.00  0.00    -0.354 N 
ATOM     65  N   UNL A   1      41.279  29.174  31.928  1.00  0.00    -0.248 NA
ATOM     66  C   UNL A   1      42.303  27.517  30.641  1.00  0.00     0.031 C 
ATOM     67  C   UNL A   1      42.493  30.240  36.053  1.00  0.00     0.029 A 
ATOM     68  C   UNL A   1      42.131  29.880  34.767  1.00  0.00     0.049 A 
ATOM     69  H   UNL A   1      40.663  30.728  33.509  1.00  0.00     0.167 HD
ATOM     70  C   UNL A   1      42.273  28.559  32.679  1.00  0.00     0.074 A 
ATOM     71  C   UNL A   1      42.846  27.521  31.849  1.00  0.00     0.031 C 
ATOM     72  C   UNL A   1      42.676  28.833  33.943  1.00  0.00     0.037 A 
BRANCH  59  73
ATOM     73  C   UNL A   1      39.627  33.507  36.575  1.00  0.00     0.064 A 
ATOM     74  C   UNL A   1      40.267  34.750  36.696  1.00  0.00     0.173 A 
ATOM     75  C   UNL A   1      38.750  33.118  37.598  1.00  0.00     0.173 A 
ATOM     76  F   UNL A   1      41.122  35.163  35.748  1.00  0.00    -0.203 F 
ATOM     77  C   UNL A   1      40.052  35.562  37.806  1.00  0.00     0.198 A 
ATOM     78  C   UNL A   1      38.516  33.945  38.694  1.00  0.00     0.198 A 
ATOM     79  F   UNL A   1      38.106  31.943  37.526  1.00  0.00    -0.203 F 
ATOM     80  F   UNL A   1      40.702  36.728  37.917  1.00  0.00    -0.200 F 
ATOM     81  C   UNL A   1      39.170  35.163  38.799  1.00  0.00     0.200 A 
ATOM     82  F   UNL A   1      37.653  33.565  39.646  1.00  0.00    -0.200 F 
ATOM     83  F   UNL A   1      38.954  35.952  39.860  1.00  0.00    -0.200 F 
ENDBRANCH  59  73
BRANCH  60  84
ATOM     84  C   UNL A   1      40.535  27.941  28.362  1.00  0.00     0.064 A 
ATOM     85  C   UNL A   1      39.919  26.685  28.277  1.00  0.00     0.173 A 
ATOM     86  C   UNL A   1      41.338  28.347  27.285  1.00  0.00     0.173 A 
ATOM     87  F   UNL A   1      39.162  26.241  29.292  1.00  0.00    -0.203 F 
ATOM     88  C   UNL A   1      40.127  25.851  27.180  1.00  0.00     0.198 A 
ATOM     89  C   UNL A   1      41.520  27.526  26.174  1.00  0.00     0.198 A 
ATOM     90  F   UNL A   1      41.948  29.540  27.315  1.00  0.00    -0.203 F 
ATOM     91  F   UNL A   1      39.577  24.630  27.155  1.00  0.00    -0.200 F 
ATOM     92  C   UNL A   1      40.925  26.274  26.128  1.00  0.00     0.200 A 
ATOM     93  F   UNL A   1      42.283  27.943  25.155  1.00  0.00    -0.200 F 
ATOM     94  F   UNL A   1      41.131  25.470  25.077  1.00  0.00    -0.200 F 
ENDBRANCH  60  84
BRANCH  72  95
ATOM     95  C   UNL A   1      43.752  27.965  34.528  1.00  0.00     0.064 A 
ATOM     96  C   UNL A   1      45.093  28.375  34.558  1.00  0.00     0.173 A 
ATOM     97  C   UNL A   1      43.430  26.724  35.097  1.00  0.00     0.173 A 
ATOM     98  F   UNL A   1      45.454  29.545  34.013  1.00  0.00    -0.203 F 
ATOM     99  C   UNL A   1      46.077  27.559  35.113  1.00  0.00     0.198 A 
ATOM    100  C   UNL A   1      44.411  25.924  35.676  1.00  0.00     0.198 A 
ATOM    101  F   UNL A   1      42.160  26.290  35.099  1.00  0.00    -0.203 F 
ATOM    102  F   UNL A   1      47.359  27.947  35.086  1.00  0.00    -0.200 F 
ATOM    103  C   UNL A   1      45.734  26.339  35.677  1.00  0.00     0.200 A 
ATOM    104  F   UNL A   1      44.076  24.751  36.231  1.00  0.00    -0.200 F 
ATOM    105  F   UNL A   1      46.682  25.558  36.214  1.00  0.00    -0.200 F 
ENDBRANCH  72  95
ENDBRANCH  46  47
ENDBRANCH  38  41
ENDBRANCH  36  37
ENDBRANCH  35  36
ENDBRANCH  34  35
ENDBRANCH   1  34
TORSDOF 16
ENDMDL
MODEL 2
REMARK VINA RESULT:     -13.3      0.538      6.855
REMARK SMILES C[C@H](NC(=O)c1cccc(NC(=O)c2ccccc2C(=O)NCCCCNC(=O)c2ccc(-c3c4nc(c(-c5c(F)c(F)c(F)c(F)c5F)c5ccc([nH]5)c(-c5c(F)c(F)c(F)c(F)c5F)c5nc(c(-c6c(F)c(F)c(F)c(F)c6F)c6ccc3[nH]6)C=C5)C=C4)cc2)c1)c1ccccc1
REMARK SMILES IDX 23 1 22 2 20 3 21 4 19 6 14 7 15 8 16 9 18 10 17 11 12 12
REMARK SMILES IDX 11 13 13 15 10 16 6 17 7 18 93 19 8 20 9 21 4 22 3 23 5 25
REMARK SMILES IDX 2 26 1 27 94 28 95 29 99 30 96 31 98 32 97 33 24 34 25 35
REMARK SMILES IDX 26 36 27 37 28 38 29 40 30 41 31 42 92 43 32 44 91 45 33 46
REMARK SMILES IDX 34 47 35 48 85 49 36 50 90 51 84 52 86 53 37 54 89 55 83 56
REMARK SMILES IDX 82 57 38 59 70 60 50 61 69 62 51 63 54 64 68 65 87 66 52 67
REMARK SMILES IDX 53 68 67 70 88 71 55 72 39 73 40 74 48 75 41 76 42 77 46 78
REMARK SMILES IDX 49 79 43 80 44 81 47 82 45 83 71 84 72 85 80 86 73 87 74 88
REMARK SMILES IDX 78 89 81 90 75 91 76 92 79 93 77 94 56 95 57 96 65 97 58 98
REMARK SMILES IDX 59 99 63 100 66 101 60 102 61 103 64 104 62 105
REMARK H PARENT 22 5 11 14 3 24 27 39 86 58 54 69
REMARK Flexibility Score: inf
ROOT
ATOM      1  C   UNL A   1      32.540  29.635  26.979  1.00  0.00     0.116 C 
ENDROOT
BRANCH   1   2
ATOM      2  N   UNL A   1      31.907  28.345  27.166  1.00  0.00    -0.352 N 
ATOM      3  C   UNL A   1      31.305  27.513  26.253  1.00  0.00     0.252 C 
ATOM      4  O   UNL A   1      30.821  26.458  26.665  1.00  0.00    -0.269 OA
ATOM      5  H   UNL A   1      31.909  28.012  28.093  1.00  0.00     0.163 HD
BRANCH   3   6
ATOM      6  C   UNL A   1      31.134  27.866  24.818  1.00  0.00     0.052 A 
ATOM      7  C   UNL A   1      32.151  27.974  23.858  1.00  0.00     0.052 A 
ATOM      8  C   UNL A   1      31.839  28.395  22.550  1.00  0.00     0.014 A 
ATOM      9  C   UNL A   1      30.516  28.597  22.161  1.00  0.00     0.001 A 
ATOM     10  C   UNL A   1      29.798  28.026  24.393  1.00  0.00     0.014 A 
ATOM     11  C   UNL A   1      29.492  28.379  23.076  1.00  0.00     0.001 A 
BRANCH   7  12
ATOM     12  C   UNL A   1      33.576  27.669  24.084  1.00  0.00     0.256 C 
ATOM     13  N   UNL A   1      34.083  26.392  24.109  1.00  0.00    -0.322 N 
ATOM     14  H   UNL A   1      35.020  26.340  24.406  1.00  0.00     0.170 HD
ATOM     15  O   UNL A   1      34.328  28.618  24.318  1.00  0.00    -0.269 OA
BRANCH  13  16
ATOM     16  C   UNL A   1      33.518  25.147  23.789  1.00  0.00     0.042 A 
ATOM     17  C   UNL A   1      32.327  23.197  24.600  1.00  0.00     0.041 A 
ATOM     18  C   UNL A   1      32.165  22.743  23.291  1.00  0.00     0.014 A 
ATOM     19  C   UNL A   1      33.053  24.365  24.856  1.00  0.00     0.040 A 
ATOM     20  C   UNL A   1      32.714  23.468  22.237  1.00  0.00     0.003 A 
ATOM     21  C   UNL A   1      33.396  24.660  22.488  1.00  0.00     0.026 A 
BRANCH  17  22
ATOM     22  C   UNL A   1      31.895  22.313  25.691  1.00  0.00     0.251 C 
ATOM     23  N   UNL A   1      32.588  21.206  26.086  1.00  0.00    -0.346 N 
ATOM     24  H   UNL A   1      32.106  20.697  26.776  1.00  0.00     0.164 HD
ATOM     25  O   UNL A   1      30.847  22.595  26.270  1.00  0.00    -0.269 OA
BRANCH  23  26
ATOM     26  C   UNL A   1      33.863  20.590  25.744  1.00  0.00     0.109 C 
ATOM     27  C   UNL A   1      33.821  19.484  24.706  1.00  0.00     0.036 C 
BRANCH  26  28
ATOM     28  C   UNL A   1      34.979  21.580  25.497  1.00  0.00    -0.026 A 
ATOM     29  C   UNL A   1      35.538  21.677  24.210  1.00  0.00     0.006 A 
ATOM     30  C   UNL A   1      35.426  22.469  26.487  1.00  0.00     0.006 A 
ATOM     31  C   UNL A   1      36.485  22.657  23.910  1.00  0.00     0.000 A 
ATOM     32  C   UNL A   1      36.371  23.452  26.183  1.00  0.00     0.000 A 
ATOM     33  C   UNL A   1      36.894  23.551  24.896  1.00  0.00     0.000 A 
ENDBRANCH  26  28
ENDBRANCH  23  26
ENDBRANCH  17  22
ENDBRANCH  13  16
ENDBRANCH   7  12
ENDBRANCH   3   6
ENDBRANCH   1   2
BRANCH   1  34
ATOM     34  C   UNL A   1      31.715  30.636  26.174  1.00  0.00     0.023 C 
BRANCH  34  35
ATOM     35  C   UNL A   1      31.396  31.967  26.860  1.00  0.00     0.023 C 
BRANCH  35  36
ATOM     36  C   UNL A   1      32.579  32.838  27.274  1.00  0.00     0.116 C 
BRANCH  36  37
ATOM     37  N   UNL A   1      32.258  34.189  27.688  1.00  0.00    -0.352 N 
ATOM     38  C   UNL A   1      32.946  35.037  28.531  1.00  0.00     0.251 C 
ATOM     39  H   UNL A   1      31.425  34.556  27.312  1.00  0.00     0.163 HD
ATOM     40  O   UNL A   1      32.530  36.170  28.731  1.00  0.00    -0.269 OA
BRANCH  38  41
ATOM     41  C   UNL A   1      34.153  34.570  29.260  1.00  0.00     0.039 A 
ATOM     42  C   UNL A   1      33.982  34.079  30.556  1.00  0.00     0.014 A 
ATOM     43  C   UNL A   1      35.431  34.597  28.695  1.00  0.00     0.014 A 
ATOM     44  C   UNL A   1      35.065  33.521  31.243  1.00  0.00     0.010 A 
ATOM     45  C   UNL A   1      36.499  33.977  29.354  1.00  0.00     0.010 A 
ATOM     46  C   UNL A   1      36.323  33.414  30.628  1.00  0.00    -0.014 A 
BRANCH  46  47
ATOM     47  C   UNL A   1      37.435  32.685  31.301  1.00  0.00     0.031 A 
ATOM     48  C   UNL A   1      38.125  31.531  30.625  1.00  0.00     0.074 A 
ATOM     49  C   UNL A   1      37.815  33.049  32.544  1.00  0.00     0.049 A 
ATOM     50  N   UNL A   1      39.094  30.771  31.069  1.00  0.00    -0.248 NA
ATOM     51  C   UNL A   1      37.654  31.175  29.278  1.00  0.00     0.031 C 
ATOM     52  C   UNL A   1      37.211  34.125  33.331  1.00  0.00     0.029 A 
ATOM     53  N   UNL A   1      38.801  32.554  33.365  1.00  0.00    -0.354 N 
ATOM     54  C   UNL A   1      39.352  29.854  30.060  1.00  0.00     0.074 A 
ATOM     55  C   UNL A   1      38.398  30.114  29.002  1.00  0.00     0.031 C 
ATOM     56  C   UNL A   1      37.858  34.231  34.504  1.00  0.00     0.029 A 
ATOM     57  C   UNL A   1      38.897  33.207  34.570  1.00  0.00     0.049 A 
ATOM     58  H   UNL A   1      39.384  31.802  33.112  1.00  0.00     0.167 HD
ATOM     59  C   UNL A   1      40.314  28.901  30.003  1.00  0.00     0.037 A 
ATOM     60  C   UNL A   1      39.725  33.005  35.613  1.00  0.00     0.037 A 
ATOM     61  C   UNL A   1      41.276  28.644  31.043  1.00  0.00     0.049 A 
ATOM     62  C   UNL A   1      40.763  31.916  35.534  1.00  0.00     0.074 A 
ATOM     63  C   UNL A   1      42.296  27.707  31.065  1.00  0.00     0.029 A 
ATOM     64  N   UNL A   1      41.342  29.330  32.247  1.00  0.00    -0.354 N 
ATOM     65  N   UNL A   1      41.024  31.091  34.551  1.00  0.00    -0.248 NA
ATOM     66  C   UNL A   1      41.626  31.735  36.712  1.00  0.00     0.031 C 
ATOM     67  C   UNL A   1      42.959  27.805  32.294  1.00  0.00     0.029 A 
ATOM     68  C   UNL A   1      42.379  28.831  33.019  1.00  0.00     0.049 A 
ATOM     69  H   UNL A   1      40.741  30.063  32.512  1.00  0.00     0.167 HD
ATOM     70  C   UNL A   1      42.102  30.323  34.975  1.00  0.00     0.074 A 
ATOM     71  C   UNL A   1      42.454  30.788  36.299  1.00  0.00     0.031 C 
ATOM     72  C   UNL A   1      42.738  29.319  34.324  1.00  0.00     0.037 A 
BRANCH  59  73
ATOM     73  C   UNL A   1      40.393  28.068  28.756  1.00  0.00     0.064 A 
ATOM     74  C   UNL A   1      41.169  28.474  27.660  1.00  0.00     0.173 A 
ATOM     75  C   UNL A   1      39.744  26.828  28.679  1.00  0.00     0.173 A 
ATOM     76  F   UNL A   1      41.802  29.657  27.682  1.00  0.00    -0.203 F 
ATOM     77  C   UNL A   1      41.274  27.678  26.523  1.00  0.00     0.198 A 
ATOM     78  C   UNL A   1      39.873  26.022  27.551  1.00  0.00     0.198 A 
ATOM     79  F   UNL A   1      38.997  26.390  29.704  1.00  0.00    -0.203 F 
ATOM     80  F   UNL A   1      41.991  28.103  25.473  1.00  0.00    -0.200 F 
ATOM     81  C   UNL A   1      40.634  26.449  26.473  1.00  0.00     0.200 A 
ATOM     82  F   UNL A   1      39.267  24.827  27.509  1.00  0.00    -0.200 F 
ATOM     83  F   UNL A   1      40.748  25.678  25.382  1.00  0.00    -0.200 F 
ENDBRANCH  59  73
BRANCH  60  84
ATOM     84  C   UNL A   1      39.633  33.860  36.828  1.00  0.00     0.064 A 
ATOM     85  C   UNL A   1      38.855  33.469  37.926  1.00  0.00     0.173 A 
ATOM     86  C   UNL A   1      40.277  35.104  36.896  1.00  0.00     0.173 A 
ATOM     87  F   UNL A   1      38.199  32.299  37.900  1.00  0.00    -0.203 F 
ATOM     88  C   UNL A   1      38.695  34.303  39.031  1.00  0.00     0.198 A 
ATOM     89  C   UNL A   1      40.142  35.924  38.014  1.00  0.00     0.198 A 
ATOM     90  F   UNL A   1      41.035  35.524  35.873  1.00  0.00    -0.203 F 
ATOM     91  F   UNL A   1      37.894  33.931  40.039  1.00  0.00    -0.200 F 
ATOM     92  C   UNL A   1      39.341  35.528  39.075  1.00  0.00     0.200 A 
ATOM     93  F   UNL A   1      40.777  37.103  38.057  1.00  0.00    -0.200 F 
ATOM     94  F   UNL A   1      39.181  36.334  40.133  1.00  0.00    -0.200 F 
ENDBRANCH  60  84
BRANCH  72  95
ATOM     95  C   UNL A   1      43.916  28.690  35.011  1.00  0.00     0.064 A 
ATOM     96  C   UNL A   1      45.217  29.185  34.844  1.00  0.00     0.173 A 
ATOM     97  C   UNL A   1      43.733  27.600  35.874  1.00  0.00     0.173 A 
ATOM     98  F   UNL A   1      45.446  30.216  34.016  1.00  0.00    -0.203 F 
ATOM     99  C   UNL A   1      46.297  28.593  35.496  1.00  0.00     0.198 A 
ATOM    100  C   UNL A   1      44.810  27.029  36.546  1.00  0.00     0.198 A 
ATOM    101  F   UNL A   1      42.507  27.092  36.073  1.00  0.00    -0.203 F 
ATOM    102  F   UNL A   1      47.538  29.051  35.283  1.00  0.00    -0.200 F 
ATOM    103  C   UNL A   1      46.091  27.521  36.351  1.00  0.00     0.200 A 
ATOM    104  F   UNL A   1      44.608  26.000  37.382  1.00  0.00    -0.200 F 
ATOM    105  F   UNL A   1      47.130  26.956  36.981  1.00  0.00    -0.200 F 
ENDBRANCH  72  95
ENDBRANCH  46  47
ENDBRANCH  38  41
ENDBRANCH  36  37
ENDBRANCH  35  36
ENDBRANCH  34  35
ENDBRANCH   1  34
TORSDOF 16
ENDMDL
MODEL 3
REMARK VINA RESULT:     -13.2      0.828      2.415
REMARK SMILES C[C@H](NC(=O)c1cccc(NC(=O)c2ccccc2C(=O)NCCCCNC(=O)c2ccc(-c3c4nc(c(-c5c(F)c(F)c(F)c(F)c5F)c5ccc([nH]5)c(-c5c(F)c(F)c(F)c(F)c5F)c5nc(c(-c6c(F)c(F)c(F)c(F)c6F)c6ccc3[nH]6)C=C5)C=C4)cc2)c1)c1ccccc1
REMARK SMILES IDX 23 1 22 2 20 3 21 4 19 6 14 7 15 8 16 9 18 10 17 11 12 12
REMARK SMILES IDX 11 13 13 15 10 16 6 17 7 18 93 19 8 20 9 21 4 22 3 23 5 25
REMARK SMILES IDX 2 26 1 27 94 28 95 29 99 30 96 31 98 32 97 33 24 34 25 35
REMARK SMILES IDX 26 36 27 37 28 38 29 40 30 41 31 42 92 43 32 44 91 45 33 46
REMARK SMILES IDX 34 47 35 48 85 49 36 50 90 51 84 52 86 53 37 54 89 55 83 56
REMARK SMILES IDX 82 57 38 59 70 60 50 61 69 62 51 63 54 64 68 65 87 66 52 67
REMARK SMILES IDX 53 68 67 70 88 71 55 72 39 73 40 74 48 75 41 76 42 77 46 78
REMARK SMILES IDX 49 79 43 80 44 81 47 82 45 83 71 84 72 85 80 86 73 87 74 88
REMARK SMILES IDX 78 89 81 90 75 91 76 92 79 93 77 94 56 95 57 96 65 97 58 98
REMARK SMILES IDX 59 99 63 100 66 101 60 102 61 103 64 104 62 105
REMARK H PARENT 22 5 11 14 3 24 27 39 86 58 54 69
REMARK Flexibility Score: inf
ROOT
ATOM      1  C   UNL A   1      32.596  29.762  26.927  1.00  0.00     0.116 C 
ENDROOT
BRANCH   1   2
ATOM      2  N   UNL A   1      32.014  28.461  27.190  1.00  0.00    -0.352 N 
ATOM      3  C   UNL A   1      31.415  27.569  26.334  1.00  0.00     0.252 C 
ATOM      4  O   UNL A   1      30.980  26.518  26.807  1.00  0.00    -0.269 OA
ATOM      5  H   UNL A   1      32.055  28.171  28.130  1.00  0.00     0.163 HD
BRANCH   3   6
ATOM      6  C   UNL A   1      31.189  27.851  24.891  1.00  0.00     0.052 A 
ATOM      7  C   UNL A   1      32.165  27.874  23.883  1.00  0.00     0.052 A 
ATOM      8  C   UNL A   1      31.805  28.235  22.569  1.00  0.00     0.014 A 
ATOM      9  C   UNL A   1      30.473  28.460  22.228  1.00  0.00     0.001 A 
ATOM     10  C   UNL A   1      29.841  28.032  24.517  1.00  0.00     0.014 A 
ATOM     11  C   UNL A   1      29.486  28.325  23.197  1.00  0.00     0.001 A 
BRANCH   7  12
ATOM     12  C   UNL A   1      33.588  27.536  24.061  1.00  0.00     0.256 C 
ATOM     13  N   UNL A   1      34.030  26.281  24.409  1.00  0.00    -0.322 N 
ATOM     14  H   UNL A   1      34.990  26.243  24.626  1.00  0.00     0.170 HD
ATOM     15  O   UNL A   1      34.407  28.450  23.947  1.00  0.00    -0.269 OA
BRANCH  13  16
ATOM     16  C   UNL A   1      33.374  25.044  24.511  1.00  0.00     0.042 A 
ATOM     17  C   UNL A   1      33.136  22.977  25.753  1.00  0.00     0.041 A 
ATOM     18  C   UNL A   1      32.023  22.634  24.983  1.00  0.00     0.014 A 
ATOM     19  C   UNL A   1      33.847  24.150  25.480  1.00  0.00     0.040 A 
ATOM     20  C   UNL A   1      31.613  23.475  23.953  1.00  0.00     0.003 A 
ATOM     21  C   UNL A   1      32.292  24.671  23.712  1.00  0.00     0.026 A 
BRANCH  17  22
ATOM     22  C   UNL A   1      33.644  21.979  26.705  1.00  0.00     0.251 C 
ATOM     23  N   UNL A   1      34.402  20.905  26.340  1.00  0.00    -0.346 N 
ATOM     24  H   UNL A   1      34.583  20.307  27.100  1.00  0.00     0.164 HD
ATOM     25  O   UNL A   1      33.362  22.131  27.893  1.00  0.00    -0.269 OA
BRANCH  23  26
ATOM     26  C   UNL A   1      35.012  20.422  25.109  1.00  0.00     0.109 C 
ATOM     27  C   UNL A   1      36.527  20.351  25.088  1.00  0.00     0.036 C 
BRANCH  26  28
ATOM     28  C   UNL A   1      34.361  19.177  24.547  1.00  0.00    -0.026 A 
ATOM     29  C   UNL A   1      33.055  19.258  24.032  1.00  0.00     0.006 A 
ATOM     30  C   UNL A   1      35.044  17.955  24.445  1.00  0.00     0.006 A 
ATOM     31  C   UNL A   1      32.463  18.165  23.398  1.00  0.00     0.000 A 
ATOM     32  C   UNL A   1      34.451  16.863  23.805  1.00  0.00     0.000 A 
ATOM     33  C   UNL A   1      33.166  16.970  23.277  1.00  0.00     0.000 A 
ENDBRANCH  26  28
ENDBRANCH  23  26
ENDBRANCH  17  22
ENDBRANCH  13  16
ENDBRANCH   7  12
ENDBRANCH   3   6
ENDBRANCH   1   2
BRANCH   1  34
ATOM     34  C   UNL A   1      31.718  30.693  26.095  1.00  0.00     0.023 C 
BRANCH  34  35
ATOM     35  C   UNL A   1      31.386  32.053  26.715  1.00  0.00     0.023 C 
BRANCH  35  36
ATOM     36  C   UNL A   1      32.549  32.868  27.274  1.00  0.00     0.116 C 
BRANCH  36  37
ATOM     37  N   UNL A   1      32.229  34.207  27.721  1.00  0.00    -0.352 N 
ATOM     38  C   UNL A   1      32.923  35.039  28.575  1.00  0.00     0.251 C 
ATOM     39  H   UNL A   1      31.391  34.580  27.362  1.00  0.00     0.163 HD
ATOM     40  O   UNL A   1      32.506  36.166  28.804  1.00  0.00    -0.269 OA
BRANCH  38  41
ATOM     41  C   UNL A   1      34.139  34.560  29.281  1.00  0.00     0.039 A 
ATOM     42  C   UNL A   1      33.971  33.945  30.524  1.00  0.00     0.014 A 
ATOM     43  C   UNL A   1      35.423  34.694  28.745  1.00  0.00     0.014 A 
ATOM     44  C   UNL A   1      35.068  33.374  31.177  1.00  0.00     0.010 A 
ATOM     45  C   UNL A   1      36.507  34.063  29.364  1.00  0.00     0.010 A 
ATOM     46  C   UNL A   1      36.338  33.378  30.578  1.00  0.00    -0.014 A 
BRANCH  46  47
ATOM     47  C   UNL A   1      37.472  32.639  31.203  1.00  0.00     0.031 A 
ATOM     48  C   UNL A   1      37.973  33.007  32.574  1.00  0.00     0.074 A 
ATOM     49  C   UNL A   1      38.073  31.641  30.523  1.00  0.00     0.049 A 
ATOM     50  N   UNL A   1      38.959  32.488  33.261  1.00  0.00    -0.248 NA
ATOM     51  C   UNL A   1      37.285  34.114  33.255  1.00  0.00     0.031 C 
ATOM     52  C   UNL A   1      37.713  31.201  29.174  1.00  0.00     0.029 A 
ATOM     53  N   UNL A   1      39.113  30.812  30.873  1.00  0.00    -0.354 N 
ATOM     54  C   UNL A   1      39.008  33.197  34.453  1.00  0.00     0.074 A 
ATOM     55  C   UNL A   1      37.989  34.224  34.373  1.00  0.00     0.031 C 
ATOM     56  C   UNL A   1      38.496  30.167  28.823  1.00  0.00     0.029 A 
ATOM     57  C   UNL A   1      39.437  29.892  29.905  1.00  0.00     0.049 A 
ATOM     58  H   UNL A   1      39.582  30.872  31.737  1.00  0.00     0.167 HD
ATOM     59  C   UNL A   1      39.806  32.996  35.530  1.00  0.00     0.037 A 
ATOM     60  C   UNL A   1      40.386  28.936  29.887  1.00  0.00     0.037 A 
ATOM     61  C   UNL A   1      40.811  31.969  35.625  1.00  0.00     0.049 A 
ATOM     62  C   UNL A   1      41.279  28.757  31.086  1.00  0.00     0.074 A 
ATOM     63  C   UNL A   1      41.657  31.683  36.684  1.00  0.00     0.029 A 
ATOM     64  N   UNL A   1      41.105  31.055  34.624  1.00  0.00    -0.354 N 
ATOM     65  N   UNL A   1      41.278  29.406  32.224  1.00  0.00    -0.248 NA
ATOM     66  C   UNL A   1      42.306  27.707  30.997  1.00  0.00     0.031 C 
ATOM     67  C   UNL A   1      42.484  30.617  36.312  1.00  0.00     0.029 A 
ATOM     68  C   UNL A   1      42.124  30.212  35.038  1.00  0.00     0.049 A 
ATOM     69  H   UNL A   1      40.656  31.013  33.749  1.00  0.00     0.167 HD
ATOM     70  C   UNL A   1      42.271  28.819  32.998  1.00  0.00     0.074 A 
ATOM     71  C   UNL A   1      42.847  27.754  32.206  1.00  0.00     0.031 C 
ATOM     72  C   UNL A   1      42.672  29.138  34.253  1.00  0.00     0.037 A 
BRANCH  59  73
ATOM     73  C   UNL A   1      39.611  33.895  36.716  1.00  0.00     0.064 A 
ATOM     74  C   UNL A   1      38.819  33.502  37.805  1.00  0.00     0.173 A 
ATOM     75  C   UNL A   1      40.270  35.131  36.796  1.00  0.00     0.173 A 
ATOM     76  F   UNL A   1      38.161  32.332  37.772  1.00  0.00    -0.203 F 
ATOM     77  C   UNL A   1      38.676  34.320  38.921  1.00  0.00     0.198 A 
ATOM     78  C   UNL A   1      40.147  35.936  37.925  1.00  0.00     0.198 A 
ATOM     79  F   UNL A   1      41.047  35.550  35.785  1.00  0.00    -0.203 F 
ATOM     80  F   UNL A   1      37.885  33.940  39.933  1.00  0.00    -0.200 F 
ATOM     81  C   UNL A   1      39.347  35.533  38.984  1.00  0.00     0.200 A 
ATOM     82  F   UNL A   1      40.808  37.100  37.993  1.00  0.00    -0.200 F 
ATOM     83  F   UNL A   1      39.220  36.313  40.066  1.00  0.00    -0.200 F 
ENDBRANCH  59  73
BRANCH  60  84
ATOM     84  C   UNL A   1      40.541  28.048  28.702  1.00  0.00     0.064 A 
ATOM     85  C   UNL A   1      41.326  28.438  27.608  1.00  0.00     0.173 A 
ATOM     86  C   UNL A   1      39.871  26.819  28.619  1.00  0.00     0.173 A 
ATOM     87  F   UNL A   1      41.966  29.617  27.629  1.00  0.00    -0.203 F 
ATOM     88  C   UNL A   1      41.406  27.650  26.461  1.00  0.00     0.198 A 
ATOM     89  C   UNL A   1      39.977  26.017  27.484  1.00  0.00     0.198 A 
ATOM     90  F   UNL A   1      39.110  26.399  29.639  1.00  0.00    -0.203 F 
ATOM     91  F   UNL A   1      42.111  28.078  25.405  1.00  0.00    -0.200 F 
ATOM     92  C   UNL A   1      40.734  26.440  26.401  1.00  0.00     0.200 A 
ATOM     93  F   UNL A   1      39.335  24.843  27.435  1.00  0.00    -0.200 F 
ATOM     94  F   UNL A   1      40.805  25.686  25.296  1.00  0.00    -0.200 F 
ENDBRANCH  60  84
BRANCH  72  95
ATOM     95  C   UNL A   1      43.749  28.293  34.869  1.00  0.00     0.064 A 
ATOM     96  C   UNL A   1      43.450  27.122  35.581  1.00  0.00     0.173 A 
ATOM     97  C   UNL A   1      45.098  28.643  34.714  1.00  0.00     0.173 A 
ATOM     98  F   UNL A   1      42.174  26.754  35.770  1.00  0.00    -0.203 F 
ATOM     99  C   UNL A   1      44.464  26.347  36.139  1.00  0.00     0.198 A 
ATOM    100  C   UNL A   1      46.110  27.850  35.249  1.00  0.00     0.198 A 
ATOM    101  F   UNL A   1      45.437  29.750  34.036  1.00  0.00    -0.203 F 
ATOM    102  F   UNL A   1      44.154  25.259  36.858  1.00  0.00    -0.200 F 
ATOM    103  C   UNL A   1      45.792  26.707  35.966  1.00  0.00     0.200 A 
ATOM    104  F   UNL A   1      47.393  28.194  35.071  1.00  0.00    -0.200 F 
ATOM    105  F   UNL A   1      46.766  25.957  36.500  1.00  0.00    -0.200 F 
ENDBRANCH  72  95
ENDBRANCH  46  47
ENDBRANCH  38  41
ENDBRANCH  36  37
ENDBRANCH  35  36
ENDBRANCH  34  35
ENDBRANCH   1  34
TORSDOF 16
ENDMDL
