MODEL 1
REMARK VINA RESULT:     -13.3      0.000      0.000
REMARK SMILES C#Cc1cccc(N(C)S(=O)(=O)c2cc(F)c(F)c(C(=O)NCCCCNC(=O)c3ccc(-c4c5nc(c(-c6c(F)c(F)c(F)c(F)c6F)c6ccc([nH]6)c(-c6c(F)c(F)c(F)c(F)c6F)c6nc(c(-c7c(F)c(F)c(F)c(F)c7F)c7ccc4[nH]7)C=C6)C=C5)cc3)c2)c1
REMARK SMILES IDX 23 1 22 2 20 3 21 4 19 6 13 7 14 8 93 9 15 10 16 11 17 12
REMARK SMILES IDX 18 13 10 14 11 15 12 16 8 17 9 18 7 19 3 20 4 21 94 22 5 23
REMARK SMILES IDX 6 24 2 25 1 26 24 27 25 28 26 29 27 30 28 31 29 33 30 34
REMARK SMILES IDX 31 35 92 36 32 37 91 38 33 39 34 40 35 41 85 42 36 43 90 44
REMARK SMILES IDX 84 45 86 46 37 47 89 48 83 49 82 50 38 52 70 53 50 54 69 55
REMARK SMILES IDX 51 56 54 57 68 58 87 59 52 60 53 61 67 63 88 64 55 65 39 66
REMARK SMILES IDX 40 67 48 68 41 69 42 70 46 71 49 72 43 73 44 74 47 75 45 76
REMARK SMILES IDX 71 77 72 78 80 79 73 80 74 81 78 82 81 83 75 84 76 85 79 86
REMARK SMILES IDX 77 87 56 88 57 89 65 90 58 91 59 92 63 93 66 94 60 95 61 96
REMARK SMILES IDX 64 97 62 98
REMARK H PARENT 22 5 27 32 86 51 54 62
REMARK Flexibility Score: inf
ROOT
ATOM      1  C   UNL A   1      33.186  29.886  26.884  1.00  0.00     0.116 C 
ENDROOT
BRANCH   1   2
ATOM      2  N   UNL A   1      33.793  29.476  25.651  1.00  0.00    -0.352 N 
ATOM      3  C   UNL A   1      33.454  28.405  24.834  1.00  0.00     0.254 C 
ATOM      4  O   UNL A   1      34.047  28.311  23.762  1.00  0.00    -0.269 OA
ATOM      5  H   UNL A   1      34.550  30.026  25.343  1.00  0.00     0.163 HD
BRANCH   3   6
ATOM      6  C   UNL A   1      32.463  27.344  25.241  1.00  0.00     0.079 A 
ATOM      7  C   UNL A   1      31.899  25.112  26.082  1.00  0.00     0.091 A 
ATOM      8  C   UNL A   1      30.609  25.252  25.549  1.00  0.00     0.064 A 
ATOM      9  C   UNL A   1      32.773  26.207  26.032  1.00  0.00     0.039 A 
ATOM     10  C   UNL A   1      30.237  26.444  24.937  1.00  0.00     0.161 A 
ATOM     11  F   UNL A   1      28.985  26.579  24.479  1.00  0.00    -0.204 F 
ATOM     12  C   UNL A   1      31.160  27.467  24.743  1.00  0.00     0.171 A 
ATOM     13  F   UNL A   1      30.773  28.544  24.043  1.00  0.00    -0.203 F 
BRANCH   7  14
ATOM     14  S   UNL A   1      32.346  23.434  26.617  1.00  0.00     0.264 S 
ATOM     15  O   UNL A   1      31.130  22.924  27.222  1.00  0.00    -0.201 OA
ATOM     16  O   UNL A   1      33.557  23.592  27.394  1.00  0.00    -0.201 OA
BRANCH  14  17
ATOM     17  N   UNL A   1      32.697  22.405  25.277  1.00  0.00    -0.269 N 
ATOM     18  C   UNL A   1      32.077  21.080  25.293  1.00  0.00     0.164 C 
BRANCH  17  19
ATOM     19  C   UNL A   1      34.075  22.383  24.740  1.00  0.00     0.053 A 
ATOM     20  C   UNL A   1      36.316  21.458  24.482  1.00  0.00     0.026 A 
ATOM     21  C   UNL A   1      36.678  22.493  23.618  1.00  0.00     0.017 A 
ATOM     22  C   UNL A   1      35.024  21.398  25.036  1.00  0.00     0.044 A 
ATOM     23  C   UNL A   1      35.759  23.487  23.324  1.00  0.00     0.003 A 
ATOM     24  C   UNL A   1      34.490  23.446  23.906  1.00  0.00     0.027 A 
BRANCH  20  25
ATOM     25  C   UNL A   1      37.290  20.464  24.812  1.00  0.00    -0.070 C 
ATOM     26  C   UNL A   1      38.113  19.621  25.056  1.00  0.00     0.010 C 
ENDBRANCH  20  25
ENDBRANCH  17  19
ENDBRANCH  14  17
ENDBRANCH   7  14
ENDBRANCH   3   6
ENDBRANCH   1   2
BRANCH   1  27
ATOM     27  C   UNL A   1      31.780  30.462  26.875  1.00  0.00     0.023 C 
BRANCH  27  28
ATOM     28  C   UNL A   1      31.652  31.963  26.714  1.00  0.00     0.023 C 
BRANCH  28  29
ATOM     29  C   UNL A   1      32.766  32.795  27.334  1.00  0.00     0.116 C 
BRANCH  29  30
ATOM     30  N   UNL A   1      32.390  34.164  27.674  1.00  0.00    -0.352 N 
ATOM     31  C   UNL A   1      32.962  35.013  28.600  1.00  0.00     0.251 C 
ATOM     32  H   UNL A   1      31.624  34.530  27.176  1.00  0.00     0.163 HD
ATOM     33  O   UNL A   1      32.469  36.115  28.818  1.00  0.00    -0.269 OA
BRANCH  31  34
ATOM     34  C   UNL A   1      34.146  34.558  29.360  1.00  0.00     0.039 A 
ATOM     35  C   UNL A   1      33.971  33.979  30.618  1.00  0.00     0.014 A 
ATOM     36  C   UNL A   1      35.416  34.617  28.783  1.00  0.00     0.014 A 
ATOM     37  C   UNL A   1      35.056  33.366  31.249  1.00  0.00     0.010 A 
ATOM     38  C   UNL A   1      36.464  33.907  29.357  1.00  0.00     0.010 A 
ATOM     39  C   UNL A   1      36.297  33.271  30.597  1.00  0.00    -0.014 A 
BRANCH  39  40
ATOM     40  C   UNL A   1      37.430  32.509  31.184  1.00  0.00     0.031 A 
ATOM     41  C   UNL A   1      37.943  32.857  32.554  1.00  0.00     0.074 A 
ATOM     42  C   UNL A   1      38.038  31.544  30.462  1.00  0.00     0.049 A 
ATOM     43  N   UNL A   1      38.954  32.349  33.213  1.00  0.00    -0.248 NA
ATOM     44  C   UNL A   1      37.247  33.938  33.271  1.00  0.00     0.031 C 
ATOM     45  C   UNL A   1      37.665  31.146  29.104  1.00  0.00     0.029 A 
ATOM     46  N   UNL A   1      39.097  30.725  30.766  1.00  0.00    -0.354 N 
ATOM     47  C   UNL A   1      39.013  33.048  34.411  1.00  0.00     0.074 A 
ATOM     48  C   UNL A   1      37.987  34.065  34.362  1.00  0.00     0.031 C 
ATOM     49  C   UNL A   1      38.451  30.132  28.711  1.00  0.00     0.029 A 
ATOM     50  C   UNL A   1      39.420  29.842  29.763  1.00  0.00     0.049 A 
ATOM     51  H   UNL A   1      39.581  30.767  31.623  1.00  0.00     0.167 HD
ATOM     52  C   UNL A   1      39.826  32.837  35.471  1.00  0.00     0.037 A 
ATOM     53  C   UNL A   1      40.390  28.908  29.695  1.00  0.00     0.037 A 
ATOM     54  C   UNL A   1      40.832  31.809  35.522  1.00  0.00     0.049 A 
ATOM     55  C   UNL A   1      41.308  28.719  30.873  1.00  0.00     0.074 A 
ATOM     56  C   UNL A   1      41.674  31.484  36.570  1.00  0.00     0.029 A 
ATOM     57  N   UNL A   1      41.134  30.942  34.482  1.00  0.00    -0.354 N 
ATOM     58  N   UNL A   1      41.309  29.341  32.028  1.00  0.00    -0.248 NA
ATOM     59  C   UNL A   1      42.357  27.697  30.744  1.00  0.00     0.031 C 
ATOM     60  C   UNL A   1      42.534  30.472  36.141  1.00  0.00     0.029 A 
ATOM     61  C   UNL A   1      42.176  30.107  34.853  1.00  0.00     0.049 A 
ATOM     62  H   UNL A   1      40.678  30.924  33.610  1.00  0.00     0.167 HD
ATOM     63  C   UNL A   1      42.333  28.769  32.771  1.00  0.00     0.074 A 
ATOM     64  C   UNL A   1      42.923  27.738  31.942  1.00  0.00     0.031 C 
ATOM     65  C   UNL A   1      42.749  29.076  34.024  1.00  0.00     0.037 A 
BRANCH  52  66
ATOM     66  C   UNL A   1      39.660  33.718  36.677  1.00  0.00     0.064 A 
ATOM     67  C   UNL A   1      38.839  33.319  37.743  1.00  0.00     0.173 A 
ATOM     68  C   UNL A   1      40.243  34.993  36.741  1.00  0.00     0.173 A 
ATOM     69  F   UNL A   1      38.253  32.112  37.733  1.00  0.00    -0.203 F 
ATOM     70  C   UNL A   1      38.591  34.172  38.816  1.00  0.00     0.198 A 
ATOM     71  C   UNL A   1      40.023  35.828  37.833  1.00  0.00     0.198 A 
ATOM     72  F   UNL A   1      41.047  35.419  35.755  1.00  0.00    -0.203 F 
ATOM     73  F   UNL A   1      37.767  33.787  39.800  1.00  0.00    -0.200 F 
ATOM     74  C   UNL A   1      39.186  35.424  38.862  1.00  0.00     0.200 A 
ATOM     75  F   UNL A   1      40.623  37.025  37.890  1.00  0.00    -0.200 F 
ATOM     76  F   UNL A   1      38.955  36.240  39.899  1.00  0.00    -0.200 F 
ENDBRANCH  52  66
BRANCH  53  77
ATOM     77  C   UNL A   1      40.512  28.058  28.479  1.00  0.00     0.064 A 
ATOM     78  C   UNL A   1      39.904  26.796  28.402  1.00  0.00     0.173 A 
ATOM     79  C   UNL A   1      41.270  28.481  27.377  1.00  0.00     0.173 A 
ATOM     80  F   UNL A   1      39.170  26.340  29.427  1.00  0.00    -0.203 F 
ATOM     81  C   UNL A   1      40.071  25.980  27.284  1.00  0.00     0.198 A 
ATOM     82  C   UNL A   1      41.410  27.679  26.246  1.00  0.00     0.198 A 
ATOM     83  F   UNL A   1      41.856  29.688  27.392  1.00  0.00    -0.203 F 
ATOM     84  F   UNL A   1      39.518  24.761  27.258  1.00  0.00    -0.200 F 
ATOM     85  C   UNL A   1      40.821  26.424  26.205  1.00  0.00     0.200 A 
ATOM     86  F   UNL A   1      42.112  28.124  25.195  1.00  0.00    -0.200 F 
ATOM     87  F   UNL A   1      40.973  25.645  25.126  1.00  0.00    -0.200 F 
ENDBRANCH  53  77
BRANCH  65  88
ATOM     88  C   UNL A   1      43.881  28.277  34.607  1.00  0.00     0.064 A 
ATOM     89  C   UNL A   1      45.211  28.681  34.406  1.00  0.00     0.173 A 
ATOM     90  C   UNL A   1      43.660  27.063  35.272  1.00  0.00     0.173 A 
ATOM     91  F   UNL A   1      45.480  29.829  33.765  1.00  0.00    -0.203 F 
ATOM     92  C   UNL A   1      46.274  27.887  34.825  1.00  0.00     0.198 A 
ATOM     93  C   UNL A   1      44.726  26.290  35.725  1.00  0.00     0.198 A 
ATOM     94  F   UNL A   1      42.409  26.635  35.499  1.00  0.00    -0.203 F 
ATOM     95  F   UNL A   1      47.535  28.269  34.574  1.00  0.00    -0.200 F 
ATOM     96  C   UNL A   1      46.032  26.694  35.489  1.00  0.00     0.200 A 
ATOM     97  F   UNL A   1      44.490  25.151  36.390  1.00  0.00    -0.200 F 
ATOM     98  F   UNL A   1      47.056  25.935  35.900  1.00  0.00    -0.200 F 
ENDBRANCH  65  88
ENDBRANCH  39  40
ENDBRANCH  31  34
ENDBRANCH  29  30
ENDBRANCH  28  29
ENDBRANCH  27  28
ENDBRANCH   1  27
TORSDOF 15
ENDMDL
MODEL 2
REMARK VINA RESULT:     -13.3      0.218      1.564
REMARK SMILES C#Cc1cccc(N(C)S(=O)(=O)c2cc(F)c(F)c(C(=O)NCCCCNC(=O)c3ccc(-c4c5nc(c(-c6c(F)c(F)c(F)c(F)c6F)c6ccc([nH]6)c(-c6c(F)c(F)c(F)c(F)c6F)c6nc(c(-c7c(F)c(F)c(F)c(F)c7F)c7ccc4[nH]7)C=C6)C=C5)cc3)c2)c1
REMARK SMILES IDX 23 1 22 2 20 3 21 4 19 6 13 7 14 8 93 9 15 10 16 11 17 12
REMARK SMILES IDX 18 13 10 14 11 15 12 16 8 17 9 18 7 19 3 20 4 21 94 22 5 23
REMARK SMILES IDX 6 24 2 25 1 26 24 27 25 28 26 29 27 30 28 31 29 33 30 34
REMARK SMILES IDX 31 35 92 36 32 37 91 38 33 39 34 40 35 41 85 42 36 43 90 44
REMARK SMILES IDX 84 45 86 46 37 47 89 48 83 49 82 50 38 52 70 53 50 54 69 55
REMARK SMILES IDX 51 56 54 57 68 58 87 59 52 60 53 61 67 63 88 64 55 65 39 66
REMARK SMILES IDX 40 67 48 68 41 69 42 70 46 71 49 72 43 73 44 74 47 75 45 76
REMARK SMILES IDX 71 77 72 78 80 79 73 80 74 81 78 82 81 83 75 84 76 85 79 86
REMARK SMILES IDX 77 87 56 88 57 89 65 90 58 91 59 92 63 93 66 94 60 95 61 96
REMARK SMILES IDX 64 97 62 98
REMARK H PARENT 22 5 27 32 86 51 54 62
REMARK Flexibility Score: inf
ROOT
ATOM      1  C   UNL A   1      33.244  29.743  26.913  1.00  0.00     0.116 C 
ENDROOT
BRANCH   1   2
ATOM      2  N   UNL A   1      33.829  29.321  25.673  1.00  0.00    -0.352 N 
ATOM      3  C   UNL A   1      33.476  28.241  24.875  1.00  0.00     0.254 C 
ATOM      4  O   UNL A   1      34.049  28.136  23.793  1.00  0.00    -0.269 OA
ATOM      5  H   UNL A   1      34.579  29.867  25.345  1.00  0.00     0.163 HD
BRANCH   3   6
ATOM      6  C   UNL A   1      32.493  27.183  25.311  1.00  0.00     0.079 A 
ATOM      7  C   UNL A   1      31.945  24.947  26.150  1.00  0.00     0.091 A 
ATOM      8  C   UNL A   1      30.634  25.104  25.674  1.00  0.00     0.064 A 
ATOM      9  C   UNL A   1      32.826  26.035  26.075  1.00  0.00     0.039 A 
ATOM     10  C   UNL A   1      30.247  26.307  25.093  1.00  0.00     0.161 A 
ATOM     11  F   UNL A   1      28.979  26.458  24.690  1.00  0.00    -0.204 F 
ATOM     12  C   UNL A   1      31.171  27.324  24.871  1.00  0.00     0.171 A 
ATOM     13  F   UNL A   1      30.765  28.412  24.200  1.00  0.00    -0.203 F 
BRANCH   7  14
ATOM     14  S   UNL A   1      32.399  23.259  26.646  1.00  0.00     0.264 S 
ATOM     15  O   UNL A   1      31.179  22.725  27.223  1.00  0.00    -0.201 OA
ATOM     16  O   UNL A   1      33.599  23.405  27.441  1.00  0.00    -0.201 OA
BRANCH  14  17
ATOM     17  N   UNL A   1      32.772  22.268  25.284  1.00  0.00    -0.269 N 
ATOM     18  C   UNL A   1      32.166  20.937  25.261  1.00  0.00     0.164 C 
BRANCH  17  19
ATOM     19  C   UNL A   1      34.156  22.273  24.760  1.00  0.00     0.053 A 
ATOM     20  C   UNL A   1      36.410  21.380  24.505  1.00  0.00     0.026 A 
ATOM     21  C   UNL A   1      36.767  22.437  23.666  1.00  0.00     0.017 A 
ATOM     22  C   UNL A   1      35.113  21.294  25.044  1.00  0.00     0.044 A 
ATOM     23  C   UNL A   1      35.839  23.427  23.383  1.00  0.00     0.003 A 
ATOM     24  C   UNL A   1      34.565  23.359  23.953  1.00  0.00     0.027 A 
BRANCH  20  25
ATOM     25  C   UNL A   1      37.393  20.392  24.823  1.00  0.00    -0.070 C 
ATOM     26  C   UNL A   1      38.223  19.573  25.121  1.00  0.00     0.010 C 
ENDBRANCH  20  25
ENDBRANCH  17  19
ENDBRANCH  14  17
ENDBRANCH   7  14
ENDBRANCH   3   6
ENDBRANCH   1   2
BRANCH   1  27
ATOM     27  C   UNL A   1      31.862  30.375  26.916  1.00  0.00     0.023 C 
BRANCH  27  28
ATOM     28  C   UNL A   1      31.789  31.873  26.703  1.00  0.00     0.023 C 
BRANCH  28  29
ATOM     29  C   UNL A   1      32.872  32.695  27.388  1.00  0.00     0.116 C 
BRANCH  29  30
ATOM     30  N   UNL A   1      32.486  34.065  27.712  1.00  0.00    -0.352 N 
ATOM     31  C   UNL A   1      33.042  34.924  28.638  1.00  0.00     0.251 C 
ATOM     32  H   UNL A   1      31.725  34.425  27.200  1.00  0.00     0.163 HD
ATOM     33  O   UNL A   1      32.543  36.027  28.840  1.00  0.00    -0.269 OA
BRANCH  31  34
ATOM     34  C   UNL A   1      34.217  34.480  29.418  1.00  0.00     0.039 A 
ATOM     35  C   UNL A   1      34.023  33.839  30.643  1.00  0.00     0.014 A 
ATOM     36  C   UNL A   1      35.502  34.613  28.889  1.00  0.00     0.014 A 
ATOM     37  C   UNL A   1      35.110  33.238  31.284  1.00  0.00     0.010 A 
ATOM     38  C   UNL A   1      36.558  33.917  29.468  1.00  0.00     0.010 A 
ATOM     39  C   UNL A   1      36.375  33.220  30.671  1.00  0.00    -0.014 A 
BRANCH  39  40
ATOM     40  C   UNL A   1      37.517  32.475  31.264  1.00  0.00     0.031 A 
ATOM     41  C   UNL A   1      38.033  32.847  32.626  1.00  0.00     0.074 A 
ATOM     42  C   UNL A   1      38.128  31.505  30.553  1.00  0.00     0.049 A 
ATOM     43  N   UNL A   1      39.052  32.356  33.287  1.00  0.00    -0.248 NA
ATOM     44  C   UNL A   1      37.333  33.933  33.331  1.00  0.00     0.031 C 
ATOM     45  C   UNL A   1      37.751  31.084  29.202  1.00  0.00     0.029 A 
ATOM     46  N   UNL A   1      39.195  30.698  30.863  1.00  0.00    -0.354 N 
ATOM     47  C   UNL A   1      39.111  33.072  34.475  1.00  0.00     0.074 A 
ATOM     48  C   UNL A   1      38.077  34.081  34.416  1.00  0.00     0.031 C 
ATOM     49  C   UNL A   1      38.543  30.071  28.819  1.00  0.00     0.029 A 
ATOM     50  C   UNL A   1      39.520  29.803  29.871  1.00  0.00     0.049 A 
ATOM     51  H   UNL A   1      39.683  30.756  31.717  1.00  0.00     0.167 HD
ATOM     52  C   UNL A   1      39.931  32.883  35.533  1.00  0.00     0.037 A 
ATOM     53  C   UNL A   1      40.496  28.876  29.812  1.00  0.00     0.037 A 
ATOM     54  C   UNL A   1      40.945  31.863  35.594  1.00  0.00     0.049 A 
ATOM     55  C   UNL A   1      41.421  28.710  30.988  1.00  0.00     0.074 A 
ATOM     56  C   UNL A   1      41.795  31.560  36.642  1.00  0.00     0.029 A 
ATOM     57  N   UNL A   1      41.249  30.984  34.564  1.00  0.00    -0.354 N 
ATOM     58  N   UNL A   1      41.423  29.349  32.133  1.00  0.00    -0.248 NA
ATOM     59  C   UNL A   1      42.478  27.695  30.868  1.00  0.00     0.031 C 
ATOM     60  C   UNL A   1      42.661  30.548  36.224  1.00  0.00     0.029 A 
ATOM     61  C   UNL A   1      42.299  30.162  34.942  1.00  0.00     0.049 A 
ATOM     62  H   UNL A   1      40.788  30.949  33.696  1.00  0.00     0.167 HD
ATOM     63  C   UNL A   1      42.456  28.796  32.879  1.00  0.00     0.074 A 
ATOM     64  C   UNL A   1      43.050  27.757  32.062  1.00  0.00     0.031 C 
ATOM     65  C   UNL A   1      42.875  29.123  34.125  1.00  0.00     0.037 A 
BRANCH  52  66
ATOM     66  C   UNL A   1      39.764  33.780  36.727  1.00  0.00     0.064 A 
ATOM     67  C   UNL A   1      38.930  33.403  37.791  1.00  0.00     0.173 A 
ATOM     68  C   UNL A   1      40.360  35.049  36.782  1.00  0.00     0.173 A 
ATOM     69  F   UNL A   1      38.331  32.202  37.790  1.00  0.00    -0.203 F 
ATOM     70  C   UNL A   1      38.682  34.271  38.851  1.00  0.00     0.198 A 
ATOM     71  C   UNL A   1      40.141  35.900  37.862  1.00  0.00     0.198 A 
ATOM     72  F   UNL A   1      41.177  35.454  35.797  1.00  0.00    -0.203 F 
ATOM     73  F   UNL A   1      37.846  33.906  39.833  1.00  0.00    -0.200 F 
ATOM     74  C   UNL A   1      39.291  35.516  38.888  1.00  0.00     0.200 A 
ATOM     75  F   UNL A   1      40.753  37.091  37.910  1.00  0.00    -0.200 F 
ATOM     76  F   UNL A   1      39.059  36.347  39.914  1.00  0.00    -0.200 F 
ENDBRANCH  52  66
BRANCH  53  77
ATOM     77  C   UNL A   1      40.619  28.009  28.607  1.00  0.00     0.064 A 
ATOM     78  C   UNL A   1      41.369  28.408  27.490  1.00  0.00     0.173 A 
ATOM     79  C   UNL A   1      39.958  26.774  28.537  1.00  0.00     0.173 A 
ATOM     80  F   UNL A   1      42.019  29.581  27.500  1.00  0.00    -0.203 F 
ATOM     81  C   UNL A   1      41.430  27.619  26.342  1.00  0.00     0.198 A 
ATOM     82  C   UNL A   1      40.047  25.970  27.402  1.00  0.00     0.198 A 
ATOM     83  F   UNL A   1      39.244  26.337  29.585  1.00  0.00    -0.203 F 
ATOM     84  F   UNL A   1      42.115  28.048  25.274  1.00  0.00    -0.200 F 
ATOM     85  C   UNL A   1      40.773  26.399  26.301  1.00  0.00     0.200 A 
ATOM     86  F   UNL A   1      39.434  24.780  27.378  1.00  0.00    -0.200 F 
ATOM     87  F   UNL A   1      40.841  25.636  25.202  1.00  0.00    -0.200 F 
ENDBRANCH  53  77
BRANCH  65  88
ATOM     88  C   UNL A   1      44.017  28.342  34.714  1.00  0.00     0.064 A 
ATOM     89  C   UNL A   1      43.769  27.177  35.459  1.00  0.00     0.173 A 
ATOM     90  C   UNL A   1      45.340  28.796  34.631  1.00  0.00     0.173 A 
ATOM     91  F   UNL A   1      42.519  26.704  35.580  1.00  0.00    -0.203 F 
ATOM     92  C   UNL A   1      44.799  26.514  36.118  1.00  0.00     0.198 A 
ATOM     93  C   UNL A   1      46.375  28.108  35.261  1.00  0.00     0.198 A 
ATOM     94  F   UNL A   1      45.633  29.898  33.925  1.00  0.00    -0.203 F 
ATOM     95  F   UNL A   1      44.529  25.435  36.867  1.00  0.00    -0.200 F 
ATOM     96  C   UNL A   1      46.102  26.977  36.016  1.00  0.00     0.200 A 
ATOM     97  F   UNL A   1      47.637  28.542  35.139  1.00  0.00    -0.200 F 
ATOM     98  F   UNL A   1      47.095  26.333  36.645  1.00  0.00    -0.200 F 
ENDBRANCH  65  88
ENDBRANCH  39  40
ENDBRANCH  31  34
ENDBRANCH  29  30
ENDBRANCH  28  29
ENDBRANCH  27  28
ENDBRANCH   1  27
TORSDOF 15
ENDMDL
MODEL 3
REMARK VINA RESULT:     -13.3      5.158     10.654
REMARK SMILES C#Cc1cccc(N(C)S(=O)(=O)c2cc(F)c(F)c(C(=O)NCCCCNC(=O)c3ccc(-c4c5nc(c(-c6c(F)c(F)c(F)c(F)c6F)c6ccc([nH]6)c(-c6c(F)c(F)c(F)c(F)c6F)c6nc(c(-c7c(F)c(F)c(F)c(F)c7F)c7ccc4[nH]7)C=C6)C=C5)cc3)c2)c1
REMARK SMILES IDX 23 1 22 2 20 3 21 4 19 6 13 7 14 8 93 9 15 10 16 11 17 12
REMARK SMILES IDX 18 13 10 14 11 15 12 16 8 17 9 18 7 19 3 20 4 21 94 22 5 23
REMARK SMILES IDX 6 24 2 25 1 26 24 27 25 28 26 29 27 30 28 31 29 33 30 34
REMARK SMILES IDX 31 35 92 36 32 37 91 38 33 39 34 40 35 41 85 42 36 43 90 44
REMARK SMILES IDX 84 45 86 46 37 47 89 48 83 49 82 50 38 52 70 53 50 54 69 55
REMARK SMILES IDX 51 56 54 57 68 58 87 59 52 60 53 61 67 63 88 64 55 65 39 66
REMARK SMILES IDX 40 67 48 68 41 69 42 70 46 71 49 72 43 73 44 74 47 75 45 76
REMARK SMILES IDX 71 77 72 78 80 79 73 80 74 81 78 82 81 83 75 84 76 85 79 86
REMARK SMILES IDX 77 87 56 88 57 89 65 90 58 91 59 92 63 93 66 94 60 95 61 96
REMARK SMILES IDX 64 97 62 98
REMARK H PARENT 22 5 27 32 86 51 54 62
REMARK Flexibility Score: inf
ROOT
ATOM      1  C   UNL A   1      36.932  22.407  25.429  1.00  0.00     0.116 C 
ENDROOT
BRANCH   1   2
ATOM      2  N   UNL A   1      36.099  22.065  26.545  1.00  0.00    -0.352 N 
ATOM      3  C   UNL A   1      34.720  21.905  26.577  1.00  0.00     0.254 C 
ATOM      4  O   UNL A   1      34.229  21.499  27.628  1.00  0.00    -0.269 OA
ATOM      5  H   UNL A   1      36.565  21.924  27.400  1.00  0.00     0.163 HD
BRANCH   3   6
ATOM      6  C   UNL A   1      33.823  22.274  25.421  1.00  0.00     0.079 A 
ATOM      7  C   UNL A   1      32.207  23.746  24.314  1.00  0.00     0.091 A 
ATOM      8  C   UNL A   1      31.838  22.686  23.472  1.00  0.00     0.064 A 
ATOM      9  C   UNL A   1      33.282  23.566  25.196  1.00  0.00     0.039 A 
ATOM     10  C   UNL A   1      32.502  21.467  23.560  1.00  0.00     0.161 A 
ATOM     11  F   UNL A   1      32.172  20.483  22.714  1.00  0.00    -0.204 F 
ATOM     12  C   UNL A   1      33.455  21.242  24.548  1.00  0.00     0.171 A 
ATOM     13  F   UNL A   1      33.974  20.010  24.657  1.00  0.00    -0.203 F 
BRANCH   7  14
ATOM     14  S   UNL A   1      31.103  25.189  24.284  1.00  0.00     0.264 S 
ATOM     15  O   UNL A   1      30.754  25.391  25.678  1.00  0.00    -0.201 OA
ATOM     16  O   UNL A   1      30.091  24.874  23.298  1.00  0.00    -0.201 OA
BRANCH  14  17
ATOM     17  N   UNL A   1      31.927  26.616  23.773  1.00  0.00    -0.269 N 
ATOM     18  C   UNL A   1      32.870  26.462  22.665  1.00  0.00     0.164 C 
BRANCH  17  19
ATOM     19  C   UNL A   1      32.406  27.566  24.800  1.00  0.00     0.053 A 
ATOM     20  C   UNL A   1      32.337  29.646  26.071  1.00  0.00     0.026 A 
ATOM     21  C   UNL A   1      33.457  29.267  26.813  1.00  0.00     0.017 A 
ATOM     22  C   UNL A   1      31.811  28.802  25.076  1.00  0.00     0.044 A 
ATOM     23  C   UNL A   1      34.072  28.054  26.547  1.00  0.00     0.003 A 
ATOM     24  C   UNL A   1      33.570  27.236  25.531  1.00  0.00     0.027 A 
BRANCH  20  25
ATOM     25  C   UNL A   1      31.741  30.920  26.327  1.00  0.00    -0.070 C 
ATOM     26  C   UNL A   1      31.267  32.002  26.559  1.00  0.00     0.010 C 
ENDBRANCH  20  25
ENDBRANCH  17  19
ENDBRANCH  14  17
ENDBRANCH   7  14
ENDBRANCH   3   6
ENDBRANCH   1   2
BRANCH   1  27
ATOM     27  C   UNL A   1      37.381  21.322  24.464  1.00  0.00     0.023 C 
BRANCH  27  28
ATOM     28  C   UNL A   1      38.040  20.097  25.064  1.00  0.00     0.023 C 
BRANCH  28  29
ATOM     29  C   UNL A   1      39.338  20.344  25.820  1.00  0.00     0.116 C 
BRANCH  29  30
ATOM     30  N   UNL A   1      40.261  19.213  25.835  1.00  0.00    -0.352 N 
ATOM     31  C   UNL A   1      41.612  19.204  26.117  1.00  0.00     0.251 C 
ATOM     32  H   UNL A   1      39.866  18.339  25.614  1.00  0.00     0.163 HD
ATOM     33  O   UNL A   1      42.261  18.168  26.010  1.00  0.00    -0.269 OA
BRANCH  31  34
ATOM     34  C   UNL A   1      42.276  20.468  26.504  1.00  0.00     0.039 A 
ATOM     35  C   UNL A   1      42.829  21.281  25.513  1.00  0.00     0.014 A 
ATOM     36  C   UNL A   1      42.265  20.889  27.835  1.00  0.00     0.014 A 
ATOM     37  C   UNL A   1      43.272  22.563  25.845  1.00  0.00     0.010 A 
ATOM     38  C   UNL A   1      42.599  22.203  28.141  1.00  0.00     0.010 A 
ATOM     39  C   UNL A   1      43.105  23.057  27.151  1.00  0.00    -0.014 A 
BRANCH  39  40
ATOM     40  C   UNL A   1      43.444  24.461  27.502  1.00  0.00     0.031 A 
ATOM     41  C   UNL A   1      44.882  24.898  27.559  1.00  0.00     0.074 A 
ATOM     42  C   UNL A   1      42.463  25.328  27.828  1.00  0.00     0.049 A 
ATOM     43  N   UNL A   1      45.381  26.059  27.900  1.00  0.00    -0.248 NA
ATOM     44  C   UNL A   1      45.899  23.890  27.215  1.00  0.00     0.031 C 
ATOM     45  C   UNL A   1      41.034  25.014  27.857  1.00  0.00     0.029 A 
ATOM     46  N   UNL A   1      42.516  26.650  28.201  1.00  0.00    -0.354 N 
ATOM     47  C   UNL A   1      46.759  25.918  27.813  1.00  0.00     0.074 A 
ATOM     48  C   UNL A   1      47.025  24.541  27.462  1.00  0.00     0.031 C 
ATOM     49  C   UNL A   1      40.345  26.118  28.182  1.00  0.00     0.029 A 
ATOM     50  C   UNL A   1      41.283  27.208  28.440  1.00  0.00     0.049 A 
ATOM     51  H   UNL A   1      43.360  27.150  28.289  1.00  0.00     0.167 HD
ATOM     52  C   UNL A   1      47.716  26.860  27.977  1.00  0.00     0.037 A 
ATOM     53  C   UNL A   1      40.944  28.454  28.828  1.00  0.00     0.037 A 
ATOM     54  C   UNL A   1      47.444  28.234  28.307  1.00  0.00     0.049 A 
ATOM     55  C   UNL A   1      42.030  29.474  29.042  1.00  0.00     0.074 A 
ATOM     56  C   UNL A   1      48.342  29.276  28.448  1.00  0.00     0.029 A 
ATOM     57  N   UNL A   1      46.182  28.757  28.551  1.00  0.00    -0.354 N 
ATOM     58  N   UNL A   1      43.326  29.345  28.890  1.00  0.00    -0.248 NA
ATOM     59  C   UNL A   1      41.610  30.814  29.477  1.00  0.00     0.031 C 
ATOM     60  C   UNL A   1      47.635  30.412  28.847  1.00  0.00     0.029 A 
ATOM     61  C   UNL A   1      46.284  30.100  28.876  1.00  0.00     0.049 A 
ATOM     62  H   UNL A   1      45.340  28.250  28.500  1.00  0.00     0.167 HD
ATOM     63  C   UNL A   1      43.872  30.589  29.181  1.00  0.00     0.074 A 
ATOM     64  C   UNL A   1      42.765  31.465  29.503  1.00  0.00     0.031 C 
ATOM     65  C   UNL A   1      45.174  30.966  29.185  1.00  0.00     0.037 A 
BRANCH  52  66
ATOM     66  C   UNL A   1      49.150  26.453  27.788  1.00  0.00     0.064 A 
ATOM     67  C   UNL A   1      49.986  26.251  28.898  1.00  0.00     0.173 A 
ATOM     68  C   UNL A   1      49.721  26.344  26.511  1.00  0.00     0.173 A 
ATOM     69  F   UNL A   1      49.494  26.346  30.143  1.00  0.00    -0.203 F 
ATOM     70  C   UNL A   1      51.341  25.979  28.735  1.00  0.00     0.198 A 
ATOM     71  C   UNL A   1      51.069  26.034  26.351  1.00  0.00     0.198 A 
ATOM     72  F   UNL A   1      48.964  26.513  25.416  1.00  0.00    -0.203 F 
ATOM     73  F   UNL A   1      52.129  25.836  29.809  1.00  0.00    -0.200 F 
ATOM     74  C   UNL A   1      51.881  25.867  27.462  1.00  0.00     0.200 A 
ATOM     75  F   UNL A   1      51.581  25.897  25.121  1.00  0.00    -0.200 F 
ATOM     76  F   UNL A   1      53.184  25.595  27.306  1.00  0.00    -0.200 F 
ENDBRANCH  52  66
BRANCH  53  77
ATOM     77  C   UNL A   1      39.509  28.808  28.999  1.00  0.00     0.064 A 
ATOM     78  C   UNL A   1      38.743  29.302  27.932  1.00  0.00     0.173 A 
ATOM     79  C   UNL A   1      38.881  28.690  30.248  1.00  0.00     0.173 A 
ATOM     80  F   UNL A   1      39.292  29.440  26.717  1.00  0.00    -0.203 F 
ATOM     81  C   UNL A   1      37.415  29.689  28.114  1.00  0.00     0.198 A 
ATOM     82  C   UNL A   1      37.544  29.045  30.421  1.00  0.00     0.198 A 
ATOM     83  F   UNL A   1      39.563  28.204  31.296  1.00  0.00    -0.203 F 
ATOM     84  F   UNL A   1      36.723  30.201  27.088  1.00  0.00    -0.200 F 
ATOM     85  C   UNL A   1      36.816  29.555  29.357  1.00  0.00     0.200 A 
ATOM     86  F   UNL A   1      36.962  28.888  31.617  1.00  0.00    -0.200 F 
ATOM     87  F   UNL A   1      35.538  29.917  29.529  1.00  0.00    -0.200 F 
ENDBRANCH  53  77
BRANCH  65  88
ATOM     88  C   UNL A   1      45.492  32.397  29.521  1.00  0.00     0.064 A 
ATOM     89  C   UNL A   1      45.553  33.366  28.506  1.00  0.00     0.173 A 
ATOM     90  C   UNL A   1      45.836  32.788  30.822  1.00  0.00     0.173 A 
ATOM     91  F   UNL A   1      45.245  33.043  27.241  1.00  0.00    -0.203 F 
ATOM     92  C   UNL A   1      45.972  34.665  28.779  1.00  0.00     0.198 A 
ATOM     93  C   UNL A   1      46.218  34.099  31.098  1.00  0.00     0.198 A 
ATOM     94  F   UNL A   1      45.786  31.904  31.829  1.00  0.00    -0.203 F 
ATOM     95  F   UNL A   1      46.074  35.558  27.784  1.00  0.00    -0.200 F 
ATOM     96  C   UNL A   1      46.300  35.033  30.075  1.00  0.00     0.200 A 
ATOM     97  F   UNL A   1      46.509  34.459  32.356  1.00  0.00    -0.200 F 
ATOM     98  F   UNL A   1      46.696  36.285  30.338  1.00  0.00    -0.200 F 
ENDBRANCH  65  88
ENDBRANCH  39  40
ENDBRANCH  31  34
ENDBRANCH  29  30
ENDBRANCH  28  29
ENDBRANCH  27  28
ENDBRANCH   1  27
TORSDOF 15
ENDMDL
