MODEL 1
REMARK VINA RESULT:     -12.5      0.000      0.000
REMARK SMILES Cc1noc(-c2ccc(CCl)cc2)c1C(=O)NCCCCNC(=O)c1ccc(-c2c3nc(c(-c4c(F)c(F)c(F)c(F)c4F)c4ccc([nH]4)c(-c4c(F)c(F)c(F)c(F)c4F)c4nc(c(-c5c(F)c(F)c(F)c(F)c5F)c5ccc2[nH]5)C=C4)C=C3)cc1
REMARK SMILES IDX 19 1 18 2 17 3 15 4 16 5 14 7 1 8 2 9 3 10 4 11 5 12 6 13
REMARK SMILES IDX 7 14 13 15 8 16 12 17 9 18 10 19 11 20 20 21 21 22 22 23
REMARK SMILES IDX 23 24 24 26 25 27 26 28 87 29 27 30 86 31 28 32 29 33 30 34
REMARK SMILES IDX 80 35 31 36 85 37 79 38 81 39 32 40 84 41 78 42 77 43 33 45
REMARK SMILES IDX 65 46 45 47 64 48 46 49 49 50 63 51 82 52 47 53 48 54 62 56
REMARK SMILES IDX 83 57 50 58 34 59 35 60 43 61 36 62 37 63 41 64 44 65 38 66
REMARK SMILES IDX 39 67 42 68 40 69 66 70 67 71 75 72 68 73 69 74 73 75 76 76
REMARK SMILES IDX 70 77 71 78 74 79 72 80 51 81 52 82 60 83 53 84 54 85 58 86
REMARK SMILES IDX 61 87 55 88 56 89 59 90 57 91
REMARK H PARENT 17 6 22 25 81 44 49 55
REMARK Flexibility Score: inf
ROOT
ATOM      1  C   UNL A   1      32.015  30.217  26.968  1.00  0.00     0.023 C 
ENDROOT
BRANCH   1   2
ATOM      2  C   UNL A   1      33.428  29.716  26.692  1.00  0.00     0.116 C 
BRANCH   2   3
ATOM      3  N   UNL A   1      33.778  29.621  25.294  1.00  0.00    -0.352 N 
ATOM      4  C   UNL A   1      33.251  28.884  24.260  1.00  0.00     0.257 C 
ATOM      5  O   UNL A   1      33.798  29.058  23.169  1.00  0.00    -0.269 OA
ATOM      6  H   UNL A   1      34.535  30.192  25.033  1.00  0.00     0.163 HD
BRANCH   4   7
ATOM      7  C   UNL A   1      32.160  27.932  24.419  1.00  0.00     0.110 A 
ATOM      8  C   UNL A   1      32.913  25.878  25.947  1.00  0.00     0.071 C 
ATOM      9  C   UNL A   1      32.003  26.672  25.089  1.00  0.00     0.094 A 
ATOM     10  N   UNL A   1      30.766  26.181  24.935  1.00  0.00    -0.084 NA
ATOM     11  O   UNL A   1      30.056  27.144  24.270  1.00  0.00    -0.355 OA
ATOM     12  C   UNL A   1      30.863  28.200  23.991  1.00  0.00     0.179 A 
BRANCH  12  13
ATOM     13  C   UNL A   1      30.163  29.313  23.370  1.00  0.00     0.021 A 
ATOM     14  C   UNL A   1      29.756  30.396  24.162  1.00  0.00     0.012 A 
ATOM     15  C   UNL A   1      29.863  29.324  22.005  1.00  0.00     0.012 A 
ATOM     16  C   UNL A   1      29.073  31.477  23.599  1.00  0.00     0.006 A 
ATOM     17  C   UNL A   1      29.168  30.402  21.441  1.00  0.00     0.006 A 
ATOM     18  C   UNL A   1      28.770  31.491  22.231  1.00  0.00    -0.033 A 
BRANCH  18  19
ATOM     19  C   UNL A   1      28.041  32.660  21.625  1.00  0.00     0.145 C 
ATOM     20  Cl  UNL A   1      27.742  32.399  19.894  1.00  0.00    -0.122 Cl
ENDBRANCH  18  19
ENDBRANCH  12  13
ENDBRANCH   4   7
ENDBRANCH   2   3
ENDBRANCH   1   2
BRANCH   1  21
ATOM     21  C   UNL A   1      31.769  31.719  26.854  1.00  0.00     0.023 C 
BRANCH  21  22
ATOM     22  C   UNL A   1      32.900  32.639  27.295  1.00  0.00     0.116 C 
BRANCH  22  23
ATOM     23  N   UNL A   1      32.474  33.983  27.658  1.00  0.00    -0.352 N 
ATOM     24  C   UNL A   1      33.006  34.858  28.577  1.00  0.00     0.251 C 
ATOM     25  H   UNL A   1      31.685  34.316  27.172  1.00  0.00     0.163 HD
ATOM     26  O   UNL A   1      32.469  35.946  28.774  1.00  0.00    -0.269 OA
BRANCH  24  27
ATOM     27  C   UNL A   1      34.193  34.473  29.370  1.00  0.00     0.039 A 
ATOM     28  C   UNL A   1      34.002  33.890  30.626  1.00  0.00     0.014 A 
ATOM     29  C   UNL A   1      35.483  34.644  28.865  1.00  0.00     0.014 A 
ATOM     30  C   UNL A   1      35.097  33.382  31.328  1.00  0.00     0.010 A 
ATOM     31  C   UNL A   1      36.564  34.068  29.527  1.00  0.00     0.010 A 
ATOM     32  C   UNL A   1      36.380  33.418  30.759  1.00  0.00    -0.014 A 
BRANCH  32  33
ATOM     33  C   UNL A   1      37.540  32.766  31.418  1.00  0.00     0.031 A 
ATOM     34  C   UNL A   1      38.237  31.613  30.751  1.00  0.00     0.074 A 
ATOM     35  C   UNL A   1      37.910  33.152  32.655  1.00  0.00     0.049 A 
ATOM     36  N   UNL A   1      39.194  30.846  31.209  1.00  0.00    -0.248 NA
ATOM     37  C   UNL A   1      37.773  31.254  29.403  1.00  0.00     0.031 C 
ATOM     38  C   UNL A   1      37.278  34.219  33.434  1.00  0.00     0.029 A 
ATOM     39  N   UNL A   1      38.897  32.678  33.485  1.00  0.00    -0.354 N 
ATOM     40  C   UNL A   1      39.426  29.902  30.218  1.00  0.00     0.074 A 
ATOM     41  C   UNL A   1      38.480  30.162  29.154  1.00  0.00     0.031 C 
ATOM     42  C   UNL A   1      37.905  34.332  34.616  1.00  0.00     0.029 A 
ATOM     43  C   UNL A   1      38.957  33.325  34.695  1.00  0.00     0.049 A 
ATOM     44  H   UNL A   1      39.504  31.945  33.235  1.00  0.00     0.167 HD
ATOM     45  C   UNL A   1      40.360  28.922  30.187  1.00  0.00     0.037 A 
ATOM     46  C   UNL A   1      39.767  33.123  35.753  1.00  0.00     0.037 A 
ATOM     47  C   UNL A   1      41.327  28.690  31.227  1.00  0.00     0.049 A 
ATOM     48  C   UNL A   1      40.812  32.042  35.682  1.00  0.00     0.074 A 
ATOM     49  C   UNL A   1      42.357  27.766  31.259  1.00  0.00     0.029 A 
ATOM     50  N   UNL A   1      41.384  29.395  32.421  1.00  0.00    -0.354 N 
ATOM     51  N   UNL A   1      41.066  31.199  34.713  1.00  0.00    -0.248 NA
ATOM     52  C   UNL A   1      41.689  31.891  36.853  1.00  0.00     0.031 C 
ATOM     53  C   UNL A   1      43.018  27.890  32.486  1.00  0.00     0.029 A 
ATOM     54  C   UNL A   1      42.425  28.918  33.201  1.00  0.00     0.049 A 
ATOM     55  H   UNL A   1      40.776  30.126  32.675  1.00  0.00     0.167 HD
ATOM     56  C   UNL A   1      42.146  30.439  35.140  1.00  0.00     0.074 A 
ATOM     57  C   UNL A   1      42.506  30.927  36.455  1.00  0.00     0.031 C 
ATOM     58  C   UNL A   1      42.780  29.427  34.501  1.00  0.00     0.037 A 
BRANCH  45  59
ATOM     59  C   UNL A   1      40.387  28.031  28.981  1.00  0.00     0.064 A 
ATOM     60  C   UNL A   1      41.149  28.353  27.848  1.00  0.00     0.173 A 
ATOM     61  C   UNL A   1      39.668  26.826  28.968  1.00  0.00     0.173 A 
ATOM     62  F   UNL A   1      41.843  29.500  27.805  1.00  0.00    -0.203 F 
ATOM     63  C   UNL A   1      41.165  27.517  26.734  1.00  0.00     0.198 A 
ATOM     64  C   UNL A   1      39.711  25.978  27.865  1.00  0.00     0.198 A 
ATOM     65  F   UNL A   1      38.929  26.467  30.028  1.00  0.00    -0.203 F 
ATOM     66  F   UNL A   1      41.860  27.871  25.644  1.00  0.00    -0.200 F 
ATOM     67  C   UNL A   1      40.453  26.328  26.746  1.00  0.00     0.200 A 
ATOM     68  F   UNL A   1      39.031  24.824  27.881  1.00  0.00    -0.200 F 
ATOM     69  F   UNL A   1      40.474  25.523  25.675  1.00  0.00    -0.200 F 
ENDBRANCH  45  59
BRANCH  46  70
ATOM     70  C   UNL A   1      39.646  33.984  36.956  1.00  0.00     0.064 A 
ATOM     71  C   UNL A   1      38.869  33.582  38.051  1.00  0.00     0.173 A 
ATOM     72  C   UNL A   1      40.299  35.223  37.038  1.00  0.00     0.173 A 
ATOM     73  F   UNL A   1      38.209  32.414  38.009  1.00  0.00    -0.203 F 
ATOM     74  C   UNL A   1      38.732  34.394  39.175  1.00  0.00     0.198 A 
ATOM     75  C   UNL A   1      40.182  36.023  38.174  1.00  0.00     0.198 A 
ATOM     76  F   UNL A   1      41.059  35.651  36.020  1.00  0.00    -0.203 F 
ATOM     77  F   UNL A   1      37.948  34.003  40.189  1.00  0.00    -0.200 F 
ATOM     78  C   UNL A   1      39.393  35.611  39.237  1.00  0.00     0.200 A 
ATOM     79  F   UNL A   1      40.832  37.193  38.237  1.00  0.00    -0.200 F 
ATOM     80  F   UNL A   1      39.263  36.390  40.320  1.00  0.00    -0.200 F 
ENDBRANCH  46  70
BRANCH  58  81
ATOM     81  C   UNL A   1      43.957  28.805  35.193  1.00  0.00     0.064 A 
ATOM     82  C   UNL A   1      43.811  27.691  36.030  1.00  0.00     0.173 A 
ATOM     83  C   UNL A   1      45.250  29.303  34.976  1.00  0.00     0.173 A 
ATOM     84  F   UNL A   1      42.593  27.188  36.281  1.00  0.00    -0.203 F 
ATOM     85  C   UNL A   1      44.919  27.109  36.642  1.00  0.00     0.198 A 
ATOM     86  C   UNL A   1      46.356  28.704  35.568  1.00  0.00     0.198 A 
ATOM     87  F   UNL A   1      45.441  30.365  34.178  1.00  0.00    -0.203 F 
ATOM     88  F   UNL A   1      44.754  26.069  37.470  1.00  0.00    -0.200 F 
ATOM     89  C   UNL A   1      46.190  27.611  36.404  1.00  0.00     0.200 A 
ATOM     90  F   UNL A   1      47.585  29.183  35.329  1.00  0.00    -0.200 F 
ATOM     91  F   UNL A   1      47.255  27.043  36.988  1.00  0.00    -0.200 F 
ENDBRANCH  58  81
ENDBRANCH  32  33
ENDBRANCH  24  27
ENDBRANCH  22  23
ENDBRANCH  21  22
ENDBRANCH   1  21
TORSDOF 13
ENDMDL
MODEL 2
REMARK VINA RESULT:     -12.4      6.784     11.990
REMARK SMILES Cc1noc(-c2ccc(CCl)cc2)c1C(=O)NCCCCNC(=O)c1ccc(-c2c3nc(c(-c4c(F)c(F)c(F)c(F)c4F)c4ccc([nH]4)c(-c4c(F)c(F)c(F)c(F)c4F)c4nc(c(-c5c(F)c(F)c(F)c(F)c5F)c5ccc2[nH]5)C=C4)C=C3)cc1
REMARK SMILES IDX 19 1 18 2 17 3 15 4 16 5 14 7 1 8 2 9 3 10 4 11 5 12 6 13
REMARK SMILES IDX 7 14 13 15 8 16 12 17 9 18 10 19 11 20 20 21 21 22 22 23
REMARK SMILES IDX 23 24 24 26 25 27 26 28 87 29 27 30 86 31 28 32 29 33 30 34
REMARK SMILES IDX 80 35 31 36 85 37 79 38 81 39 32 40 84 41 78 42 77 43 33 45
REMARK SMILES IDX 65 46 45 47 64 48 46 49 49 50 63 51 82 52 47 53 48 54 62 56
REMARK SMILES IDX 83 57 50 58 34 59 35 60 43 61 36 62 37 63 41 64 44 65 38 66
REMARK SMILES IDX 39 67 42 68 40 69 66 70 67 71 75 72 68 73 69 74 73 75 76 76
REMARK SMILES IDX 70 77 71 78 74 79 72 80 51 81 52 82 60 83 53 84 54 85 58 86
REMARK SMILES IDX 61 87 55 88 56 89 59 90 57 91
REMARK H PARENT 17 6 22 25 81 44 49 55
REMARK Flexibility Score: inf
ROOT
ATOM      1  C   UNL A   1      37.346  21.359  24.538  1.00  0.00     0.023 C 
ENDROOT
BRANCH   1   2
ATOM      2  C   UNL A   1      37.166  22.494  25.539  1.00  0.00     0.116 C 
BRANCH   2   3
ATOM      3  N   UNL A   1      36.161  22.262  26.549  1.00  0.00    -0.352 N 
ATOM      4  C   UNL A   1      34.797  22.108  26.474  1.00  0.00     0.257 C 
ATOM      5  O   UNL A   1      34.238  21.909  27.555  1.00  0.00    -0.269 OA
ATOM      6  H   UNL A   1      36.520  22.200  27.463  1.00  0.00     0.163 HD
BRANCH   4   7
ATOM      7  C   UNL A   1      34.039  22.212  25.234  1.00  0.00     0.110 A 
ATOM      8  C   UNL A   1      34.085  24.712  24.302  1.00  0.00     0.071 C 
ATOM      9  C   UNL A   1      33.709  23.279  24.332  1.00  0.00     0.094 A 
ATOM     10  N   UNL A   1      32.968  22.846  23.303  1.00  0.00    -0.084 NA
ATOM     11  O   UNL A   1      32.892  21.485  23.437  1.00  0.00    -0.355 OA
ATOM     12  C   UNL A   1      33.553  21.096  24.558  1.00  0.00     0.179 A 
BRANCH  12  13
ATOM     13  C   UNL A   1      33.604  19.652  24.725  1.00  0.00     0.021 A 
ATOM     14  C   UNL A   1      32.554  19.000  25.387  1.00  0.00     0.012 A 
ATOM     15  C   UNL A   1      34.684  18.896  24.263  1.00  0.00     0.012 A 
ATOM     16  C   UNL A   1      32.575  17.616  25.573  1.00  0.00     0.006 A 
ATOM     17  C   UNL A   1      34.713  17.509  24.459  1.00  0.00     0.006 A 
ATOM     18  C   UNL A   1      33.657  16.854  25.111  1.00  0.00    -0.033 A 
BRANCH  18  19
ATOM     19  C   UNL A   1      33.676  15.362  25.305  1.00  0.00     0.145 C 
ATOM     20  Cl  UNL A   1      32.064  14.754  25.738  1.00  0.00    -0.122 Cl
ENDBRANCH  18  19
ENDBRANCH  12  13
ENDBRANCH   4   7
ENDBRANCH   2   3
ENDBRANCH   1   2
BRANCH   1  21
ATOM     21  C   UNL A   1      38.095  20.117  25.013  1.00  0.00     0.023 C 
BRANCH  21  22
ATOM     22  C   UNL A   1      39.331  20.344  25.874  1.00  0.00     0.116 C 
BRANCH  22  23
ATOM     23  N   UNL A   1      40.271  19.232  25.878  1.00  0.00    -0.352 N 
ATOM     24  C   UNL A   1      41.623  19.223  26.133  1.00  0.00     0.251 C 
ATOM     25  H   UNL A   1      39.880  18.354  25.666  1.00  0.00     0.163 HD
ATOM     26  O   UNL A   1      42.259  18.176  26.043  1.00  0.00    -0.269 OA
BRANCH  24  27
ATOM     27  C   UNL A   1      42.326  20.481  26.464  1.00  0.00     0.039 A 
ATOM     28  C   UNL A   1      42.922  21.209  25.431  1.00  0.00     0.014 A 
ATOM     29  C   UNL A   1      42.362  20.963  27.774  1.00  0.00     0.014 A 
ATOM     30  C   UNL A   1      43.461  22.472  25.694  1.00  0.00     0.010 A 
ATOM     31  C   UNL A   1      42.827  22.252  28.021  1.00  0.00     0.010 A 
ATOM     32  C   UNL A   1      43.368  23.025  26.981  1.00  0.00    -0.014 A 
BRANCH  32  33
ATOM     33  C   UNL A   1      43.807  24.416  27.261  1.00  0.00     0.031 A 
ATOM     34  C   UNL A   1      42.822  25.429  27.774  1.00  0.00     0.074 A 
ATOM     35  C   UNL A   1      45.069  24.790  26.969  1.00  0.00     0.049 A 
ATOM     36  N   UNL A   1      42.983  26.713  27.976  1.00  0.00    -0.248 NA
ATOM     37  C   UNL A   1      41.466  24.941  28.066  1.00  0.00     0.031 C 
ATOM     38  C   UNL A   1      46.104  23.917  26.414  1.00  0.00     0.029 A 
ATOM     39  N   UNL A   1      45.690  26.009  27.083  1.00  0.00    -0.354 N 
ATOM     40  C   UNL A   1      41.746  27.186  28.392  1.00  0.00     0.074 A 
ATOM     41  C   UNL A   1      40.833  26.063  28.370  1.00  0.00     0.031 C 
ATOM     42  C   UNL A   1      47.236  24.622  26.255  1.00  0.00     0.029 A 
ATOM     43  C   UNL A   1      46.998  26.002  26.662  1.00  0.00     0.049 A 
ATOM     44  H   UNL A   1      45.242  26.812  27.434  1.00  0.00     0.167 HD
ATOM     45  C   UNL A   1      41.408  28.438  28.782  1.00  0.00     0.037 A 
ATOM     46  C   UNL A   1      47.902  27.000  26.605  1.00  0.00     0.037 A 
ATOM     47  C   UNL A   1      42.327  29.544  28.843  1.00  0.00     0.049 A 
ATOM     48  C   UNL A   1      47.507  28.377  27.066  1.00  0.00     0.074 A 
ATOM     49  C   UNL A   1      42.097  30.834  29.288  1.00  0.00     0.029 A 
ATOM     50  N   UNL A   1      43.656  29.487  28.448  1.00  0.00    -0.354 N 
ATOM     51  N   UNL A   1      46.352  28.797  27.521  1.00  0.00    -0.248 NA
ATOM     52  C   UNL A   1      48.545  29.417  27.013  1.00  0.00     0.031 C 
ATOM     53  C   UNL A   1      43.279  31.567  29.133  1.00  0.00     0.029 A 
ATOM     54  C   UNL A   1      44.255  30.723  28.630  1.00  0.00     0.049 A 
ATOM     55  H   UNL A   1      44.106  28.687  28.093  1.00  0.00     0.167 HD
ATOM     56  C   UNL A   1      46.531  30.137  27.835  1.00  0.00     0.074 A 
ATOM     57  C   UNL A   1      47.908  30.459  27.528  1.00  0.00     0.031 C 
ATOM     58  C   UNL A   1      45.633  31.021  28.333  1.00  0.00     0.037 A 
BRANCH  45  59
ATOM     59  C   UNL A   1      39.983  28.676  29.184  1.00  0.00     0.064 A 
ATOM     60  C   UNL A   1      39.026  29.125  28.262  1.00  0.00     0.173 A 
ATOM     61  C   UNL A   1      39.560  28.424  30.498  1.00  0.00     0.173 A 
ATOM     62  F   UNL A   1      39.383  29.393  26.996  1.00  0.00    -0.203 F 
ATOM     63  C   UNL A   1      37.706  29.342  28.647  1.00  0.00     0.198 A 
ATOM     64  C   UNL A   1      38.233  28.613  30.873  1.00  0.00     0.198 A 
ATOM     65  F   UNL A   1      40.434  27.988  31.418  1.00  0.00    -0.203 F 
ATOM     66  F   UNL A   1      36.821  29.819  27.760  1.00  0.00    -0.200 F 
ATOM     67  C   UNL A   1      37.309  29.080  29.950  1.00  0.00     0.200 A 
ATOM     68  F   UNL A   1      37.849  28.351  32.129  1.00  0.00    -0.200 F 
ATOM     69  F   UNL A   1      36.037  29.285  30.317  1.00  0.00    -0.200 F 
ENDBRANCH  45  59
BRANCH  46  70
ATOM     70  C   UNL A   1      49.280  26.727  26.124  1.00  0.00     0.064 A 
ATOM     71  C   UNL A   1      50.254  26.216  26.993  1.00  0.00     0.173 A 
ATOM     72  C   UNL A   1      49.653  26.972  24.795  1.00  0.00     0.173 A 
ATOM     73  F   UNL A   1      49.949  25.987  28.279  1.00  0.00    -0.203 F 
ATOM     74  C   UNL A   1      51.556  25.978  26.556  1.00  0.00     0.198 A 
ATOM     75  C   UNL A   1      50.949  26.709  24.352  1.00  0.00     0.198 A 
ATOM     76  F   UNL A   1      48.757  27.455  23.923  1.00  0.00    -0.203 F 
ATOM     77  F   UNL A   1      52.478  25.530  27.419  1.00  0.00    -0.200 F 
ATOM     78  C   UNL A   1      51.900  26.220  25.235  1.00  0.00     0.200 A 
ATOM     79  F   UNL A   1      51.276  26.932  23.072  1.00  0.00    -0.200 F 
ATOM     80  F   UNL A   1      53.152  25.988  24.815  1.00  0.00    -0.200 F 
ENDBRANCH  46  70
BRANCH  58  81
ATOM     81  C   UNL A   1      46.119  32.411  28.617  1.00  0.00     0.064 A 
ATOM     82  C   UNL A   1      46.657  32.760  29.863  1.00  0.00     0.173 A 
ATOM     83  C   UNL A   1      46.090  33.390  27.613  1.00  0.00     0.173 A 
ATOM     84  F   UNL A   1      46.693  31.862  30.860  1.00  0.00    -0.203 F 
ATOM     85  C   UNL A   1      47.131  34.048  30.100  1.00  0.00     0.198 A 
ATOM     86  C   UNL A   1      46.588  34.668  27.846  1.00  0.00     0.198 A 
ATOM     87  F   UNL A   1      45.590  33.103  26.402  1.00  0.00    -0.203 F 
ATOM     88  F   UNL A   1      47.605  34.372  31.311  1.00  0.00    -0.200 F 
ATOM     89  C   UNL A   1      47.103  34.997  29.090  1.00  0.00     0.200 A 
ATOM     90  F   UNL A   1      46.570  35.582  26.865  1.00  0.00    -0.200 F 
ATOM     91  F   UNL A   1      47.568  36.234  29.318  1.00  0.00    -0.200 F 
ENDBRANCH  58  81
ENDBRANCH  32  33
ENDBRANCH  24  27
ENDBRANCH  22  23
ENDBRANCH  21  22
ENDBRANCH   1  21
TORSDOF 13
ENDMDL
MODEL 3
REMARK VINA RESULT:     -12.4      0.969      1.719
REMARK SMILES Cc1noc(-c2ccc(CCl)cc2)c1C(=O)NCCCCNC(=O)c1ccc(-c2c3nc(c(-c4c(F)c(F)c(F)c(F)c4F)c4ccc([nH]4)c(-c4c(F)c(F)c(F)c(F)c4F)c4nc(c(-c5c(F)c(F)c(F)c(F)c5F)c5ccc2[nH]5)C=C4)C=C3)cc1
REMARK SMILES IDX 19 1 18 2 17 3 15 4 16 5 14 7 1 8 2 9 3 10 4 11 5 12 6 13
REMARK SMILES IDX 7 14 13 15 8 16 12 17 9 18 10 19 11 20 20 21 21 22 22 23
REMARK SMILES IDX 23 24 24 26 25 27 26 28 87 29 27 30 86 31 28 32 29 33 30 34
REMARK SMILES IDX 80 35 31 36 85 37 79 38 81 39 32 40 84 41 78 42 77 43 33 45
REMARK SMILES IDX 65 46 45 47 64 48 46 49 49 50 63 51 82 52 47 53 48 54 62 56
REMARK SMILES IDX 83 57 50 58 34 59 35 60 43 61 36 62 37 63 41 64 44 65 38 66
REMARK SMILES IDX 39 67 42 68 40 69 66 70 67 71 75 72 68 73 69 74 73 75 76 76
REMARK SMILES IDX 70 77 71 78 74 79 72 80 51 81 52 82 60 83 53 84 54 85 58 86
REMARK SMILES IDX 61 87 55 88 56 89 59 90 57 91
REMARK H PARENT 17 6 22 25 81 44 49 55
REMARK Flexibility Score: inf
ROOT
ATOM      1  C   UNL A   1      32.094  30.301  26.031  1.00  0.00     0.023 C 
ENDROOT
BRANCH   1   2
ATOM      2  C   UNL A   1      32.857  29.198  26.755  1.00  0.00     0.116 C 
BRANCH   2   3
ATOM      3  N   UNL A   1      32.076  28.028  27.078  1.00  0.00    -0.352 N 
ATOM      4  C   UNL A   1      31.961  26.799  26.472  1.00  0.00     0.257 C 
ATOM      5  O   UNL A   1      31.195  26.013  27.034  1.00  0.00    -0.269 OA
ATOM      6  H   UNL A   1      31.522  28.128  27.885  1.00  0.00     0.163 HD
BRANCH   4   7
ATOM      7  C   UNL A   1      32.646  26.440  25.237  1.00  0.00     0.110 A 
ATOM      8  C   UNL A   1      34.457  24.530  25.679  1.00  0.00     0.071 C 
ATOM      9  C   UNL A   1      33.696  25.525  24.888  1.00  0.00     0.094 A 
ATOM     10  N   UNL A   1      33.971  25.566  23.577  1.00  0.00    -0.084 NA
ATOM     11  O   UNL A   1      33.046  26.408  23.021  1.00  0.00    -0.355 OA
ATOM     12  C   UNL A   1      32.234  26.903  23.991  1.00  0.00     0.179 A 
BRANCH  12  13
ATOM     13  C   UNL A   1      31.158  27.733  23.473  1.00  0.00     0.021 A 
ATOM     14  C   UNL A   1      29.827  27.368  23.725  1.00  0.00     0.012 A 
ATOM     15  C   UNL A   1      31.412  28.876  22.710  1.00  0.00     0.012 A 
ATOM     16  C   UNL A   1      28.769  28.138  23.235  1.00  0.00     0.006 A 
ATOM     17  C   UNL A   1      30.351  29.642  22.208  1.00  0.00     0.006 A 
ATOM     18  C   UNL A   1      29.020  29.284  22.469  1.00  0.00    -0.033 A 
BRANCH  18  19
ATOM     19  C   UNL A   1      27.880  30.116  21.948  1.00  0.00     0.145 C 
ATOM     20  Cl  UNL A   1      27.532  31.477  23.035  1.00  0.00    -0.122 Cl
ENDBRANCH  18  19
ENDBRANCH  12  13
ENDBRANCH   4   7
ENDBRANCH   2   3
ENDBRANCH   1   2
BRANCH   1  21
ATOM     21  C   UNL A   1      31.725  31.543  26.837  1.00  0.00     0.023 C 
BRANCH  21  22
ATOM     22  C   UNL A   1      32.866  32.475  27.230  1.00  0.00     0.116 C 
BRANCH  22  23
ATOM     23  N   UNL A   1      32.446  33.828  27.564  1.00  0.00    -0.352 N 
ATOM     24  C   UNL A   1      32.987  34.721  28.461  1.00  0.00     0.251 C 
ATOM     25  H   UNL A   1      31.657  34.154  27.075  1.00  0.00     0.163 HD
ATOM     26  O   UNL A   1      32.456  35.815  28.636  1.00  0.00    -0.269 OA
BRANCH  24  27
ATOM     27  C   UNL A   1      34.177  34.349  29.256  1.00  0.00     0.039 A 
ATOM     28  C   UNL A   1      33.989  33.757  30.508  1.00  0.00     0.014 A 
ATOM     29  C   UNL A   1      35.466  34.540  28.756  1.00  0.00     0.014 A 
ATOM     30  C   UNL A   1      35.090  33.261  31.212  1.00  0.00     0.010 A 
ATOM     31  C   UNL A   1      36.552  33.976  29.419  1.00  0.00     0.010 A 
ATOM     32  C   UNL A   1      36.374  33.318  30.647  1.00  0.00    -0.014 A 
BRANCH  32  33
ATOM     33  C   UNL A   1      37.541  32.679  31.307  1.00  0.00     0.031 A 
ATOM     34  C   UNL A   1      38.249  31.533  30.642  1.00  0.00     0.074 A 
ATOM     35  C   UNL A   1      37.907  33.072  32.543  1.00  0.00     0.049 A 
ATOM     36  N   UNL A   1      39.214  30.776  31.101  1.00  0.00    -0.248 NA
ATOM     37  C   UNL A   1      37.788  31.166  29.294  1.00  0.00     0.031 C 
ATOM     38  C   UNL A   1      37.265  34.133  33.320  1.00  0.00     0.029 A 
ATOM     39  N   UNL A   1      38.899  32.609  33.373  1.00  0.00    -0.354 N 
ATOM     40  C   UNL A   1      39.456  29.832  30.111  1.00  0.00     0.074 A 
ATOM     41  C   UNL A   1      38.506  30.081  29.048  1.00  0.00     0.031 C 
ATOM     42  C   UNL A   1      37.891  34.255  34.502  1.00  0.00     0.029 A 
ATOM     43  C   UNL A   1      38.954  33.258  34.582  1.00  0.00     0.049 A 
ATOM     44  H   UNL A   1      39.514  31.881  33.124  1.00  0.00     0.167 HD
ATOM     45  C   UNL A   1      40.400  28.862  30.082  1.00  0.00     0.037 A 
ATOM     46  C   UNL A   1      39.766  33.067  35.640  1.00  0.00     0.037 A 
ATOM     47  C   UNL A   1      41.369  28.642  31.122  1.00  0.00     0.049 A 
ATOM     48  C   UNL A   1      40.822  31.997  35.571  1.00  0.00     0.074 A 
ATOM     49  C   UNL A   1      42.409  27.729  31.155  1.00  0.00     0.029 A 
ATOM     50  N   UNL A   1      41.420  29.350  32.314  1.00  0.00    -0.354 N 
ATOM     51  N   UNL A   1      41.084  31.155  34.603  1.00  0.00    -0.248 NA
ATOM     52  C   UNL A   1      41.701  31.857  36.741  1.00  0.00     0.031 C 
ATOM     53  C   UNL A   1      43.069  27.862  32.381  1.00  0.00     0.029 A 
ATOM     54  C   UNL A   1      42.466  28.885  33.094  1.00  0.00     0.049 A 
ATOM     55  H   UNL A   1      40.804  30.075  32.567  1.00  0.00     0.167 HD
ATOM     56  C   UNL A   1      42.172  30.406  35.031  1.00  0.00     0.074 A 
ATOM     57  C   UNL A   1      42.528  30.901  36.345  1.00  0.00     0.031 C 
ATOM     58  C   UNL A   1      42.816  29.400  34.393  1.00  0.00     0.037 A 
BRANCH  45  59
ATOM     59  C   UNL A   1      40.435  27.969  28.877  1.00  0.00     0.064 A 
ATOM     60  C   UNL A   1      41.209  28.287  27.751  1.00  0.00     0.173 A 
ATOM     61  C   UNL A   1      39.713  26.766  28.859  1.00  0.00     0.173 A 
ATOM     62  F   UNL A   1      41.907  29.432  27.713  1.00  0.00    -0.203 F 
ATOM     63  C   UNL A   1      41.233  27.450  26.639  1.00  0.00     0.198 A 
ATOM     64  C   UNL A   1      39.764  25.917  27.758  1.00  0.00     0.198 A 
ATOM     65  F   UNL A   1      38.962  26.412  29.913  1.00  0.00    -0.203 F 
ATOM     66  F   UNL A   1      41.940  27.800  25.554  1.00  0.00    -0.200 F 
ATOM     67  C   UNL A   1      40.517  26.262  26.645  1.00  0.00     0.200 A 
ATOM     68  F   UNL A   1      39.079  24.765  27.769  1.00  0.00    -0.200 F 
ATOM     69  F   UNL A   1      40.546  25.456  25.576  1.00  0.00    -0.200 F 
ENDBRANCH  45  59
BRANCH  46  70
ATOM     70  C   UNL A   1      39.637  33.929  36.842  1.00  0.00     0.064 A 
ATOM     71  C   UNL A   1      38.857  33.525  37.934  1.00  0.00     0.173 A 
ATOM     72  C   UNL A   1      40.284  35.171  36.925  1.00  0.00     0.173 A 
ATOM     73  F   UNL A   1      38.202  32.355  37.890  1.00  0.00    -0.203 F 
ATOM     74  C   UNL A   1      38.712  34.338  39.056  1.00  0.00     0.198 A 
ATOM     75  C   UNL A   1      40.160  35.971  38.059  1.00  0.00     0.198 A 
ATOM     76  F   UNL A   1      41.047  35.600  35.909  1.00  0.00    -0.203 F 
ATOM     77  F   UNL A   1      37.926  33.945  40.068  1.00  0.00    -0.200 F 
ATOM     78  C   UNL A   1      39.367  35.557  39.120  1.00  0.00     0.200 A 
ATOM     79  F   UNL A   1      40.804  37.145  38.123  1.00  0.00    -0.200 F 
ATOM     80  F   UNL A   1      39.230  36.338  40.201  1.00  0.00    -0.200 F 
ENDBRANCH  46  70
BRANCH  58  81
ATOM     81  C   UNL A   1      44.000  28.792  35.086  1.00  0.00     0.064 A 
ATOM     82  C   UNL A   1      45.297  29.288  34.895  1.00  0.00     0.173 A 
ATOM     83  C   UNL A   1      43.825  27.732  35.987  1.00  0.00     0.173 A 
ATOM     84  F   UNL A   1      45.517  30.290  34.031  1.00  0.00    -0.203 F 
ATOM     85  C   UNL A   1      46.380  28.729  35.568  1.00  0.00     0.198 A 
ATOM     86  C   UNL A   1      44.906  27.194  36.678  1.00  0.00     0.198 A 
ATOM     87  F   UNL A   1      42.601  27.226  36.208  1.00  0.00    -0.203 F 
ATOM     88  F   UNL A   1      47.617  29.192  35.342  1.00  0.00    -0.200 F 
ATOM     89  C   UNL A   1      46.183  27.689  36.464  1.00  0.00     0.200 A 
ATOM     90  F   UNL A   1      44.711  26.195  37.551  1.00  0.00    -0.200 F 
ATOM     91  F   UNL A   1      47.227  27.159  37.118  1.00  0.00    -0.200 F 
ENDBRANCH  58  81
ENDBRANCH  32  33
ENDBRANCH  24  27
ENDBRANCH  22  23
ENDBRANCH  21  22
ENDBRANCH   1  21
TORSDOF 13
ENDMDL
