MODEL 1
REMARK VINA RESULT:     -12.7      0.000      0.000
REMARK SMILES COc1ccc(CCN2C(=O)CC[C@@H](C(=O)NCCCCNC(=O)c3ccc(-c4c5nc(c(-c6c(F)c(F)c(F)c(F)c6F)c6ccc([nH]6)c(-c6c(F)c(F)c(F)c(F)c6F)c6nc(c(-c7c(F)c(F)c(F)c(F)c7F)c7ccc4[nH]7)C=C6)C=C5)cc3)[C@@H]2c2ccc(Cl)cc2)cc1OC
REMARK SMILES IDX 18 1 17 2 15 3 16 4 14 6 9 7 10 8 88 9 11 10 12 11 13 12
REMARK SMILES IDX 8 13 7 14 6 15 3 16 4 17 97 18 5 19 96 20 2 21 1 22 98 23
REMARK SMILES IDX 99 24 89 25 90 26 95 27 91 28 94 29 92 30 93 31 19 32 20 33
REMARK SMILES IDX 21 34 22 35 23 36 24 38 25 39 26 40 87 41 27 42 86 43 28 44
REMARK SMILES IDX 29 45 30 46 80 47 31 48 85 49 79 50 81 51 32 52 84 53 78 54
REMARK SMILES IDX 77 55 33 57 65 58 45 59 64 60 46 61 49 62 63 63 82 64 47 65
REMARK SMILES IDX 48 66 62 68 83 69 50 70 34 71 35 72 43 73 36 74 37 75 41 76
REMARK SMILES IDX 44 77 38 78 39 79 42 80 40 81 66 82 67 83 75 84 68 85 69 86
REMARK SMILES IDX 73 87 76 88 70 89 71 90 74 91 72 92 51 93 52 94 60 95 53 96
REMARK SMILES IDX 54 97 58 98 61 99 55 100 56 101 59 102 57 103
REMARK H PARENT 17 5 22 37 81 56 49 67
REMARK Flexibility Score: inf
ROOT
ATOM      1  C   UNL A   1      34.893  21.911  24.051  1.00  0.00     0.116 C 
ENDROOT
BRANCH   1   2
ATOM      2  N   UNL A   1      33.528  22.312  23.772  1.00  0.00    -0.356 N 
ATOM      3  C   UNL A   1      32.822  23.456  23.990  1.00  0.00     0.225 C 
ATOM      4  O   UNL A   1      31.814  23.569  23.276  1.00  0.00    -0.275 OA
ATOM      5  H   UNL A   1      32.998  21.608  23.331  1.00  0.00     0.163 HD
BRANCH   3   6
ATOM      6  C   UNL A   1      33.044  24.494  25.119  1.00  0.00     0.106 C 
ATOM      7  N   UNL A   1      30.711  24.980  25.939  1.00  0.00    -0.335 N 
ATOM      8  C   UNL A   1      30.776  23.913  26.836  1.00  0.00     0.223 C 
ATOM      9  C   UNL A   1      31.977  25.534  25.433  1.00  0.00     0.128 C 
ATOM     10  O   UNL A   1      29.772  23.456  27.385  1.00  0.00    -0.275 OA
ATOM     11  C   UNL A   1      32.127  23.228  27.080  1.00  0.00     0.101 C 
ATOM     12  C   UNL A   1      33.375  23.820  26.444  1.00  0.00     0.026 C 
BRANCH   7  13
ATOM     13  C   UNL A   1      29.356  25.447  25.448  1.00  0.00     0.125 C 
BRANCH  13  14
ATOM     14  C   UNL A   1      29.036  25.870  23.970  1.00  0.00     0.057 C 
BRANCH  14  15
ATOM     15  C   UNL A   1      29.209  27.318  23.513  1.00  0.00    -0.042 A 
ATOM     16  C   UNL A   1      29.298  29.886  22.272  1.00  0.00     0.160 A 
ATOM     17  C   UNL A   1      28.109  29.365  22.723  1.00  0.00     0.051 A 
ATOM     18  C   UNL A   1      30.488  29.194  22.540  1.00  0.00     0.160 A 
ATOM     19  C   UNL A   1      28.101  28.111  23.300  1.00  0.00     0.008 A 
ATOM     20  C   UNL A   1      30.430  27.907  23.152  1.00  0.00     0.054 A 
BRANCH  16  21
ATOM     21  O   UNL A   1      29.237  31.063  21.577  1.00  0.00    -0.493 OA
ATOM     22  C   UNL A   1      28.055  31.118  20.766  1.00  0.00     0.278 C 
ENDBRANCH  16  21
BRANCH  18  23
ATOM     23  O   UNL A   1      31.760  29.613  22.235  1.00  0.00    -0.493 OA
ATOM     24  C   UNL A   1      32.835  28.770  22.640  1.00  0.00     0.278 C 
ENDBRANCH  18  23
ENDBRANCH  14  15
ENDBRANCH  13  14
ENDBRANCH   7  13
BRANCH   9  25
ATOM     25  C   UNL A   1      32.469  26.753  26.258  1.00  0.00    -0.025 A 
ATOM     26  C   UNL A   1      31.583  27.531  27.027  1.00  0.00     0.007 A 
ATOM     27  C   UNL A   1      33.761  27.271  26.014  1.00  0.00     0.007 A 
ATOM     28  C   UNL A   1      31.918  28.836  27.404  1.00  0.00     0.021 A 
ATOM     29  C   UNL A   1      34.096  28.574  26.402  1.00  0.00     0.021 A 
ATOM     30  C   UNL A   1      33.158  29.363  27.059  1.00  0.00     0.041 A 
ATOM     31  Cl  UNL A   1      33.510  31.014  27.387  1.00  0.00    -0.084 Cl
ENDBRANCH   9  25
ENDBRANCH   3   6
ENDBRANCH   1   2
BRANCH   1  32
ATOM     32  C   UNL A   1      35.980  22.823  23.500  1.00  0.00     0.023 C 
BRANCH  32  33
ATOM     33  C   UNL A   1      36.706  23.682  24.523  1.00  0.00     0.023 C 
BRANCH  33  34
ATOM     34  C   UNL A   1      36.910  23.047  25.895  1.00  0.00     0.116 C 
BRANCH  34  35
ATOM     35  N   UNL A   1      38.137  22.273  26.018  1.00  0.00    -0.352 N 
ATOM     36  C   UNL A   1      39.383  22.676  26.457  1.00  0.00     0.251 C 
ATOM     37  H   UNL A   1      38.069  21.328  25.751  1.00  0.00     0.163 HD
ATOM     38  O   UNL A   1      40.331  21.917  26.427  1.00  0.00    -0.269 OA
BRANCH  36  39
ATOM     39  C   UNL A   1      39.563  24.072  26.924  1.00  0.00     0.039 A 
ATOM     40  C   UNL A   1      39.252  24.382  28.250  1.00  0.00     0.014 A 
ATOM     41  C   UNL A   1      40.088  25.048  26.076  1.00  0.00     0.014 A 
ATOM     42  C   UNL A   1      39.557  25.649  28.750  1.00  0.00     0.010 A 
ATOM     43  C   UNL A   1      40.471  26.278  26.598  1.00  0.00     0.010 A 
ATOM     44  C   UNL A   1      40.214  26.592  27.942  1.00  0.00    -0.014 A 
BRANCH  44  45
ATOM     45  C   UNL A   1      40.648  27.907  28.482  1.00  0.00     0.031 A 
ATOM     46  C   UNL A   1      42.089  28.135  28.841  1.00  0.00     0.074 A 
ATOM     47  C   UNL A   1      39.734  28.869  28.717  1.00  0.00     0.049 A 
ATOM     48  N   UNL A   1      42.651  29.180  29.395  1.00  0.00    -0.248 NA
ATOM     49  C   UNL A   1      43.019  27.026  28.572  1.00  0.00     0.031 C 
ATOM     50  C   UNL A   1      38.297  28.755  28.460  1.00  0.00     0.029 A 
ATOM     51  N   UNL A   1      39.877  30.133  29.236  1.00  0.00    -0.354 N 
ATOM     52  C   UNL A   1      43.991  28.850  29.550  1.00  0.00     0.074 A 
ATOM     53  C   UNL A   1      44.146  27.486  29.091  1.00  0.00     0.031 C 
ATOM     54  C   UNL A   1      37.697  29.908  28.796  1.00  0.00     0.029 A 
ATOM     55  C   UNL A   1      38.696  30.828  29.331  1.00  0.00     0.049 A 
ATOM     56  H   UNL A   1      40.745  30.505  29.515  1.00  0.00     0.167 HD
ATOM     57  C   UNL A   1      45.005  29.623  30.006  1.00  0.00     0.037 A 
ATOM     58  C   UNL A   1      38.446  32.065  29.801  1.00  0.00     0.037 A 
ATOM     59  C   UNL A   1      44.851  30.986  30.441  1.00  0.00     0.049 A 
ATOM     60  C   UNL A   1      39.589  32.899  30.317  1.00  0.00     0.074 A 
ATOM     61  C   UNL A   1      45.825  31.871  30.867  1.00  0.00     0.029 A 
ATOM     62  N   UNL A   1      43.640  31.661  30.508  1.00  0.00    -0.354 N 
ATOM     63  N   UNL A   1      40.864  32.602  30.391  1.00  0.00    -0.248 NA
ATOM     64  C   UNL A   1      39.258  34.244  30.810  1.00  0.00     0.031 C 
ATOM     65  C   UNL A   1      45.199  33.065  31.240  1.00  0.00     0.029 A 
ATOM     66  C   UNL A   1      43.841  32.944  30.992  1.00  0.00     0.049 A 
ATOM     67  H   UNL A   1      42.768  31.283  30.251  1.00  0.00     0.167 HD
ATOM     68  C   UNL A   1      41.490  33.729  30.907  1.00  0.00     0.074 A 
ATOM     69  C   UNL A   1      40.456  34.721  31.114  1.00  0.00     0.031 C 
ATOM     70  C   UNL A   1      42.802  33.924  31.183  1.00  0.00     0.037 A 
BRANCH  57  71
ATOM     71  C   UNL A   1      46.375  29.008  30.055  1.00  0.00     0.064 A 
ATOM     72  C   UNL A   1      46.847  28.353  31.204  1.00  0.00     0.173 A 
ATOM     73  C   UNL A   1      47.216  29.050  28.933  1.00  0.00     0.173 A 
ATOM     74  F   UNL A   1      46.087  28.295  32.308  1.00  0.00    -0.203 F 
ATOM     75  C   UNL A   1      48.122  27.795  31.239  1.00  0.00     0.198 A 
ATOM     76  C   UNL A   1      48.478  28.461  28.960  1.00  0.00     0.198 A 
ATOM     77  F   UNL A   1      46.814  29.657  27.807  1.00  0.00    -0.203 F 
ATOM     78  F   UNL A   1      48.571  27.227  32.366  1.00  0.00    -0.200 F 
ATOM     79  C   UNL A   1      48.934  27.843  30.116  1.00  0.00     0.200 A 
ATOM     80  F   UNL A   1      49.255  28.496  27.869  1.00  0.00    -0.200 F 
ATOM     81  F   UNL A   1      50.158  27.300  30.149  1.00  0.00    -0.200 F 
ENDBRANCH  57  71
BRANCH  58  82
ATOM     82  C   UNL A   1      37.061  32.605  29.782  1.00  0.00     0.064 A 
ATOM     83  C   UNL A   1      36.200  32.413  30.872  1.00  0.00     0.173 A 
ATOM     84  C   UNL A   1      36.566  33.313  28.677  1.00  0.00     0.173 A 
ATOM     85  F   UNL A   1      36.620  31.724  31.944  1.00  0.00    -0.203 F 
ATOM     86  C   UNL A   1      34.891  32.888  30.849  1.00  0.00     0.198 A 
ATOM     87  C   UNL A   1      35.265  33.814  28.668  1.00  0.00     0.198 A 
ATOM     88  F   UNL A   1      37.349  33.529  27.611  1.00  0.00    -0.203 F 
ATOM     89  F   UNL A   1      34.075  32.648  31.884  1.00  0.00    -0.200 F 
ATOM     90  C   UNL A   1      34.425  33.593  29.749  1.00  0.00     0.200 A 
ATOM     91  F   UNL A   1      34.825  34.508  27.609  1.00  0.00    -0.200 F 
ATOM     92  F   UNL A   1      33.167  34.054  29.728  1.00  0.00    -0.200 F 
ENDBRANCH  58  82
BRANCH  70  93
ATOM     93  C   UNL A   1      43.205  35.276  31.701  1.00  0.00     0.064 A 
ATOM     94  C   UNL A   1      43.675  36.284  30.847  1.00  0.00     0.173 A 
ATOM     95  C   UNL A   1      43.080  35.577  33.067  1.00  0.00     0.173 A 
ATOM     96  F   UNL A   1      43.827  36.042  29.536  1.00  0.00    -0.203 F 
ATOM     97  C   UNL A   1      44.029  37.536  31.345  1.00  0.00     0.198 A 
ATOM     98  C   UNL A   1      43.404  36.839  33.556  1.00  0.00     0.198 A 
ATOM     99  F   UNL A   1      42.629  34.649  33.925  1.00  0.00    -0.203 F 
ATOM    100  F   UNL A   1      44.523  38.467  30.518  1.00  0.00    -0.200 F 
ATOM    101  C   UNL A   1      43.886  37.814  32.696  1.00  0.00     0.200 A 
ATOM    102  F   UNL A   1      43.250  37.111  34.858  1.00  0.00    -0.200 F 
ATOM    103  F   UNL A   1      44.219  39.022  33.171  1.00  0.00    -0.200 F 
ENDBRANCH  70  93
ENDBRANCH  44  45
ENDBRANCH  36  39
ENDBRANCH  34  35
ENDBRANCH  33  34
ENDBRANCH  32  33
ENDBRANCH   1  32
TORSDOF 17
ENDMDL
MODEL 2
REMARK VINA RESULT:     -12.6      3.531      8.982
REMARK SMILES COc1ccc(CCN2C(=O)CC[C@@H](C(=O)NCCCCNC(=O)c3ccc(-c4c5nc(c(-c6c(F)c(F)c(F)c(F)c6F)c6ccc([nH]6)c(-c6c(F)c(F)c(F)c(F)c6F)c6nc(c(-c7c(F)c(F)c(F)c(F)c7F)c7ccc4[nH]7)C=C6)C=C5)cc3)[C@@H]2c2ccc(Cl)cc2)cc1OC
REMARK SMILES IDX 18 1 17 2 15 3 16 4 14 6 9 7 10 8 88 9 11 10 12 11 13 12
REMARK SMILES IDX 8 13 7 14 6 15 3 16 4 17 97 18 5 19 96 20 2 21 1 22 98 23
REMARK SMILES IDX 99 24 89 25 90 26 95 27 91 28 94 29 92 30 93 31 19 32 20 33
REMARK SMILES IDX 21 34 22 35 23 36 24 38 25 39 26 40 87 41 27 42 86 43 28 44
REMARK SMILES IDX 29 45 30 46 80 47 31 48 85 49 79 50 81 51 32 52 84 53 78 54
REMARK SMILES IDX 77 55 33 57 65 58 45 59 64 60 46 61 49 62 63 63 82 64 47 65
REMARK SMILES IDX 48 66 62 68 83 69 50 70 34 71 35 72 43 73 36 74 37 75 41 76
REMARK SMILES IDX 44 77 38 78 39 79 42 80 40 81 66 82 67 83 75 84 68 85 69 86
REMARK SMILES IDX 73 87 76 88 70 89 71 90 74 91 72 92 51 93 52 94 60 95 53 96
REMARK SMILES IDX 54 97 58 98 61 99 55 100 56 101 59 102 57 103
REMARK H PARENT 17 5 22 37 81 56 49 67
REMARK Flexibility Score: inf
ROOT
ATOM      1  C   UNL A   1      31.119  28.055  25.457  1.00  0.00     0.116 C 
ENDROOT
BRANCH   1   2
ATOM      2  N   UNL A   1      30.782  26.786  24.840  1.00  0.00    -0.356 N 
ATOM      3  C   UNL A   1      31.454  25.613  24.678  1.00  0.00     0.225 C 
ATOM      4  O   UNL A   1      30.719  24.640  24.454  1.00  0.00    -0.275 OA
ATOM      5  H   UNL A   1      29.875  26.770  24.456  1.00  0.00     0.163 HD
BRANCH   3   6
ATOM      6  C   UNL A   1      32.987  25.417  24.570  1.00  0.00     0.106 C 
ATOM      7  N   UNL A   1      33.263  24.091  22.445  1.00  0.00    -0.335 N 
ATOM      8  C   UNL A   1      33.306  25.263  21.688  1.00  0.00     0.223 C 
ATOM      9  C   UNL A   1      33.563  24.186  23.882  1.00  0.00     0.128 C 
ATOM     10  O   UNL A   1      33.168  25.258  20.464  1.00  0.00    -0.275 OA
ATOM     11  C   UNL A   1      33.441  26.609  22.410  1.00  0.00     0.101 C 
ATOM     12  C   UNL A   1      33.660  26.616  23.915  1.00  0.00     0.026 C 
BRANCH   7  13
ATOM     13  C   UNL A   1      32.811  22.805  21.784  1.00  0.00     0.125 C 
BRANCH  13  14
ATOM     14  C   UNL A   1      31.820  21.768  22.426  1.00  0.00     0.057 C 
BRANCH  14  15
ATOM     15  C   UNL A   1      32.326  20.685  23.377  1.00  0.00    -0.042 A 
ATOM     16  C   UNL A   1      32.822  18.511  25.159  1.00  0.00     0.160 A 
ATOM     17  C   UNL A   1      32.499  18.281  23.842  1.00  0.00     0.051 A 
ATOM     18  C   UNL A   1      33.028  19.831  25.587  1.00  0.00     0.160 A 
ATOM     19  C   UNL A   1      32.246  19.356  23.015  1.00  0.00     0.008 A 
ATOM     20  C   UNL A   1      32.767  20.909  24.690  1.00  0.00     0.054 A 
BRANCH  16  21
ATOM     21  O   UNL A   1      32.920  17.417  25.975  1.00  0.00    -0.493 OA
ATOM     22  C   UNL A   1      32.682  16.208  25.241  1.00  0.00     0.278 C 
ENDBRANCH  16  21
BRANCH  18  23
ATOM     23  O   UNL A   1      33.433  20.227  26.838  1.00  0.00    -0.493 OA
ATOM     24  C   UNL A   1      33.669  21.618  27.032  1.00  0.00     0.278 C 
ENDBRANCH  18  23
ENDBRANCH  14  15
ENDBRANCH  13  14
ENDBRANCH   7  13
BRANCH   9  25
ATOM     25  C   UNL A   1      35.051  23.889  24.205  1.00  0.00    -0.025 A 
ATOM     26  C   UNL A   1      35.809  22.991  23.430  1.00  0.00     0.007 A 
ATOM     27  C   UNL A   1      35.577  24.291  25.453  1.00  0.00     0.007 A 
ATOM     28  C   UNL A   1      36.967  22.400  23.947  1.00  0.00     0.021 A 
ATOM     29  C   UNL A   1      36.742  23.704  25.962  1.00  0.00     0.021 A 
ATOM     30  C   UNL A   1      37.408  22.733  25.223  1.00  0.00     0.041 A 
ATOM     31  Cl  UNL A   1      38.740  21.895  25.916  1.00  0.00    -0.084 Cl
ENDBRANCH   9  25
ENDBRANCH   3   6
ENDBRANCH   1   2
BRANCH   1  32
ATOM     32  C   UNL A   1      31.504  27.997  26.929  1.00  0.00     0.023 C 
BRANCH  32  33
ATOM     33  C   UNL A   1      32.990  28.103  27.230  1.00  0.00     0.023 C 
BRANCH  33  34
ATOM     34  C   UNL A   1      33.742  29.195  26.476  1.00  0.00     0.116 C 
BRANCH  34  35
ATOM     35  N   UNL A   1      33.672  30.509  27.101  1.00  0.00    -0.352 N 
ATOM     36  C   UNL A   1      34.568  31.116  27.959  1.00  0.00     0.251 C 
ATOM     37  H   UNL A   1      32.872  31.039  26.880  1.00  0.00     0.163 HD
ATOM     38  O   UNL A   1      34.321  32.196  28.455  1.00  0.00    -0.269 OA
BRANCH  36  39
ATOM     39  C   UNL A   1      35.822  30.406  28.306  1.00  0.00     0.039 A 
ATOM     40  C   UNL A   1      36.900  30.474  27.420  1.00  0.00     0.014 A 
ATOM     41  C   UNL A   1      35.949  29.732  29.521  1.00  0.00     0.014 A 
ATOM     42  C   UNL A   1      38.136  29.943  27.797  1.00  0.00     0.010 A 
ATOM     43  C   UNL A   1      37.201  29.283  29.930  1.00  0.00     0.010 A 
ATOM     44  C   UNL A   1      38.309  29.387  29.075  1.00  0.00    -0.014 A 
BRANCH  44  45
ATOM     45  C   UNL A   1      39.639  28.915  29.541  1.00  0.00     0.031 A 
ATOM     46  C   UNL A   1      40.436  29.746  30.507  1.00  0.00     0.074 A 
ATOM     47  C   UNL A   1      40.160  27.778  29.040  1.00  0.00     0.049 A 
ATOM     48  N   UNL A   1      41.644  29.547  30.972  1.00  0.00    -0.248 NA
ATOM     49  C   UNL A   1      39.803  30.983  30.991  1.00  0.00     0.031 C 
ATOM     50  C   UNL A   1      39.510  26.908  28.058  1.00  0.00     0.029 A 
ATOM     51  N   UNL A   1      41.364  27.162  29.280  1.00  0.00    -0.354 N 
ATOM     52  C   UNL A   1      41.917  30.636  31.789  1.00  0.00     0.074 A 
ATOM     53  C   UNL A   1      40.777  31.523  31.708  1.00  0.00     0.031 C 
ATOM     54  C   UNL A   1      40.309  25.861  27.801  1.00  0.00     0.029 A 
ATOM     55  C   UNL A   1      41.544  26.003  28.565  1.00  0.00     0.049 A 
ATOM     56  H   UNL A   1      42.036  27.519  29.906  1.00  0.00     0.167 HD
ATOM     57  C   UNL A   1      43.007  30.863  32.560  1.00  0.00     0.037 A 
ATOM     58  C   UNL A   1      42.590  25.154  28.527  1.00  0.00     0.037 A 
ATOM     59  C   UNL A   1      44.131  29.967  32.656  1.00  0.00     0.049 A 
ATOM     60  C   UNL A   1      43.796  25.437  29.382  1.00  0.00     0.074 A 
ATOM     61  C   UNL A   1      45.258  30.079  33.451  1.00  0.00     0.029 A 
ATOM     62  N   UNL A   1      44.270  28.795  31.928  1.00  0.00    -0.354 N 
ATOM     63  N   UNL A   1      44.013  26.433  30.206  1.00  0.00    -0.248 NA
ATOM     64  C   UNL A   1      44.902  24.472  29.305  1.00  0.00     0.031 C 
ATOM     65  C   UNL A   1      46.101  29.001  33.168  1.00  0.00     0.029 A 
ATOM     66  C   UNL A   1      45.475  28.186  32.238  1.00  0.00     0.049 A 
ATOM     67  H   UNL A   1      43.609  28.447  31.285  1.00  0.00     0.167 HD
ATOM     68  C   UNL A   1      45.261  26.200  30.769  1.00  0.00     0.074 A 
ATOM     69  C   UNL A   1      45.748  24.959  30.202  1.00  0.00     0.031 C 
ATOM     70  C   UNL A   1      45.941  26.945  31.672  1.00  0.00     0.037 A 
BRANCH  57  71
ATOM     71  C   UNL A   1      43.034  32.131  33.364  1.00  0.00     0.064 A 
ATOM     72  C   UNL A   1      42.514  32.188  34.667  1.00  0.00     0.173 A 
ATOM     73  C   UNL A   1      43.611  33.297  32.839  1.00  0.00     0.173 A 
ATOM     74  F   UNL A   1      41.940  31.105  35.212  1.00  0.00    -0.203 F 
ATOM     75  C   UNL A   1      42.537  33.372  35.398  1.00  0.00     0.198 A 
ATOM     76  C   UNL A   1      43.663  34.471  33.585  1.00  0.00     0.198 A 
ATOM     77  F   UNL A   1      44.129  33.298  31.601  1.00  0.00    -0.203 F 
ATOM     78  F   UNL A   1      41.981  33.416  36.617  1.00  0.00    -0.200 F 
ATOM     79  C   UNL A   1      43.117  34.511  34.860  1.00  0.00     0.200 A 
ATOM     80  F   UNL A   1      44.238  35.566  33.070  1.00  0.00    -0.200 F 
ATOM     81  F   UNL A   1      43.145  35.648  35.568  1.00  0.00    -0.200 F 
ENDBRANCH  57  71
BRANCH  58  82
ATOM     82  C   UNL A   1      42.534  23.941  27.669  1.00  0.00     0.064 A 
ATOM     83  C   UNL A   1      42.120  22.709  28.194  1.00  0.00     0.173 A 
ATOM     84  C   UNL A   1      42.899  23.983  26.315  1.00  0.00     0.173 A 
ATOM     85  F   UNL A   1      41.779  22.612  29.488  1.00  0.00    -0.203 F 
ATOM     86  C   UNL A   1      42.095  21.561  27.405  1.00  0.00     0.198 A 
ATOM     87  C   UNL A   1      42.846  22.840  25.520  1.00  0.00     0.198 A 
ATOM     88  F   UNL A   1      43.299  25.137  25.762  1.00  0.00    -0.203 F 
ATOM     89  F   UNL A   1      41.742  20.387  27.945  1.00  0.00    -0.200 F 
ATOM     90  C   UNL A   1      42.453  21.628  26.067  1.00  0.00     0.200 A 
ATOM     91  F   UNL A   1      43.178  22.913  24.224  1.00  0.00    -0.200 F 
ATOM     92  F   UNL A   1      42.426  20.525  25.307  1.00  0.00    -0.200 F 
ENDBRANCH  58  82
BRANCH  70  93
ATOM     93  C   UNL A   1      47.270  26.421  32.140  1.00  0.00     0.064 A 
ATOM     94  C   UNL A   1      47.378  25.557  33.239  1.00  0.00     0.173 A 
ATOM     95  C   UNL A   1      48.446  26.758  31.451  1.00  0.00     0.173 A 
ATOM     96  F   UNL A   1      46.286  25.217  33.940  1.00  0.00    -0.203 F 
ATOM     97  C   UNL A   1      48.617  25.070  33.647  1.00  0.00     0.198 A 
ATOM     98  C   UNL A   1      49.679  26.244  31.842  1.00  0.00     0.198 A 
ATOM     99  F   UNL A   1      48.397  27.576  30.389  1.00  0.00    -0.203 F 
ATOM    100  F   UNL A   1      48.702  24.285  34.730  1.00  0.00    -0.200 F 
ATOM    101  C   UNL A   1      49.764  25.406  32.944  1.00  0.00     0.200 A 
ATOM    102  F   UNL A   1      50.783  26.557  31.152  1.00  0.00    -0.200 F 
ATOM    103  F   UNL A   1      50.954  24.930  33.333  1.00  0.00    -0.200 F 
ENDBRANCH  70  93
ENDBRANCH  44  45
ENDBRANCH  36  39
ENDBRANCH  34  35
ENDBRANCH  33  34
ENDBRANCH  32  33
ENDBRANCH   1  32
TORSDOF 17
ENDMDL
MODEL 3
REMARK VINA RESULT:     -12.5      4.109      9.163
REMARK SMILES COc1ccc(CCN2C(=O)CC[C@@H](C(=O)NCCCCNC(=O)c3ccc(-c4c5nc(c(-c6c(F)c(F)c(F)c(F)c6F)c6ccc([nH]6)c(-c6c(F)c(F)c(F)c(F)c6F)c6nc(c(-c7c(F)c(F)c(F)c(F)c7F)c7ccc4[nH]7)C=C6)C=C5)cc3)[C@@H]2c2ccc(Cl)cc2)cc1OC
REMARK SMILES IDX 18 1 17 2 15 3 16 4 14 6 9 7 10 8 88 9 11 10 12 11 13 12
REMARK SMILES IDX 8 13 7 14 6 15 3 16 4 17 97 18 5 19 96 20 2 21 1 22 98 23
REMARK SMILES IDX 99 24 89 25 90 26 95 27 91 28 94 29 92 30 93 31 19 32 20 33
REMARK SMILES IDX 21 34 22 35 23 36 24 38 25 39 26 40 87 41 27 42 86 43 28 44
REMARK SMILES IDX 29 45 30 46 80 47 31 48 85 49 79 50 81 51 32 52 84 53 78 54
REMARK SMILES IDX 77 55 33 57 65 58 45 59 64 60 46 61 49 62 63 63 82 64 47 65
REMARK SMILES IDX 48 66 62 68 83 69 50 70 34 71 35 72 43 73 36 74 37 75 41 76
REMARK SMILES IDX 44 77 38 78 39 79 42 80 40 81 66 82 67 83 75 84 68 85 69 86
REMARK SMILES IDX 73 87 76 88 70 89 71 90 74 91 72 92 51 93 52 94 60 95 53 96
REMARK SMILES IDX 54 97 58 98 61 99 55 100 56 101 59 102 57 103
REMARK H PARENT 17 5 22 37 81 56 49 67
REMARK Flexibility Score: inf
ROOT
ATOM      1  C   UNL A   1      32.135  29.556  26.938  1.00  0.00     0.116 C 
ENDROOT
BRANCH   1   2
ATOM      2  N   UNL A   1      31.409  28.320  26.719  1.00  0.00    -0.356 N 
ATOM      3  C   UNL A   1      31.792  27.026  26.535  1.00  0.00     0.225 C 
ATOM      4  O   UNL A   1      30.898  26.199  26.767  1.00  0.00    -0.275 OA
ATOM      5  H   UNL A   1      30.432  28.441  26.699  1.00  0.00     0.163 HD
BRANCH   3   6
ATOM      6  C   UNL A   1      33.120  26.520  25.916  1.00  0.00     0.106 C 
ATOM      7  N   UNL A   1      32.416  25.623  23.667  1.00  0.00    -0.335 N 
ATOM      8  C   UNL A   1      32.565  26.884  23.088  1.00  0.00     0.223 C 
ATOM      9  C   UNL A   1      33.120  25.357  24.932  1.00  0.00     0.128 C 
ATOM     10  O   UNL A   1      32.094  27.157  21.983  1.00  0.00    -0.275 OA
ATOM     11  C   UNL A   1      33.259  27.993  23.889  1.00  0.00     0.101 C 
ATOM     12  C   UNL A   1      33.884  27.646  25.232  1.00  0.00     0.026 C 
BRANCH   7  13
ATOM     13  C   UNL A   1      31.463  24.631  23.034  1.00  0.00     0.125 C 
BRANCH  13  14
ATOM     14  C   UNL A   1      30.916  23.338  23.739  1.00  0.00     0.057 C 
BRANCH  14  15
ATOM     15  C   UNL A   1      31.842  22.163  24.051  1.00  0.00    -0.042 A 
ATOM     16  C   UNL A   1      33.181  19.704  24.602  1.00  0.00     0.160 A 
ATOM     17  C   UNL A   1      32.667  19.959  23.353  1.00  0.00     0.051 A 
ATOM     18  C   UNL A   1      33.150  20.718  25.569  1.00  0.00     0.160 A 
ATOM     19  C   UNL A   1      32.008  21.151  23.129  1.00  0.00     0.008 A 
ATOM     20  C   UNL A   1      32.469  21.940  25.286  1.00  0.00     0.054 A 
BRANCH  16  21
ATOM     21  O   UNL A   1      33.695  18.454  24.819  1.00  0.00    -0.493 OA
ATOM     22  C   UNL A   1      33.121  17.501  23.913  1.00  0.00     0.278 C 
ENDBRANCH  16  21
BRANCH  18  23
ATOM     23  O   UNL A   1      33.691  20.657  26.831  1.00  0.00    -0.493 OA
ATOM     24  C   UNL A   1      33.593  21.829  27.635  1.00  0.00     0.278 C 
ENDBRANCH  18  23
ENDBRANCH  14  15
ENDBRANCH  13  14
ENDBRANCH   7  13
BRANCH   9  25
ATOM     25  C   UNL A   1      34.498  24.677  24.719  1.00  0.00    -0.025 A 
ATOM     26  C   UNL A   1      34.822  24.027  23.514  1.00  0.00     0.007 A 
ATOM     27  C   UNL A   1      35.332  24.449  25.837  1.00  0.00     0.007 A 
ATOM     28  C   UNL A   1      35.841  23.070  23.467  1.00  0.00     0.021 A 
ATOM     29  C   UNL A   1      36.358  23.498  25.783  1.00  0.00     0.021 A 
ATOM     30  C   UNL A   1      36.581  22.785  24.610  1.00  0.00     0.041 A 
ATOM     31  Cl  UNL A   1      37.727  21.504  24.593  1.00  0.00    -0.084 Cl
ENDBRANCH   9  25
ENDBRANCH   3   6
ENDBRANCH   1   2
BRANCH   1  32
ATOM     32  C   UNL A   1      31.733  30.730  26.056  1.00  0.00     0.023 C 
BRANCH  32  33
ATOM     33  C   UNL A   1      31.436  32.032  26.781  1.00  0.00     0.023 C 
BRANCH  33  34
ATOM     34  C   UNL A   1      32.655  32.815  27.262  1.00  0.00     0.116 C 
BRANCH  34  35
ATOM     35  N   UNL A   1      32.372  34.196  27.625  1.00  0.00    -0.352 N 
ATOM     36  C   UNL A   1      32.991  34.994  28.568  1.00  0.00     0.251 C 
ATOM     37  H   UNL A   1      31.637  34.622  27.128  1.00  0.00     0.163 HD
ATOM     38  O   UNL A   1      32.581  36.113  28.803  1.00  0.00    -0.269 OA
BRANCH  36  39
ATOM     39  C   UNL A   1      34.140  34.447  29.329  1.00  0.00     0.039 A 
ATOM     40  C   UNL A   1      33.889  33.724  30.498  1.00  0.00     0.014 A 
ATOM     41  C   UNL A   1      35.445  34.599  28.859  1.00  0.00     0.014 A 
ATOM     42  C   UNL A   1      34.943  33.073  31.143  1.00  0.00     0.010 A 
ATOM     43  C   UNL A   1      36.477  33.879  29.452  1.00  0.00     0.010 A 
ATOM     44  C   UNL A   1      36.237  33.105  30.598  1.00  0.00    -0.014 A 
BRANCH  44  45
ATOM     45  C   UNL A   1      37.352  32.331  31.204  1.00  0.00     0.031 A 
ATOM     46  C   UNL A   1      37.854  32.684  32.576  1.00  0.00     0.074 A 
ATOM     47  C   UNL A   1      37.960  31.362  30.492  1.00  0.00     0.049 A 
ATOM     48  N   UNL A   1      38.861  32.182  33.245  1.00  0.00    -0.248 NA
ATOM     49  C   UNL A   1      37.148  33.767  33.278  1.00  0.00     0.031 C 
ATOM     50  C   UNL A   1      37.603  30.958  29.131  1.00  0.00     0.029 A 
ATOM     51  N   UNL A   1      39.017  30.545  30.812  1.00  0.00    -0.354 N 
ATOM     52  C   UNL A   1      38.917  32.896  34.435  1.00  0.00     0.074 A 
ATOM     53  C   UNL A   1      37.882  33.906  34.371  1.00  0.00     0.031 C 
ATOM     54  C   UNL A   1      38.406  29.955  28.744  1.00  0.00     0.029 A 
ATOM     55  C   UNL A   1      39.362  29.672  29.809  1.00  0.00     0.049 A 
ATOM     56  H   UNL A   1      39.484  30.583  31.677  1.00  0.00     0.167 HD
ATOM     57  C   UNL A   1      39.735  32.708  35.497  1.00  0.00     0.037 A 
ATOM     58  C   UNL A   1      40.343  28.749  29.754  1.00  0.00     0.037 A 
ATOM     59  C   UNL A   1      40.749  31.688  35.567  1.00  0.00     0.049 A 
ATOM     60  C   UNL A   1      41.250  28.570  30.942  1.00  0.00     0.074 A 
ATOM     61  C   UNL A   1      41.592  31.380  36.620  1.00  0.00     0.029 A 
ATOM     62  N   UNL A   1      41.058  30.811  34.537  1.00  0.00    -0.354 N 
ATOM     63  N   UNL A   1      41.246  29.202  32.091  1.00  0.00    -0.248 NA
ATOM     64  C   UNL A   1      42.296  27.544  30.827  1.00  0.00     0.031 C 
ATOM     65  C   UNL A   1      42.445  30.350  36.210  1.00  0.00     0.029 A 
ATOM     66  C   UNL A   1      42.096  29.978  34.922  1.00  0.00     0.049 A 
ATOM     67  H   UNL A   1      40.607  30.786  33.662  1.00  0.00     0.167 HD
ATOM     68  C   UNL A   1      42.262  28.631  32.846  1.00  0.00     0.074 A 
ATOM     69  C   UNL A   1      42.853  27.592  32.029  1.00  0.00     0.031 C 
ATOM     70  C   UNL A   1      42.667  28.940  34.101  1.00  0.00     0.037 A 
BRANCH  57  71
ATOM     71  C   UNL A   1      39.565  33.627  36.673  1.00  0.00     0.064 A 
ATOM     72  C   UNL A   1      38.748  33.284  37.763  1.00  0.00     0.173 A 
ATOM     73  C   UNL A   1      40.245  34.852  36.726  1.00  0.00     0.173 A 
ATOM     74  F   UNL A   1      38.066  32.129  37.757  1.00  0.00    -0.203 F 
ATOM     75  C   UNL A   1      38.592  34.148  38.843  1.00  0.00     0.198 A 
ATOM     76  C   UNL A   1      40.113  35.699  37.823  1.00  0.00     0.198 A 
ATOM     77  F   UNL A   1      41.044  35.228  35.715  1.00  0.00    -0.203 F 
ATOM     78  F   UNL A   1      37.761  33.824  39.843  1.00  0.00    -0.200 F 
ATOM     79  C   UNL A   1      39.279  35.352  38.876  1.00  0.00     0.200 A 
ATOM     80  F   UNL A   1      40.790  36.855  37.860  1.00  0.00    -0.200 F 
ATOM     81  F   UNL A   1      39.133  36.180  39.919  1.00  0.00    -0.200 F 
ENDBRANCH  57  71
BRANCH  58  82
ATOM     82  C   UNL A   1      40.504  27.904  28.542  1.00  0.00     0.064 A 
ATOM     83  C   UNL A   1      41.287  28.337  27.462  1.00  0.00     0.173 A 
ATOM     84  C   UNL A   1      39.875  26.654  28.431  1.00  0.00     0.173 A 
ATOM     85  F   UNL A   1      41.891  29.533  27.511  1.00  0.00    -0.203 F 
ATOM     86  C   UNL A   1      41.416  27.564  26.310  1.00  0.00     0.198 A 
ATOM     87  C   UNL A   1      40.030  25.869  27.291  1.00  0.00     0.198 A 
ATOM     88  F   UNL A   1      39.119  26.191  29.437  1.00  0.00    -0.203 F 
ATOM     89  F   UNL A   1      42.131  28.024  25.274  1.00  0.00    -0.200 F 
ATOM     90  C   UNL A   1      40.793  26.328  26.227  1.00  0.00     0.200 A 
ATOM     91  F   UNL A   1      39.438  24.669  27.220  1.00  0.00    -0.200 F 
ATOM     92  F   UNL A   1      40.921  25.583  25.120  1.00  0.00    -0.200 F 
ENDBRANCH  58  82
BRANCH  70  93
ATOM     93  C   UNL A   1      43.779  28.118  34.689  1.00  0.00     0.064 A 
ATOM     94  C   UNL A   1      45.119  28.521  34.608  1.00  0.00     0.173 A 
ATOM     95  C   UNL A   1      43.491  26.929  35.380  1.00  0.00     0.173 A 
ATOM     96  F   UNL A   1      45.448  29.641  33.945  1.00  0.00    -0.203 F 
ATOM     97  C   UNL A   1      46.134  27.752  35.173  1.00  0.00     0.198 A 
ATOM     98  C   UNL A   1      44.504  26.181  35.972  1.00  0.00     0.198 A 
ATOM     99  F   UNL A   1      42.224  26.503  35.493  1.00  0.00    -0.203 F 
ATOM    100  F   UNL A   1      47.412  28.132  35.039  1.00  0.00    -0.200 F 
ATOM    101  C   UNL A   1      45.825  26.589  35.861  1.00  0.00     0.200 A 
ATOM    102  F   UNL A   1      44.202  25.065  36.649  1.00  0.00    -0.200 F 
ATOM    103  F   UNL A   1      46.801  25.855  36.411  1.00  0.00    -0.200 F 
ENDBRANCH  70  93
ENDBRANCH  44  45
ENDBRANCH  36  39
ENDBRANCH  34  35
ENDBRANCH  33  34
ENDBRANCH  32  33
ENDBRANCH   1  32
TORSDOF 17
ENDMDL
