MODEL 1
REMARK VINA RESULT:     -14.0      0.000      0.000
REMARK SMILES Cc1ccc2[nH]cc([C@@H](C(=O)NCCCCNC(=O)c3ccc(-c4c5nc(c(-c6c(F)c(F)c(F)c(F)c6F)c6ccc([nH]6)c(-c6c(F)c(F)c(F)c(F)c6F)c6nc(c(-c7c(F)c(F)c(F)c(F)c7F)c7ccc4[nH]7)C=C6)C=C5)cc3)[NH+]3CCN(c4ccc(F)cc4)CC3)c2c1
REMARK SMILES IDX 14 1 13 2 12 3 10 4 11 5 9 7 8 8 1 9 2 10 3 11 97 12 4 13
REMARK SMILES IDX 96 14 5 15 6 16 7 17 83 19 84 20 95 21 85 23 94 24 86 25
REMARK SMILES IDX 87 26 88 27 93 28 89 29 92 30 90 31 91 32 15 33 16 34 17 35
REMARK SMILES IDX 18 36 19 38 20 39 21 40 82 41 22 42 81 43 23 44 24 45 25 46
REMARK SMILES IDX 75 47 26 48 80 49 74 50 76 51 27 52 79 53 73 54 72 55 28 57
REMARK SMILES IDX 60 58 40 59 59 60 41 61 44 62 58 63 77 64 42 65 43 66 57 68
REMARK SMILES IDX 78 69 45 70 29 71 30 72 38 73 31 74 32 75 36 76 39 77 33 78
REMARK SMILES IDX 34 79 37 80 35 81 61 82 62 83 70 84 63 85 64 86 68 87 71 88
REMARK SMILES IDX 65 89 66 90 69 91 67 92 46 93 47 94 55 95 48 96 49 97 53 98
REMARK SMILES IDX 56 99 50 100 51 101 54 102 52 103
REMARK H PARENT 12 6 6 18 83 22 17 37 76 56 44 67
REMARK Flexibility Score: inf
ROOT
ATOM      1  C   UNL A   1      37.135  21.136  24.289  1.00  0.00     0.023 C 
ENDROOT
BRANCH   1   2
ATOM      2  C   UNL A   1      36.637  22.280  25.170  1.00  0.00     0.116 C 
BRANCH   2   3
ATOM      3  N   UNL A   1      35.855  23.239  24.420  1.00  0.00    -0.351 N 
ATOM      4  C   UNL A   1      34.503  23.250  24.171  1.00  0.00     0.283 C 
ATOM      5  O   UNL A   1      34.105  24.168  23.448  1.00  0.00    -0.268 OA
ATOM      6  H   UNL A   1      36.362  23.989  24.032  1.00  0.00     0.163 HD
BRANCH   4   7
ATOM      7  C   UNL A   1      33.575  22.183  24.850  1.00  0.00     0.307 C 
BRANCH   7   8
ATOM      8  C   UNL A   1      32.960  21.223  23.861  1.00  0.00     0.044 A 
ATOM      9  C   UNL A   1      34.896  16.608  25.013  1.00  0.00     0.044 C 
ATOM     10  C   UNL A   1      33.978  17.530  24.262  1.00  0.00    -0.050 A 
ATOM     11  C   UNL A   1      33.211  17.060  23.195  1.00  0.00     0.005 A 
ATOM     12  C   UNL A   1      33.928  18.892  24.608  1.00  0.00     0.014 A 
ATOM     13  C   UNL A   1      32.415  17.923  22.433  1.00  0.00     0.027 A 
ATOM     14  C   UNL A   1      33.159  19.793  23.835  1.00  0.00     0.009 A 
ATOM     15  C   UNL A   1      32.435  19.283  22.760  1.00  0.00     0.046 A 
ATOM     16  N   UNL A   1      31.823  20.347  22.142  1.00  0.00    -0.361 N 
ATOM     17  C   UNL A   1      32.196  21.518  22.744  1.00  0.00     0.094 A 
ATOM     18  H   UNL A   1      31.206  20.277  21.379  1.00  0.00     0.166 HD
ENDBRANCH   7   8
BRANCH   7  19
ATOM     19  N   UNL A   1      32.597  22.782  25.789  1.00  0.00    -0.318 N 
ATOM     20  C   UNL A   1      32.994  23.971  26.561  1.00  0.00     0.284 C 
ATOM     21  C   UNL A   1      31.241  22.961  25.243  1.00  0.00     0.284 C 
ATOM     22  H   UNL A   1      32.584  22.029  26.476  1.00  0.00     0.349 HD
ATOM     23  C   UNL A   1      32.718  25.358  25.943  1.00  0.00     0.178 C 
ATOM     24  C   UNL A   1      30.958  24.295  24.512  1.00  0.00     0.178 C 
ATOM     25  N   UNL A   1      31.399  25.449  25.308  1.00  0.00    -0.360 N 
BRANCH  25  26
ATOM     26  C   UNL A   1      31.042  26.694  24.788  1.00  0.00     0.037 A 
ATOM     27  C   UNL A   1      31.657  27.889  25.192  1.00  0.00     0.029 A 
ATOM     28  C   UNL A   1      30.026  26.760  23.826  1.00  0.00     0.029 A 
ATOM     29  C   UNL A   1      31.240  29.120  24.682  1.00  0.00     0.041 A 
ATOM     30  C   UNL A   1      29.601  27.988  23.316  1.00  0.00     0.041 A 
ATOM     31  C   UNL A   1      30.208  29.158  23.755  1.00  0.00     0.123 A 
ATOM     32  F   UNL A   1      29.793  30.338  23.277  1.00  0.00    -0.207 F 
ENDBRANCH  25  26
ENDBRANCH   7  19
ENDBRANCH   4   7
ENDBRANCH   2   3
ENDBRANCH   1   2
BRANCH   1  33
ATOM     33  C   UNL A   1      37.804  19.991  25.043  1.00  0.00     0.023 C 
BRANCH  33  34
ATOM     34  C   UNL A   1      39.082  20.377  25.762  1.00  0.00     0.116 C 
BRANCH  34  35
ATOM     35  N   UNL A   1      40.032  19.281  25.858  1.00  0.00    -0.352 N 
ATOM     36  C   UNL A   1      41.386  19.341  26.088  1.00  0.00     0.251 C 
ATOM     37  H   UNL A   1      39.658  18.377  25.745  1.00  0.00     0.163 HD
ATOM     38  O   UNL A   1      42.079  18.338  26.021  1.00  0.00    -0.269 OA
BRANCH  36  39
ATOM     39  C   UNL A   1      41.996  20.655  26.377  1.00  0.00     0.039 A 
ATOM     40  C   UNL A   1      42.274  21.513  25.313  1.00  0.00     0.014 A 
ATOM     41  C   UNL A   1      42.245  21.047  27.694  1.00  0.00     0.014 A 
ATOM     42  C   UNL A   1      42.755  22.796  25.577  1.00  0.00     0.010 A 
ATOM     43  C   UNL A   1      42.638  22.352  27.959  1.00  0.00     0.010 A 
ATOM     44  C   UNL A   1      42.910  23.234  26.903  1.00  0.00    -0.014 A 
BRANCH  44  45
ATOM     45  C   UNL A   1      43.387  24.604  27.204  1.00  0.00     0.031 A 
ATOM     46  C   UNL A   1      42.434  25.620  27.767  1.00  0.00     0.074 A 
ATOM     47  C   UNL A   1      44.659  24.945  26.919  1.00  0.00     0.049 A 
ATOM     48  N   UNL A   1      42.642  26.879  28.058  1.00  0.00    -0.248 NA
ATOM     49  C   UNL A   1      41.052  25.172  28.004  1.00  0.00     0.031 C 
ATOM     50  C   UNL A   1      45.657  24.063  26.315  1.00  0.00     0.029 A 
ATOM     51  N   UNL A   1      45.326  26.131  27.097  1.00  0.00    -0.354 N 
ATOM     52  C   UNL A   1      41.420  27.371  28.495  1.00  0.00     0.074 A 
ATOM     53  C   UNL A   1      40.459  26.297  28.371  1.00  0.00     0.031 C 
ATOM     54  C   UNL A   1      46.818  24.728  26.198  1.00  0.00     0.029 A 
ATOM     55  C   UNL A   1      46.637  26.091  26.689  1.00  0.00     0.049 A 
ATOM     56  H   UNL A   1      44.905  26.934  27.480  1.00  0.00     0.167 HD
ATOM     57  C   UNL A   1      41.130  28.600  28.983  1.00  0.00     0.037 A 
ATOM     58  C   UNL A   1      47.583  27.048  26.713  1.00  0.00     0.037 A 
ATOM     59  C   UNL A   1      42.096  29.654  29.134  1.00  0.00     0.049 A 
ATOM     60  C   UNL A   1      47.240  28.400  27.279  1.00  0.00     0.074 A 
ATOM     61  C   UNL A   1      41.922  30.916  29.675  1.00  0.00     0.029 A 
ATOM     62  N   UNL A   1      43.424  29.567  28.740  1.00  0.00    -0.354 N 
ATOM     63  N   UNL A   1      46.100  28.831  27.761  1.00  0.00    -0.248 NA
ATOM     64  C   UNL A   1      48.321  29.393  27.316  1.00  0.00     0.031 C 
ATOM     65  C   UNL A   1      43.134  31.607  29.569  1.00  0.00     0.029 A 
ATOM     66  C   UNL A   1      44.077  30.758  29.011  1.00  0.00     0.049 A 
ATOM     67  H   UNL A   1      43.841  28.775  28.328  1.00  0.00     0.167 HD
ATOM     68  C   UNL A   1      46.333  30.131  28.187  1.00  0.00     0.074 A 
ATOM     69  C   UNL A   1      47.729  30.413  27.919  1.00  0.00     0.031 C 
ATOM     70  C   UNL A   1      45.470  31.014  28.747  1.00  0.00     0.037 A 
BRANCH  57  71
ATOM     71  C   UNL A   1      39.712  28.863  29.399  1.00  0.00     0.064 A 
ATOM     72  C   UNL A   1      38.765  29.382  28.500  1.00  0.00     0.173 A 
ATOM     73  C   UNL A   1      39.284  28.571  30.702  1.00  0.00     0.173 A 
ATOM     74  F   UNL A   1      39.125  29.693  27.245  1.00  0.00    -0.203 F 
ATOM     75  C   UNL A   1      37.454  29.628  28.901  1.00  0.00     0.198 A 
ATOM     76  C   UNL A   1      37.965  28.788  31.091  1.00  0.00     0.198 A 
ATOM     77  F   UNL A   1      40.146  28.071  31.601  1.00  0.00    -0.203 F 
ATOM     78  F   UNL A   1      36.585  30.174  28.041  1.00  0.00    -0.200 F 
ATOM     79  C   UNL A   1      37.054  29.323  30.193  1.00  0.00     0.200 A 
ATOM     80  F   UNL A   1      37.576  28.482  32.336  1.00  0.00    -0.200 F 
ATOM     81  F   UNL A   1      35.791  29.555  30.575  1.00  0.00    -0.200 F 
ENDBRANCH  57  71
BRANCH  58  82
ATOM     82  C   UNL A   1      48.953  26.750  26.222  1.00  0.00     0.064 A 
ATOM     83  C   UNL A   1      49.331  27.069  24.910  1.00  0.00     0.173 A 
ATOM     84  C   UNL A   1      49.909  26.139  27.046  1.00  0.00     0.173 A 
ATOM     85  F   UNL A   1      48.446  27.638  24.077  1.00  0.00    -0.203 F 
ATOM     86  C   UNL A   1      50.604  26.766  24.433  1.00  0.00     0.198 A 
ATOM     87  C   UNL A   1      51.192  25.863  26.577  1.00  0.00     0.198 A 
ATOM     88  F   UNL A   1      49.601  25.821  28.311  1.00  0.00    -0.203 F 
ATOM     89  F   UNL A   1      50.923  27.037  23.160  1.00  0.00    -0.200 F 
ATOM     90  C   UNL A   1      51.535  26.167  25.268  1.00  0.00     0.200 A 
ATOM     91  F   UNL A   1      52.094  25.298  27.391  1.00  0.00    -0.200 F 
ATOM     92  F   UNL A   1      52.761  25.879  24.810  1.00  0.00    -0.200 F 
ENDBRANCH  58  82
BRANCH  70  93
ATOM     93  C   UNL A   1      46.021  32.352  29.148  1.00  0.00     0.064 A 
ATOM     94  C   UNL A   1      46.587  32.569  30.411  1.00  0.00     0.173 A 
ATOM     95  C   UNL A   1      46.009  33.422  28.239  1.00  0.00     0.173 A 
ATOM     96  F   UNL A   1      46.610  31.582  31.319  1.00  0.00    -0.203 F 
ATOM     97  C   UNL A   1      47.093  33.817  30.763  1.00  0.00     0.198 A 
ATOM     98  C   UNL A   1      46.545  34.660  28.583  1.00  0.00     0.198 A 
ATOM     99  F   UNL A   1      45.486  33.264  27.014  1.00  0.00    -0.203 F 
ATOM    100  F   UNL A   1      47.581  34.017  31.996  1.00  0.00    -0.200 F 
ATOM    101  C   UNL A   1      47.078  34.859  29.847  1.00  0.00     0.200 A 
ATOM    102  F   UNL A   1      46.543  35.660  27.691  1.00  0.00    -0.200 F 
ATOM    103  F   UNL A   1      47.570  36.058  30.185  1.00  0.00    -0.200 F 
ENDBRANCH  70  93
ENDBRANCH  44  45
ENDBRANCH  36  39
ENDBRANCH  34  35
ENDBRANCH  33  34
ENDBRANCH   1  33
TORSDOF 14
ENDMDL
MODEL 2
REMARK VINA RESULT:     -13.9      5.104      9.653
REMARK SMILES Cc1ccc2[nH]cc([C@@H](C(=O)NCCCCNC(=O)c3ccc(-c4c5nc(c(-c6c(F)c(F)c(F)c(F)c6F)c6ccc([nH]6)c(-c6c(F)c(F)c(F)c(F)c6F)c6nc(c(-c7c(F)c(F)c(F)c(F)c7F)c7ccc4[nH]7)C=C6)C=C5)cc3)[NH+]3CCN(c4ccc(F)cc4)CC3)c2c1
REMARK SMILES IDX 14 1 13 2 12 3 10 4 11 5 9 7 8 8 1 9 2 10 3 11 97 12 4 13
REMARK SMILES IDX 96 14 5 15 6 16 7 17 83 19 84 20 95 21 85 23 94 24 86 25
REMARK SMILES IDX 87 26 88 27 93 28 89 29 92 30 90 31 91 32 15 33 16 34 17 35
REMARK SMILES IDX 18 36 19 38 20 39 21 40 82 41 22 42 81 43 23 44 24 45 25 46
REMARK SMILES IDX 75 47 26 48 80 49 74 50 76 51 27 52 79 53 73 54 72 55 28 57
REMARK SMILES IDX 60 58 40 59 59 60 41 61 44 62 58 63 77 64 42 65 43 66 57 68
REMARK SMILES IDX 78 69 45 70 29 71 30 72 38 73 31 74 32 75 36 76 39 77 33 78
REMARK SMILES IDX 34 79 37 80 35 81 61 82 62 83 70 84 63 85 64 86 68 87 71 88
REMARK SMILES IDX 65 89 66 90 69 91 67 92 46 93 47 94 55 95 48 96 49 97 53 98
REMARK SMILES IDX 56 99 50 100 51 101 54 102 52 103
REMARK H PARENT 12 6 6 18 83 22 17 37 76 56 44 67
REMARK Flexibility Score: inf
ROOT
ATOM      1  C   UNL A   1      31.768  29.823  27.054  1.00  0.00     0.023 C 
ENDROOT
BRANCH   1   2
ATOM      2  C   UNL A   1      32.924  28.966  26.538  1.00  0.00     0.116 C 
BRANCH   2   3
ATOM      3  N   UNL A   1      32.662  27.552  26.703  1.00  0.00    -0.351 N 
ATOM      4  C   UNL A   1      32.081  26.669  25.825  1.00  0.00     0.283 C 
ATOM      5  O   UNL A   1      31.931  25.520  26.250  1.00  0.00    -0.268 OA
ATOM      6  H   UNL A   1      32.941  27.168  27.566  1.00  0.00     0.163 HD
BRANCH   4   7
ATOM      7  C   UNL A   1      31.723  27.137  24.371  1.00  0.00     0.307 C 
BRANCH   7   8
ATOM      8  C   UNL A   1      30.240  27.093  24.087  1.00  0.00     0.044 A 
ATOM      9  C   UNL A   1      28.907  31.908  22.903  1.00  0.00     0.044 C 
ATOM     10  C   UNL A   1      28.638  30.438  23.052  1.00  0.00    -0.050 A 
ATOM     11  C   UNL A   1      27.345  29.931  22.907  1.00  0.00     0.005 A 
ATOM     12  C   UNL A   1      29.691  29.570  23.389  1.00  0.00     0.014 A 
ATOM     13  C   UNL A   1      27.064  28.578  23.126  1.00  0.00     0.027 A 
ATOM     14  C   UNL A   1      29.431  28.205  23.648  1.00  0.00     0.009 A 
ATOM     15  C   UNL A   1      28.119  27.751  23.522  1.00  0.00     0.046 A 
ATOM     16  N   UNL A   1      28.115  26.423  23.875  1.00  0.00    -0.361 N 
ATOM     17  C   UNL A   1      29.361  26.042  24.290  1.00  0.00     0.094 A 
ATOM     18  H   UNL A   1      27.329  25.832  23.833  1.00  0.00     0.166 HD
ENDBRANCH   7   8
BRANCH   7  19
ATOM     19  N   UNL A   1      32.550  26.477  23.332  1.00  0.00    -0.318 N 
ATOM     20  C   UNL A   1      33.920  26.062  23.677  1.00  0.00     0.284 C 
ATOM     21  C   UNL A   1      31.870  25.408  22.581  1.00  0.00     0.284 C 
ATOM     22  H   UNL A   1      32.678  27.284  22.723  1.00  0.00     0.349 HD
ATOM     23  C   UNL A   1      34.123  24.640  24.240  1.00  0.00     0.178 C 
ATOM     24  C   UNL A   1      31.951  23.982  23.177  1.00  0.00     0.178 C 
ATOM     25  N   UNL A   1      33.332  23.627  23.532  1.00  0.00    -0.360 N 
BRANCH  25  26
ATOM     26  C   UNL A   1      33.515  22.302  23.933  1.00  0.00     0.037 A 
ATOM     27  C   UNL A   1      34.653  21.871  24.632  1.00  0.00     0.029 A 
ATOM     28  C   UNL A   1      32.526  21.359  23.625  1.00  0.00     0.029 A 
ATOM     29  C   UNL A   1      34.819  20.528  24.975  1.00  0.00     0.041 A 
ATOM     30  C   UNL A   1      32.688  20.014  23.961  1.00  0.00     0.041 A 
ATOM     31  C   UNL A   1      33.838  19.611  24.627  1.00  0.00     0.123 A 
ATOM     32  F   UNL A   1      34.003  18.318  24.938  1.00  0.00    -0.207 F 
ENDBRANCH  25  26
ENDBRANCH   7  19
ENDBRANCH   4   7
ENDBRANCH   2   3
ENDBRANCH   1   2
BRANCH   1  33
ATOM     33  C   UNL A   1      31.727  31.243  26.500  1.00  0.00     0.023 C 
BRANCH  33  34
ATOM     34  C   UNL A   1      32.923  32.097  26.877  1.00  0.00     0.116 C 
BRANCH  34  35
ATOM     35  N   UNL A   1      32.551  33.434  27.310  1.00  0.00    -0.352 N 
ATOM     36  C   UNL A   1      33.087  34.182  28.331  1.00  0.00     0.251 C 
ATOM     37  H   UNL A   1      31.820  33.860  26.807  1.00  0.00     0.163 HD
ATOM     38  O   UNL A   1      32.588  35.247  28.658  1.00  0.00    -0.269 OA
BRANCH  36  39
ATOM     39  C   UNL A   1      34.260  33.650  29.055  1.00  0.00     0.039 A 
ATOM     40  C   UNL A   1      34.055  32.702  30.058  1.00  0.00     0.014 A 
ATOM     41  C   UNL A   1      35.551  34.054  28.710  1.00  0.00     0.014 A 
ATOM     42  C   UNL A   1      35.157  32.116  30.681  1.00  0.00     0.010 A 
ATOM     43  C   UNL A   1      36.646  33.407  29.266  1.00  0.00     0.010 A 
ATOM     44  C   UNL A   1      36.459  32.442  30.267  1.00  0.00    -0.014 A 
BRANCH  44  45
ATOM     45  C   UNL A   1      37.642  31.805  30.893  1.00  0.00     0.031 A 
ATOM     46  C   UNL A   1      38.077  32.227  32.268  1.00  0.00     0.074 A 
ATOM     47  C   UNL A   1      38.350  30.891  30.203  1.00  0.00     0.049 A 
ATOM     48  N   UNL A   1      39.105  31.825  32.971  1.00  0.00    -0.248 NA
ATOM     49  C   UNL A   1      37.269  33.264  32.929  1.00  0.00     0.031 C 
ATOM     50  C   UNL A   1      38.060  30.448  28.839  1.00  0.00     0.029 A 
ATOM     51  N   UNL A   1      39.467  30.176  30.555  1.00  0.00    -0.354 N 
ATOM     52  C   UNL A   1      39.073  32.568  34.143  1.00  0.00     0.074 A 
ATOM     53  C   UNL A   1      37.965  33.491  34.032  1.00  0.00     0.031 C 
ATOM     54  C   UNL A   1      38.956  29.515  28.480  1.00  0.00     0.029 A 
ATOM     55  C   UNL A   1      39.903  29.318  29.575  1.00  0.00     0.049 A 
ATOM     56  H   UNL A   1      39.913  30.268  31.428  1.00  0.00     0.167 HD
ATOM     57  C   UNL A   1      39.878  32.470  35.227  1.00  0.00     0.037 A 
ATOM     58  C   UNL A   1      40.947  28.469  29.566  1.00  0.00     0.037 A 
ATOM     59  C   UNL A   1      40.959  31.529  35.344  1.00  0.00     0.049 A 
ATOM     60  C   UNL A   1      41.815  28.365  30.791  1.00  0.00     0.074 A 
ATOM     61  C   UNL A   1      41.796  31.304  36.422  1.00  0.00     0.029 A 
ATOM     62  N   UNL A   1      41.351  30.653  34.343  1.00  0.00    -0.354 N 
ATOM     63  N   UNL A   1      41.730  29.018  31.924  1.00  0.00    -0.248 NA
ATOM     64  C   UNL A   1      42.916  27.396  30.739  1.00  0.00     0.031 C 
ATOM     65  C   UNL A   1      42.723  30.322  36.058  1.00  0.00     0.029 A 
ATOM     66  C   UNL A   1      42.430  29.896  34.771  1.00  0.00     0.049 A 
ATOM     67  H   UNL A   1      40.926  30.579  33.457  1.00  0.00     0.167 HD
ATOM     68  C   UNL A   1      42.742  28.519  32.730  1.00  0.00     0.074 A 
ATOM     69  C   UNL A   1      43.420  27.496  31.960  1.00  0.00     0.031 C 
ATOM     70  C   UNL A   1      43.083  28.875  33.994  1.00  0.00     0.037 A 
BRANCH  57  71
ATOM     71  C   UNL A   1      39.610  33.401  36.374  1.00  0.00     0.064 A 
ATOM     72  C   UNL A   1      38.772  33.034  37.440  1.00  0.00     0.173 A 
ATOM     73  C   UNL A   1      40.218  34.664  36.425  1.00  0.00     0.173 A 
ATOM     74  F   UNL A   1      38.154  31.843  37.433  1.00  0.00    -0.203 F 
ATOM     75  C   UNL A   1      38.527  33.909  38.494  1.00  0.00     0.198 A 
ATOM     76  C   UNL A   1      39.996  35.525  37.497  1.00  0.00     0.198 A 
ATOM     77  F   UNL A   1      41.031  35.064  35.435  1.00  0.00    -0.203 F 
ATOM     78  F   UNL A   1      37.680  33.558  39.471  1.00  0.00    -0.200 F 
ATOM     79  C   UNL A   1      39.145  35.150  38.526  1.00  0.00     0.200 A 
ATOM     80  F   UNL A   1      40.604  36.718  37.533  1.00  0.00    -0.200 F 
ATOM     81  F   UNL A   1      38.914  35.989  39.545  1.00  0.00    -0.200 F 
ENDBRANCH  57  71
BRANCH  58  82
ATOM     82  C   UNL A   1      41.206  27.623  28.372  1.00  0.00     0.064 A 
ATOM     83  C   UNL A   1      42.106  28.037  27.380  1.00  0.00     0.173 A 
ATOM     84  C   UNL A   1      40.559  26.391  28.195  1.00  0.00     0.173 A 
ATOM     85  F   UNL A   1      42.735  29.215  27.495  1.00  0.00    -0.203 F 
ATOM     86  C   UNL A   1      42.331  27.263  26.243  1.00  0.00     0.198 A 
ATOM     87  C   UNL A   1      40.807  25.604  27.072  1.00  0.00     0.198 A 
ATOM     88  F   UNL A   1      39.696  25.947  29.118  1.00  0.00    -0.203 F 
ATOM     89  F   UNL A   1      43.160  27.704  25.288  1.00  0.00    -0.200 F 
ATOM     90  C   UNL A   1      41.685  26.045  26.092  1.00  0.00     0.200 A 
ATOM     91  F   UNL A   1      40.193  24.421  26.936  1.00  0.00    -0.200 F 
ATOM     92  F   UNL A   1      41.905  25.299  25.001  1.00  0.00    -0.200 F 
ENDBRANCH  58  82
BRANCH  70  93
ATOM     93  C   UNL A   1      44.212  28.123  34.637  1.00  0.00     0.064 A 
ATOM     94  C   UNL A   1      45.535  28.581  34.571  1.00  0.00     0.173 A 
ATOM     95  C   UNL A   1      43.958  26.945  35.355  1.00  0.00     0.173 A 
ATOM     96  F   UNL A   1      45.831  29.695  33.886  1.00  0.00    -0.203 F 
ATOM     97  C   UNL A   1      46.568  27.869  35.176  1.00  0.00     0.198 A 
ATOM     98  C   UNL A   1      44.989  26.253  35.985  1.00  0.00     0.198 A 
ATOM     99  F   UNL A   1      42.708  26.468  35.455  1.00  0.00    -0.203 F 
ATOM    100  F   UNL A   1      47.833  28.297  35.055  1.00  0.00    -0.200 F 
ATOM    101  C   UNL A   1      46.294  26.710  35.887  1.00  0.00     0.200 A 
ATOM    102  F   UNL A   1      44.719  25.142  36.685  1.00  0.00    -0.200 F 
ATOM    103  F   UNL A   1      47.289  26.030  36.472  1.00  0.00    -0.200 F 
ENDBRANCH  70  93
ENDBRANCH  44  45
ENDBRANCH  36  39
ENDBRANCH  34  35
ENDBRANCH  33  34
ENDBRANCH   1  33
TORSDOF 14
ENDMDL
MODEL 3
REMARK VINA RESULT:     -13.9      5.115      9.708
REMARK SMILES Cc1ccc2[nH]cc([C@@H](C(=O)NCCCCNC(=O)c3ccc(-c4c5nc(c(-c6c(F)c(F)c(F)c(F)c6F)c6ccc([nH]6)c(-c6c(F)c(F)c(F)c(F)c6F)c6nc(c(-c7c(F)c(F)c(F)c(F)c7F)c7ccc4[nH]7)C=C6)C=C5)cc3)[NH+]3CCN(c4ccc(F)cc4)CC3)c2c1
REMARK SMILES IDX 14 1 13 2 12 3 10 4 11 5 9 7 8 8 1 9 2 10 3 11 97 12 4 13
REMARK SMILES IDX 96 14 5 15 6 16 7 17 83 19 84 20 95 21 85 23 94 24 86 25
REMARK SMILES IDX 87 26 88 27 93 28 89 29 92 30 90 31 91 32 15 33 16 34 17 35
REMARK SMILES IDX 18 36 19 38 20 39 21 40 82 41 22 42 81 43 23 44 24 45 25 46
REMARK SMILES IDX 75 47 26 48 80 49 74 50 76 51 27 52 79 53 73 54 72 55 28 57
REMARK SMILES IDX 60 58 40 59 59 60 41 61 44 62 58 63 77 64 42 65 43 66 57 68
REMARK SMILES IDX 78 69 45 70 29 71 30 72 38 73 31 74 32 75 36 76 39 77 33 78
REMARK SMILES IDX 34 79 37 80 35 81 61 82 62 83 70 84 63 85 64 86 68 87 71 88
REMARK SMILES IDX 65 89 66 90 69 91 67 92 46 93 47 94 55 95 48 96 49 97 53 98
REMARK SMILES IDX 56 99 50 100 51 101 54 102 52 103
REMARK H PARENT 12 6 6 18 83 22 17 37 76 56 44 67
REMARK Flexibility Score: inf
ROOT
ATOM      1  C   UNL A   1      31.751  30.008  26.896  1.00  0.00     0.023 C 
ENDROOT
BRANCH   1   2
ATOM      2  C   UNL A   1      32.863  29.216  26.208  1.00  0.00     0.116 C 
BRANCH   2   3
ATOM      3  N   UNL A   1      32.725  27.792  26.425  1.00  0.00    -0.351 N 
ATOM      4  C   UNL A   1      32.191  26.837  25.594  1.00  0.00     0.283 C 
ATOM      5  O   UNL A   1      32.150  25.693  26.059  1.00  0.00    -0.268 OA
ATOM      6  H   UNL A   1      33.062  27.461  27.289  1.00  0.00     0.163 HD
BRANCH   4   7
ATOM      7  C   UNL A   1      31.749  27.225  24.140  1.00  0.00     0.307 C 
BRANCH   7   8
ATOM      8  C   UNL A   1      30.252  27.167  23.945  1.00  0.00     0.044 A 
ATOM      9  C   UNL A   1      28.826  31.939  22.696  1.00  0.00     0.044 C 
ATOM     10  C   UNL A   1      28.574  30.473  22.905  1.00  0.00    -0.050 A 
ATOM     11  C   UNL A   1      27.278  29.957  22.851  1.00  0.00     0.005 A 
ATOM     12  C   UNL A   1      29.650  29.620  23.206  1.00  0.00     0.014 A 
ATOM     13  C   UNL A   1      27.018  28.611  23.126  1.00  0.00     0.027 A 
ATOM     14  C   UNL A   1      29.412  28.262  23.521  1.00  0.00     0.009 A 
ATOM     15  C   UNL A   1      28.099  27.800  23.485  1.00  0.00     0.046 A 
ATOM     16  N   UNL A   1      28.122  26.483  23.877  1.00  0.00    -0.361 N 
ATOM     17  C   UNL A   1      29.392  26.120  24.231  1.00  0.00     0.094 A 
ATOM     18  H   UNL A   1      27.338  25.888  23.899  1.00  0.00     0.166 HD
ENDBRANCH   7   8
BRANCH   7  19
ATOM     19  N   UNL A   1      32.516  26.509  23.093  1.00  0.00    -0.318 N 
ATOM     20  C   UNL A   1      33.897  26.094  23.388  1.00  0.00     0.284 C 
ATOM     21  C   UNL A   1      31.789  25.416  22.426  1.00  0.00     0.284 C 
ATOM     22  H   UNL A   1      32.622  27.287  22.442  1.00  0.00     0.349 HD
ATOM     23  C   UNL A   1      34.114  24.696  24.004  1.00  0.00     0.178 C 
ATOM     24  C   UNL A   1      31.886  24.018  23.080  1.00  0.00     0.178 C 
ATOM     25  N   UNL A   1      33.279  23.662  23.383  1.00  0.00    -0.360 N 
BRANCH  25  26
ATOM     26  C   UNL A   1      33.468  22.355  23.833  1.00  0.00     0.037 A 
ATOM     27  C   UNL A   1      34.573  21.972  24.610  1.00  0.00     0.029 A 
ATOM     28  C   UNL A   1      32.521  21.379  23.497  1.00  0.00     0.029 A 
ATOM     29  C   UNL A   1      34.750  20.645  25.004  1.00  0.00     0.041 A 
ATOM     30  C   UNL A   1      32.695  20.048  23.883  1.00  0.00     0.041 A 
ATOM     31  C   UNL A   1      33.812  19.693  24.627  1.00  0.00     0.123 A 
ATOM     32  F   UNL A   1      33.988  18.415  24.987  1.00  0.00    -0.207 F 
ENDBRANCH  25  26
ENDBRANCH   7  19
ENDBRANCH   4   7
ENDBRANCH   2   3
ENDBRANCH   1   2
BRANCH   1  33
ATOM     33  C   UNL A   1      31.673  31.478  26.501  1.00  0.00     0.023 C 
BRANCH  33  34
ATOM     34  C   UNL A   1      32.881  32.301  26.908  1.00  0.00     0.116 C 
BRANCH  34  35
ATOM     35  N   UNL A   1      32.530  33.636  27.366  1.00  0.00    -0.352 N 
ATOM     36  C   UNL A   1      33.079  34.356  28.399  1.00  0.00     0.251 C 
ATOM     37  H   UNL A   1      31.805  34.082  26.871  1.00  0.00     0.163 HD
ATOM     38  O   UNL A   1      32.596  35.423  28.746  1.00  0.00    -0.269 OA
BRANCH  36  39
ATOM     39  C   UNL A   1      34.244  33.794  29.112  1.00  0.00     0.039 A 
ATOM     40  C   UNL A   1      34.028  32.807  30.074  1.00  0.00     0.014 A 
ATOM     41  C   UNL A   1      35.539  34.210  28.796  1.00  0.00     0.014 A 
ATOM     42  C   UNL A   1      35.123  32.194  30.683  1.00  0.00     0.010 A 
ATOM     43  C   UNL A   1      36.627  33.539  29.336  1.00  0.00     0.010 A 
ATOM     44  C   UNL A   1      36.430  32.534  30.295  1.00  0.00    -0.014 A 
BRANCH  44  45
ATOM     45  C   UNL A   1      37.606  31.870  30.905  1.00  0.00     0.031 A 
ATOM     46  C   UNL A   1      38.055  32.267  32.283  1.00  0.00     0.074 A 
ATOM     47  C   UNL A   1      38.296  30.955  30.199  1.00  0.00     0.049 A 
ATOM     48  N   UNL A   1      39.081  31.840  32.975  1.00  0.00    -0.248 NA
ATOM     49  C   UNL A   1      37.267  33.309  32.963  1.00  0.00     0.031 C 
ATOM     50  C   UNL A   1      37.991  30.534  28.832  1.00  0.00     0.029 A 
ATOM     51  N   UNL A   1      39.403  30.218  30.536  1.00  0.00    -0.354 N 
ATOM     52  C   UNL A   1      39.067  32.568  34.157  1.00  0.00     0.074 A 
ATOM     53  C   UNL A   1      37.973  33.509  34.065  1.00  0.00     0.031 C 
ATOM     54  C   UNL A   1      38.871  29.592  28.455  1.00  0.00     0.029 A 
ATOM     55  C   UNL A   1      39.820  29.366  29.542  1.00  0.00     0.049 A 
ATOM     56  H   UNL A   1      39.855  30.291  31.407  1.00  0.00     0.167 HD
ATOM     57  C   UNL A   1      39.876  32.443  35.235  1.00  0.00     0.037 A 
ATOM     58  C   UNL A   1      40.850  28.501  29.515  1.00  0.00     0.037 A 
ATOM     59  C   UNL A   1      40.942  31.483  35.334  1.00  0.00     0.049 A 
ATOM     60  C   UNL A   1      41.724  28.368  30.734  1.00  0.00     0.074 A 
ATOM     61  C   UNL A   1      41.782  31.231  36.404  1.00  0.00     0.029 A 
ATOM     62  N   UNL A   1      41.315  30.615  34.318  1.00  0.00    -0.354 N 
ATOM     63  N   UNL A   1      41.655  29.007  31.876  1.00  0.00    -0.248 NA
ATOM     64  C   UNL A   1      42.809  27.381  30.663  1.00  0.00     0.031 C 
ATOM     65  C   UNL A   1      42.691  30.239  36.021  1.00  0.00     0.029 A 
ATOM     66  C   UNL A   1      42.384  29.836  34.731  1.00  0.00     0.049 A 
ATOM     67  H   UNL A   1      40.884  30.559  33.434  1.00  0.00     0.167 HD
ATOM     68  C   UNL A   1      42.664  28.481  32.670  1.00  0.00     0.074 A 
ATOM     69  C   UNL A   1      43.321  27.458  31.883  1.00  0.00     0.031 C 
ATOM     70  C   UNL A   1      43.017  28.814  33.936  1.00  0.00     0.037 A 
BRANCH  57  71
ATOM     71  C   UNL A   1      39.629  33.362  36.396  1.00  0.00     0.064 A 
ATOM     72  C   UNL A   1      40.227  34.631  36.471  1.00  0.00     0.173 A 
ATOM     73  C   UNL A   1      38.766  32.983  37.435  1.00  0.00     0.173 A 
ATOM     74  F   UNL A   1      41.073  35.036  35.512  1.00  0.00    -0.203 F 
ATOM     75  C   UNL A   1      39.995  35.470  37.558  1.00  0.00     0.198 A 
ATOM     76  C   UNL A   1      38.510  33.838  38.504  1.00  0.00     0.198 A 
ATOM     77  F   UNL A   1      38.165  31.783  37.412  1.00  0.00    -0.203 F 
ATOM     78  F   UNL A   1      40.620  36.653  37.634  1.00  0.00    -0.200 F 
ATOM     79  C   UNL A   1      39.131  35.076  38.568  1.00  0.00     0.200 A 
ATOM     80  F   UNL A   1      37.666  33.462  39.473  1.00  0.00    -0.200 F 
ATOM     81  F   UNL A   1      38.904  35.888  39.610  1.00  0.00    -0.200 F 
ENDBRANCH  57  71
BRANCH  58  82
ATOM     82  C   UNL A   1      41.089  27.667  28.309  1.00  0.00     0.064 A 
ATOM     83  C   UNL A   1      40.479  26.412  28.172  1.00  0.00     0.173 A 
ATOM     84  C   UNL A   1      41.932  28.100  27.276  1.00  0.00     0.173 A 
ATOM     85  F   UNL A   1      39.678  25.946  29.142  1.00  0.00    -0.203 F 
ATOM     86  C   UNL A   1      40.722  25.611  27.058  1.00  0.00     0.198 A 
ATOM     87  C   UNL A   1      42.151  27.310  26.148  1.00  0.00     0.198 A 
ATOM     88  F   UNL A   1      42.533  29.295  27.355  1.00  0.00    -0.203 F 
ATOM     89  F   UNL A   1      40.164  24.396  26.975  1.00  0.00    -0.200 F 
ATOM     90  C   UNL A   1      41.554  26.062  26.045  1.00  0.00     0.200 A 
ATOM     91  F   UNL A   1      42.944  27.756  25.164  1.00  0.00    -0.200 F 
ATOM     92  F   UNL A   1      41.785  25.294  24.972  1.00  0.00    -0.200 F 
ENDBRANCH  58  82
BRANCH  70  93
ATOM     93  C   UNL A   1      44.138  28.037  34.563  1.00  0.00     0.064 A 
ATOM     94  C   UNL A   1      45.467  28.475  34.497  1.00  0.00     0.173 A 
ATOM     95  C   UNL A   1      43.869  26.852  35.266  1.00  0.00     0.173 A 
ATOM     96  F   UNL A   1      45.777  29.594  33.825  1.00  0.00    -0.203 F 
ATOM     97  C   UNL A   1      46.492  27.739  35.086  1.00  0.00     0.198 A 
ATOM     98  C   UNL A   1      44.892  26.136  35.881  1.00  0.00     0.198 A 
ATOM     99  F   UNL A   1      42.612  26.394  35.365  1.00  0.00    -0.203 F 
ATOM    100  F   UNL A   1      47.763  28.149  34.965  1.00  0.00    -0.200 F 
ATOM    101  C   UNL A   1      46.204  26.575  35.782  1.00  0.00     0.200 A 
ATOM    102  F   UNL A   1      44.609  25.020  36.566  1.00  0.00    -0.200 F 
ATOM    103  F   UNL A   1      47.191  25.871  36.353  1.00  0.00    -0.200 F 
ENDBRANCH  70  93
ENDBRANCH  44  45
ENDBRANCH  36  39
ENDBRANCH  34  35
ENDBRANCH  33  34
ENDBRANCH   1  33
TORSDOF 14
ENDMDL
