MODEL 1
REMARK VINA RESULT:     -12.8      0.000      0.000
REMARK SMILES COc1cc(/C=C2\SC(=S)N(CCC(=O)Nc3ccc(C(=O)NCCCCNC(=O)c4ccc(-c5c6nc(c(-c7c(F)c(F)c(F)c(F)c7F)c7ccc([nH]7)c(-c7c(F)c(F)c(F)c(F)c7F)c7nc(c(-c8c(F)c(F)c(F)c(F)c8F)c8ccc5[nH]8)C=C7)C=C6)cc4)cc3)C2=O)ccc1O
REMARK SMILES IDX 21 1 22 2 23 3 20 5 17 6 18 7 95 8 19 9 94 10 16 11 14 12
REMARK SMILES IDX 15 13 13 15 12 16 11 17 6 18 7 19 8 20 96 21 9 22 97 23
REMARK SMILES IDX 10 24 5 25 3 26 4 27 100 28 99 29 98 30 2 31 1 32 101 33
REMARK SMILES IDX 24 35 25 36 26 37 27 38 28 39 29 40 30 42 31 43 32 44 93 45
REMARK SMILES IDX 33 46 92 47 34 48 35 49 36 50 86 51 37 52 91 53 85 54 87 55
REMARK SMILES IDX 38 56 90 57 84 58 83 59 39 61 71 62 51 63 70 64 52 65 55 66
REMARK SMILES IDX 69 67 88 68 53 69 54 70 68 72 89 73 56 74 40 75 41 76 49 77
REMARK SMILES IDX 42 78 43 79 47 80 50 81 44 82 45 83 48 84 46 85 72 86 73 87
REMARK SMILES IDX 81 88 74 89 75 90 79 91 82 92 76 93 77 94 80 95 78 96 57 97
REMARK SMILES IDX 58 98 66 99 59 100 60 101 64 102 67 103 61 104 62 105 65 106
REMARK SMILES IDX 63 107
REMARK H PARENT 23 4 16 14 101 34 28 41 87 60 55 71
REMARK Flexibility Score: inf
ROOT
ATOM      1  C   UNL A   1      34.674  22.027  26.845  1.00  0.00     0.251 C 
ATOM      2  O   UNL A   1      34.327  21.771  27.995  1.00  0.00    -0.269 OA
ATOM      3  N   UNL A   1      35.422  21.098  26.151  1.00  0.00    -0.352 N 
ATOM      4  H   UNL A   1      35.599  20.263  26.642  1.00  0.00     0.163 HD
ENDROOT
BRANCH   1   5
ATOM      5  C   UNL A   1      34.330  23.356  26.266  1.00  0.00     0.039 A 
ATOM      6  C   UNL A   1      33.731  26.024  25.551  1.00  0.00     0.041 A 
ATOM      7  C   UNL A   1      32.773  25.220  26.182  1.00  0.00     0.027 A 
ATOM      8  C   UNL A   1      34.907  25.417  25.122  1.00  0.00     0.027 A 
ATOM      9  C   UNL A   1      33.071  23.897  26.538  1.00  0.00     0.016 A 
ATOM     10  C   UNL A   1      35.198  24.088  25.461  1.00  0.00     0.016 A 
BRANCH   6  11
ATOM     11  N   UNL A   1      33.425  27.391  25.435  1.00  0.00    -0.326 N 
ATOM     12  C   UNL A   1      33.271  28.258  24.395  1.00  0.00     0.226 C 
ATOM     13  O   UNL A   1      32.994  29.431  24.670  1.00  0.00    -0.275 OA
ATOM     14  H   UNL A   1      33.290  27.823  26.310  1.00  0.00     0.169 HD
BRANCH  12  15
ATOM     15  C   UNL A   1      33.463  27.874  22.947  1.00  0.00     0.122 C 
BRANCH  15  16
ATOM     16  C   UNL A   1      32.235  27.283  22.248  1.00  0.00     0.137 C 
BRANCH  16  17
ATOM     17  N   UNL A   1      31.830  25.925  22.627  1.00  0.00    -0.292 N 
ATOM     18  C   UNL A   1      32.781  22.472  22.721  1.00  0.00     0.029 C 
ATOM     19  C   UNL A   1      32.007  23.569  22.682  1.00  0.00     0.081 C 
ATOM     20  S   UNL A   1      30.500  23.871  23.419  1.00  0.00    -0.054 SA
ATOM     21  C   UNL A   1      32.496  24.838  22.068  1.00  0.00     0.266 C 
ATOM     22  C   UNL A   1      30.734  25.614  23.404  1.00  0.00     0.148 C 
ATOM     23  O   UNL A   1      33.359  24.883  21.212  1.00  0.00    -0.268 OA
ATOM     24  S   UNL A   1      29.730  26.643  24.251  1.00  0.00    -0.052 S 
BRANCH  18  25
ATOM     25  C   UNL A   1      32.601  21.190  23.439  1.00  0.00    -0.020 A 
ATOM     26  C   UNL A   1      32.658  18.725  23.310  1.00  0.00     0.161 A 
ATOM     27  C   UNL A   1      32.807  19.993  22.723  1.00  0.00     0.058 A 
ATOM     28  C   UNL A   1      32.235  18.660  24.635  1.00  0.00     0.157 A 
ATOM     29  C   UNL A   1      32.033  19.829  25.368  1.00  0.00     0.051 A 
ATOM     30  C   UNL A   1      32.198  21.084  24.771  1.00  0.00     0.012 A 
BRANCH  26  31
ATOM     31  O   UNL A   1      32.904  17.686  22.457  1.00  0.00    -0.493 OA
ATOM     32  C   UNL A   1      33.992  16.810  22.732  1.00  0.00     0.278 C 
ENDBRANCH  26  31
BRANCH  28  33
ATOM     33  O   UNL A   1      31.913  17.498  25.275  1.00  0.00    -0.504 OA
ATOM     34  H   UNL A   1      31.360  16.870  24.855  1.00  0.00     0.293 HD
ENDBRANCH  28  33
ENDBRANCH  18  25
ENDBRANCH  16  17
ENDBRANCH  15  16
ENDBRANCH  12  15
ENDBRANCH   6  11
ENDBRANCH   1   5
BRANCH   3  35
ATOM     35  C   UNL A   1      35.990  21.148  24.815  1.00  0.00     0.116 C 
BRANCH  35  36
ATOM     36  C   UNL A   1      37.513  21.269  24.784  1.00  0.00     0.023 C 
BRANCH  36  37
ATOM     37  C   UNL A   1      38.293  19.993  25.061  1.00  0.00     0.023 C 
BRANCH  37  38
ATOM     38  C   UNL A   1      39.469  20.142  26.017  1.00  0.00     0.116 C 
BRANCH  38  39
ATOM     39  N   UNL A   1      40.451  19.067  25.939  1.00  0.00    -0.352 N 
ATOM     40  C   UNL A   1      41.820  19.129  26.089  1.00  0.00     0.251 C 
ATOM     41  H   UNL A   1      40.086  18.173  25.751  1.00  0.00     0.163 HD
ATOM     42  O   UNL A   1      42.510  18.127  25.922  1.00  0.00    -0.269 OA
BRANCH  40  43
ATOM     43  C   UNL A   1      42.468  20.423  26.403  1.00  0.00     0.039 A 
ATOM     44  C   UNL A   1      42.954  21.205  25.351  1.00  0.00     0.014 A 
ATOM     45  C   UNL A   1      42.545  20.892  27.715  1.00  0.00     0.014 A 
ATOM     46  C   UNL A   1      43.418  22.497  25.609  1.00  0.00     0.010 A 
ATOM     47  C   UNL A   1      42.910  22.213  27.956  1.00  0.00     0.010 A 
ATOM     48  C   UNL A   1      43.344  23.034  26.905  1.00  0.00    -0.014 A 
BRANCH  48  49
ATOM     49  C   UNL A   1      43.680  24.458  27.168  1.00  0.00     0.031 A 
ATOM     50  C   UNL A   1      45.078  24.967  26.962  1.00  0.00     0.074 A 
ATOM     51  C   UNL A   1      42.735  25.281  27.665  1.00  0.00     0.049 A 
ATOM     52  N   UNL A   1      45.563  26.166  27.168  1.00  0.00    -0.248 NA
ATOM     53  C   UNL A   1      46.075  23.991  26.496  1.00  0.00     0.031 C 
ATOM     54  C   UNL A   1      41.359  24.894  27.983  1.00  0.00     0.029 A 
ATOM     55  N   UNL A   1      42.788  26.612  27.998  1.00  0.00    -0.354 N 
ATOM     56  C   UNL A   1      46.916  26.084  26.866  1.00  0.00     0.074 A 
ATOM     57  C   UNL A   1      47.190  24.703  26.532  1.00  0.00     0.031 C 
ATOM     58  C   UNL A   1      40.692  25.967  28.431  1.00  0.00     0.029 A 
ATOM     59  C   UNL A   1      41.600  27.109  28.473  1.00  0.00     0.049 A 
ATOM     60  H   UNL A   1      43.603  27.158  27.907  1.00  0.00     0.167 HD
ATOM     61  C   UNL A   1      47.841  27.074  26.842  1.00  0.00     0.037 A 
ATOM     62  C   UNL A   1      41.276  28.346  28.897  1.00  0.00     0.037 A 
ATOM     63  C   UNL A   1      47.561  28.449  27.167  1.00  0.00     0.049 A 
ATOM     64  C   UNL A   1      42.316  29.431  28.862  1.00  0.00     0.074 A 
ATOM     65  C   UNL A   1      48.409  29.541  27.104  1.00  0.00     0.029 A 
ATOM     66  N   UNL A   1      46.339  28.920  27.630  1.00  0.00    -0.354 N 
ATOM     67  N   UNL A   1      43.569  29.363  28.484  1.00  0.00    -0.248 NA
ATOM     68  C   UNL A   1      41.894  30.766  29.304  1.00  0.00     0.031 C 
ATOM     69  C   UNL A   1      47.721  30.659  27.588  1.00  0.00     0.029 A 
ATOM     70  C   UNL A   1      46.423  30.280  27.891  1.00  0.00     0.049 A 
ATOM     71  H   UNL A   1      45.533  28.369  27.755  1.00  0.00     0.167 HD
ATOM     72  C   UNL A   1      44.081  30.647  28.623  1.00  0.00     0.074 A 
ATOM     73  C   UNL A   1      42.994  31.478  29.098  1.00  0.00     0.031 C 
ATOM     74  C   UNL A   1      45.338  31.095  28.378  1.00  0.00     0.037 A 
BRANCH  61  75
ATOM     75  C   UNL A   1      49.245  26.697  26.459  1.00  0.00     0.064 A 
ATOM     76  C   UNL A   1      50.161  26.197  27.400  1.00  0.00     0.173 A 
ATOM     77  C   UNL A   1      49.683  26.830  25.132  1.00  0.00     0.173 A 
ATOM     78  F   UNL A   1      49.800  26.058  28.685  1.00  0.00    -0.203 F 
ATOM     79  C   UNL A   1      51.470  25.893  27.038  1.00  0.00     0.198 A 
ATOM     80  C   UNL A   1      50.982  26.488  24.766  1.00  0.00     0.198 A 
ATOM     81  F   UNL A   1      48.850  27.295  24.188  1.00  0.00    -0.203 F 
ATOM     82  F   UNL A   1      52.344  25.485  27.970  1.00  0.00    -0.200 F 
ATOM     83  C   UNL A   1      51.878  26.033  25.721  1.00  0.00     0.200 A 
ATOM     84  F   UNL A   1      51.370  26.609  23.489  1.00  0.00    -0.200 F 
ATOM     85  F   UNL A   1      53.139  25.740  25.374  1.00  0.00    -0.200 F 
ENDBRANCH  61  75
BRANCH  62  86
ATOM     86  C   UNL A   1      39.890  28.623  29.362  1.00  0.00     0.064 A 
ATOM     87  C   UNL A   1      38.914  29.102  28.476  1.00  0.00     0.173 A 
ATOM     88  C   UNL A   1      39.507  28.389  30.690  1.00  0.00     0.173 A 
ATOM     89  F   UNL A   1      39.237  29.360  27.200  1.00  0.00    -0.203 F 
ATOM     90  C   UNL A   1      37.611  29.346  28.905  1.00  0.00     0.198 A 
ATOM     91  C   UNL A   1      38.196  28.606  31.111  1.00  0.00     0.198 A 
ATOM     92  F   UNL A   1      40.401  27.925  31.576  1.00  0.00    -0.203 F 
ATOM     93  F   UNL A   1      36.707  29.839  28.047  1.00  0.00    -0.200 F 
ATOM     94  C   UNL A   1      37.251  29.090  30.219  1.00  0.00     0.200 A 
ATOM     95  F   UNL A   1      37.848  28.340  32.377  1.00  0.00    -0.200 F 
ATOM     96  F   UNL A   1      35.994  29.311  30.627  1.00  0.00    -0.200 F 
ENDBRANCH  62  86
BRANCH  74  97
ATOM     97  C   UNL A   1      45.601  32.557  28.605  1.00  0.00     0.064 A 
ATOM     98  C   UNL A   1      46.106  33.037  29.824  1.00  0.00     0.173 A 
ATOM     99  C   UNL A   1      45.370  33.489  27.580  1.00  0.00     0.173 A 
ATOM    100  F   UNL A   1      46.331  32.190  30.840  1.00  0.00    -0.203 F 
ATOM    101  C   UNL A   1      46.337  34.396  30.019  1.00  0.00     0.198 A 
ATOM    102  C   UNL A   1      45.637  34.843  27.768  1.00  0.00     0.198 A 
ATOM    103  F   UNL A   1      44.895  33.086  26.393  1.00  0.00    -0.203 F 
ATOM    104  F   UNL A   1      46.764  34.836  31.211  1.00  0.00    -0.200 F 
ATOM    105  C   UNL A   1      46.110  35.297  28.989  1.00  0.00     0.200 A 
ATOM    106  F   UNL A   1      45.431  35.708  26.766  1.00  0.00    -0.200 F 
ATOM    107  F   UNL A   1      46.339  36.603  29.178  1.00  0.00    -0.200 F 
ENDBRANCH  74  97
ENDBRANCH  48  49
ENDBRANCH  40  43
ENDBRANCH  38  39
ENDBRANCH  37  38
ENDBRANCH  36  37
ENDBRANCH  35  36
ENDBRANCH   3  35
TORSDOF 18
ENDMDL
MODEL 2
REMARK VINA RESULT:     -12.6      2.278      8.813
REMARK SMILES COc1cc(/C=C2\SC(=S)N(CCC(=O)Nc3ccc(C(=O)NCCCCNC(=O)c4ccc(-c5c6nc(c(-c7c(F)c(F)c(F)c(F)c7F)c7ccc([nH]7)c(-c7c(F)c(F)c(F)c(F)c7F)c7nc(c(-c8c(F)c(F)c(F)c(F)c8F)c8ccc5[nH]8)C=C7)C=C6)cc4)cc3)C2=O)ccc1O
REMARK SMILES IDX 21 1 22 2 23 3 20 5 17 6 18 7 95 8 19 9 94 10 16 11 14 12
REMARK SMILES IDX 15 13 13 15 12 16 11 17 6 18 7 19 8 20 96 21 9 22 97 23
REMARK SMILES IDX 10 24 5 25 3 26 4 27 100 28 99 29 98 30 2 31 1 32 101 33
REMARK SMILES IDX 24 35 25 36 26 37 27 38 28 39 29 40 30 42 31 43 32 44 93 45
REMARK SMILES IDX 33 46 92 47 34 48 35 49 36 50 86 51 37 52 91 53 85 54 87 55
REMARK SMILES IDX 38 56 90 57 84 58 83 59 39 61 71 62 51 63 70 64 52 65 55 66
REMARK SMILES IDX 69 67 88 68 53 69 54 70 68 72 89 73 56 74 40 75 41 76 49 77
REMARK SMILES IDX 42 78 43 79 47 80 50 81 44 82 45 83 48 84 46 85 72 86 73 87
REMARK SMILES IDX 81 88 74 89 75 90 79 91 82 92 76 93 77 94 80 95 78 96 57 97
REMARK SMILES IDX 58 98 66 99 59 100 60 101 64 102 67 103 61 104 62 105 65 106
REMARK SMILES IDX 63 107
REMARK H PARENT 23 4 16 14 101 34 28 41 87 60 55 71
REMARK Flexibility Score: inf
ROOT
ATOM      1  C   UNL A   1      33.114  19.983  24.574  1.00  0.00     0.251 C 
ATOM      2  O   UNL A   1      32.238  19.121  24.540  1.00  0.00    -0.269 OA
ATOM      3  N   UNL A   1      34.383  19.628  24.985  1.00  0.00    -0.352 N 
ATOM      4  H   UNL A   1      34.494  18.673  25.198  1.00  0.00     0.163 HD
ENDROOT
BRANCH   1   5
ATOM      5  C   UNL A   1      32.758  21.389  24.233  1.00  0.00     0.039 A 
ATOM      6  C   UNL A   1      31.886  23.894  23.258  1.00  0.00     0.041 A 
ATOM      7  C   UNL A   1      32.993  23.251  22.690  1.00  0.00     0.027 A 
ATOM      8  C   UNL A   1      31.353  23.357  24.427  1.00  0.00     0.027 A 
ATOM      9  C   UNL A   1      33.424  22.007  23.172  1.00  0.00     0.016 A 
ATOM     10  C   UNL A   1      31.797  22.123  24.921  1.00  0.00     0.016 A 
BRANCH   6  11
ATOM     11  N   UNL A   1      31.392  25.018  22.573  1.00  0.00    -0.326 N 
ATOM     12  C   UNL A   1      31.303  26.350  22.847  1.00  0.00     0.226 C 
ATOM     13  O   UNL A   1      30.791  27.073  21.984  1.00  0.00    -0.275 OA
ATOM     14  H   UNL A   1      31.026  24.789  21.688  1.00  0.00     0.169 HD
BRANCH  12  15
ATOM     15  C   UNL A   1      31.749  26.970  24.149  1.00  0.00     0.122 C 
BRANCH  15  16
ATOM     16  C   UNL A   1      32.641  28.209  24.024  1.00  0.00     0.137 C 
BRANCH  16  17
ATOM     17  N   UNL A   1      32.452  29.281  25.009  1.00  0.00    -0.292 N 
ATOM     18  C   UNL A   1      33.975  31.190  27.630  1.00  0.00     0.029 C 
ATOM     19  C   UNL A   1      33.028  30.595  26.886  1.00  0.00     0.081 C 
ATOM     20  S   UNL A   1      31.448  31.112  26.509  1.00  0.00    -0.054 SA
ATOM     21  C   UNL A   1      33.329  29.372  26.086  1.00  0.00     0.266 C 
ATOM     22  C   UNL A   1      31.380  30.145  25.040  1.00  0.00     0.148 C 
ATOM     23  O   UNL A   1      34.223  28.594  26.357  1.00  0.00    -0.268 OA
ATOM     24  S   UNL A   1      30.162  30.340  23.916  1.00  0.00    -0.052 S 
BRANCH  18  25
ATOM     25  C   UNL A   1      33.972  32.496  28.329  1.00  0.00    -0.020 A 
ATOM     26  C   UNL A   1      34.738  33.791  30.287  1.00  0.00     0.161 A 
ATOM     27  C   UNL A   1      34.681  32.599  29.543  1.00  0.00     0.058 A 
ATOM     28  C   UNL A   1      34.017  34.888  29.824  1.00  0.00     0.157 A 
ATOM     29  C   UNL A   1      33.315  34.815  28.622  1.00  0.00     0.051 A 
ATOM     30  C   UNL A   1      33.279  33.624  27.888  1.00  0.00     0.012 A 
BRANCH  26  31
ATOM     31  O   UNL A   1      35.476  33.695  31.433  1.00  0.00    -0.493 OA
ATOM     32  C   UNL A   1      35.115  32.720  32.406  1.00  0.00     0.278 C 
ENDBRANCH  26  31
BRANCH  28  33
ATOM     33  O   UNL A   1      33.871  36.052  30.524  1.00  0.00    -0.504 OA
ATOM     34  H   UNL A   1      34.614  36.446  30.936  1.00  0.00     0.293 HD
ENDBRANCH  28  33
ENDBRANCH  18  25
ENDBRANCH  16  17
ENDBRANCH  15  16
ENDBRANCH  12  15
ENDBRANCH   6  11
ENDBRANCH   1   5
BRANCH   3  35
ATOM     35  C   UNL A   1      35.581  20.431  25.154  1.00  0.00     0.116 C 
BRANCH  35  36
ATOM     36  C   UNL A   1      36.886  19.651  25.003  1.00  0.00     0.023 C 
BRANCH  36  37
ATOM     37  C   UNL A   1      38.154  20.481  24.885  1.00  0.00     0.023 C 
BRANCH  37  38
ATOM     38  C   UNL A   1      39.119  20.370  26.058  1.00  0.00     0.116 C 
BRANCH  38  39
ATOM     39  N   UNL A   1      40.026  19.230  25.989  1.00  0.00    -0.352 N 
ATOM     40  C   UNL A   1      41.397  19.202  26.125  1.00  0.00     0.251 C 
ATOM     41  H   UNL A   1      39.599  18.359  25.822  1.00  0.00     0.163 HD
ATOM     42  O   UNL A   1      42.016  18.154  25.969  1.00  0.00    -0.269 OA
BRANCH  40  43
ATOM     43  C   UNL A   1      42.135  20.455  26.408  1.00  0.00     0.039 A 
ATOM     44  C   UNL A   1      42.670  21.177  25.339  1.00  0.00     0.014 A 
ATOM     45  C   UNL A   1      42.248  20.947  27.709  1.00  0.00     0.014 A 
ATOM     46  C   UNL A   1      43.223  22.440  25.566  1.00  0.00     0.010 A 
ATOM     47  C   UNL A   1      42.704  22.244  27.920  1.00  0.00     0.010 A 
ATOM     48  C   UNL A   1      43.190  23.010  26.850  1.00  0.00    -0.014 A 
BRANCH  48  49
ATOM     49  C   UNL A   1      43.625  24.412  27.080  1.00  0.00     0.031 A 
ATOM     50  C   UNL A   1      42.649  25.449  27.561  1.00  0.00     0.074 A 
ATOM     51  C   UNL A   1      44.890  24.772  26.784  1.00  0.00     0.049 A 
ATOM     52  N   UNL A   1      42.839  26.725  27.788  1.00  0.00    -0.248 NA
ATOM     53  C   UNL A   1      41.266  25.001  27.784  1.00  0.00     0.031 C 
ATOM     54  C   UNL A   1      45.915  23.880  26.238  1.00  0.00     0.029 A 
ATOM     55  N   UNL A   1      45.529  25.982  26.892  1.00  0.00    -0.354 N 
ATOM     56  C   UNL A   1      41.603  27.230  28.169  1.00  0.00     0.074 A 
ATOM     57  C   UNL A   1      40.656  26.139  28.075  1.00  0.00     0.031 C 
ATOM     58  C   UNL A   1      47.060  24.564  26.091  1.00  0.00     0.029 A 
ATOM     59  C   UNL A   1      46.842  25.950  26.493  1.00  0.00     0.049 A 
ATOM     60  H   UNL A   1      45.087  26.797  27.224  1.00  0.00     0.167 HD
ATOM     61  C   UNL A   1      41.290  28.480  28.586  1.00  0.00     0.037 A 
ATOM     62  C   UNL A   1      47.769  26.927  26.452  1.00  0.00     0.037 A 
ATOM     63  C   UNL A   1      42.238  29.559  28.687  1.00  0.00     0.049 A 
ATOM     64  C   UNL A   1      47.402  28.308  26.920  1.00  0.00     0.074 A 
ATOM     65  C   UNL A   1      42.039  30.842  29.166  1.00  0.00     0.029 A 
ATOM     66  N   UNL A   1      43.566  29.486  28.287  1.00  0.00    -0.354 N 
ATOM     67  N   UNL A   1      46.253  28.750  27.369  1.00  0.00    -0.248 NA
ATOM     68  C   UNL A   1      48.463  29.322  26.884  1.00  0.00     0.031 C 
ATOM     69  C   UNL A   1      43.226  31.562  28.998  1.00  0.00     0.029 A 
ATOM     70  C   UNL A   1      44.187  30.712  28.476  1.00  0.00     0.049 A 
ATOM     71  H   UNL A   1      44.002  28.681  27.923  1.00  0.00     0.167 HD
ATOM     72  C   UNL A   1      46.455  30.087  27.688  1.00  0.00     0.074 A 
ATOM     73  C   UNL A   1      47.846  30.375  27.402  1.00  0.00     0.031 C 
ATOM     74  C   UNL A   1      45.569  30.991  28.174  1.00  0.00     0.037 A 
BRANCH  61  75
ATOM     75  C   UNL A   1      39.856  28.745  28.957  1.00  0.00     0.064 A 
ATOM     76  C   UNL A   1      38.923  29.211  28.016  1.00  0.00     0.173 A 
ATOM     77  C   UNL A   1      39.406  28.525  30.268  1.00  0.00     0.173 A 
ATOM     78  F   UNL A   1      39.300  29.448  26.751  1.00  0.00    -0.203 F 
ATOM     79  C   UNL A   1      37.610  29.491  28.385  1.00  0.00     0.198 A 
ATOM     80  C   UNL A   1      38.083  28.771  30.623  1.00  0.00     0.198 A 
ATOM     81  F   UNL A   1      40.252  28.073  31.206  1.00  0.00    -0.203 F 
ATOM     82  F   UNL A   1      36.758  30.003  27.485  1.00  0.00    -0.200 F 
ATOM     83  C   UNL A   1      37.190  29.266  29.686  1.00  0.00     0.200 A 
ATOM     84  F   UNL A   1      37.673  28.537  31.878  1.00  0.00    -0.200 F 
ATOM     85  F   UNL A   1      35.926  29.537  30.040  1.00  0.00    -0.200 F 
ENDBRANCH  61  75
BRANCH  62  86
ATOM     86  C   UNL A   1      49.143  26.616  25.975  1.00  0.00     0.064 A 
ATOM     87  C   UNL A   1      49.546  26.943  24.673  1.00  0.00     0.173 A 
ATOM     88  C   UNL A   1      50.088  26.014  26.819  1.00  0.00     0.173 A 
ATOM     89  F   UNL A   1      48.673  27.503  23.822  1.00  0.00    -0.203 F 
ATOM     90  C   UNL A   1      50.838  26.669  24.229  1.00  0.00     0.198 A 
ATOM     91  C   UNL A   1      51.388  25.767  26.383  1.00  0.00     0.198 A 
ATOM     92  F   UNL A   1      49.754  25.688  28.076  1.00  0.00    -0.203 F 
ATOM     93  F   UNL A   1      51.187  26.958  22.968  1.00  0.00    -0.200 F 
ATOM     94  C   UNL A   1      51.761  26.089  25.088  1.00  0.00     0.200 A 
ATOM     95  F   UNL A   1      52.281  25.224  27.222  1.00  0.00    -0.200 F 
ATOM     96  F   UNL A   1      53.007  25.840  24.665  1.00  0.00    -0.200 F 
ENDBRANCH  62  86
BRANCH  74  97
ATOM     97  C   UNL A   1      46.083  32.378  28.443  1.00  0.00     0.064 A 
ATOM     98  C   UNL A   1      46.019  33.391  27.473  1.00  0.00     0.173 A 
ATOM     99  C   UNL A   1      46.622  32.707  29.697  1.00  0.00     0.173 A 
ATOM    100  F   UNL A   1      45.525  33.127  26.254  1.00  0.00    -0.203 F 
ATOM    101  C   UNL A   1      46.505  34.669  27.737  1.00  0.00     0.198 A 
ATOM    102  C   UNL A   1      47.075  33.995  29.969  1.00  0.00     0.198 A 
ATOM    103  F   UNL A   1      46.701  31.780  30.663  1.00  0.00    -0.203 F 
ATOM    104  F   UNL A   1      46.487  35.602  26.776  1.00  0.00    -0.200 F 
ATOM    105  C   UNL A   1      47.026  34.972  28.987  1.00  0.00     0.200 A 
ATOM    106  F   UNL A   1      47.562  34.289  31.182  1.00  0.00    -0.200 F 
ATOM    107  F   UNL A   1      47.489  36.203  29.240  1.00  0.00    -0.200 F 
ENDBRANCH  74  97
ENDBRANCH  48  49
ENDBRANCH  40  43
ENDBRANCH  38  39
ENDBRANCH  37  38
ENDBRANCH  36  37
ENDBRANCH  35  36
ENDBRANCH   3  35
TORSDOF 18
ENDMDL
MODEL 3
REMARK VINA RESULT:     -12.4      2.258      5.389
REMARK SMILES COc1cc(/C=C2\SC(=S)N(CCC(=O)Nc3ccc(C(=O)NCCCCNC(=O)c4ccc(-c5c6nc(c(-c7c(F)c(F)c(F)c(F)c7F)c7ccc([nH]7)c(-c7c(F)c(F)c(F)c(F)c7F)c7nc(c(-c8c(F)c(F)c(F)c(F)c8F)c8ccc5[nH]8)C=C7)C=C6)cc4)cc3)C2=O)ccc1O
REMARK SMILES IDX 21 1 22 2 23 3 20 5 17 6 18 7 95 8 19 9 94 10 16 11 14 12
REMARK SMILES IDX 15 13 13 15 12 16 11 17 6 18 7 19 8 20 96 21 9 22 97 23
REMARK SMILES IDX 10 24 5 25 3 26 4 27 100 28 99 29 98 30 2 31 1 32 101 33
REMARK SMILES IDX 24 35 25 36 26 37 27 38 28 39 29 40 30 42 31 43 32 44 93 45
REMARK SMILES IDX 33 46 92 47 34 48 35 49 36 50 86 51 37 52 91 53 85 54 87 55
REMARK SMILES IDX 38 56 90 57 84 58 83 59 39 61 71 62 51 63 70 64 52 65 55 66
REMARK SMILES IDX 69 67 88 68 53 69 54 70 68 72 89 73 56 74 40 75 41 76 49 77
REMARK SMILES IDX 42 78 43 79 47 80 50 81 44 82 45 83 48 84 46 85 72 86 73 87
REMARK SMILES IDX 81 88 74 89 75 90 79 91 82 92 76 93 77 94 80 95 78 96 57 97
REMARK SMILES IDX 58 98 66 99 59 100 60 101 64 102 67 103 61 104 62 105 65 106
REMARK SMILES IDX 63 107
REMARK H PARENT 23 4 16 14 101 34 28 41 87 60 55 71
REMARK Flexibility Score: inf
ROOT
ATOM      1  C   UNL A   1      33.056  19.797  24.796  1.00  0.00     0.251 C 
ATOM      2  O   UNL A   1      32.209  18.906  24.815  1.00  0.00    -0.269 OA
ATOM      3  N   UNL A   1      34.379  19.462  24.996  1.00  0.00    -0.352 N 
ATOM      4  H   UNL A   1      34.547  18.499  25.115  1.00  0.00     0.163 HD
ENDROOT
BRANCH   1   5
ATOM      5  C   UNL A   1      32.615  21.209  24.620  1.00  0.00     0.039 A 
ATOM      6  C   UNL A   1      31.476  23.733  24.053  1.00  0.00     0.041 A 
ATOM      7  C   UNL A   1      32.293  23.089  23.115  1.00  0.00     0.027 A 
ATOM      8  C   UNL A   1      31.398  23.184  25.330  1.00  0.00     0.027 A 
ATOM      9  C   UNL A   1      32.857  21.836  23.395  1.00  0.00     0.016 A 
ATOM     10  C   UNL A   1      31.978  21.941  25.617  1.00  0.00     0.016 A 
BRANCH   6  11
ATOM     11  N   UNL A   1      30.779  24.867  23.604  1.00  0.00    -0.326 N 
ATOM     12  C   UNL A   1      31.014  26.210  23.620  1.00  0.00     0.226 C 
ATOM     13  O   UNL A   1      30.153  26.943  23.120  1.00  0.00    -0.275 OA
ATOM     14  H   UNL A   1      29.921  24.640  23.179  1.00  0.00     0.169 HD
BRANCH  12  15
ATOM     15  C   UNL A   1      32.233  26.841  24.249  1.00  0.00     0.122 C 
BRANCH  15  16
ATOM     16  C   UNL A   1      32.509  28.295  23.852  1.00  0.00     0.137 C 
BRANCH  16  17
ATOM     17  N   UNL A   1      32.347  29.321  24.888  1.00  0.00    -0.292 N 
ATOM     18  C   UNL A   1      33.955  31.148  27.517  1.00  0.00     0.029 C 
ATOM     19  C   UNL A   1      32.985  30.567  26.792  1.00  0.00     0.081 C 
ATOM     20  S   UNL A   1      31.382  31.070  26.506  1.00  0.00    -0.054 SA
ATOM     21  C   UNL A   1      33.270  29.384  25.928  1.00  0.00     0.266 C 
ATOM     22  C   UNL A   1      31.263  30.164  25.003  1.00  0.00     0.148 C 
ATOM     23  O   UNL A   1      34.188  28.611  26.126  1.00  0.00    -0.268 OA
ATOM     24  S   UNL A   1      29.994  30.383  23.943  1.00  0.00    -0.052 S 
BRANCH  18  25
ATOM     25  C   UNL A   1      33.963  32.423  28.270  1.00  0.00    -0.020 A 
ATOM     26  C   UNL A   1      34.664  33.606  30.320  1.00  0.00     0.161 A 
ATOM     27  C   UNL A   1      34.604  32.448  29.525  1.00  0.00     0.058 A 
ATOM     28  C   UNL A   1      34.014  34.750  29.866  1.00  0.00     0.157 A 
ATOM     29  C   UNL A   1      33.380  34.754  28.624  1.00  0.00     0.051 A 
ATOM     30  C   UNL A   1      33.341  33.596  27.839  1.00  0.00     0.012 A 
BRANCH  26  31
ATOM     31  O   UNL A   1      35.330  33.433  31.501  1.00  0.00    -0.493 OA
ATOM     32  C   UNL A   1      34.599  33.024  32.652  1.00  0.00     0.278 C 
ENDBRANCH  26  31
BRANCH  28  33
ATOM     33  O   UNL A   1      33.873  35.890  30.604  1.00  0.00    -0.504 OA
ATOM     34  H   UNL A   1      33.180  35.959  31.230  1.00  0.00     0.293 HD
ENDBRANCH  28  33
ENDBRANCH  18  25
ENDBRANCH  16  17
ENDBRANCH  15  16
ENDBRANCH  12  15
ENDBRANCH   6  11
ENDBRANCH   1   5
BRANCH   3  35
ATOM     35  C   UNL A   1      35.567  20.297  25.060  1.00  0.00     0.116 C 
BRANCH  35  36
ATOM     36  C   UNL A   1      36.882  19.524  24.981  1.00  0.00     0.023 C 
BRANCH  36  37
ATOM     37  C   UNL A   1      38.137  20.357  24.772  1.00  0.00     0.023 C 
BRANCH  37  38
ATOM     38  C   UNL A   1      39.132  20.340  25.925  1.00  0.00     0.116 C 
BRANCH  38  39
ATOM     39  N   UNL A   1      40.084  19.236  25.887  1.00  0.00    -0.352 N 
ATOM     40  C   UNL A   1      41.450  19.261  26.067  1.00  0.00     0.251 C 
ATOM     41  H   UNL A   1      39.697  18.350  25.706  1.00  0.00     0.163 HD
ATOM     42  O   UNL A   1      42.114  18.238  25.932  1.00  0.00    -0.269 OA
BRANCH  40  43
ATOM     43  C   UNL A   1      42.128  20.541  26.374  1.00  0.00     0.039 A 
ATOM     44  C   UNL A   1      42.542  21.355  25.316  1.00  0.00     0.014 A 
ATOM     45  C   UNL A   1      42.303  20.967  27.691  1.00  0.00     0.014 A 
ATOM     46  C   UNL A   1      43.032  22.636  25.580  1.00  0.00     0.010 A 
ATOM     47  C   UNL A   1      42.694  22.278  27.948  1.00  0.00     0.010 A 
ATOM     48  C   UNL A   1      43.056  23.131  26.895  1.00  0.00    -0.014 A 
BRANCH  48  49
ATOM     49  C   UNL A   1      43.420  24.544  27.178  1.00  0.00     0.031 A 
ATOM     50  C   UNL A   1      44.816  25.041  26.931  1.00  0.00     0.074 A 
ATOM     51  C   UNL A   1      42.505  25.366  27.730  1.00  0.00     0.049 A 
ATOM     52  N   UNL A   1      45.324  26.229  27.147  1.00  0.00    -0.248 NA
ATOM     53  C   UNL A   1      45.782  24.064  26.405  1.00  0.00     0.031 C 
ATOM     54  C   UNL A   1      41.138  24.988  28.091  1.00  0.00     0.029 A 
ATOM     55  N   UNL A   1      42.589  26.688  28.092  1.00  0.00    -0.354 N 
ATOM     56  C   UNL A   1      46.664  26.138  26.792  1.00  0.00     0.074 A 
ATOM     57  C   UNL A   1      46.907  24.762  26.415  1.00  0.00     0.031 C 
ATOM     58  C   UNL A   1      40.502  26.058  28.589  1.00  0.00     0.029 A 
ATOM     59  C   UNL A   1      41.425  27.188  28.624  1.00  0.00     0.049 A 
ATOM     60  H   UNL A   1      43.406  27.227  27.983  1.00  0.00     0.167 HD
ATOM     61  C   UNL A   1      47.599  27.117  26.756  1.00  0.00     0.037 A 
ATOM     62  C   UNL A   1      41.133  28.418  29.089  1.00  0.00     0.037 A 
ATOM     63  C   UNL A   1      47.350  28.487  27.124  1.00  0.00     0.049 A 
ATOM     64  C   UNL A   1      42.185  29.491  29.039  1.00  0.00     0.074 A 
ATOM     65  C   UNL A   1      48.209  29.570  27.054  1.00  0.00     0.029 A 
ATOM     66  N   UNL A   1      46.152  28.962  27.644  1.00  0.00    -0.354 N 
ATOM     67  N   UNL A   1      43.422  29.417  28.613  1.00  0.00    -0.248 NA
ATOM     68  C   UNL A   1      41.797  30.820  29.529  1.00  0.00     0.031 C 
ATOM     69  C   UNL A   1      47.554  30.684  27.590  1.00  0.00     0.029 A 
ATOM     70  C   UNL A   1      46.264  30.314  27.933  1.00  0.00     0.049 A 
ATOM     71  H   UNL A   1      45.345  28.417  27.786  1.00  0.00     0.167 HD
ATOM     72  C   UNL A   1      43.956  30.691  28.762  1.00  0.00     0.074 A 
ATOM     73  C   UNL A   1      42.898  31.523  29.298  1.00  0.00     0.031 C 
ATOM     74  C   UNL A   1      45.208  31.129  28.480  1.00  0.00     0.037 A 
BRANCH  61  75
ATOM     75  C   UNL A   1      48.983  26.733  26.311  1.00  0.00     0.064 A 
ATOM     76  C   UNL A   1      49.919  26.177  27.200  1.00  0.00     0.173 A 
ATOM     77  C   UNL A   1      49.380  26.915  24.977  1.00  0.00     0.173 A 
ATOM     78  F   UNL A   1      49.598  25.989  28.489  1.00  0.00    -0.203 F 
ATOM     79  C   UNL A   1      51.210  25.866  26.782  1.00  0.00     0.198 A 
ATOM     80  C   UNL A   1      50.660  26.566  24.555  1.00  0.00     0.198 A 
ATOM     81  F   UNL A   1      48.526  27.434  24.082  1.00  0.00    -0.203 F 
ATOM     82  F   UNL A   1      52.106  25.404  27.666  1.00  0.00    -0.200 F 
ATOM     83  C   UNL A   1      51.578  26.055  25.459  1.00  0.00     0.200 A 
ATOM     84  F   UNL A   1      51.009  26.735  23.271  1.00  0.00    -0.200 F 
ATOM     85  F   UNL A   1      52.821  25.755  25.058  1.00  0.00    -0.200 F 
ENDBRANCH  61  75
BRANCH  62  86
ATOM     86  C   UNL A   1      39.770  28.701  29.612  1.00  0.00     0.064 A 
ATOM     87  C   UNL A   1      38.753  29.163  28.764  1.00  0.00     0.173 A 
ATOM     88  C   UNL A   1      39.449  28.488  30.960  1.00  0.00     0.173 A 
ATOM     89  F   UNL A   1      39.016  29.400  27.471  1.00  0.00    -0.203 F 
ATOM     90  C   UNL A   1      37.471  29.412  29.248  1.00  0.00     0.198 A 
ATOM     91  C   UNL A   1      38.158  28.710  31.437  1.00  0.00     0.198 A 
ATOM     92  F   UNL A   1      40.384  28.040  31.811  1.00  0.00    -0.203 F 
ATOM     93  F   UNL A   1      36.527  29.889  28.425  1.00  0.00    -0.200 F 
ATOM     94  C   UNL A   1      37.172  29.177  30.582  1.00  0.00     0.200 A 
ATOM     95  F   UNL A   1      37.870  28.464  32.722  1.00  0.00    -0.200 F 
ATOM     96  F   UNL A   1      35.935  29.403  31.044  1.00  0.00    -0.200 F 
ENDBRANCH  62  86
BRANCH  74  97
ATOM     97  C   UNL A   1      45.498  32.582  28.731  1.00  0.00     0.064 A 
ATOM     98  C   UNL A   1      46.046  33.028  29.945  1.00  0.00     0.173 A 
ATOM     99  C   UNL A   1      45.249  33.541  27.735  1.00  0.00     0.173 A 
ATOM    100  F   UNL A   1      46.290  32.156  30.935  1.00  0.00    -0.203 F 
ATOM    101  C   UNL A   1      46.303  34.379  30.163  1.00  0.00     0.198 A 
ATOM    102  C   UNL A   1      45.541  34.886  27.945  1.00  0.00     0.198 A 
ATOM    103  F   UNL A   1      44.733  33.171  26.554  1.00  0.00    -0.203 F 
ATOM    104  F   UNL A   1      46.771  34.786  31.351  1.00  0.00    -0.200 F 
ATOM    105  C   UNL A   1      46.057  35.306  29.161  1.00  0.00     0.200 A 
ATOM    106  F   UNL A   1      45.318  35.777  26.969  1.00  0.00    -0.200 F 
ATOM    107  F   UNL A   1      46.310  36.604  29.371  1.00  0.00    -0.200 F 
ENDBRANCH  74  97
ENDBRANCH  48  49
ENDBRANCH  40  43
ENDBRANCH  38  39
ENDBRANCH  37  38
ENDBRANCH  36  37
ENDBRANCH  35  36
ENDBRANCH   3  35
TORSDOF 18
ENDMDL
