MODEL 1
REMARK VINA RESULT:     -13.6      0.000      0.000
REMARK SMILES C[C@]1(c2ccccc2C(=O)NCCCCNC(=O)c2ccc(-c3c4nc(c(-c5c(F)c(F)c(F)c(F)c5F)c5ccc([nH]5)c(-c5c(F)c(F)c(F)c(F)c5F)c5nc(c(-c6c(F)c(F)c(F)c(F)c6F)c6ccc3[nH]6)C=C5)C=C4)cc2)NN=C(c2ccccc2)S1
REMARK SMILES IDX 13 1 12 2 11 3 9 4 10 5 8 7 3 8 4 9 5 10 7 11 6 12 2 13 1 14
REMARK SMILES IDX 82 15 91 16 83 17 84 19 85 20 86 21 90 22 87 23 89 24 88 25
REMARK SMILES IDX 14 26 15 27 16 28 17 29 18 31 19 32 20 33 81 34 21 35 80 36
REMARK SMILES IDX 22 37 23 38 24 39 74 40 25 41 79 42 73 43 75 44 26 45 78 46
REMARK SMILES IDX 72 47 71 48 27 50 59 51 39 52 58 53 40 54 43 55 57 56 76 57
REMARK SMILES IDX 41 58 42 59 56 61 77 62 44 63 28 64 29 65 37 66 30 67 31 68
REMARK SMILES IDX 35 69 38 70 32 71 33 72 36 73 34 74 60 75 61 76 69 77 62 78
REMARK SMILES IDX 63 79 67 80 70 81 64 82 65 83 68 84 66 85 45 86 46 87 54 88
REMARK SMILES IDX 47 89 48 90 52 91 55 92 49 93 50 94 53 95 51 96
REMARK H PARENT 11 6 82 18 16 30 75 49 43 60
REMARK Flexibility Score: inf
ROOT
ATOM      1  C   UNL A   1      32.139  30.629  26.327  1.00  0.00     0.023 C 
ENDROOT
BRANCH   1   2
ATOM      2  C   UNL A   1      32.237  29.421  27.263  1.00  0.00     0.116 C 
BRANCH   2   3
ATOM      3  N   UNL A   1      31.309  28.339  26.985  1.00  0.00    -0.352 N 
ATOM      4  C   UNL A   1      31.375  27.115  26.350  1.00  0.00     0.251 C 
ATOM      5  O   UNL A   1      30.446  26.341  26.624  1.00  0.00    -0.269 OA
ATOM      6  H   UNL A   1      30.408  28.526  27.335  1.00  0.00     0.163 HD
BRANCH   4   7
ATOM      7  C   UNL A   1      32.421  26.597  25.380  1.00  0.00     0.046 A 
ATOM      8  C   UNL A   1      32.319  26.385  23.963  1.00  0.00     0.002 A 
ATOM      9  C   UNL A   1      33.380  25.716  23.301  1.00  0.00     0.008 A 
ATOM     10  C   UNL A   1      34.444  25.155  24.001  1.00  0.00     0.000 A 
ATOM     11  C   UNL A   1      33.505  25.989  26.055  1.00  0.00     0.014 A 
ATOM     12  C   UNL A   1      34.491  25.265  25.381  1.00  0.00     0.001 A 
BRANCH   8  13
ATOM     13  C   UNL A   1      31.138  26.822  23.094  1.00  0.00     0.129 C 
ATOM     14  C   UNL A   1      31.316  26.076  21.753  1.00  0.00     0.054 C 
ATOM     15  N   UNL A   1      29.758  26.466  23.535  1.00  0.00    -0.288 NA
ATOM     16  S   UNL A   1      31.027  28.640  23.177  1.00  0.00    -0.070 SA
ATOM     17  N   UNL A   1      28.763  27.416  23.292  1.00  0.00    -0.171 NA
ATOM     18  H   UNL A   1      29.559  25.607  23.974  1.00  0.00     0.185 HD
ATOM     19  C   UNL A   1      29.309  28.581  23.150  1.00  0.00     0.126 C 
BRANCH  19  20
ATOM     20  C   UNL A   1      28.720  29.916  23.031  1.00  0.00     0.009 A 
ATOM     21  C   UNL A   1      29.241  30.891  23.889  1.00  0.00     0.011 A 
ATOM     22  C   UNL A   1      28.118  30.289  21.819  1.00  0.00     0.011 A 
ATOM     23  C   UNL A   1      29.209  32.233  23.510  1.00  0.00     0.001 A 
ATOM     24  C   UNL A   1      28.087  31.636  21.448  1.00  0.00     0.001 A 
ATOM     25  C   UNL A   1      28.649  32.601  22.285  1.00  0.00     0.000 A 
ENDBRANCH  19  20
ENDBRANCH   8  13
ENDBRANCH   4   7
ENDBRANCH   2   3
ENDBRANCH   1   2
BRANCH   1  26
ATOM     26  C   UNL A   1      31.673  31.967  26.871  1.00  0.00     0.023 C 
BRANCH  26  27
ATOM     27  C   UNL A   1      32.831  32.813  27.345  1.00  0.00     0.116 C 
BRANCH  27  28
ATOM     28  N   UNL A   1      32.460  34.194  27.680  1.00  0.00    -0.352 N 
ATOM     29  C   UNL A   1      33.015  35.029  28.622  1.00  0.00     0.251 C 
ATOM     30  H   UNL A   1      31.714  34.573  27.162  1.00  0.00     0.163 HD
ATOM     31  O   UNL A   1      32.565  36.152  28.822  1.00  0.00    -0.269 OA
BRANCH  29  32
ATOM     32  C   UNL A   1      34.128  34.509  29.433  1.00  0.00     0.039 A 
ATOM     33  C   UNL A   1      33.851  33.745  30.568  1.00  0.00     0.014 A 
ATOM     34  C   UNL A   1      35.432  34.646  28.963  1.00  0.00     0.014 A 
ATOM     35  C   UNL A   1      34.885  33.033  31.174  1.00  0.00     0.010 A 
ATOM     36  C   UNL A   1      36.413  33.813  29.459  1.00  0.00     0.010 A 
ATOM     37  C   UNL A   1      36.161  33.018  30.588  1.00  0.00    -0.014 A 
BRANCH  37  38
ATOM     38  C   UNL A   1      37.290  32.247  31.156  1.00  0.00     0.031 A 
ATOM     39  C   UNL A   1      37.771  32.591  32.541  1.00  0.00     0.074 A 
ATOM     40  C   UNL A   1      37.944  31.339  30.407  1.00  0.00     0.049 A 
ATOM     41  N   UNL A   1      38.847  32.198  33.169  1.00  0.00    -0.248 NA
ATOM     42  C   UNL A   1      36.963  33.567  33.293  1.00  0.00     0.031 C 
ATOM     43  C   UNL A   1      37.613  30.969  29.029  1.00  0.00     0.029 A 
ATOM     44  N   UNL A   1      39.037  30.566  30.703  1.00  0.00    -0.354 N 
ATOM     45  C   UNL A   1      38.867  32.919  34.356  1.00  0.00     0.074 A 
ATOM     46  C   UNL A   1      37.750  33.834  34.321  1.00  0.00     0.031 C 
ATOM     47  C   UNL A   1      38.459  30.011  28.617  1.00  0.00     0.029 A 
ATOM     48  C   UNL A   1      39.416  29.732  29.681  1.00  0.00     0.049 A 
ATOM     49  H   UNL A   1      39.507  30.606  31.568  1.00  0.00     0.167 HD
ATOM     50  C   UNL A   1      39.712  32.797  35.403  1.00  0.00     0.037 A 
ATOM     51  C   UNL A   1      40.425  28.842  29.621  1.00  0.00     0.037 A 
ATOM     52  C   UNL A   1      40.768  31.825  35.459  1.00  0.00     0.049 A 
ATOM     53  C   UNL A   1      41.325  28.684  30.817  1.00  0.00     0.074 A 
ATOM     54  C   UNL A   1      41.634  31.548  36.500  1.00  0.00     0.029 A 
ATOM     55  N   UNL A   1      41.081  30.952  34.427  1.00  0.00    -0.354 N 
ATOM     56  N   UNL A   1      41.302  29.327  31.960  1.00  0.00    -0.248 NA
ATOM     57  C   UNL A   1      42.387  27.675  30.718  1.00  0.00     0.031 C 
ATOM     58  C   UNL A   1      42.494  30.527  36.085  1.00  0.00     0.029 A 
ATOM     59  C   UNL A   1      42.134  30.138  34.804  1.00  0.00     0.049 A 
ATOM     60  H   UNL A   1      40.622  30.917  33.557  1.00  0.00     0.167 HD
ATOM     61  C   UNL A   1      42.319  28.779  32.729  1.00  0.00     0.074 A 
ATOM     62  C   UNL A   1      42.936  27.744  31.923  1.00  0.00     0.031 C 
ATOM     63  C   UNL A   1      42.710  29.101  33.986  1.00  0.00     0.037 A 
BRANCH  50  64
ATOM     64  C   UNL A   1      39.505  33.721  36.568  1.00  0.00     0.064 A 
ATOM     65  C   UNL A   1      40.076  35.003  36.605  1.00  0.00     0.173 A 
ATOM     66  C   UNL A   1      38.739  33.315  37.671  1.00  0.00     0.173 A 
ATOM     67  F   UNL A   1      40.833  35.435  35.585  1.00  0.00    -0.203 F 
ATOM     68  C   UNL A   1      39.930  35.823  37.721  1.00  0.00     0.198 A 
ATOM     69  C   UNL A   1      38.562  34.154  38.769  1.00  0.00     0.198 A 
ATOM     70  F   UNL A   1      38.168  32.102  37.688  1.00  0.00    -0.203 F 
ATOM     71  F   UNL A   1      40.551  37.010  37.762  1.00  0.00    -0.200 F 
ATOM     72  C   UNL A   1      39.169  35.401  38.798  1.00  0.00     0.200 A 
ATOM     73  F   UNL A   1      37.816  33.748  39.806  1.00  0.00    -0.200 F 
ATOM     74  F   UNL A   1      39.030  36.189  39.873  1.00  0.00    -0.200 F 
ENDBRANCH  50  64
BRANCH  51  75
ATOM     75  C   UNL A   1      40.600  27.997  28.411  1.00  0.00     0.064 A 
ATOM     76  C   UNL A   1      39.994  26.735  28.331  1.00  0.00     0.173 A 
ATOM     77  C   UNL A   1      41.360  28.426  27.314  1.00  0.00     0.173 A 
ATOM     78  F   UNL A   1      39.271  26.273  29.361  1.00  0.00    -0.203 F 
ATOM     79  C   UNL A   1      40.156  25.926  27.207  1.00  0.00     0.198 A 
ATOM     80  C   UNL A   1      41.501  27.627  26.180  1.00  0.00     0.198 A 
ATOM     81  F   UNL A   1      41.953  29.628  27.336  1.00  0.00    -0.203 F 
ATOM     82  F   UNL A   1      39.598  24.708  27.175  1.00  0.00    -0.200 F 
ATOM     83  C   UNL A   1      40.906  26.375  26.130  1.00  0.00     0.200 A 
ATOM     84  F   UNL A   1      42.213  28.070  25.135  1.00  0.00    -0.200 F 
ATOM     85  F   UNL A   1      41.058  25.600  25.048  1.00  0.00    -0.200 F 
ENDBRANCH  51  75
BRANCH  63  86
ATOM     86  C   UNL A   1      43.821  28.294  34.589  1.00  0.00     0.064 A 
ATOM     87  C   UNL A   1      45.154  28.723  34.532  1.00  0.00     0.173 A 
ATOM     88  C   UNL A   1      43.534  27.114  35.291  1.00  0.00     0.173 A 
ATOM     89  F   UNL A   1      45.477  29.838  33.861  1.00  0.00    -0.203 F 
ATOM     90  C   UNL A   1      46.165  27.987  35.144  1.00  0.00     0.198 A 
ATOM     91  C   UNL A   1      44.543  26.397  35.926  1.00  0.00     0.198 A 
ATOM     92  F   UNL A   1      42.271  26.670  35.380  1.00  0.00    -0.203 F 
ATOM     93  F   UNL A   1      47.438  28.393  35.047  1.00  0.00    -0.200 F 
ATOM     94  C   UNL A   1      45.857  26.831  35.847  1.00  0.00     0.200 A 
ATOM     95  F   UNL A   1      44.242  25.290  36.617  1.00  0.00    -0.200 F 
ATOM     96  F   UNL A   1      46.830  26.133  36.448  1.00  0.00    -0.200 F 
ENDBRANCH  63  86
ENDBRANCH  37  38
ENDBRANCH  29  32
ENDBRANCH  27  28
ENDBRANCH  26  27
ENDBRANCH   1  26
TORSDOF 13
ENDMDL
MODEL 2
REMARK VINA RESULT:     -13.4      0.520      7.297
REMARK SMILES C[C@]1(c2ccccc2C(=O)NCCCCNC(=O)c2ccc(-c3c4nc(c(-c5c(F)c(F)c(F)c(F)c5F)c5ccc([nH]5)c(-c5c(F)c(F)c(F)c(F)c5F)c5nc(c(-c6c(F)c(F)c(F)c(F)c6F)c6ccc3[nH]6)C=C5)C=C4)cc2)NN=C(c2ccccc2)S1
REMARK SMILES IDX 13 1 12 2 11 3 9 4 10 5 8 7 3 8 4 9 5 10 7 11 6 12 2 13 1 14
REMARK SMILES IDX 82 15 91 16 83 17 84 19 85 20 86 21 90 22 87 23 89 24 88 25
REMARK SMILES IDX 14 26 15 27 16 28 17 29 18 31 19 32 20 33 81 34 21 35 80 36
REMARK SMILES IDX 22 37 23 38 24 39 74 40 25 41 79 42 73 43 75 44 26 45 78 46
REMARK SMILES IDX 72 47 71 48 27 50 59 51 39 52 58 53 40 54 43 55 57 56 76 57
REMARK SMILES IDX 41 58 42 59 56 61 77 62 44 63 28 64 29 65 37 66 30 67 31 68
REMARK SMILES IDX 35 69 38 70 32 71 33 72 36 73 34 74 60 75 61 76 69 77 62 78
REMARK SMILES IDX 63 79 67 80 70 81 64 82 65 83 68 84 66 85 45 86 46 87 54 88
REMARK SMILES IDX 47 89 48 90 52 91 55 92 49 93 50 94 53 95 51 96
REMARK H PARENT 11 6 82 18 16 30 75 49 43 60
REMARK Flexibility Score: inf
ROOT
ATOM      1  C   UNL A   1      31.788  30.627  26.119  1.00  0.00     0.023 C 
ENDROOT
BRANCH   1   2
ATOM      2  C   UNL A   1      32.260  29.388  26.885  1.00  0.00     0.116 C 
BRANCH   2   3
ATOM      3  N   UNL A   1      31.403  28.221  26.775  1.00  0.00    -0.352 N 
ATOM      4  C   UNL A   1      31.543  26.928  26.310  1.00  0.00     0.251 C 
ATOM      5  O   UNL A   1      30.671  26.141  26.704  1.00  0.00    -0.269 OA
ATOM      6  H   UNL A   1      30.496  28.395  27.115  1.00  0.00     0.163 HD
BRANCH   4   7
ATOM      7  C   UNL A   1      32.610  26.352  25.397  1.00  0.00     0.046 A 
ATOM      8  C   UNL A   1      32.587  26.175  23.972  1.00  0.00     0.002 A 
ATOM      9  C   UNL A   1      33.637  25.441  23.364  1.00  0.00     0.008 A 
ATOM     10  C   UNL A   1      34.608  24.789  24.118  1.00  0.00     0.000 A 
ATOM     11  C   UNL A   1      33.599  25.651  26.126  1.00  0.00     0.014 A 
ATOM     12  C   UNL A   1      34.572  24.869  25.500  1.00  0.00     0.001 A 
BRANCH   8  13
ATOM     13  C   UNL A   1      31.502  26.716  23.039  1.00  0.00     0.129 C 
ATOM     14  C   UNL A   1      31.575  25.838  21.770  1.00  0.00     0.054 C 
ATOM     15  N   UNL A   1      30.077  26.621  23.473  1.00  0.00    -0.288 NA
ATOM     16  S   UNL A   1      31.680  28.529  22.967  1.00  0.00    -0.070 SA
ATOM     17  N   UNL A   1      29.249  27.692  23.125  1.00  0.00    -0.171 NA
ATOM     18  H   UNL A   1      29.738  25.845  23.976  1.00  0.00     0.185 HD
ATOM     19  C   UNL A   1      29.976  28.740  22.900  1.00  0.00     0.126 C 
BRANCH  19  20
ATOM     20  C   UNL A   1      29.607  30.135  22.656  1.00  0.00     0.009 A 
ATOM     21  C   UNL A   1      29.275  30.455  21.335  1.00  0.00     0.011 A 
ATOM     22  C   UNL A   1      29.103  30.902  23.718  1.00  0.00     0.011 A 
ATOM     23  C   UNL A   1      28.396  31.507  21.079  1.00  0.00     0.001 A 
ATOM     24  C   UNL A   1      28.225  31.957  23.453  1.00  0.00     0.001 A 
ATOM     25  C   UNL A   1      27.859  32.244  22.137  1.00  0.00     0.000 A 
ENDBRANCH  19  20
ENDBRANCH   8  13
ENDBRANCH   4   7
ENDBRANCH   2   3
ENDBRANCH   1   2
BRANCH   1  26
ATOM     26  C   UNL A   1      31.400  31.881  26.880  1.00  0.00     0.023 C 
BRANCH  26  27
ATOM     27  C   UNL A   1      32.487  32.928  26.823  1.00  0.00     0.116 C 
BRANCH  27  28
ATOM     28  N   UNL A   1      32.202  34.125  27.626  1.00  0.00    -0.352 N 
ATOM     29  C   UNL A   1      32.930  34.657  28.665  1.00  0.00     0.251 C 
ATOM     30  H   UNL A   1      31.380  34.611  27.389  1.00  0.00     0.163 HD
ATOM     31  O   UNL A   1      32.539  35.646  29.276  1.00  0.00    -0.269 OA
BRANCH  29  32
ATOM     32  C   UNL A   1      34.164  33.962  29.068  1.00  0.00     0.039 A 
ATOM     33  C   UNL A   1      35.398  34.579  28.862  1.00  0.00     0.014 A 
ATOM     34  C   UNL A   1      34.067  32.779  29.797  1.00  0.00     0.014 A 
ATOM     35  C   UNL A   1      36.531  34.052  29.481  1.00  0.00     0.010 A 
ATOM     36  C   UNL A   1      35.152  32.361  30.540  1.00  0.00     0.010 A 
ATOM     37  C   UNL A   1      36.404  32.973  30.370  1.00  0.00    -0.014 A 
BRANCH  37  38
ATOM     38  C   UNL A   1      37.559  32.396  31.093  1.00  0.00     0.031 A 
ATOM     39  C   UNL A   1      38.362  31.316  30.419  1.00  0.00     0.074 A 
ATOM     40  C   UNL A   1      37.814  32.747  32.368  1.00  0.00     0.049 A 
ATOM     41  N   UNL A   1      39.284  30.532  30.914  1.00  0.00    -0.248 NA
ATOM     42  C   UNL A   1      38.031  31.033  29.011  1.00  0.00     0.031 C 
ATOM     43  C   UNL A   1      37.064  33.733  33.149  1.00  0.00     0.029 A 
ATOM     44  N   UNL A   1      38.778  32.302  33.235  1.00  0.00    -0.354 N 
ATOM     45  C   UNL A   1      39.594  29.638  29.898  1.00  0.00     0.074 A 
ATOM     46  C   UNL A   1      38.705  29.917  28.794  1.00  0.00     0.031 C 
ATOM     47  C   UNL A   1      37.623  33.847  34.365  1.00  0.00     0.029 A 
ATOM     48  C   UNL A   1      38.738  32.913  34.464  1.00  0.00     0.049 A 
ATOM     49  H   UNL A   1      39.435  31.608  33.000  1.00  0.00     0.167 HD
ATOM     50  C   UNL A   1      40.566  28.699  29.868  1.00  0.00     0.037 A 
ATOM     51  C   UNL A   1      39.523  32.734  35.544  1.00  0.00     0.037 A 
ATOM     52  C   UNL A   1      41.498  28.490  30.941  1.00  0.00     0.049 A 
ATOM     53  C   UNL A   1      40.633  31.720  35.473  1.00  0.00     0.074 A 
ATOM     54  C   UNL A   1      42.578  27.629  30.993  1.00  0.00     0.029 A 
ATOM     55  N   UNL A   1      41.466  29.175  32.147  1.00  0.00    -0.354 N 
ATOM     56  N   UNL A   1      40.961  30.919  34.487  1.00  0.00    -0.248 NA
ATOM     57  C   UNL A   1      41.486  31.588  36.661  1.00  0.00     0.031 C 
ATOM     58  C   UNL A   1      43.182  27.770  32.246  1.00  0.00     0.029 A 
ATOM     59  C   UNL A   1      42.505  28.750  32.956  1.00  0.00     0.049 A 
ATOM     60  H   UNL A   1      40.803  29.860  32.392  1.00  0.00     0.167 HD
ATOM     61  C   UNL A   1      42.074  30.214  34.920  1.00  0.00     0.074 A 
ATOM     62  C   UNL A   1      42.372  30.688  36.257  1.00  0.00     0.031 C 
ATOM     63  C   UNL A   1      42.788  29.260  34.273  1.00  0.00     0.037 A 
BRANCH  50  64
ATOM     64  C   UNL A   1      40.675  27.858  28.629  1.00  0.00     0.064 A 
ATOM     65  C   UNL A   1      41.452  28.259  27.530  1.00  0.00     0.173 A 
ATOM     66  C   UNL A   1      39.982  26.643  28.531  1.00  0.00     0.173 A 
ATOM     67  F   UNL A   1      42.121  29.421  27.563  1.00  0.00    -0.203 F 
ATOM     68  C   UNL A   1      41.490  27.501  26.363  1.00  0.00     0.198 A 
ATOM     69  C   UNL A   1      40.054  25.867  27.376  1.00  0.00     0.198 A 
ATOM     70  F   UNL A   1      39.227  26.210  29.551  1.00  0.00    -0.203 F 
ATOM     71  F   UNL A   1      42.176  27.945  25.300  1.00  0.00    -0.200 F 
ATOM     72  C   UNL A   1      40.797  26.303  26.289  1.00  0.00     0.200 A 
ATOM     73  F   UNL A   1      39.391  24.704  27.310  1.00  0.00    -0.200 F 
ATOM     74  F   UNL A   1      40.833  25.575  25.165  1.00  0.00    -0.200 F 
ENDBRANCH  50  64
BRANCH  51  75
ATOM     75  C   UNL A   1      39.323  33.570  36.756  1.00  0.00     0.064 A 
ATOM     76  C   UNL A   1      38.568  33.090  37.836  1.00  0.00     0.173 A 
ATOM     77  C   UNL A   1      39.882  34.851  36.870  1.00  0.00     0.173 A 
ATOM     78  F   UNL A   1      37.999  31.877  37.768  1.00  0.00    -0.203 F 
ATOM     79  C   UNL A   1      38.364  33.866  38.976  1.00  0.00     0.198 A 
ATOM     80  C   UNL A   1      39.698  35.616  38.020  1.00  0.00     0.198 A 
ATOM     81  F   UNL A   1      40.620  35.353  35.870  1.00  0.00    -0.203 F 
ATOM     82  F   UNL A   1      37.604  33.397  39.975  1.00  0.00    -0.200 F 
ATOM     83  C   UNL A   1      38.933  35.127  39.070  1.00  0.00     0.200 A 
ATOM     84  F   UNL A   1      40.262  36.828  38.115  1.00  0.00    -0.200 F 
ATOM     85  F   UNL A   1      38.741  35.871  40.167  1.00  0.00    -0.200 F 
ENDBRANCH  51  75
BRANCH  63  86
ATOM     86  C   UNL A   1      43.989  28.703  34.978  1.00  0.00     0.064 A 
ATOM     87  C   UNL A   1      43.903  27.560  35.783  1.00  0.00     0.173 A 
ATOM     88  C   UNL A   1      45.251  29.284  34.785  1.00  0.00     0.173 A 
ATOM     89  F   UNL A   1      42.715  26.979  36.007  1.00  0.00    -0.203 F 
ATOM     90  C   UNL A   1      45.038  27.026  36.386  1.00  0.00     0.198 A 
ATOM     91  C   UNL A   1      46.388  28.731  35.365  1.00  0.00     0.198 A 
ATOM     92  F   UNL A   1      45.384  30.374  34.013  1.00  0.00    -0.203 F 
ATOM     93  F   UNL A   1      44.930  25.954  37.183  1.00  0.00    -0.200 F 
ATOM     94  C   UNL A   1      46.280  27.606  36.169  1.00  0.00     0.200 A 
ATOM     95  F   UNL A   1      47.588  29.283  35.141  1.00  0.00    -0.200 F 
ATOM     96  F   UNL A   1      47.374  27.082  36.738  1.00  0.00    -0.200 F 
ENDBRANCH  63  86
ENDBRANCH  37  38
ENDBRANCH  29  32
ENDBRANCH  27  28
ENDBRANCH  26  27
ENDBRANCH   1  26
TORSDOF 13
ENDMDL
MODEL 3
REMARK VINA RESULT:     -13.4      1.376      3.585
REMARK SMILES C[C@]1(c2ccccc2C(=O)NCCCCNC(=O)c2ccc(-c3c4nc(c(-c5c(F)c(F)c(F)c(F)c5F)c5ccc([nH]5)c(-c5c(F)c(F)c(F)c(F)c5F)c5nc(c(-c6c(F)c(F)c(F)c(F)c6F)c6ccc3[nH]6)C=C5)C=C4)cc2)NN=C(c2ccccc2)S1
REMARK SMILES IDX 13 1 12 2 11 3 9 4 10 5 8 7 3 8 4 9 5 10 7 11 6 12 2 13 1 14
REMARK SMILES IDX 82 15 91 16 83 17 84 19 85 20 86 21 90 22 87 23 89 24 88 25
REMARK SMILES IDX 14 26 15 27 16 28 17 29 18 31 19 32 20 33 81 34 21 35 80 36
REMARK SMILES IDX 22 37 23 38 24 39 74 40 25 41 79 42 73 43 75 44 26 45 78 46
REMARK SMILES IDX 72 47 71 48 27 50 59 51 39 52 58 53 40 54 43 55 57 56 76 57
REMARK SMILES IDX 41 58 42 59 56 61 77 62 44 63 28 64 29 65 37 66 30 67 31 68
REMARK SMILES IDX 35 69 38 70 32 71 33 72 36 73 34 74 60 75 61 76 69 77 62 78
REMARK SMILES IDX 63 79 67 80 70 81 64 82 65 83 68 84 66 85 45 86 46 87 54 88
REMARK SMILES IDX 47 89 48 90 52 91 55 92 49 93 50 94 53 95 51 96
REMARK H PARENT 11 6 82 18 16 30 75 49 43 60
REMARK Flexibility Score: inf
ROOT
ATOM      1  C   UNL A   1      31.816  30.692  26.761  1.00  0.00     0.023 C 
ENDROOT
BRANCH   1   2
ATOM      2  C   UNL A   1      33.231  30.114  26.665  1.00  0.00     0.116 C 
BRANCH   2   3
ATOM      3  N   UNL A   1      33.625  29.640  25.351  1.00  0.00    -0.352 N 
ATOM      4  C   UNL A   1      32.976  29.127  24.246  1.00  0.00     0.251 C 
ATOM      5  O   UNL A   1      33.636  29.161  23.197  1.00  0.00    -0.269 OA
ATOM      6  H   UNL A   1      34.599  29.699  25.213  1.00  0.00     0.163 HD
BRANCH   4   7
ATOM      7  C   UNL A   1      31.580  28.540  24.146  1.00  0.00     0.046 A 
ATOM      8  C   UNL A   1      31.082  27.292  24.654  1.00  0.00     0.002 A 
ATOM      9  C   UNL A   1      29.780  26.878  24.273  1.00  0.00     0.008 A 
ATOM     10  C   UNL A   1      29.034  27.578  23.330  1.00  0.00     0.000 A 
ATOM     11  C   UNL A   1      30.801  29.206  23.172  1.00  0.00     0.014 A 
ATOM     12  C   UNL A   1      29.557  28.726  22.757  1.00  0.00     0.001 A 
BRANCH   8  13
ATOM     13  C   UNL A   1      31.853  26.353  25.583  1.00  0.00     0.129 C 
ATOM     14  C   UNL A   1      31.835  27.038  26.968  1.00  0.00     0.054 C 
ATOM     15  N   UNL A   1      31.301  24.990  25.838  1.00  0.00    -0.288 NA
ATOM     16  S   UNL A   1      33.412  25.901  24.753  1.00  0.00    -0.070 SA
ATOM     17  N   UNL A   1      32.231  23.955  25.958  1.00  0.00    -0.171 NA
ATOM     18  H   UNL A   1      30.332  24.829  25.917  1.00  0.00     0.185 HD
ATOM     19  C   UNL A   1      33.337  24.303  25.381  1.00  0.00     0.126 C 
BRANCH  19  20
ATOM     20  C   UNL A   1      34.555  23.545  25.092  1.00  0.00     0.009 A 
ATOM     21  C   UNL A   1      34.706  23.116  23.769  1.00  0.00     0.011 A 
ATOM     22  C   UNL A   1      35.683  23.732  25.909  1.00  0.00     0.011 A 
ATOM     23  C   UNL A   1      35.985  22.924  23.247  1.00  0.00     0.001 A 
ATOM     24  C   UNL A   1      36.960  23.535  25.378  1.00  0.00     0.001 A 
ATOM     25  C   UNL A   1      37.109  23.150  24.045  1.00  0.00     0.000 A 
ENDBRANCH  19  20
ENDBRANCH   8  13
ENDBRANCH   4   7
ENDBRANCH   2   3
ENDBRANCH   1   2
BRANCH   1  26
ATOM     26  C   UNL A   1      31.612  32.195  26.726  1.00  0.00     0.023 C 
BRANCH  26  27
ATOM     27  C   UNL A   1      32.708  32.925  27.467  1.00  0.00     0.116 C 
BRANCH  27  28
ATOM     28  N   UNL A   1      32.396  34.331  27.754  1.00  0.00    -0.352 N 
ATOM     29  C   UNL A   1      33.012  35.185  28.640  1.00  0.00     0.251 C 
ATOM     30  H   UNL A   1      31.646  34.714  27.245  1.00  0.00     0.163 HD
ATOM     31  O   UNL A   1      32.607  36.331  28.806  1.00  0.00    -0.269 OA
BRANCH  29  32
ATOM     32  C   UNL A   1      34.133  34.660  29.436  1.00  0.00     0.039 A 
ATOM     33  C   UNL A   1      33.871  33.992  30.634  1.00  0.00     0.014 A 
ATOM     34  C   UNL A   1      35.418  34.691  28.900  1.00  0.00     0.014 A 
ATOM     35  C   UNL A   1      34.895  33.267  31.242  1.00  0.00     0.010 A 
ATOM     36  C   UNL A   1      36.377  33.840  29.410  1.00  0.00     0.010 A 
ATOM     37  C   UNL A   1      36.138  33.141  30.603  1.00  0.00    -0.014 A 
BRANCH  37  38
ATOM     38  C   UNL A   1      37.251  32.348  31.173  1.00  0.00     0.031 A 
ATOM     39  C   UNL A   1      37.732  32.680  32.560  1.00  0.00     0.074 A 
ATOM     40  C   UNL A   1      37.892  31.430  30.425  1.00  0.00     0.049 A 
ATOM     41  N   UNL A   1      38.799  32.266  33.192  1.00  0.00    -0.248 NA
ATOM     42  C   UNL A   1      36.938  33.669  33.312  1.00  0.00     0.031 C 
ATOM     43  C   UNL A   1      37.560  31.070  29.045  1.00  0.00     0.029 A 
ATOM     44  N   UNL A   1      38.970  30.637  30.723  1.00  0.00    -0.354 N 
ATOM     45  C   UNL A   1      38.826  32.985  34.381  1.00  0.00     0.074 A 
ATOM     46  C   UNL A   1      37.726  33.919  34.343  1.00  0.00     0.031 C 
ATOM     47  C   UNL A   1      38.390  30.097  28.633  1.00  0.00     0.029 A 
ATOM     48  C   UNL A   1      39.338  29.799  29.701  1.00  0.00     0.049 A 
ATOM     49  H   UNL A   1      39.436  30.667  31.590  1.00  0.00     0.167 HD
ATOM     50  C   UNL A   1      39.666  32.845  35.431  1.00  0.00     0.037 A 
ATOM     51  C   UNL A   1      40.331  28.892  29.642  1.00  0.00     0.037 A 
ATOM     52  C   UNL A   1      40.703  31.854  35.489  1.00  0.00     0.049 A 
ATOM     53  C   UNL A   1      41.223  28.715  30.842  1.00  0.00     0.074 A 
ATOM     54  C   UNL A   1      41.560  31.560  36.533  1.00  0.00     0.029 A 
ATOM     55  N   UNL A   1      41.005  30.978  34.456  1.00  0.00    -0.354 N 
ATOM     56  N   UNL A   1      41.207  29.355  31.987  1.00  0.00    -0.248 NA
ATOM     57  C   UNL A   1      42.267  27.687  30.745  1.00  0.00     0.031 C 
ATOM     58  C   UNL A   1      42.404  30.525  36.119  1.00  0.00     0.029 A 
ATOM     59  C   UNL A   1      42.042  30.145  34.835  1.00  0.00     0.049 A 
ATOM     60  H   UNL A   1      40.549  30.953  33.584  1.00  0.00     0.167 HD
ATOM     61  C   UNL A   1      42.211  28.788  32.758  1.00  0.00     0.074 A 
ATOM     62  C   UNL A   1      42.813  27.744  31.952  1.00  0.00     0.031 C 
ATOM     63  C   UNL A   1      42.603  29.099  34.018  1.00  0.00     0.037 A 
BRANCH  50  64
ATOM     64  C   UNL A   1      39.470  33.770  36.598  1.00  0.00     0.064 A 
ATOM     65  C   UNL A   1      40.056  35.045  36.636  1.00  0.00     0.173 A 
ATOM     66  C   UNL A   1      38.700  33.372  37.701  1.00  0.00     0.173 A 
ATOM     67  F   UNL A   1      40.818  35.470  35.616  1.00  0.00    -0.203 F 
ATOM     68  C   UNL A   1      39.921  35.865  37.753  1.00  0.00     0.198 A 
ATOM     69  C   UNL A   1      38.533  34.211  38.800  1.00  0.00     0.198 A 
ATOM     70  F   UNL A   1      38.114  32.165  37.717  1.00  0.00    -0.203 F 
ATOM     71  F   UNL A   1      40.556  37.045  37.795  1.00  0.00    -0.200 F 
ATOM     72  C   UNL A   1      39.155  35.451  38.830  1.00  0.00     0.200 A 
ATOM     73  F   UNL A   1      37.784  33.813  39.837  1.00  0.00    -0.200 F 
ATOM     74  F   UNL A   1      39.026  36.240  39.905  1.00  0.00    -0.200 F 
ENDBRANCH  50  64
BRANCH  51  75
ATOM     75  C   UNL A   1      40.496  28.046  28.432  1.00  0.00     0.064 A 
ATOM     76  C   UNL A   1      41.270  28.493  27.351  1.00  0.00     0.173 A 
ATOM     77  C   UNL A   1      39.900  26.781  28.328  1.00  0.00     0.173 A 
ATOM     78  F   UNL A   1      41.846  29.702  27.396  1.00  0.00    -0.203 F 
ATOM     79  C   UNL A   1      41.427  27.715  26.205  1.00  0.00     0.198 A 
ATOM     80  C   UNL A   1      40.078  25.993  27.192  1.00  0.00     0.198 A 
ATOM     81  F   UNL A   1      39.159  26.303  29.337  1.00  0.00    -0.203 F 
ATOM     82  F   UNL A   1      42.138  28.184  25.171  1.00  0.00    -0.200 F 
ATOM     83  C   UNL A   1      40.835  26.463  26.128  1.00  0.00     0.200 A 
ATOM     84  F   UNL A   1      39.518  24.777  27.127  1.00  0.00    -0.200 F 
ATOM     85  F   UNL A   1      40.989  25.713  25.029  1.00  0.00    -0.200 F 
ENDBRANCH  51  75
BRANCH  63  86
ATOM     86  C   UNL A   1      43.697  28.272  34.623  1.00  0.00     0.064 A 
ATOM     87  C   UNL A   1      45.039  28.672  34.563  1.00  0.00     0.173 A 
ATOM     88  C   UNL A   1      43.385  27.101  35.330  1.00  0.00     0.173 A 
ATOM     89  F   UNL A   1      45.385  29.777  33.888  1.00  0.00    -0.203 F 
ATOM     90  C   UNL A   1      46.034  27.917  35.178  1.00  0.00     0.198 A 
ATOM     91  C   UNL A   1      44.379  26.365  35.967  1.00  0.00     0.198 A 
ATOM     92  F   UNL A   1      42.113  26.684  35.421  1.00  0.00    -0.203 F 
ATOM     93  F   UNL A   1      47.316  28.296  35.078  1.00  0.00    -0.200 F 
ATOM     94  C   UNL A   1      45.703  26.771  35.885  1.00  0.00     0.200 A 
ATOM     95  F   UNL A   1      44.055  25.267  36.663  1.00  0.00    -0.200 F 
ATOM     96  F   UNL A   1      46.661  26.054  36.489  1.00  0.00    -0.200 F 
ENDBRANCH  63  86
ENDBRANCH  37  38
ENDBRANCH  29  32
ENDBRANCH  27  28
ENDBRANCH  26  27
ENDBRANCH   1  26
TORSDOF 13
ENDMDL
