MODEL 1
REMARK VINA RESULT:     -11.5      0.000      0.000
REMARK SMILES CC[C@H]1CCC[C@@H]([NH2+][C@@](C)(CC)C(=O)NCCCCNC(=O)c2ccc(-c3c4nc(c(-c5c(F)c(F)c(F)c(F)c5F)c5ccc([nH]5)c(-c5c(F)c(F)c(F)c(F)c5F)c5nc(c(-c6c(F)c(F)c(F)c(F)c6F)c6ccc3[nH]6)C=C5)C=C4)cc2)C1
REMARK SMILES IDX 17 1 16 2 15 3 13 4 14 5 9 7 10 8 8 9 7 12 3 13 4 14 86 15
REMARK SMILES IDX 5 16 6 17 2 18 1 19 11 20 12 21 18 22 19 23 20 24 21 25
REMARK SMILES IDX 22 27 23 28 24 29 85 30 25 31 84 32 26 33 27 34 28 35 78 36
REMARK SMILES IDX 29 37 83 38 77 39 79 40 30 41 82 42 76 43 75 44 31 46 63 47
REMARK SMILES IDX 43 48 62 49 44 50 47 51 61 52 80 53 45 54 46 55 60 57 81 58
REMARK SMILES IDX 48 59 32 60 33 61 41 62 34 63 35 64 39 65 42 66 36 67 37 68
REMARK SMILES IDX 40 69 38 70 64 71 65 72 73 73 66 74 67 75 71 76 74 77 68 78
REMARK SMILES IDX 69 79 72 80 70 81 49 82 50 83 58 84 51 85 52 86 56 87 59 88
REMARK SMILES IDX 53 89 54 90 57 91 55 92
REMARK H PARENT 15 6 8 10 8 11 20 26 79 45 47 56
REMARK Flexibility Score: inf
ROOT
ATOM      1  C   UNL A   1      31.765  30.721  26.186  1.00  0.00     0.023 C 
ENDROOT
BRANCH   1   2
ATOM      2  C   UNL A   1      32.320  29.625  27.096  1.00  0.00     0.116 C 
BRANCH   2   3
ATOM      3  N   UNL A   1      31.528  28.404  27.108  1.00  0.00    -0.351 N 
ATOM      4  C   UNL A   1      31.587  27.244  26.374  1.00  0.00     0.281 C 
ATOM      5  O   UNL A   1      30.757  26.382  26.683  1.00  0.00    -0.268 OA
ATOM      6  H   UNL A   1      30.804  28.411  27.776  1.00  0.00     0.163 HD
BRANCH   4   7
ATOM      7  C   UNL A   1      32.620  27.051  25.203  1.00  0.00     0.172 C 
ATOM      8  C   UNL A   1      34.048  27.231  25.785  1.00  0.00     0.090 C 
BRANCH   7   9
ATOM      9  N   UNL A   1      32.676  25.623  24.768  1.00  0.00    -0.331 N 
ATOM     10  H   UNL A   1      33.664  25.372  24.737  1.00  0.00     0.347 HD
ATOM     11  H   UNL A   1      32.071  25.167  25.451  1.00  0.00     0.347 HD
BRANCH   9  12
ATOM     12  C   UNL A   1      32.104  25.181  23.507  1.00  0.00     0.183 C 
ATOM     13  C   UNL A   1      33.810  23.324  22.727  1.00  0.00    -0.006 C 
ATOM     14  C   UNL A   1      32.723  22.272  22.977  1.00  0.00     0.004 C 
ATOM     15  C   UNL A   1      33.149  24.691  22.474  1.00  0.00     0.068 C 
ATOM     16  C   UNL A   1      31.760  22.686  24.088  1.00  0.00     0.006 C 
ATOM     17  C   UNL A   1      31.105  24.035  23.790  1.00  0.00     0.065 C 
BRANCH  13  18
ATOM     18  C   UNL A   1      34.900  23.242  23.818  1.00  0.00     0.000 C 
ATOM     19  C   UNL A   1      36.309  22.967  23.318  1.00  0.00     0.004 C 
ENDBRANCH  13  18
ENDBRANCH   9  12
ENDBRANCH   7   9
BRANCH   7  20
ATOM     20  C   UNL A   1      32.335  28.081  24.079  1.00  0.00     0.075 C 
ATOM     21  C   UNL A   1      33.545  28.603  23.295  1.00  0.00     0.011 C 
ENDBRANCH   7  20
ENDBRANCH   4   7
ENDBRANCH   2   3
ENDBRANCH   1   2
BRANCH   1  22
ATOM     22  C   UNL A   1      31.450  32.037  26.880  1.00  0.00     0.023 C 
BRANCH  22  23
ATOM     23  C   UNL A   1      32.675  32.793  27.363  1.00  0.00     0.116 C 
BRANCH  23  24
ATOM     24  N   UNL A   1      32.403  34.190  27.676  1.00  0.00    -0.352 N 
ATOM     25  C   UNL A   1      33.021  34.987  28.608  1.00  0.00     0.251 C 
ATOM     26  H   UNL A   1      31.688  34.617  27.151  1.00  0.00     0.163 HD
ATOM     27  O   UNL A   1      32.617  36.120  28.840  1.00  0.00    -0.269 OA
BRANCH  25  28
ATOM     28  C   UNL A   1      34.161  34.428  29.355  1.00  0.00     0.039 A 
ATOM     29  C   UNL A   1      33.913  33.652  30.487  1.00  0.00     0.014 A 
ATOM     30  C   UNL A   1      35.461  34.602  28.872  1.00  0.00     0.014 A 
ATOM     31  C   UNL A   1      34.972  32.986  31.099  1.00  0.00     0.010 A 
ATOM     32  C   UNL A   1      36.497  33.870  29.429  1.00  0.00     0.010 A 
ATOM     33  C   UNL A   1      36.263  33.061  30.551  1.00  0.00    -0.014 A 
BRANCH  33  34
ATOM     34  C   UNL A   1      37.397  32.317  31.146  1.00  0.00     0.031 A 
ATOM     35  C   UNL A   1      37.898  32.701  32.508  1.00  0.00     0.074 A 
ATOM     36  C   UNL A   1      38.012  31.354  30.434  1.00  0.00     0.049 A 
ATOM     37  N   UNL A   1      38.932  32.248  33.169  1.00  0.00    -0.248 NA
ATOM     38  C   UNL A   1      37.158  33.765  33.207  1.00  0.00     0.031 C 
ATOM     39  C   UNL A   1      37.650  30.939  29.078  1.00  0.00     0.029 A 
ATOM     40  N   UNL A   1      39.086  30.561  30.748  1.00  0.00    -0.354 N 
ATOM     41  C   UNL A   1      38.969  32.975  34.350  1.00  0.00     0.074 A 
ATOM     42  C   UNL A   1      37.899  33.947  34.289  1.00  0.00     0.031 C 
ATOM     43  C   UNL A   1      38.477  29.956  28.683  1.00  0.00     0.029 A 
ATOM     44  C   UNL A   1      39.444  29.695  29.743  1.00  0.00     0.049 A 
ATOM     45  H   UNL A   1      39.555  30.606  31.613  1.00  0.00     0.167 HD
ATOM     46  C   UNL A   1      39.800  32.823  35.407  1.00  0.00     0.037 A 
ATOM     47  C   UNL A   1      40.449  28.800  29.687  1.00  0.00     0.037 A 
ATOM     48  C   UNL A   1      40.846  31.838  35.472  1.00  0.00     0.049 A 
ATOM     49  C   UNL A   1      41.352  28.644  30.881  1.00  0.00     0.074 A 
ATOM     50  C   UNL A   1      41.723  31.576  36.509  1.00  0.00     0.029 A 
ATOM     51  N   UNL A   1      41.149  30.947  34.453  1.00  0.00    -0.354 N 
ATOM     52  N   UNL A   1      41.342  29.296  32.017  1.00  0.00    -0.248 NA
ATOM     53  C   UNL A   1      42.399  27.617  30.789  1.00  0.00     0.031 C 
ATOM     54  C   UNL A   1      42.577  30.544  36.106  1.00  0.00     0.029 A 
ATOM     55  C   UNL A   1      42.204  30.135  34.835  1.00  0.00     0.049 A 
ATOM     56  H   UNL A   1      40.683  30.897  33.588  1.00  0.00     0.167 HD
ATOM     57  C   UNL A   1      42.359  28.745  32.784  1.00  0.00     0.074 A 
ATOM     58  C   UNL A   1      42.954  27.690  31.990  1.00  0.00     0.031 C 
ATOM     59  C   UNL A   1      42.768  29.082  34.032  1.00  0.00     0.037 A 
BRANCH  46  60
ATOM     60  C   UNL A   1      39.593  33.729  36.584  1.00  0.00     0.064 A 
ATOM     61  C   UNL A   1      38.791  33.343  37.669  1.00  0.00     0.173 A 
ATOM     62  C   UNL A   1      40.218  34.983  36.645  1.00  0.00     0.173 A 
ATOM     63  F   UNL A   1      38.156  32.161  37.653  1.00  0.00    -0.203 F 
ATOM     64  C   UNL A   1      38.601  34.189  38.759  1.00  0.00     0.198 A 
ATOM     65  C   UNL A   1      40.051  35.813  37.749  1.00  0.00     0.198 A 
ATOM     66  F   UNL A   1      40.996  35.400  35.634  1.00  0.00    -0.203 F 
ATOM     67  F   UNL A   1      37.791  33.817  39.759  1.00  0.00    -0.200 F 
ATOM     68  C   UNL A   1      39.238  35.419  38.802  1.00  0.00     0.200 A 
ATOM     69  F   UNL A   1      40.675  37.000  37.794  1.00  0.00    -0.200 F 
ATOM     70  F   UNL A   1      39.061  36.229  39.854  1.00  0.00    -0.200 F 
ENDBRANCH  46  60
BRANCH  47  71
ATOM     71  C   UNL A   1      40.640  27.969  28.471  1.00  0.00     0.064 A 
ATOM     72  C   UNL A   1      41.409  28.432  27.393  1.00  0.00     0.173 A 
ATOM     73  C   UNL A   1      40.047  26.704  28.352  1.00  0.00     0.173 A 
ATOM     74  F   UNL A   1      41.981  29.643  27.451  1.00  0.00    -0.203 F 
ATOM     75  C   UNL A   1      41.552  27.674  26.233  1.00  0.00     0.198 A 
ATOM     76  C   UNL A   1      40.217  25.934  27.202  1.00  0.00     0.198 A 
ATOM     77  F   UNL A   1      39.309  26.211  29.358  1.00  0.00    -0.203 F 
ATOM     78  F   UNL A   1      42.250  28.163  25.199  1.00  0.00    -0.200 F 
ATOM     79  C   UNL A   1      40.960  26.423  26.140  1.00  0.00     0.200 A 
ATOM     80  F   UNL A   1      39.654  24.720  27.123  1.00  0.00    -0.200 F 
ATOM     81  F   UNL A   1      41.098  25.696  25.023  1.00  0.00    -0.200 F 
ENDBRANCH  47  71
BRANCH  59  82
ATOM     82  C   UNL A   1      43.885  28.280  34.626  1.00  0.00     0.064 A 
ATOM     83  C   UNL A   1      43.643  27.098  35.340  1.00  0.00     0.173 A 
ATOM     84  C   UNL A   1      45.219  28.677  34.441  1.00  0.00     0.173 A 
ATOM     85  F   UNL A   1      42.384  26.686  35.556  1.00  0.00    -0.203 F 
ATOM     86  C   UNL A   1      44.695  26.354  35.867  1.00  0.00     0.198 A 
ATOM     87  C   UNL A   1      46.268  27.916  34.945  1.00  0.00     0.198 A 
ATOM     88  F   UNL A   1      45.502  29.797  33.758  1.00  0.00    -0.203 F 
ATOM     89  F   UNL A   1      44.439  25.251  36.585  1.00  0.00    -0.200 F 
ATOM     90  C   UNL A   1      46.005  26.758  35.663  1.00  0.00     0.200 A 
ATOM     91  F   UNL A   1      47.535  28.300  34.735  1.00  0.00    -0.200 F 
ATOM     92  F   UNL A   1      47.016  26.037  36.165  1.00  0.00    -0.200 F 
ENDBRANCH  59  82
ENDBRANCH  33  34
ENDBRANCH  25  28
ENDBRANCH  23  24
ENDBRANCH  22  23
ENDBRANCH   1  22
TORSDOF 15
ENDMDL
MODEL 2
REMARK VINA RESULT:     -11.5      0.404      1.682
REMARK SMILES CC[C@H]1CCC[C@@H]([NH2+][C@@](C)(CC)C(=O)NCCCCNC(=O)c2ccc(-c3c4nc(c(-c5c(F)c(F)c(F)c(F)c5F)c5ccc([nH]5)c(-c5c(F)c(F)c(F)c(F)c5F)c5nc(c(-c6c(F)c(F)c(F)c(F)c6F)c6ccc3[nH]6)C=C5)C=C4)cc2)C1
REMARK SMILES IDX 17 1 16 2 15 3 13 4 14 5 9 7 10 8 8 9 7 12 3 13 4 14 86 15
REMARK SMILES IDX 5 16 6 17 2 18 1 19 11 20 12 21 18 22 19 23 20 24 21 25
REMARK SMILES IDX 22 27 23 28 24 29 85 30 25 31 84 32 26 33 27 34 28 35 78 36
REMARK SMILES IDX 29 37 83 38 77 39 79 40 30 41 82 42 76 43 75 44 31 46 63 47
REMARK SMILES IDX 43 48 62 49 44 50 47 51 61 52 80 53 45 54 46 55 60 57 81 58
REMARK SMILES IDX 48 59 32 60 33 61 41 62 34 63 35 64 39 65 42 66 36 67 37 68
REMARK SMILES IDX 40 69 38 70 64 71 65 72 73 73 66 74 67 75 71 76 74 77 68 78
REMARK SMILES IDX 69 79 72 80 70 81 49 82 50 83 58 84 51 85 52 86 56 87 59 88
REMARK SMILES IDX 53 89 54 90 57 91 55 92
REMARK H PARENT 15 6 8 10 8 11 20 26 79 45 47 56
REMARK Flexibility Score: inf
ROOT
ATOM      1  C   UNL A   1      31.879  30.697  26.213  1.00  0.00     0.023 C 
ENDROOT
BRANCH   1   2
ATOM      2  C   UNL A   1      32.351  29.575  27.138  1.00  0.00     0.116 C 
BRANCH   2   3
ATOM      3  N   UNL A   1      31.459  28.426  27.185  1.00  0.00    -0.351 N 
ATOM      4  C   UNL A   1      31.441  27.229  26.512  1.00  0.00     0.281 C 
ATOM      5  O   UNL A   1      30.531  26.456  26.835  1.00  0.00    -0.268 OA
ATOM      6  H   UNL A   1      30.718  28.529  27.826  1.00  0.00     0.163 HD
BRANCH   4   7
ATOM      7  C   UNL A   1      32.488  26.888  25.388  1.00  0.00     0.172 C 
ATOM      8  C   UNL A   1      33.909  27.122  25.967  1.00  0.00     0.090 C 
BRANCH   7   9
ATOM      9  N   UNL A   1      32.533  25.418  25.127  1.00  0.00    -0.331 N 
ATOM     10  H   UNL A   1      33.356  25.065  25.617  1.00  0.00     0.347 HD
ATOM     11  H   UNL A   1      31.608  25.116  25.432  1.00  0.00     0.347 HD
BRANCH   9  12
ATOM     12  C   UNL A   1      32.603  24.880  23.778  1.00  0.00     0.183 C 
ATOM     13  C   UNL A   1      34.911  23.597  23.795  1.00  0.00    -0.006 C 
ATOM     14  C   UNL A   1      34.136  22.277  23.709  1.00  0.00     0.004 C 
ATOM     15  C   UNL A   1      34.043  24.736  23.226  1.00  0.00     0.068 C 
ATOM     16  C   UNL A   1      32.762  22.368  24.368  1.00  0.00     0.006 C 
ATOM     17  C   UNL A   1      31.921  23.493  23.763  1.00  0.00     0.065 C 
BRANCH  13  18
ATOM     18  C   UNL A   1      35.506  23.783  25.207  1.00  0.00     0.000 C 
ATOM     19  C   UNL A   1      37.024  23.757  25.288  1.00  0.00     0.004 C 
ENDBRANCH  13  18
ENDBRANCH   9  12
ENDBRANCH   7   9
BRANCH   7  20
ATOM     20  C   UNL A   1      32.231  27.780  24.147  1.00  0.00     0.075 C 
ATOM     21  C   UNL A   1      33.437  28.540  23.579  1.00  0.00     0.011 C 
ENDBRANCH   7  20
ENDBRANCH   4   7
ENDBRANCH   2   3
ENDBRANCH   1   2
BRANCH   1  22
ATOM     22  C   UNL A   1      31.555  32.011  26.908  1.00  0.00     0.023 C 
BRANCH  22  23
ATOM     23  C   UNL A   1      32.776  32.825  27.296  1.00  0.00     0.116 C 
BRANCH  23  24
ATOM     24  N   UNL A   1      32.458  34.200  27.663  1.00  0.00    -0.352 N 
ATOM     25  C   UNL A   1      33.035  34.972  28.641  1.00  0.00     0.251 C 
ATOM     26  H   UNL A   1      31.741  34.629  27.143  1.00  0.00     0.163 HD
ATOM     27  O   UNL A   1      32.595  36.082  28.913  1.00  0.00    -0.269 OA
BRANCH  25  28
ATOM     28  C   UNL A   1      34.176  34.414  29.386  1.00  0.00     0.039 A 
ATOM     29  C   UNL A   1      33.929  33.598  30.490  1.00  0.00     0.014 A 
ATOM     30  C   UNL A   1      35.479  34.628  28.925  1.00  0.00     0.014 A 
ATOM     31  C   UNL A   1      34.994  32.935  31.097  1.00  0.00     0.010 A 
ATOM     32  C   UNL A   1      36.522  33.899  29.474  1.00  0.00     0.010 A 
ATOM     33  C   UNL A   1      36.290  33.051  30.568  1.00  0.00    -0.014 A 
BRANCH  33  34
ATOM     34  C   UNL A   1      37.431  32.312  31.156  1.00  0.00     0.031 A 
ATOM     35  C   UNL A   1      37.935  32.694  32.517  1.00  0.00     0.074 A 
ATOM     36  C   UNL A   1      38.049  31.356  30.437  1.00  0.00     0.049 A 
ATOM     37  N   UNL A   1      38.974  32.244  33.173  1.00  0.00    -0.248 NA
ATOM     38  C   UNL A   1      37.191  33.750  33.224  1.00  0.00     0.031 C 
ATOM     39  C   UNL A   1      37.685  30.945  29.080  1.00  0.00     0.029 A 
ATOM     40  N   UNL A   1      39.129  30.569  30.744  1.00  0.00    -0.354 N 
ATOM     41  C   UNL A   1      39.011  32.966  34.357  1.00  0.00     0.074 A 
ATOM     42  C   UNL A   1      37.935  33.931  34.303  1.00  0.00     0.031 C 
ATOM     43  C   UNL A   1      38.516  29.969  28.678  1.00  0.00     0.029 A 
ATOM     44  C   UNL A   1      39.489  29.710  29.734  1.00  0.00     0.049 A 
ATOM     45  H   UNL A   1      39.601  30.613  31.607  1.00  0.00     0.167 HD
ATOM     46  C   UNL A   1      39.847  32.815  35.410  1.00  0.00     0.037 A 
ATOM     47  C   UNL A   1      40.499  28.821  29.670  1.00  0.00     0.037 A 
ATOM     48  C   UNL A   1      40.899  31.837  35.467  1.00  0.00     0.049 A 
ATOM     49  C   UNL A   1      41.407  28.665  30.859  1.00  0.00     0.074 A 
ATOM     50  C   UNL A   1      41.782  31.576  36.499  1.00  0.00     0.029 A 
ATOM     51  N   UNL A   1      41.204  30.951  34.443  1.00  0.00    -0.354 N 
ATOM     52  N   UNL A   1      41.398  29.313  31.999  1.00  0.00    -0.248 NA
ATOM     53  C   UNL A   1      42.461  27.645  30.760  1.00  0.00     0.031 C 
ATOM     54  C   UNL A   1      42.641  30.551  36.088  1.00  0.00     0.029 A 
ATOM     55  C   UNL A   1      42.265  30.145  34.817  1.00  0.00     0.049 A 
ATOM     56  H   UNL A   1      40.735  30.903  33.579  1.00  0.00     0.167 HD
ATOM     57  C   UNL A   1      42.421  28.765  32.759  1.00  0.00     0.074 A 
ATOM     58  C   UNL A   1      43.019  27.717  31.959  1.00  0.00     0.031 C 
ATOM     59  C   UNL A   1      42.832  29.099  34.007  1.00  0.00     0.037 A 
BRANCH  46  60
ATOM     60  C   UNL A   1      39.638  33.715  36.591  1.00  0.00     0.064 A 
ATOM     61  C   UNL A   1      40.236  34.983  36.657  1.00  0.00     0.173 A 
ATOM     62  C   UNL A   1      38.815  33.322  37.657  1.00  0.00     0.173 A 
ATOM     63  F   UNL A   1      41.047  35.400  35.673  1.00  0.00    -0.203 F 
ATOM     64  C   UNL A   1      40.039  35.813  37.758  1.00  0.00     0.198 A 
ATOM     65  C   UNL A   1      38.596  34.167  38.741  1.00  0.00     0.198 A 
ATOM     66  F   UNL A   1      38.219  32.120  37.643  1.00  0.00    -0.203 F 
ATOM     67  F   UNL A   1      40.661  36.998  37.820  1.00  0.00    -0.200 F 
ATOM     68  C   UNL A   1      39.214  35.408  38.794  1.00  0.00     0.200 A 
ATOM     69  F   UNL A   1      37.790  33.778  39.739  1.00  0.00    -0.200 F 
ATOM     70  F   UNL A   1      39.018  36.210  39.849  1.00  0.00    -0.200 F 
ENDBRANCH  46  60
BRANCH  47  71
ATOM     71  C   UNL A   1      40.691  27.996  28.449  1.00  0.00     0.064 A 
ATOM     72  C   UNL A   1      41.464  28.462  27.377  1.00  0.00     0.173 A 
ATOM     73  C   UNL A   1      40.094  26.734  28.321  1.00  0.00     0.173 A 
ATOM     74  F   UNL A   1      42.041  29.671  27.444  1.00  0.00    -0.203 F 
ATOM     75  C   UNL A   1      41.609  27.711  26.212  1.00  0.00     0.198 A 
ATOM     76  C   UNL A   1      40.264  25.970  27.168  1.00  0.00     0.198 A 
ATOM     77  F   UNL A   1      39.350  26.238  29.322  1.00  0.00    -0.203 F 
ATOM     78  F   UNL A   1      42.312  28.204  25.183  1.00  0.00    -0.200 F 
ATOM     79  C   UNL A   1      41.012  26.463  26.111  1.00  0.00     0.200 A 
ATOM     80  F   UNL A   1      39.696  24.759  27.079  1.00  0.00    -0.200 F 
ATOM     81  F   UNL A   1      41.151  25.742  24.990  1.00  0.00    -0.200 F 
ENDBRANCH  47  71
BRANCH  59  82
ATOM     82  C   UNL A   1      43.958  28.301  34.594  1.00  0.00     0.064 A 
ATOM     83  C   UNL A   1      45.292  28.710  34.469  1.00  0.00     0.173 A 
ATOM     84  C   UNL A   1      43.691  27.134  35.328  1.00  0.00     0.173 A 
ATOM     85  F   UNL A   1      45.598  29.811  33.766  1.00  0.00    -0.203 F 
ATOM     86  C   UNL A   1      46.323  27.967  35.039  1.00  0.00     0.198 A 
ATOM     87  C   UNL A   1      44.721  26.410  35.918  1.00  0.00     0.198 A 
ATOM     88  F   UNL A   1      42.429  26.706  35.481  1.00  0.00    -0.203 F 
ATOM     89  F   UNL A   1      47.596  28.353  34.869  1.00  0.00    -0.200 F 
ATOM     90  C   UNL A   1      46.037  26.824  35.768  1.00  0.00     0.200 A 
ATOM     91  F   UNL A   1      44.442  25.312  36.635  1.00  0.00    -0.200 F 
ATOM     92  F   UNL A   1      47.029  26.114  36.321  1.00  0.00    -0.200 F 
ENDBRANCH  59  82
ENDBRANCH  33  34
ENDBRANCH  25  28
ENDBRANCH  23  24
ENDBRANCH  22  23
ENDBRANCH   1  22
TORSDOF 15
ENDMDL
MODEL 3
REMARK VINA RESULT:     -11.4      0.548      7.553
REMARK SMILES CC[C@H]1CCC[C@@H]([NH2+][C@@](C)(CC)C(=O)NCCCCNC(=O)c2ccc(-c3c4nc(c(-c5c(F)c(F)c(F)c(F)c5F)c5ccc([nH]5)c(-c5c(F)c(F)c(F)c(F)c5F)c5nc(c(-c6c(F)c(F)c(F)c(F)c6F)c6ccc3[nH]6)C=C5)C=C4)cc2)C1
REMARK SMILES IDX 17 1 16 2 15 3 13 4 14 5 9 7 10 8 8 9 7 12 3 13 4 14 86 15
REMARK SMILES IDX 5 16 6 17 2 18 1 19 11 20 12 21 18 22 19 23 20 24 21 25
REMARK SMILES IDX 22 27 23 28 24 29 85 30 25 31 84 32 26 33 27 34 28 35 78 36
REMARK SMILES IDX 29 37 83 38 77 39 79 40 30 41 82 42 76 43 75 44 31 46 63 47
REMARK SMILES IDX 43 48 62 49 44 50 47 51 61 52 80 53 45 54 46 55 60 57 81 58
REMARK SMILES IDX 48 59 32 60 33 61 41 62 34 63 35 64 39 65 42 66 36 67 37 68
REMARK SMILES IDX 40 69 38 70 64 71 65 72 73 73 66 74 67 75 71 76 74 77 68 78
REMARK SMILES IDX 69 79 72 80 70 81 49 82 50 83 58 84 51 85 52 86 56 87 59 88
REMARK SMILES IDX 53 89 54 90 57 91 55 92
REMARK H PARENT 15 6 8 10 8 11 20 26 79 45 47 56
REMARK Flexibility Score: inf
ROOT
ATOM      1  C   UNL A   1      32.192  30.471  26.248  1.00  0.00     0.023 C 
ENDROOT
BRANCH   1   2
ATOM      2  C   UNL A   1      32.482  29.311  27.201  1.00  0.00     0.116 C 
BRANCH   2   3
ATOM      3  N   UNL A   1      31.523  28.219  27.121  1.00  0.00    -0.351 N 
ATOM      4  C   UNL A   1      31.441  27.103  26.325  1.00  0.00     0.281 C 
ATOM      5  O   UNL A   1      30.484  26.356  26.560  1.00  0.00    -0.268 OA
ATOM      6  H   UNL A   1      30.784  28.297  27.768  1.00  0.00     0.163 HD
BRANCH   4   7
ATOM      7  C   UNL A   1      32.478  26.822  25.175  1.00  0.00     0.172 C 
ATOM      8  C   UNL A   1      33.902  26.856  25.791  1.00  0.00     0.090 C 
BRANCH   7   9
ATOM      9  N   UNL A   1      32.404  25.399  24.725  1.00  0.00    -0.331 N 
ATOM     10  H   UNL A   1      33.350  25.024  24.808  1.00  0.00     0.347 HD
ATOM     11  H   UNL A   1      31.668  25.023  25.321  1.00  0.00     0.347 HD
BRANCH   9  12
ATOM     12  C   UNL A   1      31.940  25.038  23.395  1.00  0.00     0.183 C 
ATOM     13  C   UNL A   1      33.804  23.357  22.577  1.00  0.00    -0.006 C 
ATOM     14  C   UNL A   1      32.772  22.226  22.665  1.00  0.00     0.004 C 
ATOM     15  C   UNL A   1      33.074  24.701  22.396  1.00  0.00     0.068 C 
ATOM     16  C   UNL A   1      31.720  22.485  23.741  1.00  0.00     0.006 C 
ATOM     17  C   UNL A   1      31.000  23.816  23.515  1.00  0.00     0.065 C 
BRANCH  13  18
ATOM     18  C   UNL A   1      34.829  23.244  23.727  1.00  0.00     0.000 C 
ATOM     19  C   UNL A   1      36.263  22.973  23.303  1.00  0.00     0.004 C 
ENDBRANCH  13  18
ENDBRANCH   9  12
ENDBRANCH   7   9
BRANCH   7  20
ATOM     20  C   UNL A   1      32.321  27.885  24.058  1.00  0.00     0.075 C 
ATOM     21  C   UNL A   1      33.613  28.452  23.455  1.00  0.00     0.011 C 
ENDBRANCH   7  20
ENDBRANCH   4   7
ENDBRANCH   2   3
ENDBRANCH   1   2
BRANCH   1  22
ATOM     22  C   UNL A   1      31.751  31.762  26.921  1.00  0.00     0.023 C 
BRANCH  22  23
ATOM     23  C   UNL A   1      32.898  32.629  27.411  1.00  0.00     0.116 C 
BRANCH  23  24
ATOM     24  N   UNL A   1      32.512  34.014  27.647  1.00  0.00    -0.352 N 
ATOM     25  C   UNL A   1      33.038  34.898  28.556  1.00  0.00     0.251 C 
ATOM     26  H   UNL A   1      31.784  34.360  27.083  1.00  0.00     0.163 HD
ATOM     27  O   UNL A   1      32.543  36.006  28.722  1.00  0.00    -0.269 OA
BRANCH  25  28
ATOM     28  C   UNL A   1      34.193  34.464  29.361  1.00  0.00     0.039 A 
ATOM     29  C   UNL A   1      33.966  33.811  30.573  1.00  0.00     0.014 A 
ATOM     30  C   UNL A   1      35.488  34.624  28.861  1.00  0.00     0.014 A 
ATOM     31  C   UNL A   1      35.045  33.253  31.256  1.00  0.00     0.010 A 
ATOM     32  C   UNL A   1      36.546  33.993  29.496  1.00  0.00     0.010 A 
ATOM     33  C   UNL A   1      36.334  33.307  30.702  1.00  0.00    -0.014 A 
BRANCH  33  34
ATOM     34  C   UNL A   1      37.490  32.672  31.377  1.00  0.00     0.031 A 
ATOM     35  C   UNL A   1      38.203  31.534  30.705  1.00  0.00     0.074 A 
ATOM     36  C   UNL A   1      37.843  33.070  32.613  1.00  0.00     0.049 A 
ATOM     37  N   UNL A   1      39.170  30.779  31.159  1.00  0.00    -0.248 NA
ATOM     38  C   UNL A   1      37.742  31.173  29.354  1.00  0.00     0.031 C 
ATOM     39  C   UNL A   1      37.183  34.124  33.387  1.00  0.00     0.029 A 
ATOM     40  N   UNL A   1      38.837  32.622  33.445  1.00  0.00    -0.354 N 
ATOM     41  C   UNL A   1      39.424  29.854  30.157  1.00  0.00     0.074 A 
ATOM     42  C   UNL A   1      38.467  30.094  29.100  1.00  0.00     0.031 C 
ATOM     43  C   UNL A   1      37.801  34.252  34.573  1.00  0.00     0.029 A 
ATOM     44  C   UNL A   1      38.877  33.270  34.655  1.00  0.00     0.049 A 
ATOM     45  H   UNL A   1      39.465  31.904  33.197  1.00  0.00     0.167 HD
ATOM     46  C   UNL A   1      40.392  28.910  30.107  1.00  0.00     0.037 A 
ATOM     47  C   UNL A   1      39.689  33.082  35.713  1.00  0.00     0.037 A 
ATOM     48  C   UNL A   1      41.357  28.693  31.151  1.00  0.00     0.049 A 
ATOM     49  C   UNL A   1      40.764  32.033  35.628  1.00  0.00     0.074 A 
ATOM     50  C   UNL A   1      42.400  27.787  31.189  1.00  0.00     0.029 A 
ATOM     51  N   UNL A   1      41.396  29.401  32.344  1.00  0.00    -0.354 N 
ATOM     52  N   UNL A   1      41.034  31.202  34.651  1.00  0.00    -0.248 NA
ATOM     53  C   UNL A   1      41.657  31.903  36.788  1.00  0.00     0.031 C 
ATOM     54  C   UNL A   1      43.055  27.926  32.417  1.00  0.00     0.029 A 
ATOM     55  C   UNL A   1      42.444  28.949  33.127  1.00  0.00     0.049 A 
ATOM     56  H   UNL A   1      40.771  30.119  32.596  1.00  0.00     0.167 HD
ATOM     57  C   UNL A   1      42.139  30.471  35.064  1.00  0.00     0.074 A 
ATOM     58  C   UNL A   1      42.501  30.969  36.375  1.00  0.00     0.031 C 
ATOM     59  C   UNL A   1      42.793  29.473  34.421  1.00  0.00     0.037 A 
BRANCH  46  60
ATOM     60  C   UNL A   1      40.465  28.060  28.874  1.00  0.00     0.064 A 
ATOM     61  C   UNL A   1      39.762  26.850  28.779  1.00  0.00     0.173 A 
ATOM     62  C   UNL A   1      41.222  28.467  27.766  1.00  0.00     0.173 A 
ATOM     63  F   UNL A   1      39.037  26.407  29.818  1.00  0.00    -0.203 F 
ATOM     64  C   UNL A   1      39.834  26.065  27.631  1.00  0.00     0.198 A 
ATOM     65  C   UNL A   1      41.269  27.695  26.608  1.00  0.00     0.198 A 
ATOM     66  F   UNL A   1      41.913  29.616  27.804  1.00  0.00    -0.203 F 
ATOM     67  F   UNL A   1      39.193  24.889  27.585  1.00  0.00    -0.200 F 
ATOM     68  C   UNL A   1      40.581  26.491  26.545  1.00  0.00     0.200 A 
ATOM     69  F   UNL A   1      41.983  28.113  25.554  1.00  0.00    -0.200 F 
ATOM     70  F   UNL A   1      40.645  25.739  25.438  1.00  0.00    -0.200 F 
ENDBRANCH  46  60
BRANCH  47  71
ATOM     71  C   UNL A   1      39.532  33.917  36.932  1.00  0.00     0.064 A 
ATOM     72  C   UNL A   1      38.775  33.468  38.023  1.00  0.00     0.173 A 
ATOM     73  C   UNL A   1      40.121  35.187  37.026  1.00  0.00     0.173 A 
ATOM     74  F   UNL A   1      38.177  32.269  37.974  1.00  0.00    -0.203 F 
ATOM     75  C   UNL A   1      38.589  34.268  39.149  1.00  0.00     0.198 A 
ATOM     76  C   UNL A   1      39.958  35.973  38.165  1.00  0.00     0.198 A 
ATOM     77  F   UNL A   1      40.862  35.660  36.013  1.00  0.00    -0.203 F 
ATOM     78  F   UNL A   1      37.818  33.834  40.155  1.00  0.00    -0.200 F 
ATOM     79  C   UNL A   1      39.184  35.518  39.221  1.00  0.00     0.200 A 
ATOM     80  F   UNL A   1      40.547  37.176  38.236  1.00  0.00    -0.200 F 
ATOM     81  F   UNL A   1      39.003  36.287  40.303  1.00  0.00    -0.200 F 
ENDBRANCH  47  71
BRANCH  59  82
ATOM     82  C   UNL A   1      43.988  28.883  35.109  1.00  0.00     0.064 A 
ATOM     83  C   UNL A   1      45.275  29.404  34.922  1.00  0.00     0.173 A 
ATOM     84  C   UNL A   1      43.833  27.809  36.000  1.00  0.00     0.173 A 
ATOM     85  F   UNL A   1      45.475  30.420  34.069  1.00  0.00    -0.203 F 
ATOM     86  C   UNL A   1      46.370  28.856  35.586  1.00  0.00     0.198 A 
ATOM     87  C   UNL A   1      44.925  27.283  36.682  1.00  0.00     0.198 A 
ATOM     88  F   UNL A   1      42.619  27.281  36.218  1.00  0.00    -0.203 F 
ATOM     89  F   UNL A   1      47.599  29.341  35.358  1.00  0.00    -0.200 F 
ATOM     90  C   UNL A   1      46.193  27.803  36.470  1.00  0.00     0.200 A 
ATOM     91  F   UNL A   1      44.751  26.274  37.547  1.00  0.00    -0.200 F 
ATOM     92  F   UNL A   1      47.247  27.283  37.113  1.00  0.00    -0.200 F 
ENDBRANCH  59  82
ENDBRANCH  33  34
ENDBRANCH  25  28
ENDBRANCH  23  24
ENDBRANCH  22  23
ENDBRANCH   1  22
TORSDOF 15
ENDMDL
