MODEL 1
REMARK VINA RESULT:     -13.1      0.000      0.000
REMARK SMILES O=C(NCCCCNC(=O)c1ccc(-c2c3nc(c(-c4c(F)c(F)c(F)c(F)c4F)c4ccc([nH]4)c(-c4c(F)c(F)c(F)c(F)c4F)c4nc(c(-c5c(F)c(F)c(F)c(F)c5F)c5ccc2[nH]5)C=C4)C=C3)cc1)C1=Cc2cc(Cl)cc(Cl)c2O[C@@H]1C(F)(F)F
REMARK SMILES IDX 6 1 5 2 4 3 3 4 1 5 2 6 74 8 75 9 85 10 76 11 84 12 77 13
REMARK SMILES IDX 83 14 78 15 81 16 79 17 80 18 82 19 86 20 87 21 88 22 89 23
REMARK SMILES IDX 7 24 8 25 9 26 10 28 11 29 12 30 73 31 13 32 72 33 14 34
REMARK SMILES IDX 15 35 16 36 66 37 17 38 71 39 65 40 67 41 18 42 70 43 64 44
REMARK SMILES IDX 63 45 19 47 51 48 31 49 50 50 32 51 35 52 49 53 68 54 33 55
REMARK SMILES IDX 34 56 48 58 69 59 36 60 20 61 21 62 29 63 22 64 23 65 27 66
REMARK SMILES IDX 30 67 24 68 25 69 28 70 26 71 52 72 53 73 61 74 54 75 55 76
REMARK SMILES IDX 59 77 62 78 56 79 57 80 60 81 58 82 37 83 38 84 46 85 39 86
REMARK SMILES IDX 40 87 44 88 47 89 41 90 42 91 45 92 43 93
REMARK H PARENT 3 7 8 27 67 46 35 57
REMARK Flexibility Score: inf
ROOT
ATOM      1  C   UNL A   1      31.682  31.713  26.874  1.00  0.00     0.023 C 
ENDROOT
BRANCH   1   2
ATOM      2  C   UNL A   1      32.142  30.414  26.211  1.00  0.00     0.023 C 
BRANCH   2   3
ATOM      3  C   UNL A   1      32.449  29.272  27.181  1.00  0.00     0.116 C 
BRANCH   3   4
ATOM      4  N   UNL A   1      31.562  28.118  27.037  1.00  0.00    -0.352 N 
ATOM      5  O   UNL A   1      31.020  25.971  26.564  1.00  0.00    -0.270 OA
ATOM      6  C   UNL A   1      31.747  26.935  26.357  1.00  0.00     0.251 C 
ATOM      7  H   UNL A   1      30.697  28.200  27.499  1.00  0.00     0.163 HD
BRANCH   6   8
ATOM      8  C   UNL A   1      32.929  26.812  25.480  1.00  0.00     0.067 C 
ATOM      9  C   UNL A   1      34.078  26.285  25.927  1.00  0.00     0.025 C 
ATOM     10  C   UNL A   1      32.711  27.023  24.014  1.00  0.00     0.314 C 
ATOM     11  C   UNL A   1      34.513  25.166  25.066  1.00  0.00     0.020 A 
ATOM     12  O   UNL A   1      32.986  25.818  23.265  1.00  0.00    -0.474 OA
ATOM     13  C   UNL A   1      35.253  24.137  25.665  1.00  0.00     0.032 A 
ATOM     14  C   UNL A   1      33.867  24.923  23.832  1.00  0.00     0.146 A 
ATOM     15  C   UNL A   1      35.312  22.879  25.064  1.00  0.00     0.043 A 
ATOM     16  C   UNL A   1      33.968  23.661  23.227  1.00  0.00     0.085 A 
ATOM     17  Cl  UNL A   1      36.089  21.584  25.888  1.00  0.00    -0.084 Cl
ATOM     18  C   UNL A   1      34.675  22.634  23.850  1.00  0.00     0.045 A 
ATOM     19  Cl  UNL A   1      33.106  23.296  21.773  1.00  0.00    -0.080 Cl
BRANCH  10  20
ATOM     20  C   UNL A   1      33.552  28.203  23.490  1.00  0.00     0.429 C 
ATOM     21  F   UNL A   1      32.765  29.252  23.149  1.00  0.00    -0.167 F 
ATOM     22  F   UNL A   1      34.425  28.652  24.422  1.00  0.00    -0.167 F 
ATOM     23  F   UNL A   1      34.274  27.875  22.391  1.00  0.00    -0.167 F 
ENDBRANCH  10  20
ENDBRANCH   6   8
ENDBRANCH   3   4
ENDBRANCH   2   3
ENDBRANCH   1   2
BRANCH   1  24
ATOM     24  C   UNL A   1      32.777  32.641  27.401  1.00  0.00     0.116 C 
BRANCH  24  25
ATOM     25  N   UNL A   1      32.356  34.010  27.654  1.00  0.00    -0.352 N 
ATOM     26  C   UNL A   1      32.940  34.949  28.486  1.00  0.00     0.251 C 
ATOM     27  H   UNL A   1      31.552  34.307  27.169  1.00  0.00     0.163 HD
ATOM     28  O   UNL A   1      32.472  36.065  28.601  1.00  0.00    -0.269 OA
BRANCH  26  29
ATOM     29  C   UNL A   1      34.115  34.544  29.294  1.00  0.00     0.039 A 
ATOM     30  C   UNL A   1      33.899  33.994  30.560  1.00  0.00     0.014 A 
ATOM     31  C   UNL A   1      35.403  34.605  28.758  1.00  0.00     0.014 A 
ATOM     32  C   UNL A   1      34.961  33.389  31.237  1.00  0.00     0.010 A 
ATOM     33  C   UNL A   1      36.443  33.938  29.401  1.00  0.00     0.010 A 
ATOM     34  C   UNL A   1      36.225  33.299  30.633  1.00  0.00    -0.014 A 
BRANCH  34  35
ATOM     35  C   UNL A   1      37.318  32.494  31.239  1.00  0.00     0.031 A 
ATOM     36  C   UNL A   1      37.839  32.831  32.607  1.00  0.00     0.074 A 
ATOM     37  C   UNL A   1      37.910  31.522  30.514  1.00  0.00     0.049 A 
ATOM     38  N   UNL A   1      38.851  32.313  33.257  1.00  0.00    -0.248 NA
ATOM     39  C   UNL A   1      37.154  33.915  33.325  1.00  0.00     0.031 C 
ATOM     40  C   UNL A   1      37.542  31.141  29.149  1.00  0.00     0.029 A 
ATOM     41  N   UNL A   1      38.961  30.692  30.816  1.00  0.00    -0.354 N 
ATOM     42  C   UNL A   1      38.939  33.026  34.445  1.00  0.00     0.074 A 
ATOM     43  C   UNL A   1      37.905  34.037  34.411  1.00  0.00     0.031 C 
ATOM     44  C   UNL A   1      38.342  30.142  28.739  1.00  0.00     0.029 A 
ATOM     45  C   UNL A   1      39.301  29.835  29.795  1.00  0.00     0.049 A 
ATOM     46  H   UNL A   1      39.428  30.707  31.683  1.00  0.00     0.167 HD
ATOM     47  C   UNL A   1      39.796  32.842  35.478  1.00  0.00     0.037 A 
ATOM     48  C   UNL A   1      40.279  28.913  29.718  1.00  0.00     0.037 A 
ATOM     49  C   UNL A   1      40.791  31.805  35.534  1.00  0.00     0.049 A 
ATOM     50  C   UNL A   1      41.195  28.709  30.894  1.00  0.00     0.074 A 
ATOM     51  C   UNL A   1      41.637  31.478  36.579  1.00  0.00     0.029 A 
ATOM     52  N   UNL A   1      41.074  30.927  34.499  1.00  0.00    -0.354 N 
ATOM     53  N   UNL A   1      41.209  29.330  32.049  1.00  0.00    -0.248 NA
ATOM     54  C   UNL A   1      42.229  27.672  30.760  1.00  0.00     0.031 C 
ATOM     55  C   UNL A   1      42.459  30.425  36.163  1.00  0.00     0.029 A 
ATOM     56  C   UNL A   1      42.098  30.071  34.873  1.00  0.00     0.049 A 
ATOM     57  H   UNL A   1      40.616  30.914  33.627  1.00  0.00     0.167 HD
ATOM     58  C   UNL A   1      42.227  28.742  32.786  1.00  0.00     0.074 A 
ATOM     59  C   UNL A   1      42.803  27.706  31.954  1.00  0.00     0.031 C 
ATOM     60  C   UNL A   1      42.647  29.035  34.040  1.00  0.00     0.037 A 
BRANCH  47  61
ATOM     61  C   UNL A   1      39.689  33.779  36.644  1.00  0.00     0.064 A 
ATOM     62  C   UNL A   1      40.351  35.015  36.657  1.00  0.00     0.173 A 
ATOM     63  C   UNL A   1      38.875  33.456  37.740  1.00  0.00     0.173 A 
ATOM     64  F   UNL A   1      41.149  35.364  35.637  1.00  0.00    -0.203 F 
ATOM     65  C   UNL A   1      40.220  35.884  37.736  1.00  0.00     0.198 A 
ATOM     66  C   UNL A   1      38.726  34.339  38.806  1.00  0.00     0.198 A 
ATOM     67  F   UNL A   1      38.217  32.287  37.774  1.00  0.00    -0.203 F 
ATOM     68  F   UNL A   1      40.895  37.043  37.746  1.00  0.00    -0.200 F 
ATOM     69  C   UNL A   1      39.403  35.549  38.806  1.00  0.00     0.200 A 
ATOM     70  F   UNL A   1      37.928  34.019  39.834  1.00  0.00    -0.200 F 
ATOM     71  F   UNL A   1      39.273  36.392  39.840  1.00  0.00    -0.200 F 
ENDBRANCH  47  61
BRANCH  48  72
ATOM     72  C   UNL A   1      40.437  28.090  28.490  1.00  0.00     0.064 A 
ATOM     73  C   UNL A   1      39.831  26.828  28.390  1.00  0.00     0.173 A 
ATOM     74  C   UNL A   1      41.210  28.532  27.407  1.00  0.00     0.173 A 
ATOM     75  F   UNL A   1      39.101  26.354  29.409  1.00  0.00    -0.203 F 
ATOM     76  C   UNL A   1      40.014  26.030  27.262  1.00  0.00     0.198 A 
ATOM     77  C   UNL A   1      41.371  27.743  26.269  1.00  0.00     0.198 A 
ATOM     78  F   UNL A   1      41.806  29.731  27.452  1.00  0.00    -0.203 F 
ATOM     79  F   UNL A   1      39.465  24.809  27.214  1.00  0.00    -0.200 F 
ATOM     80  C   UNL A   1      40.780  26.489  26.202  1.00  0.00     0.200 A 
ATOM     81  F   UNL A   1      42.103  28.193  25.242  1.00  0.00    -0.200 F 
ATOM     82  F   UNL A   1      40.959  25.720  25.120  1.00  0.00    -0.200 F 
ENDBRANCH  48  72
BRANCH  60  83
ATOM     83  C   UNL A   1      43.757  28.201  34.606  1.00  0.00     0.064 A 
ATOM     84  C   UNL A   1      45.098  28.601  34.511  1.00  0.00     0.173 A 
ATOM     85  C   UNL A   1      43.471  27.012  35.293  1.00  0.00     0.173 A 
ATOM     86  F   UNL A   1      45.421  29.722  33.849  1.00  0.00    -0.203 F 
ATOM     87  C   UNL A   1      46.114  27.830  35.067  1.00  0.00     0.198 A 
ATOM     88  C   UNL A   1      44.487  26.256  35.870  1.00  0.00     0.198 A 
ATOM     89  F   UNL A   1      42.204  26.589  35.414  1.00  0.00    -0.203 F 
ATOM     90  F   UNL A   1      47.392  28.210  34.933  1.00  0.00    -0.200 F 
ATOM     91  C   UNL A   1      45.808  26.664  35.753  1.00  0.00     0.200 A 
ATOM     92  F   UNL A   1      44.189  25.135  36.541  1.00  0.00    -0.200 F 
ATOM     93  F   UNL A   1      46.788  25.927  36.296  1.00  0.00    -0.200 F 
ENDBRANCH  60  83
ENDBRANCH  34  35
ENDBRANCH  26  29
ENDBRANCH  24  25
ENDBRANCH   1  24
TORSDOF 12
ENDMDL
MODEL 2
REMARK VINA RESULT:     -13.1      2.216      7.873
REMARK SMILES O=C(NCCCCNC(=O)c1ccc(-c2c3nc(c(-c4c(F)c(F)c(F)c(F)c4F)c4ccc([nH]4)c(-c4c(F)c(F)c(F)c(F)c4F)c4nc(c(-c5c(F)c(F)c(F)c(F)c5F)c5ccc2[nH]5)C=C4)C=C3)cc1)C1=Cc2cc(Cl)cc(Cl)c2O[C@@H]1C(F)(F)F
REMARK SMILES IDX 6 1 5 2 4 3 3 4 1 5 2 6 74 8 75 9 85 10 76 11 84 12 77 13
REMARK SMILES IDX 83 14 78 15 81 16 79 17 80 18 82 19 86 20 87 21 88 22 89 23
REMARK SMILES IDX 7 24 8 25 9 26 10 28 11 29 12 30 73 31 13 32 72 33 14 34
REMARK SMILES IDX 15 35 16 36 66 37 17 38 71 39 65 40 67 41 18 42 70 43 64 44
REMARK SMILES IDX 63 45 19 47 51 48 31 49 50 50 32 51 35 52 49 53 68 54 33 55
REMARK SMILES IDX 34 56 48 58 69 59 36 60 20 61 21 62 29 63 22 64 23 65 27 66
REMARK SMILES IDX 30 67 24 68 25 69 28 70 26 71 52 72 53 73 61 74 54 75 55 76
REMARK SMILES IDX 59 77 62 78 56 79 57 80 60 81 58 82 37 83 38 84 46 85 39 86
REMARK SMILES IDX 40 87 44 88 47 89 41 90 42 91 45 92 43 93
REMARK H PARENT 3 7 8 27 67 46 35 57
REMARK Flexibility Score: inf
ROOT
ATOM      1  C   UNL A   1      31.679  28.530  25.605  1.00  0.00     0.023 C 
ENDROOT
BRANCH   1   2
ATOM      2  C   UNL A   1      31.663  27.280  26.487  1.00  0.00     0.023 C 
BRANCH   2   3
ATOM      3  C   UNL A   1      30.881  26.099  25.911  1.00  0.00     0.116 C 
BRANCH   3   4
ATOM      4  N   UNL A   1      30.937  24.893  26.738  1.00  0.00    -0.352 N 
ATOM      5  O   UNL A   1      31.852  22.999  27.577  1.00  0.00    -0.270 OA
ATOM      6  C   UNL A   1      31.755  23.789  26.646  1.00  0.00     0.251 C 
ATOM      7  H   UNL A   1      30.287  24.867  27.477  1.00  0.00     0.163 HD
BRANCH   6   8
ATOM      8  C   UNL A   1      32.620  23.660  25.456  1.00  0.00     0.067 C 
ATOM      9  C   UNL A   1      33.700  24.436  25.291  1.00  0.00     0.025 C 
ATOM     10  C   UNL A   1      32.416  22.450  24.597  1.00  0.00     0.314 C 
ATOM     11  C   UNL A   1      34.910  23.614  25.077  1.00  0.00     0.020 A 
ATOM     12  O   UNL A   1      33.590  21.607  24.593  1.00  0.00    -0.474 OA
ATOM     13  C   UNL A   1      36.136  24.138  25.511  1.00  0.00     0.032 A 
ATOM     14  C   UNL A   1      34.796  22.222  24.852  1.00  0.00     0.146 A 
ATOM     15  C   UNL A   1      37.213  23.285  25.755  1.00  0.00     0.043 A 
ATOM     16  C   UNL A   1      35.901  21.387  25.071  1.00  0.00     0.085 A 
ATOM     17  Cl  UNL A   1      38.657  23.922  26.438  1.00  0.00    -0.084 Cl
ATOM     18  C   UNL A   1      37.103  21.914  25.538  1.00  0.00     0.045 A 
ATOM     19  Cl  UNL A   1      35.769  19.670  24.908  1.00  0.00    -0.080 Cl
BRANCH  10  20
ATOM     20  C   UNL A   1      32.015  22.846  23.163  1.00  0.00     0.429 C 
ATOM     21  F   UNL A   1      31.467  21.800  22.501  1.00  0.00    -0.167 F 
ATOM     22  F   UNL A   1      31.097  23.842  23.154  1.00  0.00    -0.167 F 
ATOM     23  F   UNL A   1      33.072  23.272  22.430  1.00  0.00    -0.167 F 
ENDBRANCH  10  20
ENDBRANCH   6   8
ENDBRANCH   3   4
ENDBRANCH   2   3
ENDBRANCH   1   2
BRANCH   1  24
ATOM     24  C   UNL A   1      32.820  29.521  25.839  1.00  0.00     0.116 C 
BRANCH  24  25
ATOM     25  N   UNL A   1      32.422  30.794  26.418  1.00  0.00    -0.352 N 
ATOM     26  C   UNL A   1      33.163  31.641  27.224  1.00  0.00     0.251 C 
ATOM     27  H   UNL A   1      31.507  31.092  26.210  1.00  0.00     0.163 HD
ATOM     28  O   UNL A   1      32.694  32.682  27.641  1.00  0.00    -0.269 OA
BRANCH  26  29
ATOM     29  C   UNL A   1      34.525  31.220  27.628  1.00  0.00     0.039 A 
ATOM     30  C   UNL A   1      35.516  32.197  27.760  1.00  0.00     0.014 A 
ATOM     31  C   UNL A   1      34.787  29.895  27.981  1.00  0.00     0.014 A 
ATOM     32  C   UNL A   1      36.732  31.868  28.364  1.00  0.00     0.010 A 
ATOM     33  C   UNL A   1      35.969  29.586  28.648  1.00  0.00     0.010 A 
ATOM     34  C   UNL A   1      36.941  30.575  28.871  1.00  0.00    -0.014 A 
BRANCH  34  35
ATOM     35  C   UNL A   1      38.138  30.250  29.690  1.00  0.00     0.031 A 
ATOM     36  C   UNL A   1      39.182  29.305  29.166  1.00  0.00     0.074 A 
ATOM     37  C   UNL A   1      38.234  30.726  30.949  1.00  0.00     0.049 A 
ATOM     38  N   UNL A   1      40.237  28.820  29.770  1.00  0.00    -0.248 NA
ATOM     39  C   UNL A   1      38.996  28.813  27.793  1.00  0.00     0.031 C 
ATOM     40  C   UNL A   1      37.255  31.599  31.601  1.00  0.00     0.029 A 
ATOM     41  N   UNL A   1      39.191  30.526  31.913  1.00  0.00    -0.354 N 
ATOM     42  C   UNL A   1      40.824  27.949  28.862  1.00  0.00     0.074 A 
ATOM     43  C   UNL A   1      39.987  27.941  27.681  1.00  0.00     0.031 C 
ATOM     44  C   UNL A   1      37.671  31.874  32.848  1.00  0.00     0.029 A 
ATOM     45  C   UNL A   1      38.924  31.169  33.099  1.00  0.00     0.049 A 
ATOM     46  H   UNL A   1      39.994  29.976  31.769  1.00  0.00     0.167 HD
ATOM     47  C   UNL A   1      41.966  27.234  28.996  1.00  0.00     0.037 A 
ATOM     48  C   UNL A   1      39.608  31.183  34.259  1.00  0.00     0.037 A 
ATOM     49  C   UNL A   1      42.823  27.281  30.150  1.00  0.00     0.049 A 
ATOM     50  C   UNL A   1      40.891  30.404  34.367  1.00  0.00     0.074 A 
ATOM     51  C   UNL A   1      44.051  26.669  30.337  1.00  0.00     0.029 A 
ATOM     52  N   UNL A   1      42.542  27.979  31.314  1.00  0.00    -0.354 N 
ATOM     53  N   UNL A   1      41.482  29.655  33.468  1.00  0.00    -0.248 NA
ATOM     54  C   UNL A   1      41.606  30.475  35.650  1.00  0.00     0.031 C 
ATOM     55  C   UNL A   1      44.496  26.968  31.629  1.00  0.00     0.029 A 
ATOM     56  C   UNL A   1      43.564  27.797  32.232  1.00  0.00     0.049 A 
ATOM     57  H   UNL A   1      41.737  28.525  31.465  1.00  0.00     0.167 HD
ATOM     58  C   UNL A   1      42.648  29.192  34.063  1.00  0.00     0.074 A 
ATOM     59  C   UNL A   1      42.688  29.752  35.398  1.00  0.00     0.031 C 
ATOM     60  C   UNL A   1      43.598  28.375  33.549  1.00  0.00     0.037 A 
BRANCH  47  61
ATOM     61  C   UNL A   1      42.364  26.342  27.858  1.00  0.00     0.064 A 
ATOM     62  C   UNL A   1      41.849  25.044  27.727  1.00  0.00     0.173 A 
ATOM     63  C   UNL A   1      43.235  26.809  26.862  1.00  0.00     0.173 A 
ATOM     64  F   UNL A   1      41.022  24.549  28.658  1.00  0.00    -0.203 F 
ATOM     65  C   UNL A   1      42.209  24.239  26.650  1.00  0.00     0.198 A 
ATOM     66  C   UNL A   1      43.573  26.010  25.774  1.00  0.00     0.198 A 
ATOM     67  F   UNL A   1      43.752  28.045  26.941  1.00  0.00    -0.203 F 
ATOM     68  F   UNL A   1      41.736  22.987  26.565  1.00  0.00    -0.200 F 
ATOM     69  C   UNL A   1      43.064  24.724  25.672  1.00  0.00     0.200 A 
ATOM     70  F   UNL A   1      44.390  26.483  24.824  1.00  0.00    -0.200 F 
ATOM     71  F   UNL A   1      43.402  23.948  24.632  1.00  0.00    -0.200 F 
ENDBRANCH  47  61
BRANCH  48  72
ATOM     72  C   UNL A   1      39.112  31.978  35.413  1.00  0.00     0.064 A 
ATOM     73  C   UNL A   1      39.417  33.342  35.528  1.00  0.00     0.173 A 
ATOM     74  C   UNL A   1      38.346  31.391  36.430  1.00  0.00     0.173 A 
ATOM     75  F   UNL A   1      40.165  33.941  34.590  1.00  0.00    -0.203 F 
ATOM     76  C   UNL A   1      38.996  34.083  36.630  1.00  0.00     0.198 A 
ATOM     77  C   UNL A   1      37.904  32.140  37.520  1.00  0.00     0.198 A 
ATOM     78  F   UNL A   1      38.024  30.092  36.365  1.00  0.00    -0.203 F 
ATOM     79  F   UNL A   1      39.345  35.372  36.740  1.00  0.00    -0.200 F 
ATOM     80  C   UNL A   1      38.237  33.483  37.624  1.00  0.00     0.200 A 
ATOM     81  F   UNL A   1      37.162  31.560  38.472  1.00  0.00    -0.200 F 
ATOM     82  F   UNL A   1      37.836  34.194  38.685  1.00  0.00    -0.200 F 
ENDBRANCH  48  72
BRANCH  60  83
ATOM     83  C   UNL A   1      44.783  28.069  34.414  1.00  0.00     0.064 A 
ATOM     84  C   UNL A   1      45.909  28.904  34.442  1.00  0.00     0.173 A 
ATOM     85  C   UNL A   1      44.770  26.951  35.262  1.00  0.00     0.173 A 
ATOM     86  F   UNL A   1      45.973  29.975  33.636  1.00  0.00    -0.203 F 
ATOM     87  C   UNL A   1      46.988  28.621  35.273  1.00  0.00     0.198 A 
ATOM     88  C   UNL A   1      45.840  26.685  36.112  1.00  0.00     0.198 A 
ATOM     89  F   UNL A   1      43.714  26.124  35.276  1.00  0.00    -0.203 F 
ATOM     90  F   UNL A   1      48.071  29.410  35.256  1.00  0.00    -0.200 F 
ATOM     91  C   UNL A   1      46.950  27.517  36.113  1.00  0.00     0.200 A 
ATOM     92  F   UNL A   1      45.798  25.624  36.929  1.00  0.00    -0.200 F 
ATOM     93  F   UNL A   1      47.987  27.251  36.920  1.00  0.00    -0.200 F 
ENDBRANCH  60  83
ENDBRANCH  34  35
ENDBRANCH  26  29
ENDBRANCH  24  25
ENDBRANCH   1  24
TORSDOF 12
ENDMDL
MODEL 3
REMARK VINA RESULT:     -13.0      2.260      3.445
REMARK SMILES O=C(NCCCCNC(=O)c1ccc(-c2c3nc(c(-c4c(F)c(F)c(F)c(F)c4F)c4ccc([nH]4)c(-c4c(F)c(F)c(F)c(F)c4F)c4nc(c(-c5c(F)c(F)c(F)c(F)c5F)c5ccc2[nH]5)C=C4)C=C3)cc1)C1=Cc2cc(Cl)cc(Cl)c2O[C@@H]1C(F)(F)F
REMARK SMILES IDX 6 1 5 2 4 3 3 4 1 5 2 6 74 8 75 9 85 10 76 11 84 12 77 13
REMARK SMILES IDX 83 14 78 15 81 16 79 17 80 18 82 19 86 20 87 21 88 22 89 23
REMARK SMILES IDX 7 24 8 25 9 26 10 28 11 29 12 30 73 31 13 32 72 33 14 34
REMARK SMILES IDX 15 35 16 36 66 37 17 38 71 39 65 40 67 41 18 42 70 43 64 44
REMARK SMILES IDX 63 45 19 47 51 48 31 49 50 50 32 51 35 52 49 53 68 54 33 55
REMARK SMILES IDX 34 56 48 58 69 59 36 60 20 61 21 62 29 63 22 64 23 65 27 66
REMARK SMILES IDX 30 67 24 68 25 69 28 70 26 71 52 72 53 73 61 74 54 75 55 76
REMARK SMILES IDX 59 77 62 78 56 79 57 80 60 81 58 82 37 83 38 84 46 85 39 86
REMARK SMILES IDX 40 87 44 88 47 89 41 90 42 91 45 92 43 93
REMARK H PARENT 3 7 8 27 67 46 35 57
REMARK Flexibility Score: inf
ROOT
ATOM      1  C   UNL A   1      31.766  28.658  26.522  1.00  0.00     0.023 C 
ENDROOT
BRANCH   1   2
ATOM      2  C   UNL A   1      32.313  27.236  26.653  1.00  0.00     0.023 C 
BRANCH   2   3
ATOM      3  C   UNL A   1      31.408  26.145  26.077  1.00  0.00     0.116 C 
BRANCH   3   4
ATOM      4  N   UNL A   1      31.393  24.912  26.865  1.00  0.00    -0.352 N 
ATOM      5  O   UNL A   1      32.198  22.944  27.643  1.00  0.00    -0.270 OA
ATOM      6  C   UNL A   1      32.149  23.768  26.738  1.00  0.00     0.251 C 
ATOM      7  H   UNL A   1      30.741  24.899  27.601  1.00  0.00     0.163 HD
BRANCH   6   8
ATOM      8  C   UNL A   1      33.009  23.629  25.546  1.00  0.00     0.067 C 
ATOM      9  C   UNL A   1      34.096  24.395  25.376  1.00  0.00     0.025 C 
ATOM     10  C   UNL A   1      32.793  22.419  24.690  1.00  0.00     0.314 C 
ATOM     11  C   UNL A   1      35.298  23.562  25.161  1.00  0.00     0.020 A 
ATOM     12  O   UNL A   1      33.960  21.566  24.684  1.00  0.00    -0.474 OA
ATOM     13  C   UNL A   1      36.529  24.077  25.590  1.00  0.00     0.032 A 
ATOM     14  C   UNL A   1      35.171  22.171  24.939  1.00  0.00     0.146 A 
ATOM     15  C   UNL A   1      37.600  23.215  25.833  1.00  0.00     0.043 A 
ATOM     16  C   UNL A   1      36.270  21.327  25.156  1.00  0.00     0.085 A 
ATOM     17  Cl  UNL A   1      39.052  23.841  26.510  1.00  0.00    -0.084 Cl
ATOM     18  C   UNL A   1      37.478  21.845  25.619  1.00  0.00     0.045 A 
ATOM     19  Cl  UNL A   1      36.123  19.611  24.997  1.00  0.00    -0.080 Cl
BRANCH  10  20
ATOM     20  C   UNL A   1      32.391  22.816  23.256  1.00  0.00     0.429 C 
ATOM     21  F   UNL A   1      31.650  23.949  23.251  1.00  0.00    -0.167 F 
ATOM     22  F   UNL A   1      33.473  23.048  22.476  1.00  0.00    -0.167 F 
ATOM     23  F   UNL A   1      31.655  21.857  22.643  1.00  0.00    -0.167 F 
ENDBRANCH  10  20
ENDBRANCH   6   8
ENDBRANCH   3   4
ENDBRANCH   2   3
ENDBRANCH   1   2
BRANCH   1  24
ATOM     24  C   UNL A   1      32.745  29.728  26.038  1.00  0.00     0.116 C 
BRANCH  24  25
ATOM     25  N   UNL A   1      32.513  31.062  26.571  1.00  0.00    -0.352 N 
ATOM     26  C   UNL A   1      33.360  31.839  27.342  1.00  0.00     0.251 C 
ATOM     27  H   UNL A   1      31.640  31.464  26.354  1.00  0.00     0.163 HD
ATOM     28  O   UNL A   1      33.027  32.945  27.720  1.00  0.00    -0.269 OA
BRANCH  26  29
ATOM     29  C   UNL A   1      34.662  31.267  27.758  1.00  0.00     0.039 A 
ATOM     30  C   UNL A   1      35.728  32.137  28.001  1.00  0.00     0.014 A 
ATOM     31  C   UNL A   1      34.791  29.900  28.012  1.00  0.00     0.014 A 
ATOM     32  C   UNL A   1      36.884  31.654  28.618  1.00  0.00     0.010 A 
ATOM     33  C   UNL A   1      35.914  29.435  28.692  1.00  0.00     0.010 A 
ATOM     34  C   UNL A   1      36.958  30.312  29.028  1.00  0.00    -0.014 A 
BRANCH  34  35
ATOM     35  C   UNL A   1      38.087  29.818  29.858  1.00  0.00     0.031 A 
ATOM     36  C   UNL A   1      38.272  30.317  31.263  1.00  0.00     0.074 A 
ATOM     37  C   UNL A   1      39.008  28.997  29.310  1.00  0.00     0.049 A 
ATOM     38  N   UNL A   1      39.249  30.083  32.102  1.00  0.00    -0.248 NA
ATOM     39  C   UNL A   1      37.238  31.224  31.781  1.00  0.00     0.031 C 
ATOM     40  C   UNL A   1      38.981  28.492  27.935  1.00  0.00     0.029 A 
ATOM     41  N   UNL A   1      40.156  28.458  29.836  1.00  0.00    -0.354 N 
ATOM     42  C   UNL A   1      38.961  30.835  33.234  1.00  0.00     0.074 A 
ATOM     43  C   UNL A   1      37.740  31.561  32.960  1.00  0.00     0.031 C 
ATOM     44  C   UNL A   1      40.050  27.705  27.733  1.00  0.00     0.029 A 
ATOM     45  C   UNL A   1      40.858  27.677  28.948  1.00  0.00     0.049 A 
ATOM     46  H   UNL A   1      40.449  28.615  30.763  1.00  0.00     0.167 HD
ATOM     47  C   UNL A   1      39.646  30.899  34.400  1.00  0.00     0.037 A 
ATOM     48  C   UNL A   1      42.023  27.019  29.096  1.00  0.00     0.037 A 
ATOM     49  C   UNL A   1      40.832  30.139  34.690  1.00  0.00     0.049 A 
ATOM     50  C   UNL A   1      42.745  27.083  30.415  1.00  0.00     0.074 A 
ATOM     51  C   UNL A   1      41.538  30.063  35.878  1.00  0.00     0.029 A 
ATOM     52  N   UNL A   1      41.487  29.323  33.781  1.00  0.00    -0.354 N 
ATOM     53  N   UNL A   1      42.413  27.726  31.508  1.00  0.00    -0.248 NA
ATOM     54  C   UNL A   1      44.001  26.326  30.524  1.00  0.00     0.031 C 
ATOM     55  C   UNL A   1      42.643  29.228  35.677  1.00  0.00     0.029 A 
ATOM     56  C   UNL A   1      42.603  28.755  34.376  1.00  0.00     0.049 A 
ATOM     57  H   UNL A   1      41.202  29.170  32.851  1.00  0.00     0.167 HD
ATOM     58  C   UNL A   1      43.399  27.429  32.439  1.00  0.00     0.074 A 
ATOM     59  C   UNL A   1      44.336  26.538  31.788  1.00  0.00     0.031 C 
ATOM     60  C   UNL A   1      43.516  27.857  33.719  1.00  0.00     0.037 A 
BRANCH  47  61
ATOM     61  C   UNL A   1      39.123  31.819  35.463  1.00  0.00     0.064 A 
ATOM     62  C   UNL A   1      38.291  31.356  36.492  1.00  0.00     0.173 A 
ATOM     63  C   UNL A   1      39.498  33.171  35.477  1.00  0.00     0.173 A 
ATOM     64  F   UNL A   1      37.897  30.074  36.516  1.00  0.00    -0.203 F 
ATOM     65  C   UNL A   1      37.836  32.218  37.486  1.00  0.00     0.198 A 
ATOM     66  C   UNL A   1      39.061  34.025  36.486  1.00  0.00     0.198 A 
ATOM     67  F   UNL A   1      40.295  33.662  34.517  1.00  0.00    -0.203 F 
ATOM     68  F   UNL A   1      37.008  31.762  38.438  1.00  0.00    -0.200 F 
ATOM     69  C   UNL A   1      38.226  33.549  37.486  1.00  0.00     0.200 A 
ATOM     70  F   UNL A   1      39.448  35.308  36.492  1.00  0.00    -0.200 F 
ATOM     71  F   UNL A   1      37.792  34.375  38.449  1.00  0.00    -0.200 F 
ENDBRANCH  47  61
BRANCH  48  72
ATOM     72  C   UNL A   1      42.579  26.219  27.973  1.00  0.00     0.064 A 
ATOM     73  C   UNL A   1      43.414  26.812  27.014  1.00  0.00     0.173 A 
ATOM     74  C   UNL A   1      42.273  24.859  27.821  1.00  0.00     0.173 A 
ATOM     75  F   UNL A   1      43.717  28.115  27.106  1.00  0.00    -0.203 F 
ATOM     76  C   UNL A   1      43.900  26.081  25.932  1.00  0.00     0.198 A 
ATOM     77  C   UNL A   1      42.781  24.123  26.752  1.00  0.00     0.198 A 
ATOM     78  F   UNL A   1      41.483  24.245  28.713  1.00  0.00    -0.203 F 
ATOM     79  F   UNL A   1      44.655  26.685  25.004  1.00  0.00    -0.200 F 
ATOM     80  C   UNL A   1      43.587  24.736  25.804  1.00  0.00     0.200 A 
ATOM     81  F   UNL A   1      42.485  22.821  26.637  1.00  0.00    -0.200 F 
ATOM     82  F   UNL A   1      44.051  24.034  24.762  1.00  0.00    -0.200 F 
ENDBRANCH  48  72
BRANCH  60  83
ATOM     83  C   UNL A   1      44.675  27.338  34.514  1.00  0.00     0.064 A 
ATOM     84  C   UNL A   1      45.888  28.040  34.589  1.00  0.00     0.173 A 
ATOM     85  C   UNL A   1      44.556  26.149  35.248  1.00  0.00     0.173 A 
ATOM     86  F   UNL A   1      46.054  29.173  33.890  1.00  0.00    -0.203 F 
ATOM     87  C   UNL A   1      46.945  27.559  35.355  1.00  0.00     0.198 A 
ATOM     88  C   UNL A   1      45.606  25.684  36.035  1.00  0.00     0.198 A 
ATOM     89  F   UNL A   1      43.415  25.444  35.214  1.00  0.00    -0.203 F 
ATOM     90  F   UNL A   1      48.107  28.225  35.382  1.00  0.00    -0.200 F 
ATOM     91  C   UNL A   1      46.802  26.388  36.084  1.00  0.00     0.200 A 
ATOM     92  F   UNL A   1      45.463  24.558  36.746  1.00  0.00    -0.200 F 
ATOM     93  F   UNL A   1      47.818  25.931  36.829  1.00  0.00    -0.200 F 
ENDBRANCH  60  83
ENDBRANCH  34  35
ENDBRANCH  26  29
ENDBRANCH  24  25
ENDBRANCH   1  24
TORSDOF 12
ENDMDL
