MODEL 1
REMARK VINA RESULT:     -10.6      0.000      0.000
REMARK SMILES O=C(Cc1ccc(Cl)nc1)NCCCCNC(=O)c1ccc(-c2c3nc(c(-c4c(F)c(F)c(F)c(F)c4F)c4ccc([nH]4)c(-c4c(F)c(F)c(F)c(F)c4F)c4nc(c(-c5c(F)c(F)c(F)c(F)c5F)c5ccc2[nH]5)C=C4)C=C3)cc1
REMARK SMILES IDX 14 1 13 2 12 3 11 4 1 5 2 6 3 8 4 9 5 10 10 11 6 12 9 13
REMARK SMILES IDX 7 14 8 15 15 16 16 17 17 18 18 20 19 21 20 22 81 23 21 24
REMARK SMILES IDX 80 25 22 26 23 27 24 28 74 29 25 30 79 31 73 32 75 33 26 34
REMARK SMILES IDX 78 35 72 36 71 37 27 39 59 40 39 41 58 42 40 43 43 44 57 45
REMARK SMILES IDX 76 46 41 47 42 48 56 50 77 51 44 52 28 53 29 54 37 55 30 56
REMARK SMILES IDX 31 57 35 58 38 59 32 60 33 61 36 62 34 63 60 64 61 65 69 66
REMARK SMILES IDX 62 67 63 68 67 69 70 70 64 71 65 72 68 73 66 74 45 75 46 76
REMARK SMILES IDX 54 77 47 78 48 79 52 80 55 81 49 82 50 83 53 84 51 85
REMARK H PARENT 11 7 16 19 75 38 43 49
REMARK Flexibility Score: inf
ROOT
ATOM      1  C   UNL A   1      34.726  34.163  29.126  1.00  0.00     0.023 C 
ENDROOT
BRANCH   1   2
ATOM      2  C   UNL A   1      33.335  34.783  28.976  1.00  0.00     0.023 C 
BRANCH   2   3
ATOM      3  C   UNL A   1      33.028  35.935  29.929  1.00  0.00     0.116 C 
BRANCH   3   4
ATOM      4  N   UNL A   1      33.878  35.925  31.104  1.00  0.00    -0.356 N 
ATOM      5  O   UNL A   1      32.332  34.952  32.501  1.00  0.00    -0.275 OA
ATOM      6  C   UNL A   1      33.463  35.386  32.306  1.00  0.00     0.224 C 
ATOM      7  H   UNL A   1      34.779  36.315  31.043  1.00  0.00     0.163 HD
BRANCH   6   8
ATOM      8  C   UNL A   1      34.534  35.364  33.380  1.00  0.00     0.137 C 
BRANCH   8   9
ATOM      9  C   UNL A   1      35.377  34.112  33.442  1.00  0.00    -0.020 A 
ATOM     10  C   UNL A   1      35.460  33.163  32.416  1.00  0.00     0.009 A 
ATOM     11  C   UNL A   1      36.122  33.861  34.595  1.00  0.00     0.117 A 
ATOM     12  C   UNL A   1      36.283  32.049  32.566  1.00  0.00     0.041 A 
ATOM     13  N   UNL A   1      36.927  32.791  34.769  1.00  0.00    -0.244 NA
ATOM     14  C   UNL A   1      36.986  31.914  33.749  1.00  0.00     0.129 A 
ATOM     15  Cl  UNL A   1      38.023  30.574  34.008  1.00  0.00    -0.062 Cl
ENDBRANCH   8   9
ENDBRANCH   6   8
ENDBRANCH   3   4
ENDBRANCH   2   3
ENDBRANCH   1   2
BRANCH   1  16
ATOM     16  C   UNL A   1      35.154  33.225  28.001  1.00  0.00     0.116 C 
BRANCH  16  17
ATOM     17  N   UNL A   1      34.210  32.142  27.776  1.00  0.00    -0.352 N 
ATOM     18  C   UNL A   1      34.412  30.783  27.797  1.00  0.00     0.251 C 
ATOM     19  H   UNL A   1      33.287  32.425  27.579  1.00  0.00     0.163 HD
ATOM     20  O   UNL A   1      33.513  30.026  27.433  1.00  0.00    -0.269 OA
BRANCH  18  21
ATOM     21  C   UNL A   1      35.712  30.219  28.223  1.00  0.00     0.039 A 
ATOM     22  C   UNL A   1      36.761  30.173  27.300  1.00  0.00     0.014 A 
ATOM     23  C   UNL A   1      35.903  29.728  29.518  1.00  0.00     0.014 A 
ATOM     24  C   UNL A   1      38.017  29.703  27.695  1.00  0.00     0.010 A 
ATOM     25  C   UNL A   1      37.173  29.330  29.931  1.00  0.00     0.010 A 
ATOM     26  C   UNL A   1      38.245  29.315  29.026  1.00  0.00    -0.014 A 
BRANCH  26  27
ATOM     27  C   UNL A   1      39.599  28.907  29.489  1.00  0.00     0.031 A 
ATOM     28  C   UNL A   1      40.378  29.782  30.432  1.00  0.00     0.074 A 
ATOM     29  C   UNL A   1      40.156  27.778  29.008  1.00  0.00     0.049 A 
ATOM     30  N   UNL A   1      41.595  29.629  30.890  1.00  0.00    -0.248 NA
ATOM     31  C   UNL A   1      39.710  31.005  30.902  1.00  0.00     0.031 C 
ATOM     32  C   UNL A   1      39.523  26.862  28.057  1.00  0.00     0.029 A 
ATOM     33  N   UNL A   1      41.385  27.212  29.244  1.00  0.00    -0.354 N 
ATOM     34  C   UNL A   1      41.844  30.739  31.686  1.00  0.00     0.074 A 
ATOM     35  C   UNL A   1      40.670  31.583  31.610  1.00  0.00     0.031 C 
ATOM     36  C   UNL A   1      40.357  25.840  27.810  1.00  0.00     0.029 A 
ATOM     37  C   UNL A   1      41.598  26.047  28.549  1.00  0.00     0.049 A 
ATOM     38  H   UNL A   1      42.050  27.605  29.854  1.00  0.00     0.167 HD
ATOM     39  C   UNL A   1      42.940  31.019  32.431  1.00  0.00     0.037 A 
ATOM     40  C   UNL A   1      42.676  25.240  28.504  1.00  0.00     0.037 A 
ATOM     41  C   UNL A   1      44.097  30.167  32.525  1.00  0.00     0.049 A 
ATOM     42  C   UNL A   1      43.888  25.584  29.327  1.00  0.00     0.074 A 
ATOM     43  C   UNL A   1      45.228  30.331  33.305  1.00  0.00     0.029 A 
ATOM     44  N   UNL A   1      44.273  28.990  31.811  1.00  0.00    -0.354 N 
ATOM     45  N   UNL A   1      44.081  26.599  30.134  1.00  0.00    -0.248 NA
ATOM     46  C   UNL A   1      45.033  24.666  29.236  1.00  0.00     0.031 C 
ATOM     47  C   UNL A   1      46.113  29.287  33.021  1.00  0.00     0.029 A 
ATOM     48  C   UNL A   1      45.508  28.436  32.110  1.00  0.00     0.049 A 
ATOM     49  H   UNL A   1      43.618  28.606  31.184  1.00  0.00     0.167 HD
ATOM     50  C   UNL A   1      45.350  26.424  30.671  1.00  0.00     0.074 A 
ATOM     51  C   UNL A   1      45.877  25.198  30.108  1.00  0.00     0.031 C 
ATOM     52  C   UNL A   1      46.018  27.210  31.551  1.00  0.00     0.037 A 
BRANCH  39  53
ATOM     53  C   UNL A   1      42.947  32.307  33.205  1.00  0.00     0.064 A 
ATOM     54  C   UNL A   1      43.450  33.497  32.656  1.00  0.00     0.173 A 
ATOM     55  C   UNL A   1      42.407  32.362  34.500  1.00  0.00     0.173 A 
ATOM     56  F   UNL A   1      43.986  33.499  31.426  1.00  0.00    -0.203 F 
ATOM     57  C   UNL A   1      43.439  34.685  33.383  1.00  0.00     0.198 A 
ATOM     58  C   UNL A   1      42.368  33.558  35.212  1.00  0.00     0.198 A 
ATOM     59  F   UNL A   1      41.906  31.256  35.071  1.00  0.00    -0.203 F 
ATOM     60  F   UNL A   1      43.972  35.796  32.856  1.00  0.00    -0.200 F 
ATOM     61  C   UNL A   1      42.891  34.715  34.657  1.00  0.00     0.200 A 
ATOM     62  F   UNL A   1      41.823  33.590  36.436  1.00  0.00    -0.200 F 
ATOM     63  F   UNL A   1      42.873  35.861  35.352  1.00  0.00    -0.200 F 
ENDBRANCH  39  53
BRANCH  40  64
ATOM     64  C   UNL A   1      42.653  24.012  27.666  1.00  0.00     0.064 A 
ATOM     65  C   UNL A   1      42.268  22.778  28.210  1.00  0.00     0.173 A 
ATOM     66  C   UNL A   1      43.026  24.040  26.315  1.00  0.00     0.173 A 
ATOM     67  F   UNL A   1      41.924  22.695  29.504  1.00  0.00    -0.203 F 
ATOM     68  C   UNL A   1      42.278  21.616  27.441  1.00  0.00     0.198 A 
ATOM     69  C   UNL A   1      43.006  22.882  25.538  1.00  0.00     0.198 A 
ATOM     70  F   UNL A   1      43.398  25.195  25.744  1.00  0.00    -0.203 F 
ATOM     71  F   UNL A   1      41.954  20.442  28.000  1.00  0.00    -0.200 F 
ATOM     72  C   UNL A   1      42.642  21.670  26.103  1.00  0.00     0.200 A 
ATOM     73  F   UNL A   1      43.343  22.943  24.243  1.00  0.00    -0.200 F 
ATOM     74  F   UNL A   1      42.649  20.554  25.363  1.00  0.00    -0.200 F 
ENDBRANCH  40  64
BRANCH  52  75
ATOM     75  C   UNL A   1      47.377  26.748  31.996  1.00  0.00     0.064 A 
ATOM     76  C   UNL A   1      47.540  25.860  33.070  1.00  0.00     0.173 A 
ATOM     77  C   UNL A   1      48.528  27.168  31.312  1.00  0.00     0.173 A 
ATOM     78  F   UNL A   1      46.473  25.440  33.766  1.00  0.00    -0.203 F 
ATOM     79  C   UNL A   1      48.807  25.434  33.461  1.00  0.00     0.198 A 
ATOM     80  C   UNL A   1      49.790  26.714  31.684  1.00  0.00     0.198 A 
ATOM     81  F   UNL A   1      48.428  28.012  30.274  1.00  0.00    -0.203 F 
ATOM     82  F   UNL A   1      48.943  24.627  34.522  1.00  0.00    -0.200 F 
ATOM     83  C   UNL A   1      49.930  25.855  32.763  1.00  0.00     0.200 A 
ATOM     84  F   UNL A   1      50.872  27.109  30.999  1.00  0.00    -0.200 F 
ATOM     85  F   UNL A   1      51.147  25.436  33.134  1.00  0.00    -0.200 F 
ENDBRANCH  52  75
ENDBRANCH  26  27
ENDBRANCH  18  21
ENDBRANCH  16  17
ENDBRANCH   1  16
TORSDOF 12
ENDMDL
MODEL 2
REMARK VINA RESULT:     -10.5      0.175      1.679
REMARK SMILES O=C(Cc1ccc(Cl)nc1)NCCCCNC(=O)c1ccc(-c2c3nc(c(-c4c(F)c(F)c(F)c(F)c4F)c4ccc([nH]4)c(-c4c(F)c(F)c(F)c(F)c4F)c4nc(c(-c5c(F)c(F)c(F)c(F)c5F)c5ccc2[nH]5)C=C4)C=C3)cc1
REMARK SMILES IDX 14 1 13 2 12 3 11 4 1 5 2 6 3 8 4 9 5 10 10 11 6 12 9 13
REMARK SMILES IDX 7 14 8 15 15 16 16 17 17 18 18 20 19 21 20 22 81 23 21 24
REMARK SMILES IDX 80 25 22 26 23 27 24 28 74 29 25 30 79 31 73 32 75 33 26 34
REMARK SMILES IDX 78 35 72 36 71 37 27 39 59 40 39 41 58 42 40 43 43 44 57 45
REMARK SMILES IDX 76 46 41 47 42 48 56 50 77 51 44 52 28 53 29 54 37 55 30 56
REMARK SMILES IDX 31 57 35 58 38 59 32 60 33 61 36 62 34 63 60 64 61 65 69 66
REMARK SMILES IDX 62 67 63 68 67 69 70 70 64 71 65 72 68 73 66 74 45 75 46 76
REMARK SMILES IDX 54 77 47 78 48 79 52 80 55 81 49 82 50 83 53 84 51 85
REMARK H PARENT 11 7 16 19 75 38 43 49
REMARK Flexibility Score: inf
ROOT
ATOM      1  C   UNL A   1      34.393  34.005  29.338  1.00  0.00     0.023 C 
ENDROOT
BRANCH   1   2
ATOM      2  C   UNL A   1      33.693  35.301  28.924  1.00  0.00     0.023 C 
BRANCH   2   3
ATOM      3  C   UNL A   1      33.143  36.141  30.074  1.00  0.00     0.116 C 
BRANCH   3   4
ATOM      4  N   UNL A   1      33.999  36.110  31.243  1.00  0.00    -0.356 N 
ATOM      5  O   UNL A   1      32.601  34.805  32.520  1.00  0.00    -0.275 OA
ATOM      6  C   UNL A   1      33.667  35.396  32.378  1.00  0.00     0.224 C 
ATOM      7  H   UNL A   1      34.844  36.614  31.228  1.00  0.00     0.163 HD
BRANCH   6   8
ATOM      8  C   UNL A   1      34.743  35.392  33.447  1.00  0.00     0.137 C 
BRANCH   8   9
ATOM      9  C   UNL A   1      35.575  34.134  33.537  1.00  0.00    -0.020 A 
ATOM     10  C   UNL A   1      35.764  33.234  32.482  1.00  0.00     0.009 A 
ATOM     11  C   UNL A   1      36.198  33.827  34.747  1.00  0.00     0.117 A 
ATOM     12  C   UNL A   1      36.568  32.111  32.663  1.00  0.00     0.041 A 
ATOM     13  N   UNL A   1      36.982  32.746  34.953  1.00  0.00    -0.244 NA
ATOM     14  C   UNL A   1      37.145  31.917  33.904  1.00  0.00     0.129 A 
ATOM     15  Cl  UNL A   1      38.150  30.562  34.205  1.00  0.00    -0.062 Cl
ENDBRANCH   8   9
ENDBRANCH   6   8
ENDBRANCH   3   4
ENDBRANCH   2   3
ENDBRANCH   1   2
BRANCH   1  16
ATOM     16  C   UNL A   1      34.946  33.160  28.194  1.00  0.00     0.116 C 
BRANCH  16  17
ATOM     17  N   UNL A   1      34.064  32.068  27.818  1.00  0.00    -0.352 N 
ATOM     18  C   UNL A   1      34.324  30.722  27.721  1.00  0.00     0.251 C 
ATOM     19  H   UNL A   1      33.140  32.332  27.600  1.00  0.00     0.163 HD
ATOM     20  O   UNL A   1      33.478  29.969  27.239  1.00  0.00    -0.269 OA
BRANCH  18  21
ATOM     21  C   UNL A   1      35.625  30.171  28.161  1.00  0.00     0.039 A 
ATOM     22  C   UNL A   1      36.678  30.114  27.242  1.00  0.00     0.014 A 
ATOM     23  C   UNL A   1      35.814  29.702  29.463  1.00  0.00     0.014 A 
ATOM     24  C   UNL A   1      37.934  29.657  27.648  1.00  0.00     0.010 A 
ATOM     25  C   UNL A   1      37.085  29.317  29.887  1.00  0.00     0.010 A 
ATOM     26  C   UNL A   1      38.160  29.293  28.986  1.00  0.00    -0.014 A 
BRANCH  26  27
ATOM     27  C   UNL A   1      39.514  28.899  29.460  1.00  0.00     0.031 A 
ATOM     28  C   UNL A   1      40.278  29.782  30.407  1.00  0.00     0.074 A 
ATOM     29  C   UNL A   1      40.085  27.774  28.985  1.00  0.00     0.049 A 
ATOM     30  N   UNL A   1      41.492  29.643  30.875  1.00  0.00    -0.248 NA
ATOM     31  C   UNL A   1      39.594  31.000  30.871  1.00  0.00     0.031 C 
ATOM     32  C   UNL A   1      39.469  26.851  28.031  1.00  0.00     0.029 A 
ATOM     33  N   UNL A   1      41.318  27.221  29.232  1.00  0.00    -0.354 N 
ATOM     34  C   UNL A   1      41.724  30.756  31.671  1.00  0.00     0.074 A 
ATOM     35  C   UNL A   1      40.543  31.589  31.584  1.00  0.00     0.031 C 
ATOM     36  C   UNL A   1      40.315  25.836  27.792  1.00  0.00     0.029 A 
ATOM     37  C   UNL A   1      41.548  26.056  28.540  1.00  0.00     0.049 A 
ATOM     38  H   UNL A   1      41.975  27.621  29.846  1.00  0.00     0.167 HD
ATOM     39  C   UNL A   1      42.812  31.048  32.423  1.00  0.00     0.037 A 
ATOM     40  C   UNL A   1      42.634  25.260  28.505  1.00  0.00     0.037 A 
ATOM     41  C   UNL A   1      43.976  30.207  32.528  1.00  0.00     0.049 A 
ATOM     42  C   UNL A   1      43.837  25.617  29.336  1.00  0.00     0.074 A 
ATOM     43  C   UNL A   1      45.100  30.384  33.316  1.00  0.00     0.029 A 
ATOM     44  N   UNL A   1      44.169  29.031  31.817  1.00  0.00    -0.354 N 
ATOM     45  N   UNL A   1      44.013  26.635  30.143  1.00  0.00    -0.248 NA
ATOM     46  C   UNL A   1      44.991  24.710  29.255  1.00  0.00     0.031 C 
ATOM     47  C   UNL A   1      45.997  29.347  33.041  1.00  0.00     0.029 A 
ATOM     48  C   UNL A   1      45.407  28.490  32.127  1.00  0.00     0.049 A 
ATOM     49  H   UNL A   1      43.522  28.640  31.186  1.00  0.00     0.167 HD
ATOM     50  C   UNL A   1      45.280  26.474  30.690  1.00  0.00     0.074 A 
ATOM     51  C   UNL A   1      45.823  25.252  30.133  1.00  0.00     0.031 C 
ATOM     52  C   UNL A   1      45.934  27.268  31.573  1.00  0.00     0.037 A 
BRANCH  39  53
ATOM     53  C   UNL A   1      42.801  32.337  33.196  1.00  0.00     0.064 A 
ATOM     54  C   UNL A   1      42.289  32.413  34.500  1.00  0.00     0.173 A 
ATOM     55  C   UNL A   1      43.347  33.504  32.639  1.00  0.00     0.173 A 
ATOM     56  F   UNL A   1      41.747  31.329  35.077  1.00  0.00    -0.203 F 
ATOM     57  C   UNL A   1      42.297  33.613  35.207  1.00  0.00     0.198 A 
ATOM     58  C   UNL A   1      43.383  34.695  33.360  1.00  0.00     0.198 A 
ATOM     59  F   UNL A   1      43.857  33.488  31.398  1.00  0.00    -0.203 F 
ATOM     60  F   UNL A   1      41.756  33.671  36.431  1.00  0.00    -0.200 F 
ATOM     61  C   UNL A   1      42.851  34.751  34.639  1.00  0.00     0.200 A 
ATOM     62  F   UNL A   1      43.934  35.790  32.816  1.00  0.00    -0.200 F 
ATOM     63  F   UNL A   1      42.866  35.903  35.323  1.00  0.00    -0.200 F 
ENDBRANCH  39  53
BRANCH  40  64
ATOM     64  C   UNL A   1      42.629  24.030  27.669  1.00  0.00     0.064 A 
ATOM     65  C   UNL A   1      42.251  22.794  28.211  1.00  0.00     0.173 A 
ATOM     66  C   UNL A   1      43.014  24.059  26.321  1.00  0.00     0.173 A 
ATOM     67  F   UNL A   1      41.896  22.710  29.502  1.00  0.00    -0.203 F 
ATOM     68  C   UNL A   1      42.278  21.631  27.444  1.00  0.00     0.198 A 
ATOM     69  C   UNL A   1      43.012  22.901  25.546  1.00  0.00     0.198 A 
ATOM     70  F   UNL A   1      43.381  25.217  25.751  1.00  0.00    -0.203 F 
ATOM     71  F   UNL A   1      41.960  20.455  28.002  1.00  0.00    -0.200 F 
ATOM     72  C   UNL A   1      42.653  21.686  26.110  1.00  0.00     0.200 A 
ATOM     73  F   UNL A   1      43.359  22.963  24.253  1.00  0.00    -0.200 F 
ATOM     74  F   UNL A   1      42.677  20.569  25.371  1.00  0.00    -0.200 F 
ENDBRANCH  40  64
BRANCH  52  75
ATOM     75  C   UNL A   1      47.293  26.819  32.030  1.00  0.00     0.064 A 
ATOM     76  C   UNL A   1      48.468  27.282  31.419  1.00  0.00     0.173 A 
ATOM     77  C   UNL A   1      47.422  25.945  33.121  1.00  0.00     0.173 A 
ATOM     78  F   UNL A   1      48.400  28.107  30.363  1.00  0.00    -0.203 F 
ATOM     79  C   UNL A   1      49.719  26.863  31.864  1.00  0.00     0.198 A 
ATOM     80  C   UNL A   1      48.674  25.555  33.584  1.00  0.00     0.198 A 
ATOM     81  F   UNL A   1      46.330  25.477  33.745  1.00  0.00    -0.203 F 
ATOM     82  F   UNL A   1      50.826  27.277  31.233  1.00  0.00    -0.200 F 
ATOM     83  C   UNL A   1      49.822  26.007  32.951  1.00  0.00     0.200 A 
ATOM     84  F   UNL A   1      48.772  24.740  34.644  1.00  0.00    -0.200 F 
ATOM     85  F   UNL A   1      51.027  25.613  33.383  1.00  0.00    -0.200 F 
ENDBRANCH  52  75
ENDBRANCH  26  27
ENDBRANCH  18  21
ENDBRANCH  16  17
ENDBRANCH   1  16
TORSDOF 12
ENDMDL
MODEL 3
REMARK VINA RESULT:     -10.5      3.840      9.830
REMARK SMILES O=C(Cc1ccc(Cl)nc1)NCCCCNC(=O)c1ccc(-c2c3nc(c(-c4c(F)c(F)c(F)c(F)c4F)c4ccc([nH]4)c(-c4c(F)c(F)c(F)c(F)c4F)c4nc(c(-c5c(F)c(F)c(F)c(F)c5F)c5ccc2[nH]5)C=C4)C=C3)cc1
REMARK SMILES IDX 14 1 13 2 12 3 11 4 1 5 2 6 3 8 4 9 5 10 10 11 6 12 9 13
REMARK SMILES IDX 7 14 8 15 15 16 16 17 17 18 18 20 19 21 20 22 81 23 21 24
REMARK SMILES IDX 80 25 22 26 23 27 24 28 74 29 25 30 79 31 73 32 75 33 26 34
REMARK SMILES IDX 78 35 72 36 71 37 27 39 59 40 39 41 58 42 40 43 43 44 57 45
REMARK SMILES IDX 76 46 41 47 42 48 56 50 77 51 44 52 28 53 29 54 37 55 30 56
REMARK SMILES IDX 31 57 35 58 38 59 32 60 33 61 36 62 34 63 60 64 61 65 69 66
REMARK SMILES IDX 62 67 63 68 67 69 70 70 64 71 65 72 68 73 66 74 45 75 46 76
REMARK SMILES IDX 54 77 47 78 48 79 52 80 55 81 49 82 50 83 53 84 51 85
REMARK H PARENT 11 7 16 19 75 38 43 49
REMARK Flexibility Score: inf
ROOT
ATOM      1  C   UNL A   1      31.292  32.152  26.853  1.00  0.00     0.023 C 
ENDROOT
BRANCH   1   2
ATOM      2  C   UNL A   1      31.487  30.923  25.961  1.00  0.00     0.023 C 
BRANCH   2   3
ATOM      3  C   UNL A   1      32.464  29.879  26.495  1.00  0.00     0.116 C 
BRANCH   3   4
ATOM      4  N   UNL A   1      32.272  28.577  25.886  1.00  0.00    -0.356 N 
ATOM      5  O   UNL A   1      31.089  27.673  27.638  1.00  0.00    -0.275 OA
ATOM      6  C   UNL A   1      31.551  27.575  26.505  1.00  0.00     0.224 C 
ATOM      7  H   UNL A   1      32.669  28.402  25.002  1.00  0.00     0.163 HD
BRANCH   6   8
ATOM      8  C   UNL A   1      31.364  26.330  25.659  1.00  0.00     0.137 C 
BRANCH   8   9
ATOM      9  C   UNL A   1      32.162  25.120  26.085  1.00  0.00    -0.020 A 
ATOM     10  C   UNL A   1      33.502  24.899  25.750  1.00  0.00     0.009 A 
ATOM     11  C   UNL A   1      31.536  24.141  26.857  1.00  0.00     0.117 A 
ATOM     12  C   UNL A   1      34.154  23.757  26.210  1.00  0.00     0.041 A 
ATOM     13  N   UNL A   1      32.141  23.025  27.318  1.00  0.00    -0.244 NA
ATOM     14  C   UNL A   1      33.434  22.863  26.980  1.00  0.00     0.129 A 
ATOM     15  Cl  UNL A   1      34.165  21.437  27.588  1.00  0.00    -0.062 Cl
ENDBRANCH   8   9
ENDBRANCH   6   8
ENDBRANCH   3   4
ENDBRANCH   2   3
ENDBRANCH   1   2
BRANCH   1  16
ATOM     16  C   UNL A   1      32.570  32.879  27.262  1.00  0.00     0.116 C 
BRANCH  16  17
ATOM     17  N   UNL A   1      32.341  34.269  27.622  1.00  0.00    -0.352 N 
ATOM     18  C   UNL A   1      32.963  35.044  28.569  1.00  0.00     0.251 C 
ATOM     19  H   UNL A   1      31.633  34.722  27.109  1.00  0.00     0.163 HD
ATOM     20  O   UNL A   1      32.523  36.164  28.828  1.00  0.00    -0.269 OA
BRANCH  18  21
ATOM     21  C   UNL A   1      34.140  34.536  29.308  1.00  0.00     0.039 A 
ATOM     22  C   UNL A   1      33.949  33.967  30.571  1.00  0.00     0.014 A 
ATOM     23  C   UNL A   1      35.428  34.623  28.772  1.00  0.00     0.014 A 
ATOM     24  C   UNL A   1      35.035  33.423  31.262  1.00  0.00     0.010 A 
ATOM     25  C   UNL A   1      36.497  34.014  29.428  1.00  0.00     0.010 A 
ATOM     26  C   UNL A   1      36.313  33.405  30.679  1.00  0.00    -0.014 A 
BRANCH  26  27
ATOM     27  C   UNL A   1      37.460  32.741  31.355  1.00  0.00     0.031 A 
ATOM     28  C   UNL A   1      38.172  31.592  30.697  1.00  0.00     0.074 A 
ATOM     29  C   UNL A   1      37.820  33.132  32.594  1.00  0.00     0.049 A 
ATOM     30  N   UNL A   1      39.145  30.846  31.158  1.00  0.00    -0.248 NA
ATOM     31  C   UNL A   1      37.714  31.214  29.352  1.00  0.00     0.031 C 
ATOM     32  C   UNL A   1      37.185  34.205  33.360  1.00  0.00     0.029 A 
ATOM     33  N   UNL A   1      38.801  32.663  33.433  1.00  0.00    -0.354 N 
ATOM     34  C   UNL A   1      39.402  29.904  30.171  1.00  0.00     0.074 A 
ATOM     35  C   UNL A   1      38.451  30.141  29.105  1.00  0.00     0.031 C 
ATOM     36  C   UNL A   1      37.806  34.329  34.543  1.00  0.00     0.029 A 
ATOM     37  C   UNL A   1      38.854  33.319  34.639  1.00  0.00     0.049 A 
ATOM     38  H   UNL A   1      39.409  31.928  33.192  1.00  0.00     0.167 HD
ATOM     39  C   UNL A   1      40.358  28.945  30.144  1.00  0.00     0.037 A 
ATOM     40  C   UNL A   1      39.652  33.121  35.707  1.00  0.00     0.037 A 
ATOM     41  C   UNL A   1      41.319  28.726  31.194  1.00  0.00     0.049 A 
ATOM     42  C   UNL A   1      40.693  32.036  35.658  1.00  0.00     0.074 A 
ATOM     43  C   UNL A   1      42.368  27.824  31.229  1.00  0.00     0.029 A 
ATOM     44  N   UNL A   1      41.345  29.416  32.398  1.00  0.00    -0.354 N 
ATOM     45  N   UNL A   1      40.975  31.202  34.688  1.00  0.00    -0.248 NA
ATOM     46  C   UNL A   1      41.532  31.869  36.854  1.00  0.00     0.031 C 
ATOM     47  C   UNL A   1      42.993  27.927  32.476  1.00  0.00     0.029 A 
ATOM     48  C   UNL A   1      42.374  28.936  33.194  1.00  0.00     0.049 A 
ATOM     49  H   UNL A   1      40.725  30.138  32.649  1.00  0.00     0.167 HD
ATOM     50  C   UNL A   1      42.041  30.435  35.140  1.00  0.00     0.074 A 
ATOM     51  C   UNL A   1      42.365  30.913  36.468  1.00  0.00     0.031 C 
ATOM     52  C   UNL A   1      42.693  29.426  34.512  1.00  0.00     0.037 A 
BRANCH  39  53
ATOM     53  C   UNL A   1      40.413  28.049  28.939  1.00  0.00     0.064 A 
ATOM     54  C   UNL A   1      39.702  26.840  28.883  1.00  0.00     0.173 A 
ATOM     55  C   UNL A   1      41.156  28.423  27.808  1.00  0.00     0.173 A 
ATOM     56  F   UNL A   1      38.984  26.430  29.940  1.00  0.00    -0.203 F 
ATOM     57  C   UNL A   1      39.755  26.026  27.754  1.00  0.00     0.198 A 
ATOM     58  C   UNL A   1      41.181  27.623  26.668  1.00  0.00     0.198 A 
ATOM     59  F   UNL A   1      41.849  29.571  27.803  1.00  0.00    -0.203 F 
ATOM     60  F   UNL A   1      39.108  24.853  27.745  1.00  0.00    -0.200 F 
ATOM     61  C   UNL A   1      40.488  26.422  26.645  1.00  0.00     0.200 A 
ATOM     62  F   UNL A   1      41.876  28.015  25.591  1.00  0.00    -0.200 F 
ATOM     63  F   UNL A   1      40.531  25.643  25.556  1.00  0.00    -0.200 F 
ENDBRANCH  39  53
BRANCH  40  64
ATOM     64  C   UNL A   1      39.513  33.985  36.909  1.00  0.00     0.064 A 
ATOM     65  C   UNL A   1      40.153  35.232  36.976  1.00  0.00     0.173 A 
ATOM     66  C   UNL A   1      38.756  33.582  38.018  1.00  0.00     0.173 A 
ATOM     67  F   UNL A   1      40.908  35.652  35.950  1.00  0.00    -0.203 F 
ATOM     68  C   UNL A   1      40.058  36.031  38.113  1.00  0.00     0.198 A 
ATOM     69  C   UNL A   1      38.636  34.397  39.143  1.00  0.00     0.198 A 
ATOM     70  F   UNL A   1      38.120  32.401  38.004  1.00  0.00    -0.203 F 
ATOM     71  F   UNL A   1      40.721  37.194  38.169  1.00  0.00    -0.200 F 
ATOM     72  C   UNL A   1      39.295  35.615  39.194  1.00  0.00     0.200 A 
ATOM     73  F   UNL A   1      37.884  33.997  40.178  1.00  0.00    -0.200 F 
ATOM     74  F   UNL A   1      39.201  36.385  40.286  1.00  0.00    -0.200 F 
ENDBRANCH  40  64
BRANCH  52  75
ATOM     75  C   UNL A   1      43.852  28.797  35.232  1.00  0.00     0.064 A 
ATOM     76  C   UNL A   1      43.682  27.702  36.092  1.00  0.00     0.173 A 
ATOM     77  C   UNL A   1      45.157  29.274  35.027  1.00  0.00     0.173 A 
ATOM     78  F   UNL A   1      42.454  27.218  36.333  1.00  0.00    -0.203 F 
ATOM     79  C   UNL A   1      44.771  27.126  36.742  1.00  0.00     0.198 A 
ATOM     80  C   UNL A   1      46.246  28.675  35.652  1.00  0.00     0.198 A 
ATOM     81  F   UNL A   1      45.376  30.315  34.210  1.00  0.00    -0.203 F 
ATOM     82  F   UNL A   1      44.578  26.115  37.598  1.00  0.00    -0.200 F 
ATOM     83  C   UNL A   1      46.052  27.607  36.515  1.00  0.00     0.200 A 
ATOM     84  F   UNL A   1      47.485  29.131  35.420  1.00  0.00    -0.200 F 
ATOM     85  F   UNL A   1      47.099  27.046  37.134  1.00  0.00    -0.200 F 
ENDBRANCH  52  75
ENDBRANCH  26  27
ENDBRANCH  18  21
ENDBRANCH  16  17
ENDBRANCH   1  16
TORSDOF 12
ENDMDL
