MODEL 1
REMARK VINA RESULT:     -11.3      0.000      0.000
REMARK SMILES CN(C)C(=O)Cc1nc(C[N@@H+](C)CC(=O)NCCCCNC(=O)c2ccc(-c3c4nc(c(-c5c(F)c(F)c(F)c(F)c5F)c5ccc([nH]5)c(-c5c(F)c(F)c(F)c(F)c5F)c5nc(c(-c6c(F)c(F)c(F)c(F)c6F)c6ccc3[nH]6)C=C5)C=C4)cc2)cs1
REMARK SMILES IDX 17 1 16 2 14 3 15 4 13 6 11 7 12 8 10 10 9 11 87 12 8 13
REMARK SMILES IDX 88 14 7 15 6 16 4 17 5 18 2 19 1 20 3 21 18 22 19 23 20 24
REMARK SMILES IDX 21 25 22 26 23 28 24 29 25 30 86 31 26 32 85 33 27 34 28 35
REMARK SMILES IDX 29 36 79 37 30 38 84 39 78 40 80 41 31 42 83 43 77 44 76 45
REMARK SMILES IDX 32 47 64 48 44 49 63 50 45 51 48 52 62 53 81 54 46 55 47 56
REMARK SMILES IDX 61 58 82 59 49 60 33 61 34 62 42 63 35 64 36 65 40 66 43 67
REMARK SMILES IDX 37 68 38 69 41 70 39 71 65 72 66 73 74 74 67 75 68 76 72 77
REMARK SMILES IDX 75 78 69 79 70 80 73 81 71 82 50 83 51 84 59 85 52 86 53 87
REMARK SMILES IDX 57 88 60 89 54 90 55 91 58 92 56 93
REMARK H PARENT 16 5 11 9 21 27 80 46 48 57
REMARK Flexibility Score: inf
ROOT
ATOM      1  C   UNL A   1      32.259  29.785  27.221  1.00  0.00     0.116 C 
ENDROOT
BRANCH   1   2
ATOM      2  N   UNL A   1      31.706  28.452  27.163  1.00  0.00    -0.351 N 
ATOM      3  C   UNL A   1      32.245  27.323  26.615  1.00  0.00     0.275 C 
ATOM      4  O   UNL A   1      31.748  26.238  26.926  1.00  0.00    -0.269 OA
ATOM      5  H   UNL A   1      30.819  28.341  27.576  1.00  0.00     0.163 HD
BRANCH   3   6
ATOM      6  C   UNL A   1      33.473  27.390  25.711  1.00  0.00     0.363 C 
BRANCH   6   7
ATOM      7  N   UNL A   1      33.435  26.516  24.542  1.00  0.00    -0.325 N 
ATOM      8  C   UNL A   1      34.244  25.327  24.521  1.00  0.00     0.333 C 
ATOM      9  H   UNL A   1      32.573  26.065  24.851  1.00  0.00     0.348 HD
BRANCH   7  10
ATOM     10  C   UNL A   1      32.892  27.013  23.285  1.00  0.00     0.320 C 
BRANCH  10  11
ATOM     11  C   UNL A   1      31.439  27.394  23.331  1.00  0.00     0.106 A 
ATOM     12  C   UNL A   1      30.346  26.559  23.470  1.00  0.00     0.096 A 
ATOM     13  N   UNL A   1      31.112  28.747  23.328  1.00  0.00    -0.240 NA
ATOM     14  S   UNL A   1      28.895  27.467  23.510  1.00  0.00    -0.126 S 
ATOM     15  C   UNL A   1      29.808  28.918  23.385  1.00  0.00     0.102 A 
BRANCH  15  16
ATOM     16  C   UNL A   1      29.145  30.255  23.451  1.00  0.00     0.167 C 
BRANCH  16  17
ATOM     17  C   UNL A   1      28.746  30.732  22.068  1.00  0.00     0.228 C 
ATOM     18  O   UNL A   1      28.530  29.900  21.178  1.00  0.00    -0.274 OA
ATOM     19  N   UNL A   1      28.580  32.091  21.835  1.00  0.00    -0.348 N 
ATOM     20  C   UNL A   1      28.810  33.152  22.806  1.00  0.00     0.146 C 
ATOM     21  C   UNL A   1      28.034  32.498  20.552  1.00  0.00     0.146 C 
ENDBRANCH  16  17
ENDBRANCH  15  16
ENDBRANCH  10  11
ENDBRANCH   7  10
ENDBRANCH   6   7
ENDBRANCH   3   6
ENDBRANCH   1   2
BRANCH   1  22
ATOM     22  C   UNL A   1      31.612  30.744  26.229  1.00  0.00     0.023 C 
BRANCH  22  23
ATOM     23  C   UNL A   1      31.408  32.167  26.730  1.00  0.00     0.023 C 
BRANCH  23  24
ATOM     24  C   UNL A   1      32.693  32.916  27.018  1.00  0.00     0.116 C 
BRANCH  24  25
ATOM     25  N   UNL A   1      32.461  34.226  27.606  1.00  0.00    -0.352 N 
ATOM     26  C   UNL A   1      33.063  34.806  28.694  1.00  0.00     0.251 C 
ATOM     27  H   UNL A   1      31.774  34.775  27.160  1.00  0.00     0.163 HD
ATOM     28  O   UNL A   1      32.621  35.849  29.163  1.00  0.00    -0.269 OA
BRANCH  26  29
ATOM     29  C   UNL A   1      34.243  34.159  29.302  1.00  0.00     0.039 A 
ATOM     30  C   UNL A   1      35.521  34.588  28.937  1.00  0.00     0.014 A 
ATOM     31  C   UNL A   1      34.085  33.122  30.226  1.00  0.00     0.014 A 
ATOM     32  C   UNL A   1      36.636  33.987  29.518  1.00  0.00     0.010 A 
ATOM     33  C   UNL A   1      35.188  32.617  30.894  1.00  0.00     0.010 A 
ATOM     34  C   UNL A   1      36.475  33.005  30.509  1.00  0.00    -0.014 A 
BRANCH  34  35
ATOM     35  C   UNL A   1      37.640  32.295  31.085  1.00  0.00     0.031 A 
ATOM     36  C   UNL A   1      38.114  32.659  32.467  1.00  0.00     0.074 A 
ATOM     37  C   UNL A   1      38.283  31.361  30.360  1.00  0.00     0.049 A 
ATOM     38  N   UNL A   1      39.128  32.190  33.147  1.00  0.00    -0.248 NA
ATOM     39  C   UNL A   1      37.370  33.722  33.167  1.00  0.00     0.031 C 
ATOM     40  C   UNL A   1      37.946  30.972  28.990  1.00  0.00     0.029 A 
ATOM     41  N   UNL A   1      39.356  30.571  30.676  1.00  0.00    -0.354 N 
ATOM     42  C   UNL A   1      39.150  32.912  34.334  1.00  0.00     0.074 A 
ATOM     43  C   UNL A   1      38.104  33.904  34.252  1.00  0.00     0.031 C 
ATOM     44  C   UNL A   1      38.771  29.989  28.597  1.00  0.00     0.029 A 
ATOM     45  C   UNL A   1      39.716  29.705  29.673  1.00  0.00     0.049 A 
ATOM     46  H   UNL A   1      39.825  30.619  31.541  1.00  0.00     0.167 HD
ATOM     47  C   UNL A   1      39.946  32.737  35.415  1.00  0.00     0.037 A 
ATOM     48  C   UNL A   1      40.696  28.785  29.637  1.00  0.00     0.037 A 
ATOM     49  C   UNL A   1      40.961  31.723  35.499  1.00  0.00     0.049 A 
ATOM     50  C   UNL A   1      41.561  28.601  30.856  1.00  0.00     0.074 A 
ATOM     51  C   UNL A   1      41.793  31.419  36.559  1.00  0.00     0.029 A 
ATOM     52  N   UNL A   1      41.278  30.844  34.472  1.00  0.00    -0.354 N 
ATOM     53  N   UNL A   1      41.529  29.239  32.002  1.00  0.00    -0.248 NA
ATOM     54  C   UNL A   1      42.588  27.555  30.782  1.00  0.00     0.031 C 
ATOM     55  C   UNL A   1      42.651  30.389  36.157  1.00  0.00     0.029 A 
ATOM     56  C   UNL A   1      42.305  30.006  34.870  1.00  0.00     0.049 A 
ATOM     57  H   UNL A   1      40.837  30.820  33.592  1.00  0.00     0.167 HD
ATOM     58  C   UNL A   1      42.500  28.647  32.798  1.00  0.00     0.074 A 
ATOM     59  C   UNL A   1      43.094  27.589  32.007  1.00  0.00     0.031 C 
ATOM     60  C   UNL A   1      42.867  28.947  34.069  1.00  0.00     0.037 A 
BRANCH  47  61
ATOM     61  C   UNL A   1      39.740  33.657  36.586  1.00  0.00     0.064 A 
ATOM     62  C   UNL A   1      38.911  33.309  37.665  1.00  0.00     0.173 A 
ATOM     63  C   UNL A   1      40.393  34.898  36.640  1.00  0.00     0.173 A 
ATOM     64  F   UNL A   1      38.249  32.141  37.659  1.00  0.00    -0.203 F 
ATOM     65  C   UNL A   1      38.713  34.183  38.731  1.00  0.00     0.198 A 
ATOM     66  C   UNL A   1      40.222  35.753  37.726  1.00  0.00     0.198 A 
ATOM     67  F   UNL A   1      41.198  35.283  35.638  1.00  0.00    -0.203 F 
ATOM     68  F   UNL A   1      37.865  33.854  39.715  1.00  0.00    -0.200 F 
ATOM     69  C   UNL A   1      39.375  35.400  38.765  1.00  0.00     0.200 A 
ATOM     70  F   UNL A   1      40.873  36.924  37.763  1.00  0.00    -0.200 F 
ATOM     71  F   UNL A   1      39.188  36.238  39.794  1.00  0.00    -0.200 F 
ENDBRANCH  47  61
BRANCH  48  72
ATOM     72  C   UNL A   1      40.882  27.940  28.428  1.00  0.00     0.064 A 
ATOM     73  C   UNL A   1      41.697  28.365  27.369  1.00  0.00     0.173 A 
ATOM     74  C   UNL A   1      40.245  26.696  28.299  1.00  0.00     0.173 A 
ATOM     75  F   UNL A   1      42.318  29.553  27.436  1.00  0.00    -0.203 F 
ATOM     76  C   UNL A   1      41.845  27.595  26.218  1.00  0.00     0.198 A 
ATOM     77  C   UNL A   1      40.419  25.912  27.160  1.00  0.00     0.198 A 
ATOM     78  F   UNL A   1      39.462  26.238  29.286  1.00  0.00    -0.203 F 
ATOM     79  F   UNL A   1      42.586  28.052  25.198  1.00  0.00    -0.200 F 
ATOM     80  C   UNL A   1      41.209  26.367  26.116  1.00  0.00     0.200 A 
ATOM     81  F   UNL A   1      39.817  24.718  27.074  1.00  0.00    -0.200 F 
ATOM     82  F   UNL A   1      41.351  25.626  25.009  1.00  0.00    -0.200 F 
ENDBRANCH  48  72
BRANCH  60  83
ATOM     83  C   UNL A   1      43.915  28.079  34.704  1.00  0.00     0.064 A 
ATOM     84  C   UNL A   1      43.592  26.883  35.360  1.00  0.00     0.173 A 
ATOM     85  C   UNL A   1      45.268  28.442  34.625  1.00  0.00     0.173 A 
ATOM     86  F   UNL A   1      42.312  26.497  35.472  1.00  0.00    -0.203 F 
ATOM     87  C   UNL A   1      44.583  26.102  35.949  1.00  0.00     0.198 A 
ATOM     88  C   UNL A   1      46.259  27.638  35.181  1.00  0.00     0.198 A 
ATOM     89  F   UNL A   1      45.632  29.570  33.997  1.00  0.00    -0.203 F 
ATOM     90  F   UNL A   1      44.246  24.997  36.628  1.00  0.00    -0.200 F 
ATOM     91  C   UNL A   1      45.914  26.477  35.853  1.00  0.00     0.200 A 
ATOM     92  F   UNL A   1      47.547  27.992  35.069  1.00  0.00    -0.200 F 
ATOM     93  F   UNL A   1      46.867  25.721  36.417  1.00  0.00    -0.200 F 
ENDBRANCH  60  83
ENDBRANCH  34  35
ENDBRANCH  26  29
ENDBRANCH  24  25
ENDBRANCH  23  24
ENDBRANCH  22  23
ENDBRANCH   1  22
TORSDOF 16
ENDMDL
MODEL 2
REMARK VINA RESULT:     -11.2      0.704      7.491
REMARK SMILES CN(C)C(=O)Cc1nc(C[N@@H+](C)CC(=O)NCCCCNC(=O)c2ccc(-c3c4nc(c(-c5c(F)c(F)c(F)c(F)c5F)c5ccc([nH]5)c(-c5c(F)c(F)c(F)c(F)c5F)c5nc(c(-c6c(F)c(F)c(F)c(F)c6F)c6ccc3[nH]6)C=C5)C=C4)cc2)cs1
REMARK SMILES IDX 17 1 16 2 14 3 15 4 13 6 11 7 12 8 10 10 9 11 87 12 8 13
REMARK SMILES IDX 88 14 7 15 6 16 4 17 5 18 2 19 1 20 3 21 18 22 19 23 20 24
REMARK SMILES IDX 21 25 22 26 23 28 24 29 25 30 86 31 26 32 85 33 27 34 28 35
REMARK SMILES IDX 29 36 79 37 30 38 84 39 78 40 80 41 31 42 83 43 77 44 76 45
REMARK SMILES IDX 32 47 64 48 44 49 63 50 45 51 48 52 62 53 81 54 46 55 47 56
REMARK SMILES IDX 61 58 82 59 49 60 33 61 34 62 42 63 35 64 36 65 40 66 43 67
REMARK SMILES IDX 37 68 38 69 41 70 39 71 65 72 66 73 74 74 67 75 68 76 72 77
REMARK SMILES IDX 75 78 69 79 70 80 73 81 71 82 50 83 51 84 59 85 52 86 53 87
REMARK SMILES IDX 57 88 60 89 54 90 55 91 58 92 56 93
REMARK H PARENT 16 5 11 9 21 27 80 46 48 57
REMARK Flexibility Score: inf
ROOT
ATOM      1  C   UNL A   1      32.306  29.808  27.124  1.00  0.00     0.116 C 
ENDROOT
BRANCH   1   2
ATOM      2  N   UNL A   1      31.698  28.498  27.094  1.00  0.00    -0.351 N 
ATOM      3  C   UNL A   1      32.197  27.332  26.588  1.00  0.00     0.275 C 
ATOM      4  O   UNL A   1      31.649  26.278  26.921  1.00  0.00    -0.269 OA
ATOM      5  H   UNL A   1      30.800  28.437  27.494  1.00  0.00     0.163 HD
BRANCH   3   6
ATOM      6  C   UNL A   1      33.442  27.320  25.705  1.00  0.00     0.363 C 
BRANCH   6   7
ATOM      7  N   UNL A   1      33.402  26.388  24.583  1.00  0.00    -0.325 N 
ATOM      8  C   UNL A   1      34.188  25.185  24.633  1.00  0.00     0.333 C 
ATOM      9  H   UNL A   1      32.528  25.969  24.903  1.00  0.00     0.348 HD
BRANCH   7  10
ATOM     10  C   UNL A   1      32.884  26.830  23.295  1.00  0.00     0.320 C 
BRANCH  10  11
ATOM     11  C   UNL A   1      31.458  27.306  23.317  1.00  0.00     0.106 A 
ATOM     12  C   UNL A   1      30.311  26.544  23.437  1.00  0.00     0.096 A 
ATOM     13  N   UNL A   1      31.221  28.676  23.309  1.00  0.00    -0.240 NA
ATOM     14  S   UNL A   1      28.921  27.545  23.453  1.00  0.00    -0.126 S 
ATOM     15  C   UNL A   1      29.930  28.933  23.345  1.00  0.00     0.102 A 
BRANCH  15  16
ATOM     16  C   UNL A   1      29.355  30.310  23.400  1.00  0.00     0.167 C 
BRANCH  16  17
ATOM     17  C   UNL A   1      28.896  30.764  22.027  1.00  0.00     0.228 C 
ATOM     18  O   UNL A   1      28.754  29.926  21.128  1.00  0.00    -0.274 OA
ATOM     19  N   UNL A   1      28.595  32.102  21.814  1.00  0.00    -0.348 N 
ATOM     20  C   UNL A   1      28.729  33.168  22.797  1.00  0.00     0.146 C 
ATOM     21  C   UNL A   1      27.998  32.469  20.542  1.00  0.00     0.146 C 
ENDBRANCH  16  17
ENDBRANCH  15  16
ENDBRANCH  10  11
ENDBRANCH   7  10
ENDBRANCH   6   7
ENDBRANCH   3   6
ENDBRANCH   1   2
BRANCH   1  22
ATOM     22  C   UNL A   1      31.623  30.805  26.195  1.00  0.00     0.023 C 
BRANCH  22  23
ATOM     23  C   UNL A   1      31.411  32.198  26.771  1.00  0.00     0.023 C 
BRANCH  23  24
ATOM     24  C   UNL A   1      32.686  32.896  27.199  1.00  0.00     0.116 C 
BRANCH  24  25
ATOM     25  N   UNL A   1      32.457  34.262  27.642  1.00  0.00    -0.352 N 
ATOM     26  C   UNL A   1      33.027  34.939  28.691  1.00  0.00     0.251 C 
ATOM     27  H   UNL A   1      31.800  34.774  27.116  1.00  0.00     0.163 HD
ATOM     28  O   UNL A   1      32.588  36.030  29.034  1.00  0.00    -0.269 OA
BRANCH  26  29
ATOM     29  C   UNL A   1      34.168  34.337  29.409  1.00  0.00     0.039 A 
ATOM     30  C   UNL A   1      35.464  34.556  28.937  1.00  0.00     0.014 A 
ATOM     31  C   UNL A   1      33.955  33.550  30.544  1.00  0.00     0.014 A 
ATOM     32  C   UNL A   1      36.544  33.998  29.620  1.00  0.00     0.010 A 
ATOM     33  C   UNL A   1      35.034  33.106  31.291  1.00  0.00     0.010 A 
ATOM     34  C   UNL A   1      36.335  33.280  30.808  1.00  0.00    -0.014 A 
BRANCH  34  35
ATOM     35  C   UNL A   1      37.455  32.611  31.510  1.00  0.00     0.031 A 
ATOM     36  C   UNL A   1      38.178  31.478  30.829  1.00  0.00     0.074 A 
ATOM     37  C   UNL A   1      37.792  32.994  32.754  1.00  0.00     0.049 A 
ATOM     38  N   UNL A   1      39.158  30.734  31.272  1.00  0.00    -0.248 NA
ATOM     39  C   UNL A   1      37.709  31.105  29.483  1.00  0.00     0.031 C 
ATOM     40  C   UNL A   1      37.122  34.039  33.530  1.00  0.00     0.029 A 
ATOM     41  N   UNL A   1      38.784  32.545  33.587  1.00  0.00    -0.354 N 
ATOM     42  C   UNL A   1      39.404  29.803  30.270  1.00  0.00     0.074 A 
ATOM     43  C   UNL A   1      38.422  30.019  29.234  1.00  0.00     0.031 C 
ATOM     44  C   UNL A   1      37.747  34.178  34.710  1.00  0.00     0.029 A 
ATOM     45  C   UNL A   1      38.836  33.210  34.787  1.00  0.00     0.049 A 
ATOM     46  H   UNL A   1      39.401  31.817  33.347  1.00  0.00     0.167 HD
ATOM     47  C   UNL A   1      40.388  28.876  30.201  1.00  0.00     0.037 A 
ATOM     48  C   UNL A   1      39.676  33.051  35.826  1.00  0.00     0.037 A 
ATOM     49  C   UNL A   1      41.382  28.695  31.224  1.00  0.00     0.049 A 
ATOM     50  C   UNL A   1      40.769  32.021  35.722  1.00  0.00     0.074 A 
ATOM     51  C   UNL A   1      42.455  27.824  31.243  1.00  0.00     0.029 A 
ATOM     52  N   UNL A   1      41.420  29.407  32.416  1.00  0.00    -0.354 N 
ATOM     53  N   UNL A   1      41.040  31.193  34.741  1.00  0.00    -0.248 NA
ATOM     54  C   UNL A   1      41.686  31.917  36.863  1.00  0.00     0.031 C 
ATOM     55  C   UNL A   1      43.113  27.971  32.468  1.00  0.00     0.029 A 
ATOM     56  C   UNL A   1      42.491  28.982  33.183  1.00  0.00     0.049 A 
ATOM     57  H   UNL A   1      40.781  30.108  32.675  1.00  0.00     0.167 HD
ATOM     58  C   UNL A   1      42.179  30.499  35.127  1.00  0.00     0.074 A 
ATOM     59  C   UNL A   1      42.555  31.016  36.428  1.00  0.00     0.031 C 
ATOM     60  C   UNL A   1      42.855  29.526  34.468  1.00  0.00     0.037 A 
BRANCH  47  61
ATOM     61  C   UNL A   1      40.435  28.001  28.981  1.00  0.00     0.064 A 
ATOM     62  C   UNL A   1      39.712  26.799  28.903  1.00  0.00     0.173 A 
ATOM     63  C   UNL A   1      41.201  28.374  27.866  1.00  0.00     0.173 A 
ATOM     64  F   UNL A   1      38.976  26.384  29.946  1.00  0.00    -0.203 F 
ATOM     65  C   UNL A   1      39.785  25.987  27.774  1.00  0.00     0.198 A 
ATOM     66  C   UNL A   1      41.241  27.578  26.724  1.00  0.00     0.198 A 
ATOM     67  F   UNL A   1      41.911  29.512  27.883  1.00  0.00    -0.203 F 
ATOM     68  F   UNL A   1      39.139  24.814  27.752  1.00  0.00    -0.200 F 
ATOM     69  C   UNL A   1      40.542  26.381  26.682  1.00  0.00     0.200 A 
ATOM     70  F   UNL A   1      41.963  27.967  25.663  1.00  0.00    -0.200 F 
ATOM     71  F   UNL A   1      40.607  25.602  25.593  1.00  0.00    -0.200 F 
ENDBRANCH  47  61
BRANCH  48  72
ATOM     72  C   UNL A   1      39.545  33.914  37.030  1.00  0.00     0.064 A 
ATOM     73  C   UNL A   1      38.819  33.485  38.150  1.00  0.00     0.173 A 
ATOM     74  C   UNL A   1      40.133  35.187  37.084  1.00  0.00     0.173 A 
ATOM     75  F   UNL A   1      38.225  32.282  38.143  1.00  0.00    -0.203 F 
ATOM     76  C   UNL A   1      38.662  34.305  39.265  1.00  0.00     0.198 A 
ATOM     77  C   UNL A   1      40.002  35.993  38.213  1.00  0.00     0.198 A 
ATOM     78  F   UNL A   1      40.846  35.643  36.044  1.00  0.00    -0.203 F 
ATOM     79  F   UNL A   1      37.916  33.891  40.299  1.00  0.00    -0.200 F 
ATOM     80  C   UNL A   1      39.257  35.557  39.298  1.00  0.00     0.200 A 
ATOM     81  F   UNL A   1      40.594  37.195  38.247  1.00  0.00    -0.200 F 
ATOM     82  F   UNL A   1      39.106  36.345  40.370  1.00  0.00    -0.200 F 
ENDBRANCH  48  72
BRANCH  60  83
ATOM     83  C   UNL A   1      44.107  29.003  35.113  1.00  0.00     0.064 A 
ATOM     84  C   UNL A   1      45.364  29.569  34.863  1.00  0.00     0.173 A 
ATOM     85  C   UNL A   1      44.035  27.933  36.018  1.00  0.00     0.173 A 
ATOM     86  F   UNL A   1      45.489  30.587  33.998  1.00  0.00    -0.203 F 
ATOM     87  C   UNL A   1      46.510  29.058  35.466  1.00  0.00     0.198 A 
ATOM     88  C   UNL A   1      45.177  27.450  36.649  1.00  0.00     0.198 A 
ATOM     89  F   UNL A   1      42.854  27.363  36.302  1.00  0.00    -0.203 F 
ATOM     90  F   UNL A   1      47.710  29.572  35.164  1.00  0.00    -0.200 F 
ATOM     91  C   UNL A   1      46.414  28.004  36.363  1.00  0.00     0.200 A 
ATOM     92  F   UNL A   1      45.079  26.445  37.531  1.00  0.00    -0.200 F 
ATOM     93  F   UNL A   1      47.518  27.516  36.947  1.00  0.00    -0.200 F 
ENDBRANCH  60  83
ENDBRANCH  34  35
ENDBRANCH  26  29
ENDBRANCH  24  25
ENDBRANCH  23  24
ENDBRANCH  22  23
ENDBRANCH   1  22
TORSDOF 16
ENDMDL
MODEL 3
REMARK VINA RESULT:     -10.8      2.202      4.051
REMARK SMILES CN(C)C(=O)Cc1nc(C[N@@H+](C)CC(=O)NCCCCNC(=O)c2ccc(-c3c4nc(c(-c5c(F)c(F)c(F)c(F)c5F)c5ccc([nH]5)c(-c5c(F)c(F)c(F)c(F)c5F)c5nc(c(-c6c(F)c(F)c(F)c(F)c6F)c6ccc3[nH]6)C=C5)C=C4)cc2)cs1
REMARK SMILES IDX 17 1 16 2 14 3 15 4 13 6 11 7 12 8 10 10 9 11 87 12 8 13
REMARK SMILES IDX 88 14 7 15 6 16 4 17 5 18 2 19 1 20 3 21 18 22 19 23 20 24
REMARK SMILES IDX 21 25 22 26 23 28 24 29 25 30 86 31 26 32 85 33 27 34 28 35
REMARK SMILES IDX 29 36 79 37 30 38 84 39 78 40 80 41 31 42 83 43 77 44 76 45
REMARK SMILES IDX 32 47 64 48 44 49 63 50 45 51 48 52 62 53 81 54 46 55 47 56
REMARK SMILES IDX 61 58 82 59 49 60 33 61 34 62 42 63 35 64 36 65 40 66 43 67
REMARK SMILES IDX 37 68 38 69 41 70 39 71 65 72 66 73 74 74 67 75 68 76 72 77
REMARK SMILES IDX 75 78 69 79 70 80 73 81 71 82 50 83 51 84 59 85 52 86 53 87
REMARK SMILES IDX 57 88 60 89 54 90 55 91 58 92 56 93
REMARK H PARENT 16 5 11 9 21 27 80 46 48 57
REMARK Flexibility Score: inf
ROOT
ATOM      1  C   UNL A   1      31.539  30.051  25.090  1.00  0.00     0.116 C 
ENDROOT
BRANCH   1   2
ATOM      2  N   UNL A   1      32.772  29.655  24.448  1.00  0.00    -0.351 N 
ATOM      3  C   UNL A   1      32.953  28.849  23.362  1.00  0.00     0.275 C 
ATOM      4  O   UNL A   1      34.052  28.874  22.803  1.00  0.00    -0.269 OA
ATOM      5  H   UNL A   1      33.594  30.018  24.850  1.00  0.00     0.163 HD
BRANCH   3   6
ATOM      6  C   UNL A   1      31.811  28.004  22.803  1.00  0.00     0.363 C 
BRANCH   6   7
ATOM      7  N   UNL A   1      32.098  26.580  22.665  1.00  0.00    -0.325 N 
ATOM      8  C   UNL A   1      32.208  26.003  21.353  1.00  0.00     0.333 C 
ATOM      9  H   UNL A   1      33.098  26.721  22.813  1.00  0.00     0.348 HD
BRANCH   7  10
ATOM     10  C   UNL A   1      31.910  25.692  23.804  1.00  0.00     0.320 C 
BRANCH  10  11
ATOM     11  C   UNL A   1      32.634  24.378  23.708  1.00  0.00     0.106 A 
ATOM     12  C   UNL A   1      33.954  24.112  24.018  1.00  0.00     0.096 A 
ATOM     13  N   UNL A   1      31.904  23.248  23.355  1.00  0.00    -0.240 NA
ATOM     14  S   UNL A   1      34.306  22.452  23.784  1.00  0.00    -0.126 S 
ATOM     15  C   UNL A   1      32.672  22.178  23.327  1.00  0.00     0.102 A 
BRANCH  15  16
ATOM     16  C   UNL A   1      32.173  20.801  23.035  1.00  0.00     0.167 C 
BRANCH  16  17
ATOM     17  C   UNL A   1      32.298  19.907  24.253  1.00  0.00     0.228 C 
ATOM     18  O   UNL A   1      32.090  20.381  25.377  1.00  0.00    -0.274 OA
ATOM     19  N   UNL A   1      32.593  18.561  24.086  1.00  0.00    -0.348 N 
ATOM     20  C   UNL A   1      32.859  17.903  22.814  1.00  0.00     0.146 C 
ATOM     21  C   UNL A   1      32.537  17.703  25.257  1.00  0.00     0.146 C 
ENDBRANCH  16  17
ENDBRANCH  15  16
ENDBRANCH  10  11
ENDBRANCH   7  10
ENDBRANCH   6   7
ENDBRANCH   3   6
ENDBRANCH   1   2
BRANCH   1  22
ATOM     22  C   UNL A   1      31.728  30.465  26.544  1.00  0.00     0.023 C 
BRANCH  22  23
ATOM     23  C   UNL A   1      31.449  31.930  26.850  1.00  0.00     0.023 C 
BRANCH  23  24
ATOM     24  C   UNL A   1      32.689  32.797  26.924  1.00  0.00     0.116 C 
BRANCH  24  25
ATOM     25  N   UNL A   1      32.432  34.095  27.528  1.00  0.00    -0.352 N 
ATOM     26  C   UNL A   1      33.011  34.666  28.633  1.00  0.00     0.251 C 
ATOM     27  H   UNL A   1      31.745  34.642  27.081  1.00  0.00     0.163 HD
ATOM     28  O   UNL A   1      32.550  35.696  29.111  1.00  0.00    -0.269 OA
BRANCH  26  29
ATOM     29  C   UNL A   1      34.190  34.024  29.248  1.00  0.00     0.039 A 
ATOM     30  C   UNL A   1      35.463  34.526  28.972  1.00  0.00     0.014 A 
ATOM     31  C   UNL A   1      34.036  32.921  30.092  1.00  0.00     0.014 A 
ATOM     32  C   UNL A   1      36.577  33.930  29.560  1.00  0.00     0.010 A 
ATOM     33  C   UNL A   1      35.130  32.413  30.774  1.00  0.00     0.010 A 
ATOM     34  C   UNL A   1      36.415  32.877  30.474  1.00  0.00    -0.014 A 
BRANCH  34  35
ATOM     35  C   UNL A   1      37.583  32.174  31.053  1.00  0.00     0.031 A 
ATOM     36  C   UNL A   1      38.056  32.545  32.434  1.00  0.00     0.074 A 
ATOM     37  C   UNL A   1      38.230  31.240  30.332  1.00  0.00     0.049 A 
ATOM     38  N   UNL A   1      39.072  32.083  33.116  1.00  0.00    -0.248 NA
ATOM     39  C   UNL A   1      37.307  33.607  33.129  1.00  0.00     0.031 C 
ATOM     40  C   UNL A   1      37.894  30.845  28.963  1.00  0.00     0.029 A 
ATOM     41  N   UNL A   1      39.307  30.456  30.651  1.00  0.00    -0.354 N 
ATOM     42  C   UNL A   1      39.091  32.810  34.299  1.00  0.00     0.074 A 
ATOM     43  C   UNL A   1      38.040  33.797  34.213  1.00  0.00     0.031 C 
ATOM     44  C   UNL A   1      38.724  29.863  28.574  1.00  0.00     0.029 A 
ATOM     45  C   UNL A   1      39.670  29.587  29.651  1.00  0.00     0.049 A 
ATOM     46  H   UNL A   1      39.775  30.509  31.515  1.00  0.00     0.167 HD
ATOM     47  C   UNL A   1      39.887  32.643  35.381  1.00  0.00     0.037 A 
ATOM     48  C   UNL A   1      40.655  28.672  29.618  1.00  0.00     0.037 A 
ATOM     49  C   UNL A   1      40.907  31.633  35.469  1.00  0.00     0.049 A 
ATOM     50  C   UNL A   1      41.521  28.496  30.838  1.00  0.00     0.074 A 
ATOM     51  C   UNL A   1      41.741  31.336  36.530  1.00  0.00     0.029 A 
ATOM     52  N   UNL A   1      41.228  30.751  34.445  1.00  0.00    -0.354 N 
ATOM     53  N   UNL A   1      41.486  29.139  31.981  1.00  0.00    -0.248 NA
ATOM     54  C   UNL A   1      42.552  27.454  30.768  1.00  0.00     0.031 C 
ATOM     55  C   UNL A   1      42.602  30.309  36.132  1.00  0.00     0.029 A 
ATOM     56  C   UNL A   1      42.259  29.919  34.846  1.00  0.00     0.049 A 
ATOM     57  H   UNL A   1      40.787  30.723  33.565  1.00  0.00     0.167 HD
ATOM     58  C   UNL A   1      42.459  28.554  32.780  1.00  0.00     0.074 A 
ATOM     59  C   UNL A   1      43.058  27.495  31.992  1.00  0.00     0.031 C 
ATOM     60  C   UNL A   1      42.825  28.861  34.049  1.00  0.00     0.037 A 
BRANCH  47  61
ATOM     61  C   UNL A   1      39.678  33.566  36.549  1.00  0.00     0.064 A 
ATOM     62  C   UNL A   1      38.814  33.238  37.606  1.00  0.00     0.173 A 
ATOM     63  C   UNL A   1      40.361  34.789  36.621  1.00  0.00     0.173 A 
ATOM     64  F   UNL A   1      38.121  32.088  37.582  1.00  0.00    -0.203 F 
ATOM     65  C   UNL A   1      38.613  34.115  38.670  1.00  0.00     0.198 A 
ATOM     66  C   UNL A   1      40.187  35.647  37.704  1.00  0.00     0.198 A 
ATOM     67  F   UNL A   1      41.201  35.154  35.639  1.00  0.00    -0.203 F 
ATOM     68  F   UNL A   1      37.733  33.808  39.632  1.00  0.00    -0.200 F 
ATOM     69  C   UNL A   1      39.306  35.315  38.721  1.00  0.00     0.200 A 
ATOM     70  F   UNL A   1      40.868  36.800  37.760  1.00  0.00    -0.200 F 
ATOM     71  F   UNL A   1      39.116  36.156  39.748  1.00  0.00    -0.200 F 
ENDBRANCH  47  61
BRANCH  48  72
ATOM     72  C   UNL A   1      40.844  27.823  28.412  1.00  0.00     0.064 A 
ATOM     73  C   UNL A   1      41.680  28.235  27.364  1.00  0.00     0.173 A 
ATOM     74  C   UNL A   1      40.190  26.589  28.275  1.00  0.00     0.173 A 
ATOM     75  F   UNL A   1      42.318  29.414  27.439  1.00  0.00    -0.203 F 
ATOM     76  C   UNL A   1      41.832  27.462  26.215  1.00  0.00     0.198 A 
ATOM     77  C   UNL A   1      40.368  25.802  27.139  1.00  0.00     0.198 A 
ATOM     78  F   UNL A   1      39.387  26.144  29.251  1.00  0.00    -0.203 F 
ATOM     79  F   UNL A   1      42.594  27.907  25.206  1.00  0.00    -0.200 F 
ATOM     80  C   UNL A   1      41.179  26.243  26.106  1.00  0.00     0.200 A 
ATOM     81  F   UNL A   1      39.749  24.617  27.046  1.00  0.00    -0.200 F 
ATOM     82  F   UNL A   1      41.325  25.500  25.001  1.00  0.00    -0.200 F 
ENDBRANCH  48  72
BRANCH  60  83
ATOM     83  C   UNL A   1      43.877  27.999  34.687  1.00  0.00     0.064 A 
ATOM     84  C   UNL A   1      45.225  28.381  34.731  1.00  0.00     0.173 A 
ATOM     85  C   UNL A   1      43.518  26.783  35.289  1.00  0.00     0.173 A 
ATOM     86  F   UNL A   1      45.622  29.529  34.161  1.00  0.00    -0.203 F 
ATOM     87  C   UNL A   1      46.181  27.559  35.319  1.00  0.00     0.198 A 
ATOM     88  C   UNL A   1      44.471  25.983  35.911  1.00  0.00     0.198 A 
ATOM     89  F   UNL A   1      42.239  26.377  35.286  1.00  0.00    -0.203 F 
ATOM     90  F   UNL A   1      47.473  27.913  35.293  1.00  0.00    -0.200 F 
ATOM     91  C   UNL A   1      45.803  26.365  35.914  1.00  0.00     0.200 A 
ATOM     92  F   UNL A   1      44.099  24.839  36.504  1.00  0.00    -0.200 F 
ATOM     93  F   UNL A   1      46.725  25.576  36.485  1.00  0.00    -0.200 F 
ENDBRANCH  60  83
ENDBRANCH  34  35
ENDBRANCH  26  29
ENDBRANCH  24  25
ENDBRANCH  23  24
ENDBRANCH  22  23
ENDBRANCH   1  22
TORSDOF 16
ENDMDL
