MODEL 1
REMARK VINA RESULT:     -12.3      0.000      0.000
REMARK SMILES C[C@@H]([NH2+][C@H]1CCOC2(CCOCC2)C1)C(=O)NCCCCNC(=O)c1ccc(-c2c3nc(c(-c4c(F)c(F)c(F)c(F)c4F)c4ccc([nH]4)c(-c4c(F)c(F)c(F)c(F)c4F)c4nc(c(-c5c(F)c(F)c(F)c(F)c5F)c5ccc2[nH]5)C=C4)C=C3)cc1
REMARK SMILES IDX 19 1 18 2 17 3 15 4 16 5 2 7 1 8 3 9 4 12 5 13 14 14 6 15
REMARK SMILES IDX 8 16 7 17 9 18 13 19 10 20 12 21 11 22 20 23 21 24 22 25
REMARK SMILES IDX 23 26 24 28 25 29 26 30 87 31 27 32 86 33 28 34 29 35 30 36
REMARK SMILES IDX 80 37 31 38 85 39 79 40 81 41 32 42 84 43 78 44 77 45 33 47
REMARK SMILES IDX 65 48 45 49 64 50 46 51 49 52 63 53 82 54 47 55 48 56 62 58
REMARK SMILES IDX 83 59 50 60 34 61 35 62 43 63 36 64 37 65 41 66 44 67 38 68
REMARK SMILES IDX 39 69 42 70 40 71 66 72 67 73 75 74 68 75 69 76 73 77 76 78
REMARK SMILES IDX 70 79 71 80 74 81 72 82 51 83 52 84 60 85 53 86 54 87 58 88
REMARK SMILES IDX 61 89 55 90 56 91 59 92 57 93
REMARK H PARENT 17 6 3 10 3 11 22 27 81 46 49 57
REMARK Flexibility Score: inf
ROOT
ATOM      1  C   UNL A   1      31.770  30.510  26.667  1.00  0.00     0.023 C 
ENDROOT
BRANCH   1   2
ATOM      2  C   UNL A   1      33.215  30.067  26.459  1.00  0.00     0.116 C 
BRANCH   2   3
ATOM      3  N   UNL A   1      33.335  28.623  26.513  1.00  0.00    -0.351 N 
ATOM      4  C   UNL A   1      33.129  27.700  25.531  1.00  0.00     0.277 C 
ATOM      5  O   UNL A   1      33.352  26.515  25.800  1.00  0.00    -0.268 OA
ATOM      6  H   UNL A   1      33.605  28.256  27.386  1.00  0.00     0.163 HD
BRANCH   4   7
ATOM      7  C   UNL A   1      32.644  28.107  24.128  1.00  0.00     0.269 C 
ATOM      8  C   UNL A   1      33.803  28.207  23.137  1.00  0.00     0.086 C 
BRANCH   7   9
ATOM      9  N   UNL A   1      31.573  27.207  23.624  1.00  0.00    -0.334 N 
ATOM     10  H   UNL A   1      31.248  26.620  24.393  1.00  0.00     0.347 HD
ATOM     11  H   UNL A   1      31.964  26.644  22.869  1.00  0.00     0.347 HD
BRANCH   9  12
ATOM     12  C   UNL A   1      30.424  27.962  23.082  1.00  0.00     0.188 C 
ATOM     13  C   UNL A   1      29.116  27.302  23.534  1.00  0.00     0.093 C 
ATOM     14  C   UNL A   1      30.414  29.423  23.558  1.00  0.00     0.100 C 
ATOM     15  C   UNL A   1      27.926  28.092  23.012  1.00  0.00     0.167 C 
ATOM     16  C   UNL A   1      29.167  30.176  23.043  1.00  0.00     0.078 C 
ATOM     17  O   UNL A   1      27.980  29.454  23.422  1.00  0.00    -0.374 OA
ATOM     18  C   UNL A   1      29.228  30.412  21.519  1.00  0.00     0.064 C 
ATOM     19  C   UNL A   1      29.065  31.550  23.734  1.00  0.00     0.064 C 
ATOM     20  C   UNL A   1      28.074  31.291  21.055  1.00  0.00     0.163 C 
ATOM     21  C   UNL A   1      27.921  32.372  23.148  1.00  0.00     0.163 C 
ATOM     22  O   UNL A   1      28.093  32.542  21.741  1.00  0.00    -0.381 OA
ENDBRANCH   9  12
ENDBRANCH   7   9
ENDBRANCH   4   7
ENDBRANCH   2   3
ENDBRANCH   1   2
BRANCH   1  23
ATOM     23  C   UNL A   1      31.576  32.026  26.725  1.00  0.00     0.023 C 
BRANCH  23  24
ATOM     24  C   UNL A   1      32.768  32.808  27.265  1.00  0.00     0.116 C 
BRANCH  24  25
ATOM     25  N   UNL A   1      32.434  34.178  27.625  1.00  0.00    -0.352 N 
ATOM     26  C   UNL A   1      32.978  34.970  28.607  1.00  0.00     0.251 C 
ATOM     27  H   UNL A   1      31.719  34.594  27.091  1.00  0.00     0.163 HD
ATOM     28  O   UNL A   1      32.485  36.062  28.869  1.00  0.00    -0.269 OA
BRANCH  26  29
ATOM     29  C   UNL A   1      34.143  34.483  29.373  1.00  0.00     0.039 A 
ATOM     30  C   UNL A   1      33.925  33.830  30.588  1.00  0.00     0.014 A 
ATOM     31  C   UNL A   1      35.441  34.648  28.884  1.00  0.00     0.014 A 
ATOM     32  C   UNL A   1      35.006  33.279  31.279  1.00  0.00     0.010 A 
ATOM     33  C   UNL A   1      36.507  34.035  29.534  1.00  0.00     0.010 A 
ATOM     34  C   UNL A   1      36.300  33.343  30.738  1.00  0.00    -0.014 A 
BRANCH  34  35
ATOM     35  C   UNL A   1      37.450  32.688  31.411  1.00  0.00     0.031 A 
ATOM     36  C   UNL A   1      38.158  31.540  30.750  1.00  0.00     0.074 A 
ATOM     37  C   UNL A   1      37.811  33.085  32.647  1.00  0.00     0.049 A 
ATOM     38  N   UNL A   1      39.137  30.797  31.205  1.00  0.00    -0.248 NA
ATOM     39  C   UNL A   1      37.687  31.155  29.411  1.00  0.00     0.031 C 
ATOM     40  C   UNL A   1      37.171  34.155  33.413  1.00  0.00     0.029 A 
ATOM     41  N   UNL A   1      38.801  32.626  33.481  1.00  0.00    -0.354 N 
ATOM     42  C   UNL A   1      39.383  29.852  30.218  1.00  0.00     0.074 A 
ATOM     43  C   UNL A   1      38.419  30.079  29.164  1.00  0.00     0.031 C 
ATOM     44  C   UNL A   1      37.798  34.287  34.593  1.00  0.00     0.029 A 
ATOM     45  C   UNL A   1      38.857  33.287  34.684  1.00  0.00     0.049 A 
ATOM     46  H   UNL A   1      39.411  31.892  33.240  1.00  0.00     0.167 HD
ATOM     47  C   UNL A   1      40.342  28.896  30.185  1.00  0.00     0.037 A 
ATOM     48  C   UNL A   1      39.668  33.102  35.743  1.00  0.00     0.037 A 
ATOM     49  C   UNL A   1      41.316  28.691  31.225  1.00  0.00     0.049 A 
ATOM     50  C   UNL A   1      40.719  32.026  35.683  1.00  0.00     0.074 A 
ATOM     51  C   UNL A   1      42.370  27.795  31.254  1.00  0.00     0.029 A 
ATOM     52  N   UNL A   1      41.350  29.388  32.424  1.00  0.00    -0.354 N 
ATOM     53  N   UNL A   1      40.994  31.189  34.713  1.00  0.00    -0.248 NA
ATOM     54  C   UNL A   1      41.579  31.876  36.865  1.00  0.00     0.031 C 
ATOM     55  C   UNL A   1      43.012  27.916  32.491  1.00  0.00     0.029 A 
ATOM     56  C   UNL A   1      42.393  28.926  33.211  1.00  0.00     0.049 A 
ATOM     57  H   UNL A   1      40.727  30.107  32.677  1.00  0.00     0.167 HD
ATOM     58  C   UNL A   1      42.073  30.435  35.152  1.00  0.00     0.074 A 
ATOM     59  C   UNL A   1      42.413  30.924  36.472  1.00  0.00     0.031 C 
ATOM     60  C   UNL A   1      42.724  29.429  34.520  1.00  0.00     0.037 A 
BRANCH  47  61
ATOM     61  C   UNL A   1      40.384  27.996  28.983  1.00  0.00     0.064 A 
ATOM     62  C   UNL A   1      39.688  26.778  28.949  1.00  0.00     0.173 A 
ATOM     63  C   UNL A   1      41.101  28.373  27.837  1.00  0.00     0.173 A 
ATOM     64  F   UNL A   1      38.995  26.365  30.022  1.00  0.00    -0.203 F 
ATOM     65  C   UNL A   1      39.734  25.957  27.825  1.00  0.00     0.198 A 
ATOM     66  C   UNL A   1      41.118  27.565  26.704  1.00  0.00     0.198 A 
ATOM     67  F   UNL A   1      41.779  29.530  27.814  1.00  0.00    -0.203 F 
ATOM     68  F   UNL A   1      39.103  24.774  27.836  1.00  0.00    -0.200 F 
ATOM     69  C   UNL A   1      40.442  26.354  26.702  1.00  0.00     0.200 A 
ATOM     70  F   UNL A   1      41.791  27.957  25.614  1.00  0.00    -0.200 F 
ATOM     71  F   UNL A   1      40.479  25.566  25.618  1.00  0.00    -0.200 F 
ENDBRANCH  47  61
BRANCH  48  72
ATOM     72  C   UNL A   1      39.537  33.972  36.941  1.00  0.00     0.064 A 
ATOM     73  C   UNL A   1      38.790  33.556  38.052  1.00  0.00     0.173 A 
ATOM     74  C   UNL A   1      40.146  35.234  37.000  1.00  0.00     0.173 A 
ATOM     75  F   UNL A   1      38.171  32.367  38.034  1.00  0.00    -0.203 F 
ATOM     76  C   UNL A   1      38.640  34.377  39.167  1.00  0.00     0.198 A 
ATOM     77  C   UNL A   1      40.020  36.042  38.127  1.00  0.00     0.198 A 
ATOM     78  F   UNL A   1      40.876  35.676  35.965  1.00  0.00    -0.203 F 
ATOM     79  F   UNL A   1      37.882  33.974  40.196  1.00  0.00    -0.200 F 
ATOM     80  C   UNL A   1      39.260  35.617  39.207  1.00  0.00     0.200 A 
ATOM     81  F   UNL A   1      40.632  37.233  38.168  1.00  0.00    -0.200 F 
ATOM     82  F   UNL A   1      39.118  36.405  40.281  1.00  0.00    -0.200 F 
ENDBRANCH  48  72
BRANCH  60  83
ATOM     83  C   UNL A   1      43.897  28.813  35.228  1.00  0.00     0.064 A 
ATOM     84  C   UNL A   1      45.199  29.309  35.067  1.00  0.00     0.173 A 
ATOM     85  C   UNL A   1      43.706  27.738  36.109  1.00  0.00     0.173 A 
ATOM     86  F   UNL A   1      45.436  30.325  34.224  1.00  0.00    -0.203 F 
ATOM     87  C   UNL A   1      46.271  28.733  35.743  1.00  0.00     0.198 A 
ATOM     88  C   UNL A   1      44.776  27.186  36.808  1.00  0.00     0.198 A 
ATOM     89  F   UNL A   1      42.480  27.231  36.304  1.00  0.00    -0.203 F 
ATOM     90  F   UNL A   1      47.514  29.191  35.537  1.00  0.00    -0.200 F 
ATOM     91  C   UNL A   1      46.058  27.679  36.619  1.00  0.00     0.200 A 
ATOM     92  F   UNL A   1      44.566  26.176  37.665  1.00  0.00    -0.200 F 
ATOM     93  F   UNL A   1      47.091  27.131  37.275  1.00  0.00    -0.200 F 
ENDBRANCH  60  83
ENDBRANCH  34  35
ENDBRANCH  26  29
ENDBRANCH  24  25
ENDBRANCH  23  24
ENDBRANCH   1  23
TORSDOF 13
ENDMDL
MODEL 2
REMARK VINA RESULT:     -12.3      6.813     12.091
REMARK SMILES C[C@@H]([NH2+][C@H]1CCOC2(CCOCC2)C1)C(=O)NCCCCNC(=O)c1ccc(-c2c3nc(c(-c4c(F)c(F)c(F)c(F)c4F)c4ccc([nH]4)c(-c4c(F)c(F)c(F)c(F)c4F)c4nc(c(-c5c(F)c(F)c(F)c(F)c5F)c5ccc2[nH]5)C=C4)C=C3)cc1
REMARK SMILES IDX 19 1 18 2 17 3 15 4 16 5 2 7 1 8 3 9 4 12 5 13 14 14 6 15
REMARK SMILES IDX 8 16 7 17 9 18 13 19 10 20 12 21 11 22 20 23 21 24 22 25
REMARK SMILES IDX 23 26 24 28 25 29 26 30 87 31 27 32 86 33 28 34 29 35 30 36
REMARK SMILES IDX 80 37 31 38 85 39 79 40 81 41 32 42 84 43 78 44 77 45 33 47
REMARK SMILES IDX 65 48 45 49 64 50 46 51 49 52 63 53 82 54 47 55 48 56 62 58
REMARK SMILES IDX 83 59 50 60 34 61 35 62 43 63 36 64 37 65 41 66 44 67 38 68
REMARK SMILES IDX 39 69 42 70 40 71 66 72 67 73 75 74 68 75 69 76 73 77 76 78
REMARK SMILES IDX 70 79 71 80 74 81 72 82 51 83 52 84 60 85 53 86 54 87 58 88
REMARK SMILES IDX 61 89 55 90 56 91 59 92 57 93
REMARK H PARENT 17 6 3 10 3 11 22 27 81 46 49 57
REMARK Flexibility Score: inf
ROOT
ATOM      1  C   UNL A   1      37.507  21.181  24.608  1.00  0.00     0.023 C 
ENDROOT
BRANCH   1   2
ATOM      2  C   UNL A   1      37.550  22.281  25.665  1.00  0.00     0.116 C 
BRANCH   2   3
ATOM      3  N   UNL A   1      36.778  23.436  25.253  1.00  0.00    -0.351 N 
ATOM      4  C   UNL A   1      35.434  23.652  25.328  1.00  0.00     0.277 C 
ATOM      5  O   UNL A   1      35.006  24.751  24.963  1.00  0.00    -0.268 OA
ATOM      6  H   UNL A   1      37.301  24.173  24.861  1.00  0.00     0.163 HD
BRANCH   4   7
ATOM      7  C   UNL A   1      34.471  22.574  25.860  1.00  0.00     0.269 C 
ATOM      8  C   UNL A   1      34.099  22.819  27.321  1.00  0.00     0.086 C 
BRANCH   7   9
ATOM      9  N   UNL A   1      33.262  22.436  25.005  1.00  0.00    -0.334 N 
ATOM     10  H   UNL A   1      33.442  22.882  24.106  1.00  0.00     0.347 HD
ATOM     11  H   UNL A   1      32.482  22.881  25.489  1.00  0.00     0.347 HD
BRANCH   9  12
ATOM     12  C   UNL A   1      32.905  21.021  24.773  1.00  0.00     0.188 C 
ATOM     13  C   UNL A   1      32.385  20.850  23.341  1.00  0.00     0.093 C 
ATOM     14  C   UNL A   1      34.107  20.082  24.963  1.00  0.00     0.100 C 
ATOM     15  C   UNL A   1      32.050  19.390  23.079  1.00  0.00     0.167 C 
ATOM     16  C   UNL A   1      33.735  18.617  24.643  1.00  0.00     0.078 C 
ATOM     17  O   UNL A   1      33.168  18.544  23.321  1.00  0.00    -0.374 OA
ATOM     18  C   UNL A   1      32.786  18.022  25.704  1.00  0.00     0.064 C 
ATOM     19  C   UNL A   1      35.010  17.752  24.605  1.00  0.00     0.064 C 
ATOM     20  C   UNL A   1      32.558  16.536  25.462  1.00  0.00     0.163 C 
ATOM     21  C   UNL A   1      34.663  16.277  24.425  1.00  0.00     0.163 C 
ATOM     22  O   UNL A   1      33.799  15.833  25.472  1.00  0.00    -0.381 OA
ENDBRANCH   9  12
ENDBRANCH   7   9
ENDBRANCH   4   7
ENDBRANCH   2   3
ENDBRANCH   1   2
BRANCH   1  23
ATOM     23  C   UNL A   1      38.274  19.912  24.985  1.00  0.00     0.023 C 
BRANCH  23  24
ATOM     24  C   UNL A   1      39.391  20.113  26.004  1.00  0.00     0.116 C 
BRANCH  24  25
ATOM     25  N   UNL A   1      40.390  19.056  25.969  1.00  0.00    -0.352 N 
ATOM     26  C   UNL A   1      41.755  19.154  26.080  1.00  0.00     0.251 C 
ATOM     27  H   UNL A   1      40.038  18.144  25.849  1.00  0.00     0.163 HD
ATOM     28  O   UNL A   1      42.466  18.172  25.892  1.00  0.00    -0.269 OA
BRANCH  26  29
ATOM     29  C   UNL A   1      42.369  20.461  26.393  1.00  0.00     0.039 A 
ATOM     30  C   UNL A   1      42.934  21.205  25.355  1.00  0.00     0.014 A 
ATOM     31  C   UNL A   1      42.364  20.959  27.698  1.00  0.00     0.014 A 
ATOM     32  C   UNL A   1      43.431  22.484  25.615  1.00  0.00     0.010 A 
ATOM     33  C   UNL A   1      42.791  22.260  27.941  1.00  0.00     0.010 A 
ATOM     34  C   UNL A   1      43.329  23.036  26.902  1.00  0.00    -0.014 A 
BRANCH  34  35
ATOM     35  C   UNL A   1      43.771  24.426  27.181  1.00  0.00     0.031 A 
ATOM     36  C   UNL A   1      42.791  25.442  27.692  1.00  0.00     0.074 A 
ATOM     37  C   UNL A   1      45.040  24.787  26.909  1.00  0.00     0.049 A 
ATOM     38  N   UNL A   1      42.968  26.718  27.931  1.00  0.00    -0.248 NA
ATOM     39  C   UNL A   1      41.419  24.971  27.941  1.00  0.00     0.031 C 
ATOM     40  C   UNL A   1      46.073  23.905  26.365  1.00  0.00     0.029 A 
ATOM     41  N   UNL A   1      45.675  25.997  27.044  1.00  0.00    -0.354 N 
ATOM     42  C   UNL A   1      41.732  27.201  28.340  1.00  0.00     0.074 A 
ATOM     43  C   UNL A   1      40.800  26.096  28.267  1.00  0.00     0.031 C 
ATOM     44  C   UNL A   1      47.217  24.595  26.235  1.00  0.00     0.029 A 
ATOM     45  C   UNL A   1      46.991  25.976  26.649  1.00  0.00     0.049 A 
ATOM     46  H   UNL A   1      45.230  26.804  27.391  1.00  0.00     0.167 HD
ATOM     47  C   UNL A   1      41.409  28.447  28.761  1.00  0.00     0.037 A 
ATOM     48  C   UNL A   1      47.907  26.961  26.618  1.00  0.00     0.037 A 
ATOM     49  C   UNL A   1      42.345  29.536  28.858  1.00  0.00     0.049 A 
ATOM     50  C   UNL A   1      47.520  28.339  27.083  1.00  0.00     0.074 A 
ATOM     51  C   UNL A   1      42.132  30.816  29.337  1.00  0.00     0.029 A 
ATOM     52  N   UNL A   1      43.673  29.473  28.460  1.00  0.00    -0.354 N 
ATOM     53  N   UNL A   1      46.369  28.765  27.541  1.00  0.00    -0.248 NA
ATOM     54  C   UNL A   1      48.564  29.372  27.033  1.00  0.00     0.031 C 
ATOM     55  C   UNL A   1      43.317  31.543  29.184  1.00  0.00     0.029 A 
ATOM     56  C   UNL A   1      44.285  30.700  28.661  1.00  0.00     0.049 A 
ATOM     57  H   UNL A   1      44.115  28.675  28.092  1.00  0.00     0.167 HD
ATOM     58  C   UNL A   1      46.555  30.103  27.862  1.00  0.00     0.074 A 
ATOM     59  C   UNL A   1      47.937  30.415  27.559  1.00  0.00     0.031 C 
ATOM     60  C   UNL A   1      45.664  30.993  28.362  1.00  0.00     0.037 A 
BRANCH  47  61
ATOM     61  C   UNL A   1      39.980  28.700  29.149  1.00  0.00     0.064 A 
ATOM     62  C   UNL A   1      39.034  29.162  28.221  1.00  0.00     0.173 A 
ATOM     63  C   UNL A   1      39.542  28.444  30.457  1.00  0.00     0.173 A 
ATOM     64  F   UNL A   1      39.402  29.433  26.959  1.00  0.00    -0.203 F 
ATOM     65  C   UNL A   1      37.712  29.389  28.595  1.00  0.00     0.198 A 
ATOM     66  C   UNL A   1      38.213  28.641  30.820  1.00  0.00     0.198 A 
ATOM     67  F   UNL A   1      40.403  27.996  31.383  1.00  0.00    -0.203 F 
ATOM     68  F   UNL A   1      36.840  29.879  27.704  1.00  0.00    -0.200 F 
ATOM     69  C   UNL A   1      37.301  29.121  29.892  1.00  0.00     0.200 A 
ATOM     70  F   UNL A   1      37.813  28.368  32.070  1.00  0.00    -0.200 F 
ATOM     71  F   UNL A   1      36.027  29.332  30.248  1.00  0.00    -0.200 F 
ENDBRANCH  47  61
BRANCH  48  72
ATOM     72  C   UNL A   1      49.291  26.676  26.154  1.00  0.00     0.064 A 
ATOM     73  C   UNL A   1      49.665  26.912  24.824  1.00  0.00     0.173 A 
ATOM     74  C   UNL A   1      50.262  26.159  27.023  1.00  0.00     0.173 A 
ATOM     75  F   UNL A   1      48.765  27.386  23.951  1.00  0.00    -0.203 F 
ATOM     76  C   UNL A   1      50.951  26.622  24.376  1.00  0.00     0.198 A 
ATOM     77  C   UNL A   1      51.556  25.896  26.581  1.00  0.00     0.198 A 
ATOM     78  F   UNL A   1      49.957  25.920  28.307  1.00  0.00    -0.203 F 
ATOM     79  F   UNL A   1      51.268  26.812  23.087  1.00  0.00    -0.200 F 
ATOM     80  C   UNL A   1      51.898  26.119  25.255  1.00  0.00     0.200 A 
ATOM     81  F   UNL A   1      52.473  25.424  27.437  1.00  0.00    -0.200 F 
ATOM     82  F   UNL A   1      53.137  25.843  24.824  1.00  0.00    -0.200 F 
ENDBRANCH  48  72
BRANCH  60  83
ATOM     83  C   UNL A   1      46.162  32.379  28.653  1.00  0.00     0.064 A 
ATOM     84  C   UNL A   1      46.087  33.405  27.699  1.00  0.00     0.173 A 
ATOM     85  C   UNL A   1      46.686  32.693  29.917  1.00  0.00     0.173 A 
ATOM     86  F   UNL A   1      45.610  33.152  26.472  1.00  0.00    -0.203 F 
ATOM     87  C   UNL A   1      46.542  34.688  27.992  1.00  0.00     0.198 A 
ATOM     88  C   UNL A   1      47.108  33.984  30.217  1.00  0.00     0.198 A 
ATOM     89  F   UNL A   1      46.772  31.750  30.867  1.00  0.00    -0.203 F 
ATOM     90  F   UNL A   1      46.506  35.640  27.050  1.00  0.00    -0.200 F 
ATOM     91  C   UNL A   1      47.044  34.979  29.252  1.00  0.00     0.200 A 
ATOM     92  F   UNL A   1      47.580  34.267  31.439  1.00  0.00    -0.200 F 
ATOM     93  F   UNL A   1      47.473  36.217  29.535  1.00  0.00    -0.200 F 
ENDBRANCH  60  83
ENDBRANCH  34  35
ENDBRANCH  26  29
ENDBRANCH  24  25
ENDBRANCH  23  24
ENDBRANCH   1  23
TORSDOF 13
ENDMDL
MODEL 3
REMARK VINA RESULT:     -12.2      2.157      8.019
REMARK SMILES C[C@@H]([NH2+][C@H]1CCOC2(CCOCC2)C1)C(=O)NCCCCNC(=O)c1ccc(-c2c3nc(c(-c4c(F)c(F)c(F)c(F)c4F)c4ccc([nH]4)c(-c4c(F)c(F)c(F)c(F)c4F)c4nc(c(-c5c(F)c(F)c(F)c(F)c5F)c5ccc2[nH]5)C=C4)C=C3)cc1
REMARK SMILES IDX 19 1 18 2 17 3 15 4 16 5 2 7 1 8 3 9 4 12 5 13 14 14 6 15
REMARK SMILES IDX 8 16 7 17 9 18 13 19 10 20 12 21 11 22 20 23 21 24 22 25
REMARK SMILES IDX 23 26 24 28 25 29 26 30 87 31 27 32 86 33 28 34 29 35 30 36
REMARK SMILES IDX 80 37 31 38 85 39 79 40 81 41 32 42 84 43 78 44 77 45 33 47
REMARK SMILES IDX 65 48 45 49 64 50 46 51 49 52 63 53 82 54 47 55 48 56 62 58
REMARK SMILES IDX 83 59 50 60 34 61 35 62 43 63 36 64 37 65 41 66 44 67 38 68
REMARK SMILES IDX 39 69 42 70 40 71 66 72 67 73 75 74 68 75 69 76 73 77 76 78
REMARK SMILES IDX 70 79 71 80 74 81 72 82 51 83 52 84 60 85 53 86 54 87 58 88
REMARK SMILES IDX 61 89 55 90 56 91 59 92 57 93
REMARK H PARENT 17 6 3 10 3 11 22 27 81 46 49 57
REMARK Flexibility Score: inf
ROOT
ATOM      1  C   UNL A   1      33.639  26.933  26.127  1.00  0.00     0.023 C 
ENDROOT
BRANCH   1   2
ATOM      2  C   UNL A   1      32.999  25.591  25.780  1.00  0.00     0.116 C 
BRANCH   2   3
ATOM      3  N   UNL A   1      31.684  25.467  26.378  1.00  0.00    -0.351 N 
ATOM      4  C   UNL A   1      30.458  25.470  25.781  1.00  0.00     0.277 C 
ATOM      5  O   UNL A   1      29.469  25.288  26.498  1.00  0.00    -0.268 OA
ATOM      6  H   UNL A   1      31.675  25.365  27.357  1.00  0.00     0.163 HD
BRANCH   4   7
ATOM      7  C   UNL A   1      30.298  25.680  24.264  1.00  0.00     0.269 C 
ATOM      8  C   UNL A   1      30.314  24.354  23.505  1.00  0.00     0.086 C 
BRANCH   7   9
ATOM      9  N   UNL A   1      29.090  26.482  23.936  1.00  0.00    -0.334 N 
ATOM     10  H   UNL A   1      28.470  26.490  24.747  1.00  0.00     0.347 HD
ATOM     11  H   UNL A   1      28.636  26.052  23.129  1.00  0.00     0.347 HD
BRANCH   9  12
ATOM     12  C   UNL A   1      29.428  27.875  23.580  1.00  0.00     0.188 C 
ATOM     13  C   UNL A   1      30.736  27.899  22.781  1.00  0.00     0.093 C 
ATOM     14  C   UNL A   1      28.333  28.538  22.729  1.00  0.00     0.100 C 
ATOM     15  C   UNL A   1      31.075  29.325  22.378  1.00  0.00     0.167 C 
ATOM     16  C   UNL A   1      28.737  29.967  22.303  1.00  0.00     0.078 C 
ATOM     17  O   UNL A   1      30.015  29.927  21.642  1.00  0.00    -0.374 OA
ATOM     18  C   UNL A   1      28.742  30.941  23.499  1.00  0.00     0.064 C 
ATOM     19  C   UNL A   1      27.737  30.501  21.258  1.00  0.00     0.064 C 
ATOM     20  C   UNL A   1      28.985  32.372  23.038  1.00  0.00     0.163 C 
ATOM     21  C   UNL A   1      28.030  31.960  20.919  1.00  0.00     0.163 C 
ATOM     22  O   UNL A   1      27.989  32.767  22.096  1.00  0.00    -0.381 OA
ENDBRANCH   9  12
ENDBRANCH   7   9
ENDBRANCH   4   7
ENDBRANCH   2   3
ENDBRANCH   1   2
BRANCH   1  23
ATOM     23  C   UNL A   1      32.786  28.151  25.770  1.00  0.00     0.023 C 
BRANCH  23  24
ATOM     24  C   UNL A   1      33.573  29.394  25.371  1.00  0.00     0.116 C 
BRANCH  24  25
ATOM     25  N   UNL A   1      33.093  30.604  26.022  1.00  0.00    -0.352 N 
ATOM     26  C   UNL A   1      33.594  31.246  27.128  1.00  0.00     0.251 C 
ATOM     27  H   UNL A   1      32.301  31.020  25.612  1.00  0.00     0.163 HD
ATOM     28  O   UNL A   1      32.985  32.185  27.630  1.00  0.00    -0.269 OA
BRANCH  26  29
ATOM     29  C   UNL A   1      34.857  30.775  27.735  1.00  0.00     0.039 A 
ATOM     30  C   UNL A   1      35.923  31.669  27.849  1.00  0.00     0.014 A 
ATOM     31  C   UNL A   1      34.977  29.466  28.209  1.00  0.00     0.014 A 
ATOM     32  C   UNL A   1      37.089  31.270  28.505  1.00  0.00     0.010 A 
ATOM     33  C   UNL A   1      36.109  29.096  28.927  1.00  0.00     0.010 A 
ATOM     34  C   UNL A   1      37.177  29.994  29.083  1.00  0.00    -0.014 A 
BRANCH  34  35
ATOM     35  C   UNL A   1      38.372  29.580  29.861  1.00  0.00     0.031 A 
ATOM     36  C   UNL A   1      38.617  30.149  31.229  1.00  0.00     0.074 A 
ATOM     37  C   UNL A   1      39.271  28.744  29.305  1.00  0.00     0.049 A 
ATOM     38  N   UNL A   1      39.634  29.965  32.034  1.00  0.00    -0.248 NA
ATOM     39  C   UNL A   1      37.599  31.073  31.753  1.00  0.00     0.031 C 
ATOM     40  C   UNL A   1      39.170  28.163  27.966  1.00  0.00     0.029 A 
ATOM     41  N   UNL A   1      40.453  28.247  29.794  1.00  0.00    -0.354 N 
ATOM     42  C   UNL A   1      39.385  30.759  33.145  1.00  0.00     0.074 A 
ATOM     43  C   UNL A   1      38.150  31.468  32.891  1.00  0.00     0.031 C 
ATOM     44  C   UNL A   1      40.231  27.370  27.750  1.00  0.00     0.029 A 
ATOM     45  C   UNL A   1      41.106  27.416  28.917  1.00  0.00     0.049 A 
ATOM     46  H   UNL A   1      40.800  28.465  30.689  1.00  0.00     0.167 HD
ATOM     47  C   UNL A   1      40.109  30.869  34.284  1.00  0.00     0.037 A 
ATOM     48  C   UNL A   1      42.282  26.771  29.038  1.00  0.00     0.037 A 
ATOM     49  C   UNL A   1      41.324  30.141  34.544  1.00  0.00     0.049 A 
ATOM     50  C   UNL A   1      43.071  26.917  30.311  1.00  0.00     0.074 A 
ATOM     51  C   UNL A   1      42.094  30.130  35.693  1.00  0.00     0.029 A 
ATOM     52  N   UNL A   1      41.949  29.298  33.636  1.00  0.00    -0.354 N 
ATOM     53  N   UNL A   1      42.787  27.609  31.387  1.00  0.00    -0.248 NA
ATOM     54  C   UNL A   1      44.343  26.184  30.389  1.00  0.00     0.031 C 
ATOM     55  C   UNL A   1      43.211  29.320  35.463  1.00  0.00     0.029 A 
ATOM     56  C   UNL A   1      43.109  28.781  34.191  1.00  0.00     0.049 A 
ATOM     57  H   UNL A   1      41.616  29.096  32.731  1.00  0.00     0.167 HD
ATOM     58  C   UNL A   1      43.825  27.373  32.279  1.00  0.00     0.074 A 
ATOM     59  C   UNL A   1      44.738  26.461  31.623  1.00  0.00     0.031 C 
ATOM     60  C   UNL A   1      44.004  27.867  33.528  1.00  0.00     0.037 A 
BRANCH  47  61
ATOM     61  C   UNL A   1      39.607  31.812  35.339  1.00  0.00     0.064 A 
ATOM     62  C   UNL A   1      40.025  33.151  35.392  1.00  0.00     0.173 A 
ATOM     63  C   UNL A   1      38.667  31.383  36.288  1.00  0.00     0.173 A 
ATOM     64  F   UNL A   1      40.931  33.610  34.514  1.00  0.00    -0.203 F 
ATOM     65  C   UNL A   1      39.547  34.014  36.373  1.00  0.00     0.198 A 
ATOM     66  C   UNL A   1      38.166  32.258  37.248  1.00  0.00     0.198 A 
ATOM     67  F   UNL A   1      38.228  30.115  36.280  1.00  0.00    -0.203 F 
ATOM     68  F   UNL A   1      40.001  35.274  36.435  1.00  0.00    -0.200 F 
ATOM     69  C   UNL A   1      38.613  33.570  37.296  1.00  0.00     0.200 A 
ATOM     70  F   UNL A   1      37.252  31.830  38.131  1.00  0.00    -0.200 F 
ATOM     71  F   UNL A   1      38.147  34.404  38.235  1.00  0.00    -0.200 F 
ENDBRANCH  47  61
BRANCH  48  72
ATOM     72  C   UNL A   1      42.773  25.906  27.934  1.00  0.00     0.064 A 
ATOM     73  C   UNL A   1      42.360  24.570  27.831  1.00  0.00     0.173 A 
ATOM     74  C   UNL A   1      43.664  26.389  26.965  1.00  0.00     0.173 A 
ATOM     75  F   UNL A   1      41.525  24.056  28.746  1.00  0.00    -0.203 F 
ATOM     76  C   UNL A   1      42.837  23.745  26.816  1.00  0.00     0.198 A 
ATOM     77  C   UNL A   1      44.118  25.571  25.933  1.00  0.00     0.198 A 
ATOM     78  F   UNL A   1      44.086  27.661  27.015  1.00  0.00    -0.203 F 
ATOM     79  F   UNL A   1      42.463  22.458  26.769  1.00  0.00    -0.200 F 
ATOM     80  C   UNL A   1      43.711  24.247  25.864  1.00  0.00     0.200 A 
ATOM     81  F   UNL A   1      44.951  26.064  25.006  1.00  0.00    -0.200 F 
ATOM     82  F   UNL A   1      44.167  23.453  24.884  1.00  0.00    -0.200 F 
ENDBRANCH  48  72
BRANCH  60  83
ATOM     83  C   UNL A   1      45.214  27.402  34.286  1.00  0.00     0.064 A 
ATOM     84  C   UNL A   1      45.183  26.255  35.092  1.00  0.00     0.173 A 
ATOM     85  C   UNL A   1      46.430  28.093  34.172  1.00  0.00     0.173 A 
ATOM     86  F   UNL A   1      44.041  25.569  35.247  1.00  0.00    -0.203 F 
ATOM     87  C   UNL A   1      46.319  25.831  35.777  1.00  0.00     0.198 A 
ATOM     88  C   UNL A   1      47.572  27.648  34.831  1.00  0.00     0.198 A 
ATOM     89  F   UNL A   1      46.515  29.192  33.407  1.00  0.00    -0.203 F 
ATOM     90  F   UNL A   1      46.254  24.761  36.580  1.00  0.00    -0.200 F 
ATOM     91  C   UNL A   1      47.514  26.522  35.639  1.00  0.00     0.200 A 
ATOM     92  F   UNL A   1      48.729  28.309  34.686  1.00  0.00    -0.200 F 
ATOM     93  F   UNL A   1      48.609  26.108  36.292  1.00  0.00    -0.200 F 
ENDBRANCH  60  83
ENDBRANCH  34  35
ENDBRANCH  26  29
ENDBRANCH  24  25
ENDBRANCH  23  24
ENDBRANCH   1  23
TORSDOF 13
ENDMDL
