MODEL 1
REMARK VINA RESULT:     -12.6      0.000      0.000
REMARK SMILES CCCc1cc2c(cc1Cl)C=C(C(=O)NCCCCNC(=O)c1ccc(-c3c4nc(c(-c5c(F)c(F)c(F)c(F)c5F)c5ccc([nH]5)c(-c5c(F)c(F)c(F)c(F)c5F)c5nc(c(-c6c(F)c(F)c(F)c(F)c6F)c6ccc3[nH]6)C=C5)C=C4)cc1)[C@H](C(F)(F)F)O2
REMARK SMILES IDX 17 1 16 2 15 3 13 4 14 5 12 7 4 8 5 9 9 10 6 11 8 12 10 13
REMARK SMILES IDX 7 14 91 15 11 16 86 17 3 18 2 19 1 20 87 21 88 22 89 23
REMARK SMILES IDX 90 24 18 25 19 26 20 27 21 28 22 30 23 31 24 32 85 33 25 34
REMARK SMILES IDX 84 35 26 36 27 37 28 38 78 39 29 40 83 41 77 42 79 43 30 44
REMARK SMILES IDX 82 45 76 46 75 47 31 49 63 50 43 51 62 52 44 53 47 54 61 55
REMARK SMILES IDX 80 56 45 57 46 58 60 60 81 61 48 62 32 63 33 64 41 65 34 66
REMARK SMILES IDX 35 67 39 68 42 69 36 70 37 71 40 72 38 73 64 74 65 75 73 76
REMARK SMILES IDX 66 77 67 78 71 79 74 80 68 81 69 82 72 83 70 84 49 85 50 86
REMARK SMILES IDX 58 87 51 88 52 89 56 90 59 91 53 92 54 93 57 94 55 95
REMARK H PARENT 15 6 20 29 79 48 47 59
REMARK Flexibility Score: inf
ROOT
ATOM      1  C   UNL A   1      32.138  29.888  27.084  1.00  0.00     0.023 C 
ENDROOT
BRANCH   1   2
ATOM      2  C   UNL A   1      33.434  29.162  26.730  1.00  0.00     0.116 C 
BRANCH   2   3
ATOM      3  N   UNL A   1      33.754  29.315  25.325  1.00  0.00    -0.352 N 
ATOM      4  C   UNL A   1      33.634  28.545  24.218  1.00  0.00     0.251 C 
ATOM      5  O   UNL A   1      33.964  29.083  23.156  1.00  0.00    -0.270 OA
ATOM      6  H   UNL A   1      34.158  30.190  25.127  1.00  0.00     0.163 HD
BRANCH   4   7
ATOM      7  C   UNL A   1      33.136  27.139  24.210  1.00  0.00     0.067 C 
ATOM      8  C   UNL A   1      32.730  22.146  25.072  1.00  0.00    -0.026 A 
ATOM      9  C   UNL A   1      31.973  23.118  24.370  1.00  0.00     0.052 A 
ATOM     10  C   UNL A   1      33.923  22.582  25.671  1.00  0.00     0.045 A 
ATOM     11  C   UNL A   1      32.370  24.453  24.290  1.00  0.00     0.128 A 
ATOM     12  C   UNL A   1      34.311  23.933  25.596  1.00  0.00     0.032 A 
ATOM     13  Cl  UNL A   1      35.041  21.561  26.498  1.00  0.00    -0.084 Cl
ATOM     14  C   UNL A   1      33.543  24.867  24.903  1.00  0.00     0.019 A 
ATOM     15  O   UNL A   1      31.587  25.284  23.544  1.00  0.00    -0.475 OA
ATOM     16  C   UNL A   1      33.971  26.250  24.777  1.00  0.00     0.025 C 
ATOM     17  C   UNL A   1      31.770  26.717  23.735  1.00  0.00     0.314 C 
BRANCH   8  18
ATOM     18  C   UNL A   1      32.152  20.744  25.001  1.00  0.00     0.037 C 
BRANCH  18  19
ATOM     19  C   UNL A   1      32.570  19.708  23.955  1.00  0.00     0.001 C 
ATOM     20  C   UNL A   1      33.653  18.756  24.437  1.00  0.00     0.004 C 
ENDBRANCH  18  19
ENDBRANCH   8  18
BRANCH  17  21
ATOM     21  C   UNL A   1      30.613  27.265  24.587  1.00  0.00     0.429 C 
ATOM     22  F   UNL A   1      30.839  27.150  25.914  1.00  0.00    -0.167 F 
ATOM     23  F   UNL A   1      30.350  28.567  24.341  1.00  0.00    -0.167 F 
ATOM     24  F   UNL A   1      29.472  26.578  24.313  1.00  0.00    -0.167 F 
ENDBRANCH  17  21
ENDBRANCH   4   7
ENDBRANCH   2   3
ENDBRANCH   1   2
BRANCH   1  25
ATOM     25  C   UNL A   1      32.099  31.358  26.660  1.00  0.00     0.023 C 
BRANCH  25  26
ATOM     26  C   UNL A   1      33.085  32.261  27.387  1.00  0.00     0.116 C 
BRANCH  26  27
ATOM     27  N   UNL A   1      32.595  33.616  27.605  1.00  0.00    -0.352 N 
ATOM     28  C   UNL A   1      33.075  34.553  28.491  1.00  0.00     0.251 C 
ATOM     29  H   UNL A   1      31.829  33.893  27.054  1.00  0.00     0.163 HD
ATOM     30  O   UNL A   1      32.526  35.640  28.624  1.00  0.00    -0.269 OA
BRANCH  28  31
ATOM     31  C   UNL A   1      34.239  34.193  29.322  1.00  0.00     0.039 A 
ATOM     32  C   UNL A   1      35.528  34.483  28.871  1.00  0.00     0.014 A 
ATOM     33  C   UNL A   1      34.037  33.451  30.487  1.00  0.00     0.014 A 
ATOM     34  C   UNL A   1      36.612  33.873  29.485  1.00  0.00     0.010 A 
ATOM     35  C   UNL A   1      35.138  32.910  31.152  1.00  0.00     0.010 A 
ATOM     36  C   UNL A   1      36.428  33.070  30.623  1.00  0.00    -0.014 A 
BRANCH  36  37
ATOM     37  C   UNL A   1      37.602  32.389  31.224  1.00  0.00     0.031 A 
ATOM     38  C   UNL A   1      38.065  32.739  32.612  1.00  0.00     0.074 A 
ATOM     39  C   UNL A   1      38.198  31.396  30.539  1.00  0.00     0.049 A 
ATOM     40  N   UNL A   1      39.064  32.240  33.297  1.00  0.00    -0.248 NA
ATOM     41  C   UNL A   1      37.315  33.782  33.327  1.00  0.00     0.031 C 
ATOM     42  C   UNL A   1      37.816  30.955  29.196  1.00  0.00     0.029 A 
ATOM     43  N   UNL A   1      39.223  30.556  30.887  1.00  0.00    -0.354 N 
ATOM     44  C   UNL A   1      39.078  32.925  34.505  1.00  0.00     0.074 A 
ATOM     45  C   UNL A   1      37.999  33.886  34.459  1.00  0.00     0.031 C 
ATOM     46  C   UNL A   1      38.545  29.882  28.863  1.00  0.00     0.029 A 
ATOM     47  C   UNL A   1      39.495  29.604  29.936  1.00  0.00     0.049 A 
ATOM     48  H   UNL A   1      39.716  30.627  31.736  1.00  0.00     0.167 HD
ATOM     49  C   UNL A   1      39.915  32.758  35.557  1.00  0.00     0.037 A 
ATOM     50  C   UNL A   1      40.414  28.622  29.924  1.00  0.00     0.037 A 
ATOM     51  C   UNL A   1      40.965  31.774  35.611  1.00  0.00     0.049 A 
ATOM     52  C   UNL A   1      41.345  28.479  31.092  1.00  0.00     0.074 A 
ATOM     53  C   UNL A   1      41.858  31.521  36.638  1.00  0.00     0.029 A 
ATOM     54  N   UNL A   1      41.255  30.872  34.598  1.00  0.00    -0.354 N 
ATOM     55  N   UNL A   1      41.369  29.155  32.213  1.00  0.00    -0.248 NA
ATOM     56  C   UNL A   1      42.389  27.453  30.982  1.00  0.00     0.031 C 
ATOM     57  C   UNL A   1      42.708  30.487  36.234  1.00  0.00     0.029 A 
ATOM     58  C   UNL A   1      42.322  30.072  34.968  1.00  0.00     0.049 A 
ATOM     59  H   UNL A   1      40.773  30.812  33.741  1.00  0.00     0.167 HD
ATOM     60  C   UNL A   1      42.430  28.641  32.943  1.00  0.00     0.074 A 
ATOM     61  C   UNL A   1      43.008  27.577  32.148  1.00  0.00     0.031 C 
ATOM     62  C   UNL A   1      42.889  29.025  34.158  1.00  0.00     0.037 A 
BRANCH  49  63
ATOM     63  C   UNL A   1      39.741  33.662  36.741  1.00  0.00     0.064 A 
ATOM     64  C   UNL A   1      40.379  34.908  36.814  1.00  0.00     0.173 A 
ATOM     65  C   UNL A   1      38.868  33.309  37.781  1.00  0.00     0.173 A 
ATOM     66  F   UNL A   1      41.234  35.286  35.851  1.00  0.00    -0.203 F 
ATOM     67  C   UNL A   1      40.159  35.763  37.891  1.00  0.00     0.198 A 
ATOM     68  C   UNL A   1      38.632  34.176  38.845  1.00  0.00     0.198 A 
ATOM     69  F   UNL A   1      38.228  32.129  37.755  1.00  0.00    -0.203 F 
ATOM     70  F   UNL A   1      40.799  36.938  37.954  1.00  0.00    -0.200 F 
ATOM     71  C   UNL A   1      39.278  35.401  38.900  1.00  0.00     0.200 A 
ATOM     72  F   UNL A   1      37.773  33.827  39.814  1.00  0.00    -0.200 F 
ATOM     73  F   UNL A   1      39.056  36.231  39.928  1.00  0.00    -0.200 F 
ENDBRANCH  49  63
BRANCH  50  74
ATOM     74  C   UNL A   1      40.486  27.705  28.759  1.00  0.00     0.064 A 
ATOM     75  C   UNL A   1      39.748  26.516  28.736  1.00  0.00     0.173 A 
ATOM     76  C   UNL A   1      41.254  28.024  27.629  1.00  0.00     0.173 A 
ATOM     77  F   UNL A   1      39.014  26.163  29.802  1.00  0.00    -0.203 F 
ATOM     78  C   UNL A   1      39.772  25.678  27.623  1.00  0.00     0.198 A 
ATOM     79  C   UNL A   1      41.257  27.198  26.508  1.00  0.00     0.198 A 
ATOM     80  F   UNL A   1      41.974  29.154  27.603  1.00  0.00    -0.203 F 
ATOM     81  F   UNL A   1      39.072  24.536  27.632  1.00  0.00    -0.200 F 
ATOM     82  C   UNL A   1      40.518  26.025  26.506  1.00  0.00     0.200 A 
ATOM     83  F   UNL A   1      41.964  27.547  25.425  1.00  0.00    -0.200 F 
ATOM     84  F   UNL A   1      40.525  25.229  25.429  1.00  0.00    -0.200 F 
ENDBRANCH  50  74
BRANCH  62  85
ATOM     85  C   UNL A   1      44.077  28.294  34.702  1.00  0.00     0.064 A 
ATOM     86  C   UNL A   1      45.378  28.779  34.507  1.00  0.00     0.173 A 
ATOM     87  C   UNL A   1      43.912  27.132  35.468  1.00  0.00     0.173 A 
ATOM     88  F   UNL A   1      45.584  29.881  33.769  1.00  0.00    -0.203 F 
ATOM     89  C   UNL A   1      46.475  28.118  35.051  1.00  0.00     0.198 A 
ATOM     90  C   UNL A   1      45.009  26.485  36.029  1.00  0.00     0.198 A 
ATOM     91  F   UNL A   1      42.686  26.633  35.684  1.00  0.00    -0.203 F 
ATOM     92  F   UNL A   1      47.712  28.581  34.828  1.00  0.00    -0.200 F 
ATOM     93  C   UNL A   1      46.289  26.976  35.816  1.00  0.00     0.200 A 
ATOM     94  F   UNL A   1      44.828  25.387  36.775  1.00  0.00    -0.200 F 
ATOM     95  F   UNL A   1      47.346  26.346  36.347  1.00  0.00    -0.200 F 
ENDBRANCH  62  85
ENDBRANCH  36  37
ENDBRANCH  28  31
ENDBRANCH  26  27
ENDBRANCH  25  26
ENDBRANCH   1  25
TORSDOF 14
ENDMDL
MODEL 2
REMARK VINA RESULT:     -12.5      0.272      1.647
REMARK SMILES CCCc1cc2c(cc1Cl)C=C(C(=O)NCCCCNC(=O)c1ccc(-c3c4nc(c(-c5c(F)c(F)c(F)c(F)c5F)c5ccc([nH]5)c(-c5c(F)c(F)c(F)c(F)c5F)c5nc(c(-c6c(F)c(F)c(F)c(F)c6F)c6ccc3[nH]6)C=C5)C=C4)cc1)[C@H](C(F)(F)F)O2
REMARK SMILES IDX 17 1 16 2 15 3 13 4 14 5 12 7 4 8 5 9 9 10 6 11 8 12 10 13
REMARK SMILES IDX 7 14 91 15 11 16 86 17 3 18 2 19 1 20 87 21 88 22 89 23
REMARK SMILES IDX 90 24 18 25 19 26 20 27 21 28 22 30 23 31 24 32 85 33 25 34
REMARK SMILES IDX 84 35 26 36 27 37 28 38 78 39 29 40 83 41 77 42 79 43 30 44
REMARK SMILES IDX 82 45 76 46 75 47 31 49 63 50 43 51 62 52 44 53 47 54 61 55
REMARK SMILES IDX 80 56 45 57 46 58 60 60 81 61 48 62 32 63 33 64 41 65 34 66
REMARK SMILES IDX 35 67 39 68 42 69 36 70 37 71 40 72 38 73 64 74 65 75 73 76
REMARK SMILES IDX 66 77 67 78 71 79 74 80 68 81 69 82 72 83 70 84 49 85 50 86
REMARK SMILES IDX 58 87 51 88 52 89 56 90 59 91 53 92 54 93 57 94 55 95
REMARK H PARENT 15 6 20 29 79 48 47 59
REMARK Flexibility Score: inf
ROOT
ATOM      1  C   UNL A   1      32.092  30.052  27.096  1.00  0.00     0.023 C 
ENDROOT
BRANCH   1   2
ATOM      2  C   UNL A   1      33.384  29.354  26.679  1.00  0.00     0.116 C 
BRANCH   2   3
ATOM      3  N   UNL A   1      33.643  29.529  25.264  1.00  0.00    -0.352 N 
ATOM      4  C   UNL A   1      33.493  28.769  24.154  1.00  0.00     0.251 C 
ATOM      5  O   UNL A   1      33.767  29.325  23.086  1.00  0.00    -0.270 OA
ATOM      6  H   UNL A   1      34.020  30.415  25.061  1.00  0.00     0.163 HD
BRANCH   4   7
ATOM      7  C   UNL A   1      33.025  27.353  24.150  1.00  0.00     0.067 C 
ATOM      8  C   UNL A   1      32.713  22.359  25.044  1.00  0.00    -0.026 A 
ATOM      9  C   UNL A   1      31.945  23.309  24.326  1.00  0.00     0.052 A 
ATOM     10  C   UNL A   1      33.889  22.824  25.656  1.00  0.00     0.045 A 
ATOM     11  C   UNL A   1      32.315  24.652  24.240  1.00  0.00     0.128 A 
ATOM     12  C   UNL A   1      34.248  24.182  25.575  1.00  0.00     0.032 A 
ATOM     13  Cl  UNL A   1      35.016  21.833  26.505  1.00  0.00    -0.084 Cl
ATOM     14  C   UNL A   1      33.470  25.095  24.865  1.00  0.00     0.019 A 
ATOM     15  O   UNL A   1      31.524  25.461  23.478  1.00  0.00    -0.475 OA
ATOM     16  C   UNL A   1      33.871  26.486  24.735  1.00  0.00     0.025 C 
ATOM     17  C   UNL A   1      31.675  26.898  23.660  1.00  0.00     0.314 C 
BRANCH   8  18
ATOM     18  C   UNL A   1      32.166  20.944  24.976  1.00  0.00     0.037 C 
BRANCH  18  19
ATOM     19  C   UNL A   1      32.528  19.949  23.872  1.00  0.00     0.001 C 
ATOM     20  C   UNL A   1      32.643  18.512  24.359  1.00  0.00     0.004 C 
ENDBRANCH  18  19
ENDBRANCH   8  18
BRANCH  17  21
ATOM     21  C   UNL A   1      30.495  27.428  24.493  1.00  0.00     0.429 C 
ATOM     22  F   UNL A   1      29.333  26.798  24.215  1.00  0.00    -0.167 F 
ATOM     23  F   UNL A   1      30.698  27.315  25.824  1.00  0.00    -0.167 F 
ATOM     24  F   UNL A   1      30.306  28.749  24.238  1.00  0.00    -0.167 F 
ENDBRANCH  17  21
ENDBRANCH   4   7
ENDBRANCH   2   3
ENDBRANCH   1   2
BRANCH   1  25
ATOM     25  C   UNL A   1      32.017  31.531  26.709  1.00  0.00     0.023 C 
BRANCH  25  26
ATOM     26  C   UNL A   1      33.007  32.433  27.432  1.00  0.00     0.116 C 
BRANCH  26  27
ATOM     27  N   UNL A   1      32.537  33.800  27.613  1.00  0.00    -0.352 N 
ATOM     28  C   UNL A   1      33.046  34.761  28.457  1.00  0.00     0.251 C 
ATOM     29  H   UNL A   1      31.764  34.068  27.068  1.00  0.00     0.163 HD
ATOM     30  O   UNL A   1      32.512  35.858  28.564  1.00  0.00    -0.269 OA
BRANCH  28  31
ATOM     31  C   UNL A   1      34.222  34.415  29.277  1.00  0.00     0.039 A 
ATOM     32  C   UNL A   1      35.505  34.578  28.752  1.00  0.00     0.014 A 
ATOM     33  C   UNL A   1      34.028  33.806  30.518  1.00  0.00     0.014 A 
ATOM     34  C   UNL A   1      36.578  33.968  29.384  1.00  0.00     0.010 A 
ATOM     35  C   UNL A   1      35.124  33.268  31.194  1.00  0.00     0.010 A 
ATOM     36  C   UNL A   1      36.396  33.294  30.604  1.00  0.00    -0.014 A 
BRANCH  36  37
ATOM     37  C   UNL A   1      37.554  32.607  31.228  1.00  0.00     0.031 A 
ATOM     38  C   UNL A   1      37.971  32.929  32.637  1.00  0.00     0.074 A 
ATOM     39  C   UNL A   1      38.177  31.631  30.542  1.00  0.00     0.049 A 
ATOM     40  N   UNL A   1      38.951  32.421  33.342  1.00  0.00    -0.248 NA
ATOM     41  C   UNL A   1      37.194  33.954  33.350  1.00  0.00     0.031 C 
ATOM     42  C   UNL A   1      37.839  31.216  29.179  1.00  0.00     0.029 A 
ATOM     43  N   UNL A   1      39.194  30.787  30.904  1.00  0.00    -0.354 N 
ATOM     44  C   UNL A   1      38.924  33.080  34.564  1.00  0.00     0.074 A 
ATOM     45  C   UNL A   1      37.842  34.037  34.504  1.00  0.00     0.031 C 
ATOM     46  C   UNL A   1      38.584  30.153  28.847  1.00  0.00     0.029 A 
ATOM     47  C   UNL A   1      39.500  29.857  29.943  1.00  0.00     0.049 A 
ATOM     48  H   UNL A   1      39.660  30.843  31.770  1.00  0.00     0.167 HD
ATOM     49  C   UNL A   1      39.728  32.894  35.638  1.00  0.00     0.037 A 
ATOM     50  C   UNL A   1      40.424  28.879  29.939  1.00  0.00     0.037 A 
ATOM     51  C   UNL A   1      40.780  31.914  35.705  1.00  0.00     0.049 A 
ATOM     52  C   UNL A   1      41.319  28.716  31.132  1.00  0.00     0.074 A 
ATOM     53  C   UNL A   1      41.642  31.644  36.754  1.00  0.00     0.029 A 
ATOM     54  N   UNL A   1      41.107  31.035  34.683  1.00  0.00    -0.354 N 
ATOM     55  N   UNL A   1      41.304  29.369  32.268  1.00  0.00    -0.248 NA
ATOM     56  C   UNL A   1      42.371  27.697  31.035  1.00  0.00     0.031 C 
ATOM     57  C   UNL A   1      42.509  30.622  36.356  1.00  0.00     0.029 A 
ATOM     58  C   UNL A   1      42.166  30.232  35.070  1.00  0.00     0.049 A 
ATOM     59  H   UNL A   1      40.653  30.990  33.810  1.00  0.00     0.167 HD
ATOM     60  C   UNL A   1      42.344  28.844  33.021  1.00  0.00     0.074 A 
ATOM     61  C   UNL A   1      42.952  27.800  32.222  1.00  0.00     0.031 C 
ATOM     62  C   UNL A   1      42.763  29.205  34.257  1.00  0.00     0.037 A 
BRANCH  49  63
ATOM     63  C   UNL A   1      39.512  33.773  36.835  1.00  0.00     0.064 A 
ATOM     64  C   UNL A   1      38.711  33.366  37.911  1.00  0.00     0.173 A 
ATOM     65  C   UNL A   1      40.176  35.005  36.937  1.00  0.00     0.173 A 
ATOM     66  F   UNL A   1      38.046  32.203  37.856  1.00  0.00    -0.203 F 
ATOM     67  C   UNL A   1      38.572  34.168  39.042  1.00  0.00     0.198 A 
ATOM     68  C   UNL A   1      40.052  35.793  38.079  1.00  0.00     0.198 A 
ATOM     69  F   UNL A   1      40.959  35.437  35.937  1.00  0.00    -0.203 F 
ATOM     70  F   UNL A   1      37.780  33.772  40.048  1.00  0.00    -0.200 F 
ATOM     71  C   UNL A   1      39.250  35.375  39.129  1.00  0.00     0.200 A 
ATOM     72  F   UNL A   1      40.716  36.955  38.165  1.00  0.00    -0.200 F 
ATOM     73  F   UNL A   1      39.127  36.138  40.224  1.00  0.00    -0.200 F 
ENDBRANCH  49  63
BRANCH  50  74
ATOM     74  C   UNL A   1      40.538  27.987  28.759  1.00  0.00     0.064 A 
ATOM     75  C   UNL A   1      39.833  26.779  28.703  1.00  0.00     0.173 A 
ATOM     76  C   UNL A   1      41.311  28.349  27.646  1.00  0.00     0.173 A 
ATOM     77  F   UNL A   1      39.096  26.385  29.751  1.00  0.00    -0.203 F 
ATOM     78  C   UNL A   1      39.895  25.963  27.575  1.00  0.00     0.198 A 
ATOM     79  C   UNL A   1      41.352  27.546  26.509  1.00  0.00     0.198 A 
ATOM     80  F   UNL A   1      42.000  29.499  27.651  1.00  0.00    -0.203 F 
ATOM     81  F   UNL A   1      39.228  24.803  27.553  1.00  0.00    -0.200 F 
ATOM     82  C   UNL A   1      40.647  26.352  26.475  1.00  0.00     0.200 A 
ATOM     83  F   UNL A   1      42.064  27.934  25.442  1.00  0.00    -0.200 F 
ATOM     84  F   UNL A   1      40.690  25.578  25.383  1.00  0.00    -0.200 F 
ENDBRANCH  50  74
BRANCH  62  85
ATOM     85  C   UNL A   1      43.937  28.467  34.823  1.00  0.00     0.064 A 
ATOM     86  C   UNL A   1      43.768  27.264  35.521  1.00  0.00     0.173 A 
ATOM     87  C   UNL A   1      45.241  28.937  34.618  1.00  0.00     0.173 A 
ATOM     88  F   UNL A   1      42.537  26.784  35.752  1.00  0.00    -0.203 F 
ATOM     89  C   UNL A   1      44.867  26.561  36.007  1.00  0.00     0.198 A 
ATOM     90  C   UNL A   1      46.340  28.221  35.086  1.00  0.00     0.198 A 
ATOM     91  F   UNL A   1      45.452  30.081  33.951  1.00  0.00    -0.203 F 
ATOM     92  F   UNL A   1      44.683  25.429  36.699  1.00  0.00    -0.200 F 
ATOM     93  C   UNL A   1      46.151  27.036  35.784  1.00  0.00     0.200 A 
ATOM     94  F   UNL A   1      47.579  28.676  34.862  1.00  0.00    -0.200 F 
ATOM     95  F   UNL A   1      47.208  26.354  36.244  1.00  0.00    -0.200 F 
ENDBRANCH  62  85
ENDBRANCH  36  37
ENDBRANCH  28  31
ENDBRANCH  26  27
ENDBRANCH  25  26
ENDBRANCH   1  25
TORSDOF 14
ENDMDL
MODEL 3
REMARK VINA RESULT:     -12.5      5.528     10.686
REMARK SMILES CCCc1cc2c(cc1Cl)C=C(C(=O)NCCCCNC(=O)c1ccc(-c3c4nc(c(-c5c(F)c(F)c(F)c(F)c5F)c5ccc([nH]5)c(-c5c(F)c(F)c(F)c(F)c5F)c5nc(c(-c6c(F)c(F)c(F)c(F)c6F)c6ccc3[nH]6)C=C5)C=C4)cc1)[C@H](C(F)(F)F)O2
REMARK SMILES IDX 17 1 16 2 15 3 13 4 14 5 12 7 4 8 5 9 9 10 6 11 8 12 10 13
REMARK SMILES IDX 7 14 91 15 11 16 86 17 3 18 2 19 1 20 87 21 88 22 89 23
REMARK SMILES IDX 90 24 18 25 19 26 20 27 21 28 22 30 23 31 24 32 85 33 25 34
REMARK SMILES IDX 84 35 26 36 27 37 28 38 78 39 29 40 83 41 77 42 79 43 30 44
REMARK SMILES IDX 82 45 76 46 75 47 31 49 63 50 43 51 62 52 44 53 47 54 61 55
REMARK SMILES IDX 80 56 45 57 46 58 60 60 81 61 48 62 32 63 33 64 41 65 34 66
REMARK SMILES IDX 35 67 39 68 42 69 36 70 37 71 40 72 38 73 64 74 65 75 73 76
REMARK SMILES IDX 66 77 67 78 71 79 74 80 68 81 69 82 72 83 70 84 49 85 50 86
REMARK SMILES IDX 58 87 51 88 52 89 56 90 59 91 53 92 54 93 57 94 55 95
REMARK H PARENT 15 6 20 29 79 48 47 59
REMARK Flexibility Score: inf
ROOT
ATOM      1  C   UNL A   1      37.189  22.109  24.511  1.00  0.00     0.023 C 
ENDROOT
BRANCH   1   2
ATOM      2  C   UNL A   1      36.651  23.063  25.575  1.00  0.00     0.116 C 
BRANCH   2   3
ATOM      3  N   UNL A   1      35.848  22.358  26.554  1.00  0.00    -0.352 N 
ATOM      4  C   UNL A   1      34.525  22.241  26.813  1.00  0.00     0.251 C 
ATOM      5  O   UNL A   1      34.226  21.458  27.720  1.00  0.00    -0.270 OA
ATOM      6  H   UNL A   1      36.398  21.841  27.185  1.00  0.00     0.163 HD
BRANCH   4   7
ATOM      7  C   UNL A   1      33.447  22.971  26.084  1.00  0.00     0.067 C 
ATOM      8  C   UNL A   1      30.493  26.693  24.281  1.00  0.00    -0.026 A 
ATOM      9  C   UNL A   1      30.542  25.283  24.144  1.00  0.00     0.052 A 
ATOM     10  C   UNL A   1      31.435  27.282  25.141  1.00  0.00     0.045 A 
ATOM     11  C   UNL A   1      31.490  24.505  24.811  1.00  0.00     0.128 A 
ATOM     12  C   UNL A   1      32.395  26.491  25.799  1.00  0.00     0.032 A 
ATOM     13  Cl  UNL A   1      31.506  28.962  25.522  1.00  0.00    -0.084 Cl
ATOM     14  C   UNL A   1      32.422  25.106  25.642  1.00  0.00     0.019 A 
ATOM     15  O   UNL A   1      31.405  23.154  24.642  1.00  0.00    -0.475 OA
ATOM     16  C   UNL A   1      33.378  24.284  26.365  1.00  0.00     0.025 C 
ATOM     17  C   UNL A   1      32.569  22.364  25.021  1.00  0.00     0.314 C 
BRANCH   8  18
ATOM     18  C   UNL A   1      29.360  27.349  23.511  1.00  0.00     0.037 C 
BRANCH  18  19
ATOM     19  C   UNL A   1      29.538  28.593  22.639  1.00  0.00     0.001 C 
ATOM     20  C   UNL A   1      28.603  29.735  23.009  1.00  0.00     0.004 C 
ENDBRANCH  18  19
ENDBRANCH   8  18
BRANCH  17  21
ATOM     21  C   UNL A   1      33.325  21.937  23.752  1.00  0.00     0.429 C 
ATOM     22  F   UNL A   1      32.499  21.622  22.730  1.00  0.00    -0.167 F 
ATOM     23  F   UNL A   1      34.170  22.889  23.298  1.00  0.00    -0.167 F 
ATOM     24  F   UNL A   1      34.079  20.837  24.011  1.00  0.00    -0.167 F 
ENDBRANCH  17  21
ENDBRANCH   4   7
ENDBRANCH   2   3
ENDBRANCH   1   2
BRANCH   1  25
ATOM     25  C   UNL A   1      37.715  20.781  25.059  1.00  0.00     0.023 C 
BRANCH  25  26
ATOM     26  C   UNL A   1      39.016  20.881  25.842  1.00  0.00     0.116 C 
BRANCH  26  27
ATOM     27  N   UNL A   1      39.823  19.668  25.809  1.00  0.00    -0.352 N 
ATOM     28  C   UNL A   1      41.176  19.549  26.025  1.00  0.00     0.251 C 
ATOM     29  H   UNL A   1      39.341  18.834  25.606  1.00  0.00     0.163 HD
ATOM     30  O   UNL A   1      41.747  18.473  25.899  1.00  0.00    -0.269 OA
BRANCH  28  31
ATOM     31  C   UNL A   1      41.937  20.768  26.357  1.00  0.00     0.039 A 
ATOM     32  C   UNL A   1      42.185  21.087  27.693  1.00  0.00     0.014 A 
ATOM     33  C   UNL A   1      42.284  21.651  25.333  1.00  0.00     0.014 A 
ATOM     34  C   UNL A   1      42.611  22.367  28.015  1.00  0.00     0.010 A 
ATOM     35  C   UNL A   1      42.796  22.908  25.658  1.00  0.00     0.010 A 
ATOM     36  C   UNL A   1      42.907  23.295  27.002  1.00  0.00    -0.014 A 
BRANCH  36  37
ATOM     37  C   UNL A   1      43.310  24.673  27.381  1.00  0.00     0.031 A 
ATOM     38  C   UNL A   1      44.695  25.177  27.082  1.00  0.00     0.074 A 
ATOM     39  C   UNL A   1      42.391  25.493  27.924  1.00  0.00     0.049 A 
ATOM     40  N   UNL A   1      45.215  26.353  27.333  1.00  0.00    -0.248 NA
ATOM     41  C   UNL A   1      45.621  24.247  26.418  1.00  0.00     0.031 C 
ATOM     42  C   UNL A   1      41.010  25.118  28.233  1.00  0.00     0.029 A 
ATOM     43  N   UNL A   1      42.465  26.814  28.278  1.00  0.00    -0.354 N 
ATOM     44  C   UNL A   1      46.528  26.294  26.885  1.00  0.00     0.074 A 
ATOM     45  C   UNL A   1      46.736  24.963  26.359  1.00  0.00     0.031 C 
ATOM     46  C   UNL A   1      40.347  26.200  28.661  1.00  0.00     0.029 A 
ATOM     47  C   UNL A   1      41.273  27.326  28.726  1.00  0.00     0.049 A 
ATOM     48  H   UNL A   1      43.291  27.345  28.215  1.00  0.00     0.167 HD
ATOM     49  C   UNL A   1      47.470  27.267  26.907  1.00  0.00     0.037 A 
ATOM     50  C   UNL A   1      40.961  28.563  29.153  1.00  0.00     0.037 A 
ATOM     51  C   UNL A   1      47.247  28.602  27.399  1.00  0.00     0.049 A 
ATOM     52  C   UNL A   1      42.032  29.613  29.192  1.00  0.00     0.074 A 
ATOM     53  C   UNL A   1      48.136  29.661  27.453  1.00  0.00     0.029 A 
ATOM     54  N   UNL A   1      46.043  29.063  27.912  1.00  0.00    -0.354 N 
ATOM     55  N   UNL A   1      43.279  29.533  28.797  1.00  0.00    -0.248 NA
ATOM     56  C   UNL A   1      41.660  30.916  29.758  1.00  0.00     0.031 C 
ATOM     57  C   UNL A   1      47.479  30.754  28.026  1.00  0.00     0.029 A 
ATOM     58  C   UNL A   1      46.171  30.387  28.298  1.00  0.00     0.049 A 
ATOM     59  H   UNL A   1      45.220  28.528  27.990  1.00  0.00     0.167 HD
ATOM     60  C   UNL A   1      43.842  30.771  29.066  1.00  0.00     0.074 A 
ATOM     61  C   UNL A   1      42.793  31.593  29.635  1.00  0.00     0.031 C 
ATOM     62  C   UNL A   1      45.117  31.184  28.871  1.00  0.00     0.037 A 
BRANCH  49  63
ATOM     63  C   UNL A   1      48.838  26.931  26.392  1.00  0.00     0.064 A 
ATOM     64  C   UNL A   1      49.812  26.354  27.217  1.00  0.00     0.173 A 
ATOM     65  C   UNL A   1      49.152  27.121  25.037  1.00  0.00     0.173 A 
ATOM     66  F   UNL A   1      49.566  26.163  28.522  1.00  0.00    -0.203 F 
ATOM     67  C   UNL A   1      51.057  25.989  26.709  1.00  0.00     0.198 A 
ATOM     68  C   UNL A   1      50.389  26.735  24.527  1.00  0.00     0.198 A 
ATOM     69  F   UNL A   1      48.251  27.665  24.204  1.00  0.00    -0.203 F 
ATOM     70  F   UNL A   1      51.984  25.464  27.521  1.00  0.00    -0.200 F 
ATOM     71  C   UNL A   1      51.341  26.172  25.363  1.00  0.00     0.200 A 
ATOM     72  F   UNL A   1      50.657  26.903  23.224  1.00  0.00    -0.200 F 
ATOM     73  F   UNL A   1      52.533  25.807  24.872  1.00  0.00    -0.200 F 
ENDBRANCH  49  63
BRANCH  50  74
ATOM     74  C   UNL A   1      39.570  28.860  29.576  1.00  0.00     0.064 A 
ATOM     75  C   UNL A   1      39.154  28.620  30.890  1.00  0.00     0.173 A 
ATOM     76  C   UNL A   1      38.648  29.436  28.690  1.00  0.00     0.173 A 
ATOM     77  F   UNL A   1      39.997  28.054  31.767  1.00  0.00    -0.203 F 
ATOM     78  C   UNL A   1      37.865  28.946  31.306  1.00  0.00     0.198 A 
ATOM     79  C   UNL A   1      37.368  29.786  29.113  1.00  0.00     0.198 A 
ATOM     80  F   UNL A   1      39.003  29.690  27.421  1.00  0.00    -0.203 F 
ATOM     81  F   UNL A   1      37.483  28.688  32.564  1.00  0.00    -0.200 F 
ATOM     82  C   UNL A   1      36.976  29.538  30.419  1.00  0.00     0.200 A 
ATOM     83  F   UNL A   1      36.520  30.374  28.258  1.00  0.00    -0.200 F 
ATOM     84  F   UNL A   1      35.743  29.871  30.825  1.00  0.00    -0.200 F 
ENDBRANCH  50  74
BRANCH  62  85
ATOM     85  C   UNL A   1      45.451  32.586  29.277  1.00  0.00     0.064 A 
ATOM     86  C   UNL A   1      45.968  32.868  30.549  1.00  0.00     0.173 A 
ATOM     87  C   UNL A   1      45.306  33.646  28.371  1.00  0.00     0.173 A 
ATOM     88  F   UNL A   1      46.110  31.887  31.452  1.00  0.00    -0.203 F 
ATOM     89  C   UNL A   1      46.316  34.168  30.905  1.00  0.00     0.198 A 
ATOM     90  C   UNL A   1      45.676  34.941  28.723  1.00  0.00     0.198 A 
ATOM     91  F   UNL A   1      44.821  33.423  27.141  1.00  0.00    -0.203 F 
ATOM     92  F   UNL A   1      46.779  34.421  32.137  1.00  0.00    -0.200 F 
ATOM     93  C   UNL A   1      46.176  35.201  29.991  1.00  0.00     0.200 A 
ATOM     94  F   UNL A   1      45.548  35.937  27.836  1.00  0.00    -0.200 F 
ATOM     95  F   UNL A   1      46.521  36.449  30.332  1.00  0.00    -0.200 F 
ENDBRANCH  62  85
ENDBRANCH  36  37
ENDBRANCH  28  31
ENDBRANCH  26  27
ENDBRANCH  25  26
ENDBRANCH   1  25
TORSDOF 14
ENDMDL
