MODEL 1
REMARK VINA RESULT:     -12.7      0.000      0.000
REMARK SMILES CC(C)(CCc1ccc(Cl)c2ccccc12)C(=O)NCCCCNC(=O)c1ccc(-c2c3nc(c(-c4c(F)c(F)c(F)c(F)c4F)c4ccc([nH]4)c(-c4c(F)c(F)c(F)c(F)c4F)c4nc(c(-c5c(F)c(F)c(F)c(F)c5F)c5ccc2[nH]5)C=C4)C=C3)cc1
REMARK SMILES IDX 21 1 20 2 19 3 17 4 18 5 2 7 1 8 3 9 4 10 5 11 6 12 7 13
REMARK SMILES IDX 16 14 8 15 11 16 15 17 9 18 12 19 14 20 10 21 13 22 22 23
REMARK SMILES IDX 23 24 24 25 25 26 26 28 27 29 28 30 89 31 29 32 88 33 30 34
REMARK SMILES IDX 31 35 32 36 82 37 33 38 87 39 81 40 83 41 34 42 86 43 80 44
REMARK SMILES IDX 79 45 35 47 67 48 47 49 66 50 48 51 51 52 65 53 84 54 49 55
REMARK SMILES IDX 50 56 64 58 85 59 52 60 36 61 37 62 45 63 38 64 39 65 43 66
REMARK SMILES IDX 46 67 40 68 41 69 44 70 42 71 68 72 69 73 77 74 70 75 71 76
REMARK SMILES IDX 75 77 78 78 72 79 73 80 76 81 74 82 53 83 54 84 62 85 55 86
REMARK SMILES IDX 56 87 60 88 63 89 57 90 58 91 61 92 59 93
REMARK H PARENT 19 6 24 27 83 46 51 57
REMARK Flexibility Score: inf
ROOT
ATOM      1  C   UNL A   1      31.492  30.345  26.120  1.00  0.00     0.023 C 
ENDROOT
BRANCH   1   2
ATOM      2  C   UNL A   1      32.909  29.771  25.975  1.00  0.00     0.116 C 
BRANCH   2   3
ATOM      3  N   UNL A   1      33.403  29.641  24.613  1.00  0.00    -0.356 N 
ATOM      4  C   UNL A   1      33.524  28.597  23.741  1.00  0.00     0.225 C 
ATOM      5  O   UNL A   1      33.975  28.892  22.628  1.00  0.00    -0.275 OA
ATOM      6  H   UNL A   1      33.722  30.494  24.239  1.00  0.00     0.163 HD
BRANCH   4   7
ATOM      7  C   UNL A   1      33.147  27.138  24.084  1.00  0.00     0.044 C 
ATOM      8  C   UNL A   1      33.489  26.218  22.889  1.00  0.00     0.021 C 
ATOM      9  C   UNL A   1      31.601  27.125  24.192  1.00  0.00     0.021 C 
BRANCH   7  10
ATOM     10  C   UNL A   1      33.799  26.550  25.374  1.00  0.00     0.021 C 
BRANCH  10  11
ATOM     11  C   UNL A   1      33.548  25.076  25.845  1.00  0.00     0.037 C 
BRANCH  11  12
ATOM     12  C   UNL A   1      34.497  23.901  25.606  1.00  0.00    -0.040 A 
ATOM     13  C   UNL A   1      35.873  24.089  25.614  1.00  0.00     0.006 A 
ATOM     14  C   UNL A   1      34.028  22.575  25.340  1.00  0.00    -0.014 A 
ATOM     15  C   UNL A   1      36.790  23.089  25.320  1.00  0.00     0.021 A 
ATOM     16  C   UNL A   1      34.965  21.522  25.072  1.00  0.00     0.001 A 
ATOM     17  C   UNL A   1      32.656  22.233  25.340  1.00  0.00     0.009 A 
ATOM     18  C   UNL A   1      36.342  21.812  25.048  1.00  0.00     0.048 A 
ATOM     19  C   UNL A   1      34.489  20.213  24.844  1.00  0.00     0.010 A 
ATOM     20  C   UNL A   1      32.217  20.924  25.117  1.00  0.00     0.001 A 
ATOM     21  Cl  UNL A   1      37.566  20.632  24.708  1.00  0.00    -0.084 Cl
ATOM     22  C   UNL A   1      33.133  19.914  24.874  1.00  0.00     0.001 A 
ENDBRANCH  11  12
ENDBRANCH  10  11
ENDBRANCH   7  10
ENDBRANCH   4   7
ENDBRANCH   2   3
ENDBRANCH   1   2
BRANCH   1  23
ATOM     23  C   UNL A   1      31.367  31.818  26.491  1.00  0.00     0.023 C 
BRANCH  23  24
ATOM     24  C   UNL A   1      32.597  32.457  27.104  1.00  0.00     0.116 C 
BRANCH  24  25
ATOM     25  N   UNL A   1      32.378  33.831  27.510  1.00  0.00    -0.352 N 
ATOM     26  C   UNL A   1      33.044  34.586  28.443  1.00  0.00     0.251 C 
ATOM     27  H   UNL A   1      31.641  34.291  27.049  1.00  0.00     0.163 HD
ATOM     28  O   UNL A   1      32.617  35.698  28.734  1.00  0.00    -0.269 OA
BRANCH  26  29
ATOM     29  C   UNL A   1      34.247  34.055  29.121  1.00  0.00     0.039 A 
ATOM     30  C   UNL A   1      34.070  33.088  30.115  1.00  0.00     0.014 A 
ATOM     31  C   UNL A   1      35.534  34.499  28.802  1.00  0.00     0.014 A 
ATOM     32  C   UNL A   1      35.184  32.534  30.746  1.00  0.00     0.010 A 
ATOM     33  C   UNL A   1      36.646  33.878  29.365  1.00  0.00     0.010 A 
ATOM     34  C   UNL A   1      36.482  32.897  30.352  1.00  0.00    -0.014 A 
BRANCH  34  35
ATOM     35  C   UNL A   1      37.663  32.238  30.963  1.00  0.00     0.031 A 
ATOM     36  C   UNL A   1      38.130  32.616  32.340  1.00  0.00     0.074 A 
ATOM     37  C   UNL A   1      38.332  31.306  30.256  1.00  0.00     0.049 A 
ATOM     38  N   UNL A   1      39.108  32.110  33.049  1.00  0.00    -0.248 NA
ATOM     39  C   UNL A   1      37.427  33.728  32.999  1.00  0.00     0.031 C 
ATOM     40  C   UNL A   1      38.021  30.910  28.881  1.00  0.00     0.029 A 
ATOM     41  N   UNL A   1      39.403  30.521  30.594  1.00  0.00    -0.354 N 
ATOM     42  C   UNL A   1      39.139  32.842  34.229  1.00  0.00     0.074 A 
ATOM     43  C   UNL A   1      38.127  33.868  34.116  1.00  0.00     0.031 C 
ATOM     44  C   UNL A   1      38.853  29.927  28.508  1.00  0.00     0.029 A 
ATOM     45  C   UNL A   1      39.777  29.646  29.603  1.00  0.00     0.049 A 
ATOM     46  H   UNL A   1      39.861  30.578  31.463  1.00  0.00     0.167 HD
ATOM     47  C   UNL A   1      39.925  32.657  35.318  1.00  0.00     0.037 A 
ATOM     48  C   UNL A   1      40.749  28.715  29.583  1.00  0.00     0.037 A 
ATOM     49  C   UNL A   1      40.923  31.625  35.428  1.00  0.00     0.049 A 
ATOM     50  C   UNL A   1      41.590  28.514  30.812  1.00  0.00     0.074 A 
ATOM     51  C   UNL A   1      41.726  31.310  36.509  1.00  0.00     0.029 A 
ATOM     52  N   UNL A   1      41.264  30.744  34.409  1.00  0.00    -0.354 N 
ATOM     53  N   UNL A   1      41.547  29.148  31.960  1.00  0.00    -0.248 NA
ATOM     54  C   UNL A   1      42.604  27.453  30.750  1.00  0.00     0.031 C 
ATOM     55  C   UNL A   1      42.592  30.278  36.128  1.00  0.00     0.029 A 
ATOM     56  C   UNL A   1      42.284  29.904  34.830  1.00  0.00     0.049 A 
ATOM     57  H   UNL A   1      40.844  30.719  33.520  1.00  0.00     0.167 HD
ATOM     58  C   UNL A   1      42.508  28.548  32.764  1.00  0.00     0.074 A 
ATOM     59  C   UNL A   1      43.099  27.484  31.979  1.00  0.00     0.031 C 
ATOM     60  C   UNL A   1      42.869  28.852  34.035  1.00  0.00     0.037 A 
BRANCH  47  61
ATOM     61  C   UNL A   1      39.736  33.595  36.478  1.00  0.00     0.064 A 
ATOM     62  C   UNL A   1      40.382  34.840  36.536  1.00  0.00     0.173 A 
ATOM     63  C   UNL A   1      38.874  33.258  37.533  1.00  0.00     0.173 A 
ATOM     64  F   UNL A   1      41.226  35.210  35.561  1.00  0.00    -0.203 F 
ATOM     65  C   UNL A   1      40.200  35.694  37.621  1.00  0.00     0.198 A 
ATOM     66  C   UNL A   1      38.667  34.130  38.599  1.00  0.00     0.198 A 
ATOM     67  F   UNL A   1      38.225  32.084  37.528  1.00  0.00    -0.203 F 
ATOM     68  F   UNL A   1      40.874  36.852  37.681  1.00  0.00    -0.200 F 
ATOM     69  C   UNL A   1      39.338  35.342  38.647  1.00  0.00     0.200 A 
ATOM     70  F   UNL A   1      37.821  33.795  39.582  1.00  0.00    -0.200 F 
ATOM     71  F   UNL A   1      39.158  36.168  39.687  1.00  0.00    -0.200 F 
ENDBRANCH  47  61
BRANCH  48  72
ATOM     72  C   UNL A   1      40.947  27.880  28.370  1.00  0.00     0.064 A 
ATOM     73  C   UNL A   1      40.297  26.645  28.227  1.00  0.00     0.173 A 
ATOM     74  C   UNL A   1      41.780  28.303  27.324  1.00  0.00     0.173 A 
ATOM     75  F   UNL A   1      39.503  26.190  29.206  1.00  0.00    -0.203 F 
ATOM     76  C   UNL A   1      40.490  25.857  27.095  1.00  0.00     0.198 A 
ATOM     77  C   UNL A   1      41.948  27.528  26.178  1.00  0.00     0.198 A 
ATOM     78  F   UNL A   1      42.418  29.480  27.407  1.00  0.00    -0.203 F 
ATOM     79  F   UNL A   1      39.894  24.659  27.006  1.00  0.00    -0.200 F 
ATOM     80  C   UNL A   1      41.310  26.301  26.068  1.00  0.00     0.200 A 
ATOM     81  F   UNL A   1      42.726  27.970  25.181  1.00  0.00    -0.200 F 
ATOM     82  F   UNL A   1      41.489  25.546  24.976  1.00  0.00    -0.200 F 
ENDBRANCH  48  72
BRANCH  60  83
ATOM     83  C   UNL A   1      43.933  27.997  34.664  1.00  0.00     0.064 A 
ATOM     84  C   UNL A   1      45.291  28.347  34.614  1.00  0.00     0.173 A 
ATOM     85  C   UNL A   1      43.587  26.811  35.331  1.00  0.00     0.173 A 
ATOM     86  F   UNL A   1      45.677  29.464  33.978  1.00  0.00    -0.203 F 
ATOM     87  C   UNL A   1      46.265  27.519  35.163  1.00  0.00     0.198 A 
ATOM     88  C   UNL A   1      44.561  26.005  35.914  1.00  0.00     0.198 A 
ATOM     89  F   UNL A   1      42.303  26.433  35.419  1.00  0.00    -0.203 F 
ATOM     90  F   UNL A   1      47.561  27.838  35.039  1.00  0.00    -0.200 F 
ATOM     91  C   UNL A   1      45.900  26.351  35.817  1.00  0.00     0.200 A 
ATOM     92  F   UNL A   1      44.204  24.886  36.559  1.00  0.00    -0.200 F 
ATOM     93  F   UNL A   1      46.839  25.554  36.343  1.00  0.00    -0.200 F 
ENDBRANCH  60  83
ENDBRANCH  34  35
ENDBRANCH  26  29
ENDBRANCH  24  25
ENDBRANCH  23  24
ENDBRANCH   1  23
TORSDOF 14
ENDMDL
MODEL 2
REMARK VINA RESULT:     -12.6      0.521      2.006
REMARK SMILES CC(C)(CCc1ccc(Cl)c2ccccc12)C(=O)NCCCCNC(=O)c1ccc(-c2c3nc(c(-c4c(F)c(F)c(F)c(F)c4F)c4ccc([nH]4)c(-c4c(F)c(F)c(F)c(F)c4F)c4nc(c(-c5c(F)c(F)c(F)c(F)c5F)c5ccc2[nH]5)C=C4)C=C3)cc1
REMARK SMILES IDX 21 1 20 2 19 3 17 4 18 5 2 7 1 8 3 9 4 10 5 11 6 12 7 13
REMARK SMILES IDX 16 14 8 15 11 16 15 17 9 18 12 19 14 20 10 21 13 22 22 23
REMARK SMILES IDX 23 24 24 25 25 26 26 28 27 29 28 30 89 31 29 32 88 33 30 34
REMARK SMILES IDX 31 35 32 36 82 37 33 38 87 39 81 40 83 41 34 42 86 43 80 44
REMARK SMILES IDX 79 45 35 47 67 48 47 49 66 50 48 51 51 52 65 53 84 54 49 55
REMARK SMILES IDX 50 56 64 58 85 59 52 60 36 61 37 62 45 63 38 64 39 65 43 66
REMARK SMILES IDX 46 67 40 68 41 69 44 70 42 71 68 72 69 73 77 74 70 75 71 76
REMARK SMILES IDX 75 77 78 78 72 79 73 80 76 81 74 82 53 83 54 84 62 85 55 86
REMARK SMILES IDX 56 87 60 88 63 89 57 90 58 91 61 92 59 93
REMARK H PARENT 19 6 24 27 83 46 51 57
REMARK Flexibility Score: inf
ROOT
ATOM      1  C   UNL A   1      31.591  30.194  25.913  1.00  0.00     0.023 C 
ENDROOT
BRANCH   1   2
ATOM      2  C   UNL A   1      33.030  29.691  25.735  1.00  0.00     0.116 C 
BRANCH   2   3
ATOM      3  N   UNL A   1      33.465  29.488  24.362  1.00  0.00    -0.356 N 
ATOM      4  C   UNL A   1      33.568  28.396  23.548  1.00  0.00     0.225 C 
ATOM      5  O   UNL A   1      33.962  28.631  22.400  1.00  0.00    -0.275 OA
ATOM      6  H   UNL A   1      33.749  30.323  23.923  1.00  0.00     0.163 HD
BRANCH   4   7
ATOM      7  C   UNL A   1      33.238  26.954  23.995  1.00  0.00     0.044 C 
ATOM      8  C   UNL A   1      33.611  25.963  22.868  1.00  0.00     0.021 C 
ATOM      9  C   UNL A   1      31.694  26.899  24.107  1.00  0.00     0.021 C 
BRANCH   7  10
ATOM     10  C   UNL A   1      33.909  26.480  25.322  1.00  0.00     0.021 C 
BRANCH  10  11
ATOM     11  C   UNL A   1      33.395  25.235  26.126  1.00  0.00     0.037 C 
BRANCH  11  12
ATOM     12  C   UNL A   1      33.570  23.778  25.699  1.00  0.00    -0.040 A 
ATOM     13  C   UNL A   1      32.465  22.971  25.462  1.00  0.00     0.006 A 
ATOM     14  C   UNL A   1      34.858  23.171  25.547  1.00  0.00    -0.014 A 
ATOM     15  C   UNL A   1      32.549  21.620  25.155  1.00  0.00     0.021 A 
ATOM     16  C   UNL A   1      34.961  21.784  25.193  1.00  0.00     0.001 A 
ATOM     17  C   UNL A   1      36.067  23.884  25.718  1.00  0.00     0.009 A 
ATOM     18  C   UNL A   1      33.787  21.025  25.024  1.00  0.00     0.048 A 
ATOM     19  C   UNL A   1      36.236  21.207  25.015  1.00  0.00     0.010 A 
ATOM     20  C   UNL A   1      37.316  23.285  25.528  1.00  0.00     0.001 A 
ATOM     21  Cl  UNL A   1      33.785  19.338  24.626  1.00  0.00    -0.084 Cl
ATOM     22  C   UNL A   1      37.401  21.949  25.173  1.00  0.00     0.001 A 
ENDBRANCH  11  12
ENDBRANCH  10  11
ENDBRANCH   7  10
ENDBRANCH   4   7
ENDBRANCH   2   3
ENDBRANCH   1   2
BRANCH   1  23
ATOM     23  C   UNL A   1      31.403  31.635  26.373  1.00  0.00     0.023 C 
BRANCH  23  24
ATOM     24  C   UNL A   1      32.613  32.294  27.005  1.00  0.00     0.116 C 
BRANCH  24  25
ATOM     25  N   UNL A   1      32.360  33.659  27.425  1.00  0.00    -0.352 N 
ATOM     26  C   UNL A   1      32.996  34.416  28.375  1.00  0.00     0.251 C 
ATOM     27  H   UNL A   1      31.620  34.109  26.958  1.00  0.00     0.163 HD
ATOM     28  O   UNL A   1      32.542  35.515  28.673  1.00  0.00    -0.269 OA
BRANCH  26  29
ATOM     29  C   UNL A   1      34.201  33.902  29.065  1.00  0.00     0.039 A 
ATOM     30  C   UNL A   1      34.028  32.934  30.058  1.00  0.00     0.014 A 
ATOM     31  C   UNL A   1      35.484  34.363  28.757  1.00  0.00     0.014 A 
ATOM     32  C   UNL A   1      35.143  32.395  30.700  1.00  0.00     0.010 A 
ATOM     33  C   UNL A   1      36.599  33.758  29.331  1.00  0.00     0.010 A 
ATOM     34  C   UNL A   1      36.439  32.775  30.317  1.00  0.00    -0.014 A 
BRANCH  34  35
ATOM     35  C   UNL A   1      37.624  32.133  30.939  1.00  0.00     0.031 A 
ATOM     36  C   UNL A   1      38.073  32.519  32.320  1.00  0.00     0.074 A 
ATOM     37  C   UNL A   1      38.311  31.210  30.239  1.00  0.00     0.049 A 
ATOM     38  N   UNL A   1      39.051  32.026  33.039  1.00  0.00    -0.248 NA
ATOM     39  C   UNL A   1      37.350  33.621  32.972  1.00  0.00     0.031 C 
ATOM     40  C   UNL A   1      38.018  30.808  28.862  1.00  0.00     0.029 A 
ATOM     41  N   UNL A   1      39.390  30.439  30.588  1.00  0.00    -0.354 N 
ATOM     42  C   UNL A   1      39.062  32.759  34.218  1.00  0.00     0.074 A 
ATOM     43  C   UNL A   1      38.037  33.772  34.094  1.00  0.00     0.031 C 
ATOM     44  C   UNL A   1      38.867  29.836  28.497  1.00  0.00     0.029 A 
ATOM     45  C   UNL A   1      39.785  29.569  29.601  1.00  0.00     0.049 A 
ATOM     46  H   UNL A   1      39.839  30.504  31.460  1.00  0.00     0.167 HD
ATOM     47  C   UNL A   1      39.840  32.586  35.314  1.00  0.00     0.037 A 
ATOM     48  C   UNL A   1      40.769  28.651  29.591  1.00  0.00     0.037 A 
ATOM     49  C   UNL A   1      40.851  31.568  35.434  1.00  0.00     0.049 A 
ATOM     50  C   UNL A   1      41.602  28.462  30.828  1.00  0.00     0.074 A 
ATOM     51  C   UNL A   1      41.649  31.265  36.523  1.00  0.00     0.029 A 
ATOM     52  N   UNL A   1      41.213  30.691  34.419  1.00  0.00    -0.354 N 
ATOM     53  N   UNL A   1      41.541  29.096  31.974  1.00  0.00    -0.248 NA
ATOM     54  C   UNL A   1      42.630  27.415  30.776  1.00  0.00     0.031 C 
ATOM     55  C   UNL A   1      42.532  30.245  36.151  1.00  0.00     0.029 A 
ATOM     56  C   UNL A   1      42.241  29.865  34.850  1.00  0.00     0.049 A 
ATOM     57  H   UNL A   1      40.801  30.660  33.526  1.00  0.00     0.167 HD
ATOM     58  C   UNL A   1      42.502  28.510  32.787  1.00  0.00     0.074 A 
ATOM     59  C   UNL A   1      43.114  27.453  32.009  1.00  0.00     0.031 C 
ATOM     60  C   UNL A   1      42.847  28.820  34.062  1.00  0.00     0.037 A 
BRANCH  47  61
ATOM     61  C   UNL A   1      39.628  33.522  36.471  1.00  0.00     0.064 A 
ATOM     62  C   UNL A   1      38.805  33.183  37.557  1.00  0.00     0.173 A 
ATOM     63  C   UNL A   1      40.281  34.764  36.511  1.00  0.00     0.173 A 
ATOM     64  F   UNL A   1      38.149  32.013  37.567  1.00  0.00    -0.203 F 
ATOM     65  C   UNL A   1      38.617  34.064  38.620  1.00  0.00     0.198 A 
ATOM     66  C   UNL A   1      40.117  35.627  37.592  1.00  0.00     0.198 A 
ATOM     67  F   UNL A   1      41.084  35.140  35.505  1.00  0.00    -0.203 F 
ATOM     68  F   UNL A   1      37.779  33.740  39.616  1.00  0.00    -0.200 F 
ATOM     69  C   UNL A   1      39.278  35.281  38.639  1.00  0.00     0.200 A 
ATOM     70  F   UNL A   1      40.769  36.798  37.617  1.00  0.00    -0.200 F 
ATOM     71  F   UNL A   1      39.100  36.125  39.665  1.00  0.00    -0.200 F 
ENDBRANCH  47  61
BRANCH  48  72
ATOM     72  C   UNL A   1      40.989  27.817  28.381  1.00  0.00     0.064 A 
ATOM     73  C   UNL A   1      41.851  28.239  27.357  1.00  0.00     0.173 A 
ATOM     74  C   UNL A   1      40.353  26.577  28.227  1.00  0.00     0.173 A 
ATOM     75  F   UNL A   1      42.470  29.425  27.451  1.00  0.00    -0.203 F 
ATOM     76  C   UNL A   1      42.050  27.462  26.218  1.00  0.00     0.198 A 
ATOM     77  C   UNL A   1      40.578  25.786  27.101  1.00  0.00     0.198 A 
ATOM     78  F   UNL A   1      39.526  26.122  29.180  1.00  0.00    -0.203 F 
ATOM     79  F   UNL A   1      42.842  27.912  25.234  1.00  0.00    -0.200 F 
ATOM     80  C   UNL A   1      41.419  26.234  26.093  1.00  0.00     0.200 A 
ATOM     81  F   UNL A   1      39.981  24.592  26.993  1.00  0.00    -0.200 F 
ATOM     82  F   UNL A   1      41.618  25.484  25.001  1.00  0.00    -0.200 F 
ENDBRANCH  48  72
BRANCH  60  83
ATOM     83  C   UNL A   1      43.917  27.981  34.701  1.00  0.00     0.064 A 
ATOM     84  C   UNL A   1      45.269  28.354  34.671  1.00  0.00     0.173 A 
ATOM     85  C   UNL A   1      43.582  26.786  35.357  1.00  0.00     0.173 A 
ATOM     86  F   UNL A   1      45.645  29.480  34.045  1.00  0.00    -0.203 F 
ATOM     87  C   UNL A   1      46.250  27.539  35.229  1.00  0.00     0.198 A 
ATOM     88  C   UNL A   1      44.561  25.994  35.950  1.00  0.00     0.198 A 
ATOM     89  F   UNL A   1      42.303  26.386  35.427  1.00  0.00    -0.203 F 
ATOM     90  F   UNL A   1      47.541  27.880  35.124  1.00  0.00    -0.200 F 
ATOM     91  C   UNL A   1      45.895  26.363  35.873  1.00  0.00     0.200 A 
ATOM     92  F   UNL A   1      44.215  24.865  36.585  1.00  0.00    -0.200 F 
ATOM     93  F   UNL A   1      46.841  25.578  36.408  1.00  0.00    -0.200 F 
ENDBRANCH  60  83
ENDBRANCH  34  35
ENDBRANCH  26  29
ENDBRANCH  24  25
ENDBRANCH  23  24
ENDBRANCH   1  23
TORSDOF 14
ENDMDL
MODEL 3
REMARK VINA RESULT:     -12.6      0.511      1.660
REMARK SMILES CC(C)(CCc1ccc(Cl)c2ccccc12)C(=O)NCCCCNC(=O)c1ccc(-c2c3nc(c(-c4c(F)c(F)c(F)c(F)c4F)c4ccc([nH]4)c(-c4c(F)c(F)c(F)c(F)c4F)c4nc(c(-c5c(F)c(F)c(F)c(F)c5F)c5ccc2[nH]5)C=C4)C=C3)cc1
REMARK SMILES IDX 21 1 20 2 19 3 17 4 18 5 2 7 1 8 3 9 4 10 5 11 6 12 7 13
REMARK SMILES IDX 16 14 8 15 11 16 15 17 9 18 12 19 14 20 10 21 13 22 22 23
REMARK SMILES IDX 23 24 24 25 25 26 26 28 27 29 28 30 89 31 29 32 88 33 30 34
REMARK SMILES IDX 31 35 32 36 82 37 33 38 87 39 81 40 83 41 34 42 86 43 80 44
REMARK SMILES IDX 79 45 35 47 67 48 47 49 66 50 48 51 51 52 65 53 84 54 49 55
REMARK SMILES IDX 50 56 64 58 85 59 52 60 36 61 37 62 45 63 38 64 39 65 43 66
REMARK SMILES IDX 46 67 40 68 41 69 44 70 42 71 68 72 69 73 77 74 70 75 71 76
REMARK SMILES IDX 75 77 78 78 72 79 73 80 76 81 74 82 53 83 54 84 62 85 55 86
REMARK SMILES IDX 56 87 60 88 63 89 57 90 58 91 61 92 59 93
REMARK H PARENT 19 6 24 27 83 46 51 57
REMARK Flexibility Score: inf
ROOT
ATOM      1  C   UNL A   1      31.526  30.387  26.063  1.00  0.00     0.023 C 
ENDROOT
BRANCH   1   2
ATOM      2  C   UNL A   1      32.954  29.848  25.898  1.00  0.00     0.116 C 
BRANCH   2   3
ATOM      3  N   UNL A   1      33.411  29.671  24.528  1.00  0.00    -0.356 N 
ATOM      4  C   UNL A   1      33.509  28.597  23.690  1.00  0.00     0.225 C 
ATOM      5  O   UNL A   1      33.927  28.854  22.555  1.00  0.00    -0.275 OA
ATOM      6  H   UNL A   1      33.717  30.511  24.116  1.00  0.00     0.163 HD
BRANCH   4   7
ATOM      7  C   UNL A   1      33.145  27.151  24.094  1.00  0.00     0.044 C 
ATOM      8  C   UNL A   1      33.401  26.199  22.903  1.00  0.00     0.021 C 
ATOM      9  C   UNL A   1      31.611  27.154  24.306  1.00  0.00     0.021 C 
BRANCH   7  10
ATOM     10  C   UNL A   1      33.879  26.590  25.352  1.00  0.00     0.021 C 
BRANCH  10  11
ATOM     11  C   UNL A   1      33.363  25.331  26.134  1.00  0.00     0.037 C 
BRANCH  11  12
ATOM     12  C   UNL A   1      33.536  23.881  25.680  1.00  0.00    -0.040 A 
ATOM     13  C   UNL A   1      32.433  23.055  25.510  1.00  0.00     0.006 A 
ATOM     14  C   UNL A   1      34.822  23.301  25.433  1.00  0.00    -0.014 A 
ATOM     15  C   UNL A   1      32.521  21.709  25.184  1.00  0.00     0.021 A 
ATOM     16  C   UNL A   1      34.926  21.921  25.058  1.00  0.00     0.001 A 
ATOM     17  C   UNL A   1      36.026  24.036  25.528  1.00  0.00     0.009 A 
ATOM     18  C   UNL A   1      33.758  21.140  24.961  1.00  0.00     0.048 A 
ATOM     19  C   UNL A   1      36.197  21.370  24.786  1.00  0.00     0.010 A 
ATOM     20  C   UNL A   1      37.270  23.463  25.246  1.00  0.00     0.001 A 
ATOM     21  Cl  UNL A   1      33.760  19.457  24.545  1.00  0.00    -0.084 Cl
ATOM     22  C   UNL A   1      37.355  22.133  24.871  1.00  0.00     0.001 A 
ENDBRANCH  11  12
ENDBRANCH  10  11
ENDBRANCH   7  10
ENDBRANCH   4   7
ENDBRANCH   2   3
ENDBRANCH   1   2
BRANCH   1  23
ATOM     23  C   UNL A   1      31.370  31.836  26.509  1.00  0.00     0.023 C 
BRANCH  23  24
ATOM     24  C   UNL A   1      32.607  32.488  27.094  1.00  0.00     0.116 C 
BRANCH  24  25
ATOM     25  N   UNL A   1      32.378  33.855  27.520  1.00  0.00    -0.352 N 
ATOM     26  C   UNL A   1      33.039  34.602  28.462  1.00  0.00     0.251 C 
ATOM     27  H   UNL A   1      31.636  34.315  27.067  1.00  0.00     0.163 HD
ATOM     28  O   UNL A   1      32.604  35.707  28.769  1.00  0.00    -0.269 OA
BRANCH  26  29
ATOM     29  C   UNL A   1      34.248  34.071  29.130  1.00  0.00     0.039 A 
ATOM     30  C   UNL A   1      34.076  33.138  30.157  1.00  0.00     0.014 A 
ATOM     31  C   UNL A   1      35.534  34.483  28.771  1.00  0.00     0.014 A 
ATOM     32  C   UNL A   1      35.194  32.585  30.782  1.00  0.00     0.010 A 
ATOM     33  C   UNL A   1      36.648  33.861  29.330  1.00  0.00     0.010 A 
ATOM     34  C   UNL A   1      36.489  32.913  30.349  1.00  0.00    -0.014 A 
BRANCH  34  35
ATOM     35  C   UNL A   1      37.672  32.253  30.955  1.00  0.00     0.031 A 
ATOM     36  C   UNL A   1      38.146  32.632  32.330  1.00  0.00     0.074 A 
ATOM     37  C   UNL A   1      38.336  31.320  30.246  1.00  0.00     0.049 A 
ATOM     38  N   UNL A   1      39.126  32.124  33.035  1.00  0.00    -0.248 NA
ATOM     39  C   UNL A   1      37.448  33.744  32.992  1.00  0.00     0.031 C 
ATOM     40  C   UNL A   1      38.018  30.922  28.873  1.00  0.00     0.029 A 
ATOM     41  N   UNL A   1      39.408  30.533  30.580  1.00  0.00    -0.354 N 
ATOM     42  C   UNL A   1      39.164  32.857  34.215  1.00  0.00     0.074 A 
ATOM     43  C   UNL A   1      38.153  33.885  34.105  1.00  0.00     0.031 C 
ATOM     44  C   UNL A   1      38.847  29.938  28.497  1.00  0.00     0.029 A 
ATOM     45  C   UNL A   1      39.776  29.657  29.588  1.00  0.00     0.049 A 
ATOM     46  H   UNL A   1      39.870  30.590  31.446  1.00  0.00     0.167 HD
ATOM     47  C   UNL A   1      39.954  32.672  35.300  1.00  0.00     0.037 A 
ATOM     48  C   UNL A   1      40.746  28.725  29.565  1.00  0.00     0.037 A 
ATOM     49  C   UNL A   1      40.952  31.638  35.406  1.00  0.00     0.049 A 
ATOM     50  C   UNL A   1      41.593  28.523  30.790  1.00  0.00     0.074 A 
ATOM     51  C   UNL A   1      41.759  31.323  36.484  1.00  0.00     0.029 A 
ATOM     52  N   UNL A   1      41.286  30.756  34.386  1.00  0.00    -0.354 N 
ATOM     53  N   UNL A   1      41.556  29.157  31.937  1.00  0.00    -0.248 NA
ATOM     54  C   UNL A   1      42.604  27.460  30.724  1.00  0.00     0.031 C 
ATOM     55  C   UNL A   1      42.621  30.290  36.099  1.00  0.00     0.029 A 
ATOM     56  C   UNL A   1      42.307  29.915  34.803  1.00  0.00     0.049 A 
ATOM     57  H   UNL A   1      40.862  30.731  33.499  1.00  0.00     0.167 HD
ATOM     58  C   UNL A   1      42.519  28.557  32.737  1.00  0.00     0.074 A 
ATOM     59  C   UNL A   1      43.105  27.491  31.950  1.00  0.00     0.031 C 
ATOM     60  C   UNL A   1      42.887  28.861  34.007  1.00  0.00     0.037 A 
BRANCH  47  61
ATOM     61  C   UNL A   1      39.772  33.611  36.460  1.00  0.00     0.064 A 
ATOM     62  C   UNL A   1      40.429  34.850  36.519  1.00  0.00     0.173 A 
ATOM     63  C   UNL A   1      38.907  33.281  37.514  1.00  0.00     0.173 A 
ATOM     64  F   UNL A   1      41.277  35.214  35.545  1.00  0.00    -0.203 F 
ATOM     65  C   UNL A   1      40.253  35.706  37.604  1.00  0.00     0.198 A 
ATOM     66  C   UNL A   1      38.707  34.154  38.580  1.00  0.00     0.198 A 
ATOM     67  F   UNL A   1      38.248  32.112  37.509  1.00  0.00    -0.203 F 
ATOM     68  F   UNL A   1      40.937  36.858  37.664  1.00  0.00    -0.200 F 
ATOM     69  C   UNL A   1      39.387  35.361  38.629  1.00  0.00     0.200 A 
ATOM     70  F   UNL A   1      37.857  33.826  39.563  1.00  0.00    -0.200 F 
ATOM     71  F   UNL A   1      39.213  36.188  39.669  1.00  0.00    -0.200 F 
ENDBRANCH  47  61
BRANCH  48  72
ATOM     72  C   UNL A   1      40.937  27.887  28.351  1.00  0.00     0.064 A 
ATOM     73  C   UNL A   1      40.320  26.634  28.231  1.00  0.00     0.173 A 
ATOM     74  C   UNL A   1      41.730  28.328  27.282  1.00  0.00     0.173 A 
ATOM     75  F   UNL A   1      39.565  26.161  29.234  1.00  0.00    -0.203 F 
ATOM     76  C   UNL A   1      40.507  25.844  27.099  1.00  0.00     0.198 A 
ATOM     77  C   UNL A   1      41.891  27.552  26.136  1.00  0.00     0.198 A 
ATOM     78  F   UNL A   1      42.335  29.524  27.342  1.00  0.00    -0.203 F 
ATOM     79  F   UNL A   1      39.944  24.630  27.031  1.00  0.00    -0.200 F 
ATOM     80  C   UNL A   1      41.287  26.306  26.049  1.00  0.00     0.200 A 
ATOM     81  F   UNL A   1      42.630  28.010  25.116  1.00  0.00    -0.200 F 
ATOM     82  F   UNL A   1      41.460  25.550  24.957  1.00  0.00    -0.200 F 
ENDBRANCH  48  72
BRANCH  60  83
ATOM     83  C   UNL A   1      43.952  28.006  34.631  1.00  0.00     0.064 A 
ATOM     84  C   UNL A   1      43.649  26.797  35.277  1.00  0.00     0.173 A 
ATOM     85  C   UNL A   1      45.298  28.400  34.580  1.00  0.00     0.173 A 
ATOM     86  F   UNL A   1      42.377  26.380  35.366  1.00  0.00    -0.203 F 
ATOM     87  C   UNL A   1      44.646  26.042  35.889  1.00  0.00     0.198 A 
ATOM     88  C   UNL A   1      46.298  27.623  35.158  1.00  0.00     0.198 A 
ATOM     89  F   UNL A   1      45.647  29.541  33.965  1.00  0.00    -0.203 F 
ATOM     90  F   UNL A   1      44.323  24.930  36.562  1.00  0.00    -0.200 F 
ATOM     91  C   UNL A   1      45.970  26.452  35.825  1.00  0.00     0.200 A 
ATOM     92  F   UNL A   1      47.578  28.013  35.081  1.00  0.00    -0.200 F 
ATOM     93  F   UNL A   1      46.928  25.725  36.416  1.00  0.00    -0.200 F 
ENDBRANCH  60  83
ENDBRANCH  34  35
ENDBRANCH  26  29
ENDBRANCH  24  25
ENDBRANCH  23  24
ENDBRANCH   1  23
TORSDOF 14
ENDMDL
