MODEL 1
REMARK VINA RESULT:     -12.2      0.000      0.000
REMARK SMILES C[C@H](CSc1ccc(C(=O)N(C)C)cn1)C(=O)NCCCCNC(=O)c1ccc(-c2c3nc(c(-c4c(F)c(F)c(F)c(F)c4F)c4ccc([nH]4)c(-c4c(F)c(F)c(F)c(F)c4F)c4nc(c(-c5c(F)c(F)c(F)c(F)c5F)c5ccc2[nH]5)C=C4)C=C3)cc1
REMARK SMILES IDX 19 1 18 2 16 3 17 4 2 6 1 7 3 8 4 9 5 10 6 11 15 12 7 13
REMARK SMILES IDX 14 14 8 15 9 16 10 17 11 18 12 19 13 20 20 21 21 22 22 23
REMARK SMILES IDX 23 24 24 25 25 27 26 28 27 29 88 30 28 31 87 32 29 33 30 34
REMARK SMILES IDX 31 35 81 36 32 37 86 38 80 39 82 40 33 41 85 42 79 43 78 44
REMARK SMILES IDX 34 46 66 47 46 48 65 49 47 50 50 51 64 52 83 53 48 54 49 55
REMARK SMILES IDX 63 57 84 58 51 59 35 60 36 61 44 62 37 63 38 64 42 65 45 66
REMARK SMILES IDX 39 67 40 68 43 69 41 70 67 71 68 72 76 73 69 74 70 75 74 76
REMARK SMILES IDX 77 77 71 78 72 79 75 80 73 81 52 82 53 83 61 84 54 85 55 86
REMARK SMILES IDX 59 87 62 88 56 89 57 90 60 91 58 92
REMARK H PARENT 18 5 23 26 82 45 50 56
REMARK Flexibility Score: inf
ROOT
ATOM      1  C   UNL A   1      33.269  30.024  26.531  1.00  0.00     0.116 C 
ENDROOT
BRANCH   1   2
ATOM      2  N   UNL A   1      33.540  29.412  25.248  1.00  0.00    -0.356 N 
ATOM      3  C   UNL A   1      33.677  28.100  24.919  1.00  0.00     0.223 C 
ATOM      4  O   UNL A   1      34.047  27.841  23.771  1.00  0.00    -0.275 OA
ATOM      5  H   UNL A   1      33.640  30.043  24.499  1.00  0.00     0.163 HD
BRANCH   3   6
ATOM      6  C   UNL A   1      33.277  26.975  25.876  1.00  0.00     0.085 C 
ATOM      7  C   UNL A   1      34.177  25.774  25.592  1.00  0.00     0.019 C 
BRANCH   6   8
ATOM      8  C   UNL A   1      31.753  26.754  25.991  1.00  0.00     0.089 C 
BRANCH   8   9
ATOM      9  S   UNL A   1      30.873  25.936  24.597  1.00  0.00    -0.106 SA
BRANCH   9  10
ATOM     10  C   UNL A   1      30.085  27.315  23.783  1.00  0.00     0.096 A 
ATOM     11  C   UNL A   1      28.696  27.337  23.689  1.00  0.00     0.036 A 
ATOM     12  N   UNL A   1      30.851  28.296  23.267  1.00  0.00    -0.249 NA
ATOM     13  C   UNL A   1      28.067  28.361  22.971  1.00  0.00     0.018 A 
ATOM     14  C   UNL A   1      30.209  29.288  22.584  1.00  0.00     0.126 A 
ATOM     15  C   UNL A   1      28.834  29.344  22.353  1.00  0.00     0.058 A 
BRANCH  15  16
ATOM     16  C   UNL A   1      28.312  30.484  21.550  1.00  0.00     0.254 C 
ATOM     17  O   UNL A   1      27.887  30.206  20.426  1.00  0.00    -0.269 OA
ATOM     18  N   UNL A   1      28.281  31.803  22.014  1.00  0.00    -0.345 N 
ATOM     19  C   UNL A   1      28.483  32.278  23.374  1.00  0.00     0.146 C 
ATOM     20  C   UNL A   1      27.889  32.817  21.043  1.00  0.00     0.146 C 
ENDBRANCH  15  16
ENDBRANCH   9  10
ENDBRANCH   8   9
ENDBRANCH   6   8
ENDBRANCH   3   6
ENDBRANCH   1   2
BRANCH   1  21
ATOM     21  C   UNL A   1      31.804  30.446  26.637  1.00  0.00     0.023 C 
BRANCH  21  22
ATOM     22  C   UNL A   1      31.615  31.963  26.680  1.00  0.00     0.023 C 
BRANCH  22  23
ATOM     23  C   UNL A   1      32.766  32.720  27.329  1.00  0.00     0.116 C 
BRANCH  23  24
ATOM     24  N   UNL A   1      32.440  34.107  27.617  1.00  0.00    -0.352 N 
ATOM     25  C   UNL A   1      32.990  34.934  28.567  1.00  0.00     0.251 C 
ATOM     26  H   UNL A   1      31.733  34.506  27.060  1.00  0.00     0.163 HD
ATOM     27  O   UNL A   1      32.497  36.031  28.806  1.00  0.00    -0.269 OA
BRANCH  25  28
ATOM     28  C   UNL A   1      34.162  34.467  29.332  1.00  0.00     0.039 A 
ATOM     29  C   UNL A   1      33.959  33.866  30.576  1.00  0.00     0.014 A 
ATOM     30  C   UNL A   1      35.450  34.580  28.802  1.00  0.00     0.014 A 
ATOM     31  C   UNL A   1      35.044  33.315  31.259  1.00  0.00     0.010 A 
ATOM     32  C   UNL A   1      36.515  33.957  29.443  1.00  0.00     0.010 A 
ATOM     33  C   UNL A   1      36.323  33.321  30.679  1.00  0.00    -0.014 A 
BRANCH  33  34
ATOM     34  C   UNL A   1      37.472  32.663  31.350  1.00  0.00     0.031 A 
ATOM     35  C   UNL A   1      38.187  31.525  30.679  1.00  0.00     0.074 A 
ATOM     36  C   UNL A   1      37.830  33.050  32.590  1.00  0.00     0.049 A 
ATOM     37  N   UNL A   1      39.167  30.782  31.127  1.00  0.00    -0.248 NA
ATOM     38  C   UNL A   1      37.720  31.152  29.334  1.00  0.00     0.031 C 
ATOM     39  C   UNL A   1      37.181  34.107  33.367  1.00  0.00     0.029 A 
ATOM     40  N   UNL A   1      38.823  32.591  33.420  1.00  0.00    -0.354 N 
ATOM     41  C   UNL A   1      39.425  29.854  30.127  1.00  0.00     0.074 A 
ATOM     42  C   UNL A   1      38.457  30.084  29.076  1.00  0.00     0.031 C 
ATOM     43  C   UNL A   1      37.805  34.231  34.548  1.00  0.00     0.029 A 
ATOM     44  C   UNL A   1      38.871  33.236  34.631  1.00  0.00     0.049 A 
ATOM     45  H   UNL A   1      39.441  31.867  33.170  1.00  0.00     0.167 HD
ATOM     46  C   UNL A   1      40.398  28.914  30.077  1.00  0.00     0.037 A 
ATOM     47  C   UNL A   1      39.678  33.041  35.692  1.00  0.00     0.037 A 
ATOM     48  C   UNL A   1      41.369  28.700  31.119  1.00  0.00     0.049 A 
ATOM     49  C   UNL A   1      40.741  31.978  35.618  1.00  0.00     0.074 A 
ATOM     50  C   UNL A   1      42.425  27.807  31.143  1.00  0.00     0.029 A 
ATOM     51  N   UNL A   1      41.396  29.384  32.325  1.00  0.00    -0.354 N 
ATOM     52  N   UNL A   1      41.021  31.154  34.639  1.00  0.00    -0.248 NA
ATOM     53  C   UNL A   1      41.607  31.826  36.795  1.00  0.00     0.031 C 
ATOM     54  C   UNL A   1      43.059  27.914  32.385  1.00  0.00     0.029 A 
ATOM     55  C   UNL A   1      42.436  28.916  33.111  1.00  0.00     0.049 A 
ATOM     56  H   UNL A   1      40.768  30.097  32.585  1.00  0.00     0.167 HD
ATOM     57  C   UNL A   1      42.109  30.407  35.067  1.00  0.00     0.074 A 
ATOM     58  C   UNL A   1      42.450  30.888  36.390  1.00  0.00     0.031 C 
ATOM     59  C   UNL A   1      42.768  29.410  34.424  1.00  0.00     0.037 A 
BRANCH  46  60
ATOM     60  C   UNL A   1      40.463  28.048  28.852  1.00  0.00     0.064 A 
ATOM     61  C   UNL A   1      39.763  26.833  28.770  1.00  0.00     0.173 A 
ATOM     62  C   UNL A   1      41.210  28.449  27.733  1.00  0.00     0.173 A 
ATOM     63  F   UNL A   1      39.044  26.396  29.814  1.00  0.00    -0.203 F 
ATOM     64  C   UNL A   1      39.837  26.038  27.630  1.00  0.00     0.198 A 
ATOM     65  C   UNL A   1      41.252  27.667  26.581  1.00  0.00     0.198 A 
ATOM     66  F   UNL A   1      41.894  29.602  27.753  1.00  0.00    -0.203 F 
ATOM     67  F   UNL A   1      39.207  24.855  27.598  1.00  0.00    -0.200 F 
ATOM     68  C   UNL A   1      40.574  26.459  26.534  1.00  0.00     0.200 A 
ATOM     69  F   UNL A   1      41.954  28.082  25.517  1.00  0.00    -0.200 F 
ATOM     70  F   UNL A   1      40.638  25.695  25.434  1.00  0.00    -0.200 F 
ENDBRANCH  46  60
BRANCH  47  71
ATOM     71  C   UNL A   1      39.520  33.882  36.907  1.00  0.00     0.064 A 
ATOM     72  C   UNL A   1      38.778  33.430  38.007  1.00  0.00     0.173 A 
ATOM     73  C   UNL A   1      40.102  35.155  36.994  1.00  0.00     0.173 A 
ATOM     74  F   UNL A   1      38.186  32.227  37.967  1.00  0.00    -0.203 F 
ATOM     75  C   UNL A   1      38.604  34.227  39.137  1.00  0.00     0.198 A 
ATOM     76  C   UNL A   1      39.954  35.940  38.137  1.00  0.00     0.198 A 
ATOM     77  F   UNL A   1      40.826  35.634  35.972  1.00  0.00    -0.203 F 
ATOM     78  F   UNL A   1      37.847  33.791  40.153  1.00  0.00    -0.200 F 
ATOM     79  C   UNL A   1      39.197  35.479  39.203  1.00  0.00     0.200 A 
ATOM     80  F   UNL A   1      40.542  37.142  38.202  1.00  0.00    -0.200 F 
ATOM     81  F   UNL A   1      39.033  36.245  40.290  1.00  0.00    -0.200 F 
ENDBRANCH  47  71
BRANCH  59  82
ATOM     82  C   UNL A   1      43.947  28.799  35.124  1.00  0.00     0.064 A 
ATOM     83  C   UNL A   1      43.814  27.674  35.952  1.00  0.00     0.173 A 
ATOM     84  C   UNL A   1      45.234  29.322  34.931  1.00  0.00     0.173 A 
ATOM     85  F   UNL A   1      42.603  27.144  36.182  1.00  0.00    -0.203 F 
ATOM     86  C   UNL A   1      44.923  27.114  36.582  1.00  0.00     0.198 A 
ATOM     87  C   UNL A   1      46.345  28.739  35.534  1.00  0.00     0.198 A 
ATOM     88  F   UNL A   1      45.419  30.392  34.142  1.00  0.00    -0.203 F 
ATOM     89  F   UNL A   1      44.765  26.071  37.409  1.00  0.00    -0.200 F 
ATOM     90  C   UNL A   1      46.187  27.641  36.366  1.00  0.00     0.200 A 
ATOM     91  F   UNL A   1      47.568  29.239  35.310  1.00  0.00    -0.200 F 
ATOM     92  F   UNL A   1      47.254  27.095  36.965  1.00  0.00    -0.200 F 
ENDBRANCH  59  82
ENDBRANCH  33  34
ENDBRANCH  25  28
ENDBRANCH  23  24
ENDBRANCH  22  23
ENDBRANCH  21  22
ENDBRANCH   1  21
TORSDOF 15
ENDMDL
MODEL 2
REMARK VINA RESULT:     -11.7      2.071      3.713
REMARK SMILES C[C@H](CSc1ccc(C(=O)N(C)C)cn1)C(=O)NCCCCNC(=O)c1ccc(-c2c3nc(c(-c4c(F)c(F)c(F)c(F)c4F)c4ccc([nH]4)c(-c4c(F)c(F)c(F)c(F)c4F)c4nc(c(-c5c(F)c(F)c(F)c(F)c5F)c5ccc2[nH]5)C=C4)C=C3)cc1
REMARK SMILES IDX 19 1 18 2 16 3 17 4 2 6 1 7 3 8 4 9 5 10 6 11 15 12 7 13
REMARK SMILES IDX 14 14 8 15 9 16 10 17 11 18 12 19 13 20 20 21 21 22 22 23
REMARK SMILES IDX 23 24 24 25 25 27 26 28 27 29 88 30 28 31 87 32 29 33 30 34
REMARK SMILES IDX 31 35 81 36 32 37 86 38 80 39 82 40 33 41 85 42 79 43 78 44
REMARK SMILES IDX 34 46 66 47 46 48 65 49 47 50 50 51 64 52 83 53 48 54 49 55
REMARK SMILES IDX 63 57 84 58 51 59 35 60 36 61 44 62 37 63 38 64 42 65 45 66
REMARK SMILES IDX 39 67 40 68 43 69 41 70 67 71 68 72 76 73 69 74 70 75 74 76
REMARK SMILES IDX 77 77 71 78 72 79 75 80 73 81 52 82 53 83 61 84 54 85 55 86
REMARK SMILES IDX 59 87 62 88 56 89 57 90 60 91 58 92
REMARK H PARENT 18 5 23 26 82 45 50 56
REMARK Flexibility Score: inf
ROOT
ATOM      1  C   UNL A   1      33.236  30.097  26.547  1.00  0.00     0.116 C 
ENDROOT
BRANCH   1   2
ATOM      2  N   UNL A   1      33.600  29.676  25.212  1.00  0.00    -0.356 N 
ATOM      3  C   UNL A   1      33.530  28.447  24.635  1.00  0.00     0.223 C 
ATOM      4  O   UNL A   1      34.036  28.318  23.517  1.00  0.00    -0.275 OA
ATOM      5  H   UNL A   1      33.952  30.390  24.632  1.00  0.00     0.163 HD
BRANCH   3   6
ATOM      6  C   UNL A   1      32.756  27.292  25.272  1.00  0.00     0.085 C 
ATOM      7  C   UNL A   1      33.725  26.128  25.471  1.00  0.00     0.019 C 
BRANCH   6   8
ATOM      8  C   UNL A   1      31.382  27.016  24.622  1.00  0.00     0.089 C 
BRANCH   8   9
ATOM      9  S   UNL A   1      31.337  26.360  22.903  1.00  0.00    -0.106 SA
BRANCH   9  10
ATOM     10  C   UNL A   1      31.846  24.665  23.128  1.00  0.00     0.096 A 
ATOM     11  C   UNL A   1      32.902  24.172  22.366  1.00  0.00     0.036 A 
ATOM     12  N   UNL A   1      31.190  23.897  24.021  1.00  0.00    -0.249 NA
ATOM     13  C   UNL A   1      33.252  22.821  22.459  1.00  0.00     0.018 A 
ATOM     14  C   UNL A   1      31.562  22.586  24.099  1.00  0.00     0.126 A 
ATOM     15  C   UNL A   1      32.539  21.979  23.309  1.00  0.00     0.058 A 
BRANCH  15  16
ATOM     16  C   UNL A   1      32.784  20.524  23.507  1.00  0.00     0.254 C 
ATOM     17  O   UNL A   1      32.151  19.762  22.771  1.00  0.00    -0.269 OA
ATOM     18  N   UNL A   1      33.680  20.015  24.454  1.00  0.00    -0.345 N 
ATOM     19  C   UNL A   1      34.689  20.739  25.210  1.00  0.00     0.146 C 
ATOM     20  C   UNL A   1      33.679  18.568  24.626  1.00  0.00     0.146 C 
ENDBRANCH  15  16
ENDBRANCH   9  10
ENDBRANCH   8   9
ENDBRANCH   6   8
ENDBRANCH   3   6
ENDBRANCH   1   2
BRANCH   1  21
ATOM     21  C   UNL A   1      31.779  30.557  26.597  1.00  0.00     0.023 C 
BRANCH  21  22
ATOM     22  C   UNL A   1      31.628  32.078  26.635  1.00  0.00     0.023 C 
BRANCH  22  23
ATOM     23  C   UNL A   1      32.765  32.804  27.341  1.00  0.00     0.116 C 
BRANCH  23  24
ATOM     24  N   UNL A   1      32.456  34.196  27.626  1.00  0.00    -0.352 N 
ATOM     25  C   UNL A   1      33.007  35.013  28.585  1.00  0.00     0.251 C 
ATOM     26  H   UNL A   1      31.763  34.606  27.061  1.00  0.00     0.163 HD
ATOM     27  O   UNL A   1      32.528  36.117  28.818  1.00  0.00    -0.269 OA
BRANCH  25  28
ATOM     28  C   UNL A   1      34.162  34.527  29.364  1.00  0.00     0.039 A 
ATOM     29  C   UNL A   1      33.936  33.952  30.616  1.00  0.00     0.014 A 
ATOM     30  C   UNL A   1      35.456  34.598  28.840  1.00  0.00     0.014 A 
ATOM     31  C   UNL A   1      35.002  33.383  31.313  1.00  0.00     0.010 A 
ATOM     32  C   UNL A   1      36.500  33.958  29.497  1.00  0.00     0.010 A 
ATOM     33  C   UNL A   1      36.284  33.345  30.741  1.00  0.00    -0.014 A 
BRANCH  33  34
ATOM     34  C   UNL A   1      37.411  32.668  31.429  1.00  0.00     0.031 A 
ATOM     35  C   UNL A   1      38.106  31.508  30.776  1.00  0.00     0.074 A 
ATOM     36  C   UNL A   1      37.767  33.059  32.669  1.00  0.00     0.049 A 
ATOM     37  N   UNL A   1      39.065  30.747  31.240  1.00  0.00    -0.248 NA
ATOM     38  C   UNL A   1      37.643  31.133  29.430  1.00  0.00     0.031 C 
ATOM     39  C   UNL A   1      37.135  34.138  33.429  1.00  0.00     0.029 A 
ATOM     40  N   UNL A   1      38.741  32.585  33.512  1.00  0.00    -0.354 N 
ATOM     41  C   UNL A   1      39.311  29.804  30.251  1.00  0.00     0.074 A 
ATOM     42  C   UNL A   1      38.358  30.046  29.189  1.00  0.00     0.031 C 
ATOM     43  C   UNL A   1      37.752  34.259  34.615  1.00  0.00     0.029 A 
ATOM     44  C   UNL A   1      38.793  33.242  34.717  1.00  0.00     0.049 A 
ATOM     45  H   UNL A   1      39.345  31.845  33.275  1.00  0.00     0.167 HD
ATOM     46  C   UNL A   1      40.263  28.841  30.219  1.00  0.00     0.037 A 
ATOM     47  C   UNL A   1      39.585  33.038  35.788  1.00  0.00     0.037 A 
ATOM     48  C   UNL A   1      41.218  28.615  31.273  1.00  0.00     0.049 A 
ATOM     49  C   UNL A   1      40.624  31.951  35.734  1.00  0.00     0.074 A 
ATOM     50  C   UNL A   1      42.253  27.699  31.315  1.00  0.00     0.029 A 
ATOM     51  N   UNL A   1      41.250  29.310  32.472  1.00  0.00    -0.354 N 
ATOM     52  N   UNL A   1      40.894  31.110  34.765  1.00  0.00    -0.248 NA
ATOM     53  C   UNL A   1      41.476  31.790  36.921  1.00  0.00     0.031 C 
ATOM     54  C   UNL A   1      42.878  27.803  32.562  1.00  0.00     0.029 A 
ATOM     55  C   UNL A   1      42.272  28.826  33.273  1.00  0.00     0.049 A 
ATOM     56  H   UNL A   1      40.637  30.040  32.719  1.00  0.00     0.167 HD
ATOM     57  C   UNL A   1      41.961  30.343  35.211  1.00  0.00     0.074 A 
ATOM     58  C   UNL A   1      42.301  30.829  36.532  1.00  0.00     0.031 C 
ATOM     59  C   UNL A   1      42.603  29.325  34.584  1.00  0.00     0.037 A 
BRANCH  46  60
ATOM     60  C   UNL A   1      40.319  27.962  29.003  1.00  0.00     0.064 A 
ATOM     61  C   UNL A   1      39.619  26.746  28.939  1.00  0.00     0.173 A 
ATOM     62  C   UNL A   1      41.057  28.351  27.875  1.00  0.00     0.173 A 
ATOM     63  F   UNL A   1      38.907  26.321  29.994  1.00  0.00    -0.203 F 
ATOM     64  C   UNL A   1      39.684  25.939  27.807  1.00  0.00     0.198 A 
ATOM     65  C   UNL A   1      41.091  27.557  26.731  1.00  0.00     0.198 A 
ATOM     66  F   UNL A   1      41.741  29.505  27.878  1.00  0.00    -0.203 F 
ATOM     67  F   UNL A   1      39.054  24.756  27.793  1.00  0.00    -0.200 F 
ATOM     68  C   UNL A   1      40.414  26.348  26.702  1.00  0.00     0.200 A 
ATOM     69  F   UNL A   1      41.786  27.960  25.658  1.00  0.00    -0.200 F 
ATOM     70  F   UNL A   1      40.470  25.573  25.610  1.00  0.00    -0.200 F 
ENDBRANCH  46  60
BRANCH  47  71
ATOM     71  C   UNL A   1      39.436  33.894  36.994  1.00  0.00     0.064 A 
ATOM     72  C   UNL A   1      38.698  33.458  38.103  1.00  0.00     0.173 A 
ATOM     73  C   UNL A   1      40.022  35.167  37.062  1.00  0.00     0.173 A 
ATOM     74  F   UNL A   1      38.102  32.256  38.079  1.00  0.00    -0.203 F 
ATOM     75  C   UNL A   1      38.531  34.269  39.223  1.00  0.00     0.198 A 
ATOM     76  C   UNL A   1      39.882  35.966  38.196  1.00  0.00     0.198 A 
ATOM     77  F   UNL A   1      40.743  35.631  36.031  1.00  0.00    -0.203 F 
ATOM     78  F   UNL A   1      37.778  33.847  40.248  1.00  0.00    -0.200 F 
ATOM     79  C   UNL A   1      39.128  35.520  39.271  1.00  0.00     0.200 A 
ATOM     80  F   UNL A   1      40.473  37.166  38.244  1.00  0.00    -0.200 F 
ATOM     81  F   UNL A   1      38.971  36.300  40.350  1.00  0.00    -0.200 F 
ENDBRANCH  47  71
BRANCH  59  82
ATOM     82  C   UNL A   1      43.762  28.694  35.301  1.00  0.00     0.064 A 
ATOM     83  C   UNL A   1      45.077  29.145  35.120  1.00  0.00     0.173 A 
ATOM     84  C   UNL A   1      43.546  27.650  36.213  1.00  0.00     0.173 A 
ATOM     85  F   UNL A   1      45.339  30.131  34.248  1.00  0.00    -0.203 F 
ATOM     86  C   UNL A   1      46.137  28.555  35.804  1.00  0.00     0.198 A 
ATOM     87  C   UNL A   1      44.603  27.085  36.921  1.00  0.00     0.198 A 
ATOM     88  F   UNL A   1      42.306  27.185  36.430  1.00  0.00    -0.203 F 
ATOM     89  F   UNL A   1      47.391  28.968  35.577  1.00  0.00    -0.200 F 
ATOM     90  C   UNL A   1      45.898  27.533  36.710  1.00  0.00     0.200 A 
ATOM     91  F   UNL A   1      44.368  26.108  37.808  1.00  0.00    -0.200 F 
ATOM     92  F   UNL A   1      46.918  26.972  37.374  1.00  0.00    -0.200 F 
ENDBRANCH  59  82
ENDBRANCH  33  34
ENDBRANCH  25  28
ENDBRANCH  23  24
ENDBRANCH  22  23
ENDBRANCH  21  22
ENDBRANCH   1  21
TORSDOF 15
ENDMDL
MODEL 3
REMARK VINA RESULT:     -11.5      1.759      7.714
REMARK SMILES C[C@H](CSc1ccc(C(=O)N(C)C)cn1)C(=O)NCCCCNC(=O)c1ccc(-c2c3nc(c(-c4c(F)c(F)c(F)c(F)c4F)c4ccc([nH]4)c(-c4c(F)c(F)c(F)c(F)c4F)c4nc(c(-c5c(F)c(F)c(F)c(F)c5F)c5ccc2[nH]5)C=C4)C=C3)cc1
REMARK SMILES IDX 19 1 18 2 16 3 17 4 2 6 1 7 3 8 4 9 5 10 6 11 15 12 7 13
REMARK SMILES IDX 14 14 8 15 9 16 10 17 11 18 12 19 13 20 20 21 21 22 22 23
REMARK SMILES IDX 23 24 24 25 25 27 26 28 27 29 88 30 28 31 87 32 29 33 30 34
REMARK SMILES IDX 31 35 81 36 32 37 86 38 80 39 82 40 33 41 85 42 79 43 78 44
REMARK SMILES IDX 34 46 66 47 46 48 65 49 47 50 50 51 64 52 83 53 48 54 49 55
REMARK SMILES IDX 63 57 84 58 51 59 35 60 36 61 44 62 37 63 38 64 42 65 45 66
REMARK SMILES IDX 39 67 40 68 43 69 41 70 67 71 68 72 76 73 69 74 70 75 74 76
REMARK SMILES IDX 77 77 71 78 72 79 75 80 73 81 52 82 53 83 61 84 54 85 55 86
REMARK SMILES IDX 59 87 62 88 56 89 57 90 60 91 58 92
REMARK H PARENT 18 5 23 26 82 45 50 56
REMARK Flexibility Score: inf
ROOT
ATOM      1  C   UNL A   1      32.435  27.709  26.867  1.00  0.00     0.116 C 
ENDROOT
BRANCH   1   2
ATOM      2  N   UNL A   1      33.235  26.772  26.110  1.00  0.00    -0.356 N 
ATOM      3  C   UNL A   1      33.144  25.417  26.026  1.00  0.00     0.223 C 
ATOM      4  O   UNL A   1      34.040  24.829  25.414  1.00  0.00    -0.275 OA
ATOM      5  H   UNL A   1      33.954  27.176  25.573  1.00  0.00     0.163 HD
BRANCH   3   6
ATOM      6  C   UNL A   1      31.932  24.648  26.553  1.00  0.00     0.085 C 
ATOM      7  C   UNL A   1      32.381  23.223  26.871  1.00  0.00     0.019 C 
BRANCH   6   8
ATOM      8  C   UNL A   1      30.643  24.858  25.730  1.00  0.00     0.089 C 
BRANCH   8   9
ATOM      9  S   UNL A   1      30.752  24.806  23.892  1.00  0.00    -0.106 SA
BRANCH   9  10
ATOM     10  C   UNL A   1      30.136  26.416  23.429  1.00  0.00     0.096 A 
ATOM     11  C   UNL A   1      28.832  26.761  23.771  1.00  0.00     0.036 A 
ATOM     12  N   UNL A   1      30.942  27.254  22.747  1.00  0.00    -0.249 NA
ATOM     13  C   UNL A   1      28.301  27.980  23.333  1.00  0.00     0.018 A 
ATOM     14  C   UNL A   1      30.401  28.441  22.344  1.00  0.00     0.126 A 
ATOM     15  C   UNL A   1      29.078  28.833  22.555  1.00  0.00     0.058 A 
BRANCH  15  16
ATOM     16  C   UNL A   1      28.651  30.150  22.006  1.00  0.00     0.254 C 
ATOM     17  O   UNL A   1      28.134  30.130  20.887  1.00  0.00    -0.269 OA
ATOM     18  N   UNL A   1      28.802  31.357  22.697  1.00  0.00    -0.345 N 
ATOM     19  C   UNL A   1      29.135  31.549  24.100  1.00  0.00     0.146 C 
ATOM     20  C   UNL A   1      28.480  32.568  21.952  1.00  0.00     0.146 C 
ENDBRANCH  15  16
ENDBRANCH   9  10
ENDBRANCH   8   9
ENDBRANCH   6   8
ENDBRANCH   3   6
ENDBRANCH   1   2
BRANCH   1  21
ATOM     21  C   UNL A   1      31.571  28.565  25.941  1.00  0.00     0.023 C 
BRANCH  21  22
ATOM     22  C   UNL A   1      32.052  30.012  25.833  1.00  0.00     0.023 C 
BRANCH  22  23
ATOM     23  C   UNL A   1      32.549  30.607  27.144  1.00  0.00     0.116 C 
BRANCH  23  24
ATOM     24  N   UNL A   1      32.672  32.056  27.096  1.00  0.00    -0.352 N 
ATOM     25  C   UNL A   1      33.682  32.843  27.596  1.00  0.00     0.251 C 
ATOM     26  H   UNL A   1      31.938  32.534  26.648  1.00  0.00     0.163 HD
ATOM     27  O   UNL A   1      33.568  34.063  27.628  1.00  0.00    -0.269 OA
BRANCH  25  28
ATOM     28  C   UNL A   1      34.894  32.198  28.136  1.00  0.00     0.039 A 
ATOM     29  C   UNL A   1      36.057  32.958  28.275  1.00  0.00     0.014 A 
ATOM     30  C   UNL A   1      34.867  30.862  28.546  1.00  0.00     0.014 A 
ATOM     31  C   UNL A   1      37.175  32.397  28.891  1.00  0.00     0.010 A 
ATOM     32  C   UNL A   1      35.953  30.332  29.234  1.00  0.00     0.010 A 
ATOM     33  C   UNL A   1      37.119  31.093  29.412  1.00  0.00    -0.014 A 
BRANCH  33  34
ATOM     34  C   UNL A   1      38.269  30.510  30.147  1.00  0.00     0.031 A 
ATOM     35  C   UNL A   1      38.534  30.909  31.571  1.00  0.00     0.074 A 
ATOM     36  C   UNL A   1      39.109  29.671  29.512  1.00  0.00     0.049 A 
ATOM     37  N   UNL A   1      39.520  30.562  32.359  1.00  0.00    -0.248 NA
ATOM     38  C   UNL A   1      37.578  31.846  32.183  1.00  0.00     0.031 C 
ATOM     39  C   UNL A   1      38.988  29.247  28.116  1.00  0.00     0.029 A 
ATOM     40  N   UNL A   1      40.240  29.029  29.955  1.00  0.00    -0.354 N 
ATOM     41  C   UNL A   1      39.308  31.243  33.550  1.00  0.00     0.074 A 
ATOM     42  C   UNL A   1      38.137  32.073  33.361  1.00  0.00     0.031 C 
ATOM     43  C   UNL A   1      39.988  28.402  27.824  1.00  0.00     0.029 A 
ATOM     44  C   UNL A   1      40.844  28.254  28.997  1.00  0.00     0.049 A 
ATOM     45  H   UNL A   1      40.584  29.118  30.873  1.00  0.00     0.167 HD
ATOM     46  C   UNL A   1      40.008  31.162  34.706  1.00  0.00     0.037 A 
ATOM     47  C   UNL A   1      41.969  27.514  29.055  1.00  0.00     0.037 A 
ATOM     48  C   UNL A   1      41.163  30.322  34.894  1.00  0.00     0.049 A 
ATOM     49  C   UNL A   1      42.740  27.454  30.347  1.00  0.00     0.074 A 
ATOM     50  C   UNL A   1      41.913  30.131  36.040  1.00  0.00     0.029 A 
ATOM     51  N   UNL A   1      41.738  29.538  33.904  1.00  0.00    -0.354 N 
ATOM     52  N   UNL A   1      42.490  28.047  31.489  1.00  0.00    -0.248 NA
ATOM     53  C   UNL A   1      43.945  26.613  30.359  1.00  0.00     0.031 C 
ATOM     54  C   UNL A   1      42.973  29.273  35.731  1.00  0.00     0.029 A 
ATOM     55  C   UNL A   1      42.849  28.880  34.408  1.00  0.00     0.049 A 
ATOM     56  H   UNL A   1      41.406  29.460  32.980  1.00  0.00     0.167 HD
ATOM     57  C   UNL A   1      43.485  27.630  32.361  1.00  0.00     0.074 A 
ATOM     58  C   UNL A   1      44.334  26.720  31.621  1.00  0.00     0.031 C 
ATOM     59  C   UNL A   1      43.681  27.971  33.660  1.00  0.00     0.037 A 
BRANCH  46  60
ATOM     60  C   UNL A   1      39.541  32.002  35.861  1.00  0.00     0.064 A 
ATOM     61  C   UNL A   1      38.512  31.574  36.715  1.00  0.00     0.173 A 
ATOM     62  C   UNL A   1      40.148  33.237  36.136  1.00  0.00     0.173 A 
ATOM     63  F   UNL A   1      37.890  30.407  36.491  1.00  0.00    -0.203 F 
ATOM     64  C   UNL A   1      38.087  32.365  37.778  1.00  0.00     0.198 A 
ATOM     65  C   UNL A   1      39.743  34.009  37.221  1.00  0.00     0.198 A 
ATOM     66  F   UNL A   1      41.140  33.693  35.356  1.00  0.00    -0.203 F 
ATOM     67  F   UNL A   1      37.063  31.961  38.544  1.00  0.00    -0.200 F 
ATOM     68  C   UNL A   1      38.707  33.578  38.035  1.00  0.00     0.200 A 
ATOM     69  F   UNL A   1      40.352  35.175  37.477  1.00  0.00    -0.200 F 
ATOM     70  F   UNL A   1      38.300  34.335  39.063  1.00  0.00    -0.200 F 
ENDBRANCH  46  60
BRANCH  47  71
ATOM     71  C   UNL A   1      42.423  26.759  27.858  1.00  0.00     0.064 A 
ATOM     72  C   UNL A   1      43.324  27.326  26.946  1.00  0.00     0.173 A 
ATOM     73  C   UNL A   1      41.964  25.460  27.597  1.00  0.00     0.173 A 
ATOM     74  F   UNL A   1      43.778  28.573  27.140  1.00  0.00    -0.203 F 
ATOM     75  C   UNL A   1      43.729  26.633  25.807  1.00  0.00     0.198 A 
ATOM     76  C   UNL A   1      42.394  24.755  26.474  1.00  0.00     0.198 A 
ATOM     77  F   UNL A   1      41.104  24.869  28.441  1.00  0.00    -0.203 F 
ATOM     78  F   UNL A   1      44.551  27.218  24.925  1.00  0.00    -0.200 F 
ATOM     79  C   UNL A   1      43.268  25.345  25.575  1.00  0.00     0.200 A 
ATOM     80  F   UNL A   1      41.958  23.506  26.263  1.00  0.00    -0.200 F 
ATOM     81  F   UNL A   1      43.660  24.677  24.482  1.00  0.00    -0.200 F 
ENDBRANCH  47  71
BRANCH  59  82
ATOM     82  C   UNL A   1      44.834  27.329  34.376  1.00  0.00     0.064 A 
ATOM     83  C   UNL A   1      46.098  27.934  34.433  1.00  0.00     0.173 A 
ATOM     84  C   UNL A   1      44.659  26.110  35.049  1.00  0.00     0.173 A 
ATOM     85  F   UNL A   1      46.322  29.093  33.794  1.00  0.00    -0.203 F 
ATOM     86  C   UNL A   1      47.152  27.328  35.114  1.00  0.00     0.198 A 
ATOM     87  C   UNL A   1      45.704  25.524  35.758  1.00  0.00     0.198 A 
ATOM     88  F   UNL A   1      43.468  25.492  35.033  1.00  0.00    -0.203 F 
ATOM     89  F   UNL A   1      48.364  27.899  35.112  1.00  0.00    -0.200 F 
ATOM     90  C   UNL A   1      46.951  26.130  35.782  1.00  0.00     0.200 A 
ATOM     91  F   UNL A   1      45.504  24.375  36.416  1.00  0.00    -0.200 F 
ATOM     92  F   UNL A   1      47.964  25.553  36.445  1.00  0.00    -0.200 F 
ENDBRANCH  59  82
ENDBRANCH  33  34
ENDBRANCH  25  28
ENDBRANCH  23  24
ENDBRANCH  22  23
ENDBRANCH  21  22
ENDBRANCH   1  21
TORSDOF 15
ENDMDL
