MODEL 1
REMARK VINA RESULT:     -12.8      0.000      0.000
REMARK SMILES CCc1ccc(C(=O)NCCCCNC(=O)c2ccc(-c3c4nc(c(-c5c(F)c(F)c(F)c(F)c5F)c5ccc([nH]5)c(-c5c(F)c(F)c(F)c(F)c5F)c5nc(c(-c6c(F)c(F)c(F)c(F)c6F)c6ccc3[nH]6)C=C5)C=C4)cc2)cc1S(=O)(=O)Nc1ccc(F)c(F)c1F
REMARK SMILES IDX 11 1 10 2 9 3 7 4 8 5 6 7 3 8 4 9 81 10 5 11 80 12 2 13 1 14
REMARK SMILES IDX 82 15 83 16 84 17 85 18 86 20 87 21 93 22 88 23 91 24 94 25
REMARK SMILES IDX 89 26 92 27 90 28 12 29 13 30 14 31 15 32 16 34 17 35 18 36
REMARK SMILES IDX 79 37 19 38 78 39 20 40 21 41 22 42 72 43 23 44 77 45 71 46
REMARK SMILES IDX 73 47 24 48 76 49 70 50 69 51 25 53 57 54 37 55 56 56 38 57
REMARK SMILES IDX 41 58 55 59 74 60 39 61 40 62 54 64 75 65 42 66 26 67 27 68
REMARK SMILES IDX 35 69 28 70 29 71 33 72 36 73 30 74 31 75 34 76 32 77 58 78
REMARK SMILES IDX 59 79 67 80 60 81 61 82 65 83 68 84 62 85 63 86 66 87 64 88
REMARK SMILES IDX 43 89 44 90 52 91 45 92 46 93 50 94 53 95 47 96 48 97 51 98
REMARK SMILES IDX 49 99
REMARK H PARENT 9 6 85 19 14 33 73 52 41 63
REMARK Flexibility Score: inf
ROOT
ATOM      1  C   UNL A   1      35.279  21.488  26.223  1.00  0.00     0.023 C 
ENDROOT
BRANCH   1   2
ATOM      2  C   UNL A   1      35.251  20.567  25.003  1.00  0.00     0.116 C 
BRANCH   2   3
ATOM      3  N   UNL A   1      34.218  19.562  25.180  1.00  0.00    -0.352 N 
ATOM      4  C   UNL A   1      32.850  19.656  25.155  1.00  0.00     0.251 C 
ATOM      5  O   UNL A   1      32.181  18.661  25.424  1.00  0.00    -0.269 OA
ATOM      6  H   UNL A   1      34.559  18.654  25.348  1.00  0.00     0.163 HD
BRANCH   4   7
ATOM      7  C   UNL A   1      32.176  20.878  24.657  1.00  0.00     0.041 A 
ATOM      8  C   UNL A   1      31.524  23.407  23.596  1.00  0.00    -0.028 A 
ATOM      9  C   UNL A   1      31.875  22.325  22.760  1.00  0.00     0.006 A 
ATOM     10  C   UNL A   1      31.287  23.131  24.960  1.00  0.00     0.091 A 
ATOM     11  C   UNL A   1      32.207  21.080  23.282  1.00  0.00     0.014 A 
ATOM     12  C   UNL A   1      31.609  21.855  25.474  1.00  0.00     0.036 A 
BRANCH   8  13
ATOM     13  C   UNL A   1      31.518  24.748  22.908  1.00  0.00     0.033 C 
ATOM     14  C   UNL A   1      32.686  24.987  21.959  1.00  0.00     0.009 C 
ENDBRANCH   8  13
BRANCH  10  15
ATOM     15  S   UNL A   1      30.686  24.254  26.223  1.00  0.00     0.262 S 
ATOM     16  O   UNL A   1      29.732  25.152  25.606  1.00  0.00    -0.201 OA
ATOM     17  O   UNL A   1      30.263  23.403  27.318  1.00  0.00    -0.201 OA
BRANCH  15  18
ATOM     18  N   UNL A   1      31.932  25.160  26.848  1.00  0.00    -0.277 N 
ATOM     19  H   UNL A   1      32.386  24.791  27.639  1.00  0.00     0.180 HD
BRANCH  18  20
ATOM     20  C   UNL A   1      32.415  26.409  26.367  1.00  0.00     0.088 A 
ATOM     21  C   UNL A   1      33.421  26.318  25.387  1.00  0.00     0.033 A 
ATOM     22  C   UNL A   1      31.849  27.661  26.641  1.00  0.00     0.185 A 
ATOM     23  C   UNL A   1      33.757  27.428  24.611  1.00  0.00     0.045 A 
ATOM     24  C   UNL A   1      32.203  28.770  25.880  1.00  0.00     0.196 A 
ATOM     25  F   UNL A   1      30.890  27.805  27.564  1.00  0.00    -0.201 F 
ATOM     26  C   UNL A   1      33.127  28.644  24.851  1.00  0.00     0.162 A 
ATOM     27  F   UNL A   1      31.598  29.947  26.092  1.00  0.00    -0.200 F 
ATOM     28  F   UNL A   1      33.394  29.684  24.053  1.00  0.00    -0.204 F 
ENDBRANCH  18  20
ENDBRANCH  15  18
ENDBRANCH  10  15
ENDBRANCH   4   7
ENDBRANCH   2   3
ENDBRANCH   1   2
BRANCH   1  29
ATOM     29  C   UNL A   1      35.274  22.978  25.863  1.00  0.00     0.023 C 
BRANCH  29  30
ATOM     30  C   UNL A   1      36.650  23.635  25.861  1.00  0.00     0.116 C 
BRANCH  30  31
ATOM     31  N   UNL A   1      37.731  22.678  26.030  1.00  0.00    -0.352 N 
ATOM     32  C   UNL A   1      39.007  22.896  26.483  1.00  0.00     0.251 C 
ATOM     33  H   UNL A   1      37.519  21.748  25.787  1.00  0.00     0.163 HD
ATOM     34  O   UNL A   1      39.841  21.998  26.447  1.00  0.00    -0.269 OA
BRANCH  32  35
ATOM     35  C   UNL A   1      39.384  24.231  26.986  1.00  0.00     0.039 A 
ATOM     36  C   UNL A   1      39.059  24.565  28.303  1.00  0.00     0.014 A 
ATOM     37  C   UNL A   1      40.051  25.147  26.168  1.00  0.00     0.014 A 
ATOM     38  C   UNL A   1      39.446  25.803  28.817  1.00  0.00     0.010 A 
ATOM     39  C   UNL A   1      40.494  26.355  26.702  1.00  0.00     0.010 A 
ATOM     40  C   UNL A   1      40.187  26.697  28.027  1.00  0.00    -0.014 A 
BRANCH  40  41
ATOM     41  C   UNL A   1      40.632  28.002  28.573  1.00  0.00     0.031 A 
ATOM     42  C   UNL A   1      42.082  28.231  28.891  1.00  0.00     0.074 A 
ATOM     43  C   UNL A   1      39.721  28.962  28.825  1.00  0.00     0.049 A 
ATOM     44  N   UNL A   1      42.662  29.290  29.399  1.00  0.00    -0.248 NA
ATOM     45  C   UNL A   1      43.001  27.113  28.630  1.00  0.00     0.031 C 
ATOM     46  C   UNL A   1      38.279  28.834  28.611  1.00  0.00     0.029 A 
ATOM     47  N   UNL A   1      39.874  30.231  29.322  1.00  0.00    -0.354 N 
ATOM     48  C   UNL A   1      44.004  28.960  29.529  1.00  0.00     0.074 A 
ATOM     49  C   UNL A   1      44.145  27.585  29.099  1.00  0.00     0.031 C 
ATOM     50  C   UNL A   1      37.682  29.989  28.949  1.00  0.00     0.029 A 
ATOM     51  C   UNL A   1      38.694  30.924  29.430  1.00  0.00     0.049 A 
ATOM     52  H   UNL A   1      40.747  30.609  29.577  1.00  0.00     0.167 HD
ATOM     53  C   UNL A   1      45.030  29.742  29.943  1.00  0.00     0.037 A 
ATOM     54  C   UNL A   1      38.459  32.177  29.864  1.00  0.00     0.037 A 
ATOM     55  C   UNL A   1      44.887  31.116  30.344  1.00  0.00     0.049 A 
ATOM     56  C   UNL A   1      39.619  33.031  30.298  1.00  0.00     0.074 A 
ATOM     57  C   UNL A   1      45.870  32.011  30.730  1.00  0.00     0.029 A 
ATOM     58  N   UNL A   1      43.680  31.797  30.408  1.00  0.00    -0.354 N 
ATOM     59  N   UNL A   1      40.894  32.732  30.349  1.00  0.00    -0.248 NA
ATOM     60  C   UNL A   1      39.307  34.403  30.721  1.00  0.00     0.031 C 
ATOM     61  C   UNL A   1      45.253  33.222  31.064  1.00  0.00     0.029 A 
ATOM     62  C   UNL A   1      43.892  33.097  30.839  1.00  0.00     0.049 A 
ATOM     63  H   UNL A   1      42.803  31.414  30.180  1.00  0.00     0.167 HD
ATOM     64  C   UNL A   1      41.540  33.884  30.777  1.00  0.00     0.074 A 
ATOM     65  C   UNL A   1      40.516  34.892  30.957  1.00  0.00     0.031 C 
ATOM     66  C   UNL A   1      42.862  34.090  31.001  1.00  0.00     0.037 A 
BRANCH  53  67
ATOM     67  C   UNL A   1      46.399  29.126  29.977  1.00  0.00     0.064 A 
ATOM     68  C   UNL A   1      47.249  29.165  28.861  1.00  0.00     0.173 A 
ATOM     69  C   UNL A   1      46.878  28.515  31.145  1.00  0.00     0.173 A 
ATOM     70  F   UNL A   1      46.834  29.725  27.715  1.00  0.00    -0.203 F 
ATOM     71  C   UNL A   1      48.517  28.588  28.904  1.00  0.00     0.198 A 
ATOM     72  C   UNL A   1      48.157  27.967  31.194  1.00  0.00     0.198 A 
ATOM     73  F   UNL A   1      46.108  28.454  32.242  1.00  0.00    -0.203 F 
ATOM     74  F   UNL A   1      49.290  28.590  27.810  1.00  0.00    -0.200 F 
ATOM     75  C   UNL A   1      48.971  27.996  30.072  1.00  0.00     0.200 A 
ATOM     76  F   UNL A   1      48.601  27.405  32.328  1.00  0.00    -0.200 F 
ATOM     77  F   UNL A   1      50.193  27.446  30.114  1.00  0.00    -0.200 F 
ENDBRANCH  53  67
BRANCH  54  78
ATOM     78  C   UNL A   1      37.073  32.713  29.870  1.00  0.00     0.064 A 
ATOM     79  C   UNL A   1      36.546  33.350  28.739  1.00  0.00     0.173 A 
ATOM     80  C   UNL A   1      36.254  32.607  31.002  1.00  0.00     0.173 A 
ATOM     81  F   UNL A   1      37.299  33.493  27.638  1.00  0.00    -0.203 F 
ATOM     82  C   UNL A   1      35.258  33.883  28.746  1.00  0.00     0.198 A 
ATOM     83  C   UNL A   1      34.956  33.115  31.000  1.00  0.00     0.198 A 
ATOM     84  F   UNL A   1      36.710  32.001  32.107  1.00  0.00    -0.203 F 
ATOM     85  F   UNL A   1      34.796  34.530  27.668  1.00  0.00    -0.200 F 
ATOM     86  C   UNL A   1      34.463  33.760  29.876  1.00  0.00     0.200 A 
ATOM     87  F   UNL A   1      34.186  32.983  32.088  1.00  0.00    -0.200 F 
ATOM     88  F   UNL A   1      33.225  34.272  29.884  1.00  0.00    -0.200 F 
ENDBRANCH  54  78
BRANCH  66  89
ATOM     89  C   UNL A   1      43.277  35.470  31.423  1.00  0.00     0.064 A 
ATOM     90  C   UNL A   1      43.272  35.863  32.770  1.00  0.00     0.173 A 
ATOM     91  C   UNL A   1      43.707  36.402  30.467  1.00  0.00     0.173 A 
ATOM     92  F   UNL A   1      42.856  35.012  33.720  1.00  0.00    -0.203 F 
ATOM     93  C   UNL A   1      43.651  37.150  33.139  1.00  0.00     0.198 A 
ATOM     94  C   UNL A   1      44.116  37.678  30.843  1.00  0.00     0.198 A 
ATOM     95  F   UNL A   1      43.737  36.072  29.167  1.00  0.00    -0.203 F 
ATOM     96  F   UNL A   1      43.586  37.522  34.425  1.00  0.00    -0.200 F 
ATOM     97  C   UNL A   1      44.078  38.054  32.177  1.00  0.00     0.200 A 
ATOM     98  F   UNL A   1      44.540  38.546  29.914  1.00  0.00    -0.200 F 
ATOM     99  F   UNL A   1      44.444  39.293  32.536  1.00  0.00    -0.200 F 
ENDBRANCH  66  89
ENDBRANCH  40  41
ENDBRANCH  32  35
ENDBRANCH  30  31
ENDBRANCH  29  30
ENDBRANCH   1  29
TORSDOF 15
ENDMDL
MODEL 2
REMARK VINA RESULT:     -12.7      0.556      2.086
REMARK SMILES CCc1ccc(C(=O)NCCCCNC(=O)c2ccc(-c3c4nc(c(-c5c(F)c(F)c(F)c(F)c5F)c5ccc([nH]5)c(-c5c(F)c(F)c(F)c(F)c5F)c5nc(c(-c6c(F)c(F)c(F)c(F)c6F)c6ccc3[nH]6)C=C5)C=C4)cc2)cc1S(=O)(=O)Nc1ccc(F)c(F)c1F
REMARK SMILES IDX 11 1 10 2 9 3 7 4 8 5 6 7 3 8 4 9 81 10 5 11 80 12 2 13 1 14
REMARK SMILES IDX 82 15 83 16 84 17 85 18 86 20 87 21 93 22 88 23 91 24 94 25
REMARK SMILES IDX 89 26 92 27 90 28 12 29 13 30 14 31 15 32 16 34 17 35 18 36
REMARK SMILES IDX 79 37 19 38 78 39 20 40 21 41 22 42 72 43 23 44 77 45 71 46
REMARK SMILES IDX 73 47 24 48 76 49 70 50 69 51 25 53 57 54 37 55 56 56 38 57
REMARK SMILES IDX 41 58 55 59 74 60 39 61 40 62 54 64 75 65 42 66 26 67 27 68
REMARK SMILES IDX 35 69 28 70 29 71 33 72 36 73 30 74 31 75 34 76 32 77 58 78
REMARK SMILES IDX 59 79 67 80 60 81 61 82 65 83 68 84 62 85 63 86 66 87 64 88
REMARK SMILES IDX 43 89 44 90 52 91 45 92 46 93 50 94 53 95 47 96 48 97 51 98
REMARK SMILES IDX 49 99
REMARK H PARENT 9 6 85 19 14 33 73 52 41 63
REMARK Flexibility Score: inf
ROOT
ATOM      1  C   UNL A   1      35.322  21.502  26.197  1.00  0.00     0.023 C 
ENDROOT
BRANCH   1   2
ATOM      2  C   UNL A   1      35.293  20.551  24.999  1.00  0.00     0.116 C 
BRANCH   2   3
ATOM      3  N   UNL A   1      34.222  19.586  25.175  1.00  0.00    -0.352 N 
ATOM      4  C   UNL A   1      32.859  19.730  25.144  1.00  0.00     0.251 C 
ATOM      5  O   UNL A   1      32.152  18.762  25.414  1.00  0.00    -0.269 OA
ATOM      6  H   UNL A   1      34.529  18.667  25.348  1.00  0.00     0.163 HD
BRANCH   4   7
ATOM      7  C   UNL A   1      32.233  20.975  24.640  1.00  0.00     0.041 A 
ATOM      8  C   UNL A   1      31.680  23.538  23.605  1.00  0.00    -0.028 A 
ATOM      9  C   UNL A   1      32.057  22.469  22.764  1.00  0.00     0.006 A 
ATOM     10  C   UNL A   1      31.367  23.237  24.948  1.00  0.00     0.091 A 
ATOM     11  C   UNL A   1      32.340  21.207  23.274  1.00  0.00     0.014 A 
ATOM     12  C   UNL A   1      31.639  21.944  25.448  1.00  0.00     0.036 A 
BRANCH   8  13
ATOM     13  C   UNL A   1      31.734  24.894  22.949  1.00  0.00     0.033 C 
ATOM     14  C   UNL A   1      33.050  25.221  22.257  1.00  0.00     0.009 C 
ENDBRANCH   8  13
BRANCH  10  15
ATOM     15  S   UNL A   1      30.718  24.342  26.203  1.00  0.00     0.262 S 
ATOM     16  O   UNL A   1      29.747  25.212  25.574  1.00  0.00    -0.201 OA
ATOM     17  O   UNL A   1      30.304  23.478  27.292  1.00  0.00    -0.201 OA
BRANCH  15  18
ATOM     18  N   UNL A   1      31.930  25.281  26.844  1.00  0.00    -0.277 N 
ATOM     19  H   UNL A   1      32.504  24.853  27.519  1.00  0.00     0.180 HD
BRANCH  18  20
ATOM     20  C   UNL A   1      32.228  26.636  26.528  1.00  0.00     0.088 A 
ATOM     21  C   UNL A   1      31.444  27.589  27.205  1.00  0.00     0.033 A 
ATOM     22  C   UNL A   1      33.326  27.074  25.776  1.00  0.00     0.185 A 
ATOM     23  C   UNL A   1      31.829  28.930  27.235  1.00  0.00     0.045 A 
ATOM     24  C   UNL A   1      33.693  28.415  25.791  1.00  0.00     0.196 A 
ATOM     25  F   UNL A   1      34.104  26.211  25.111  1.00  0.00    -0.201 F 
ATOM     26  C   UNL A   1      32.966  29.329  26.542  1.00  0.00     0.162 A 
ATOM     27  F   UNL A   1      34.792  28.815  25.137  1.00  0.00    -0.200 F 
ATOM     28  F   UNL A   1      33.376  30.600  26.640  1.00  0.00    -0.204 F 
ENDBRANCH  18  20
ENDBRANCH  15  18
ENDBRANCH  10  15
ENDBRANCH   4   7
ENDBRANCH   2   3
ENDBRANCH   1   2
BRANCH   1  29
ATOM     29  C   UNL A   1      35.342  22.982  25.800  1.00  0.00     0.023 C 
BRANCH  29  30
ATOM     30  C   UNL A   1      36.726  23.620  25.796  1.00  0.00     0.116 C 
BRANCH  30  31
ATOM     31  N   UNL A   1      37.791  22.656  26.016  1.00  0.00    -0.352 N 
ATOM     32  C   UNL A   1      39.051  22.866  26.514  1.00  0.00     0.251 C 
ATOM     33  H   UNL A   1      37.580  21.725  25.774  1.00  0.00     0.163 HD
ATOM     34  O   UNL A   1      39.877  21.961  26.518  1.00  0.00    -0.269 OA
BRANCH  32  35
ATOM     35  C   UNL A   1      39.422  24.204  27.018  1.00  0.00     0.039 A 
ATOM     36  C   UNL A   1      39.148  24.514  28.352  1.00  0.00     0.014 A 
ATOM     37  C   UNL A   1      40.032  25.144  26.184  1.00  0.00     0.014 A 
ATOM     38  C   UNL A   1      39.530  25.754  28.865  1.00  0.00     0.010 A 
ATOM     39  C   UNL A   1      40.472  26.354  26.713  1.00  0.00     0.010 A 
ATOM     40  C   UNL A   1      40.217  26.674  28.055  1.00  0.00    -0.014 A 
BRANCH  40  41
ATOM     41  C   UNL A   1      40.658  27.981  28.598  1.00  0.00     0.031 A 
ATOM     42  C   UNL A   1      42.106  28.212  28.925  1.00  0.00     0.074 A 
ATOM     43  C   UNL A   1      39.744  28.941  28.840  1.00  0.00     0.049 A 
ATOM     44  N   UNL A   1      42.681  29.274  29.432  1.00  0.00    -0.248 NA
ATOM     45  C   UNL A   1      43.027  27.093  28.675  1.00  0.00     0.031 C 
ATOM     46  C   UNL A   1      38.303  28.813  28.616  1.00  0.00     0.029 A 
ATOM     47  N   UNL A   1      39.894  30.213  29.332  1.00  0.00    -0.354 N 
ATOM     48  C   UNL A   1      44.022  28.945  29.572  1.00  0.00     0.074 A 
ATOM     49  C   UNL A   1      44.167  27.568  29.150  1.00  0.00     0.031 C 
ATOM     50  C   UNL A   1      37.704  29.968  28.945  1.00  0.00     0.029 A 
ATOM     51  C   UNL A   1      38.713  30.906  29.429  1.00  0.00     0.049 A 
ATOM     52  H   UNL A   1      40.765  30.592  29.591  1.00  0.00     0.167 HD
ATOM     53  C   UNL A   1      45.045  29.729  29.990  1.00  0.00     0.037 A 
ATOM     54  C   UNL A   1      38.474  32.161  29.855  1.00  0.00     0.037 A 
ATOM     55  C   UNL A   1      44.900  31.105  30.383  1.00  0.00     0.049 A 
ATOM     56  C   UNL A   1      39.631  33.018  30.294  1.00  0.00     0.074 A 
ATOM     57  C   UNL A   1      45.879  32.002  30.772  1.00  0.00     0.029 A 
ATOM     58  N   UNL A   1      43.691  31.786  30.436  1.00  0.00    -0.354 N 
ATOM     59  N   UNL A   1      40.906  32.720  30.355  1.00  0.00    -0.248 NA
ATOM     60  C   UNL A   1      39.315  34.392  30.708  1.00  0.00     0.031 C 
ATOM     61  C   UNL A   1      45.260  33.214  31.097  1.00  0.00     0.029 A 
ATOM     62  C   UNL A   1      43.900  33.088  30.864  1.00  0.00     0.049 A 
ATOM     63  H   UNL A   1      42.816  31.401  30.205  1.00  0.00     0.167 HD
ATOM     64  C   UNL A   1      41.548  33.874  30.782  1.00  0.00     0.074 A 
ATOM     65  C   UNL A   1      40.523  34.882  30.950  1.00  0.00     0.031 C 
ATOM     66  C   UNL A   1      42.868  34.081  31.013  1.00  0.00     0.037 A 
BRANCH  53  67
ATOM     67  C   UNL A   1      46.414  29.114  30.036  1.00  0.00     0.064 A 
ATOM     68  C   UNL A   1      46.900  28.491  31.196  1.00  0.00     0.173 A 
ATOM     69  C   UNL A   1      47.239  29.122  28.902  1.00  0.00     0.173 A 
ATOM     70  F   UNL A   1      46.156  28.468  32.312  1.00  0.00    -0.203 F 
ATOM     71  C   UNL A   1      48.173  27.925  31.228  1.00  0.00     0.198 A 
ATOM     72  C   UNL A   1      48.499  28.529  28.928  1.00  0.00     0.198 A 
ATOM     73  F   UNL A   1      46.823  29.700  27.766  1.00  0.00    -0.203 F 
ATOM     74  F   UNL A   1      48.635  27.383  32.362  1.00  0.00    -0.200 F 
ATOM     75  C   UNL A   1      48.968  27.939  30.092  1.00  0.00     0.200 A 
ATOM     76  F   UNL A   1      49.262  28.532  27.826  1.00  0.00    -0.200 F 
ATOM     77  F   UNL A   1      50.190  27.390  30.122  1.00  0.00    -0.200 F 
ENDBRANCH  53  67
BRANCH  54  78
ATOM     78  C   UNL A   1      37.088  32.697  29.850  1.00  0.00     0.064 A 
ATOM     79  C   UNL A   1      36.267  32.574  30.978  1.00  0.00     0.173 A 
ATOM     80  C   UNL A   1      36.556  33.334  28.720  1.00  0.00     0.173 A 
ATOM     81  F   UNL A   1      36.726  31.955  32.076  1.00  0.00    -0.203 F 
ATOM     82  C   UNL A   1      34.956  33.047  30.971  1.00  0.00     0.198 A 
ATOM     83  C   UNL A   1      35.254  33.831  28.722  1.00  0.00     0.198 A 
ATOM     84  F   UNL A   1      37.304  33.482  27.617  1.00  0.00    -0.203 F 
ATOM     85  F   UNL A   1      34.176  32.873  32.046  1.00  0.00    -0.200 F 
ATOM     86  C   UNL A   1      34.453  33.679  29.844  1.00  0.00     0.200 A 
ATOM     87  F   UNL A   1      34.776  34.453  27.637  1.00  0.00    -0.200 F 
ATOM     88  F   UNL A   1      33.193  34.134  29.836  1.00  0.00    -0.200 F 
ENDBRANCH  54  78
BRANCH  66  89
ATOM     89  C   UNL A   1      43.280  35.463  31.432  1.00  0.00     0.064 A 
ATOM     90  C   UNL A   1      43.687  36.427  30.498  1.00  0.00     0.173 A 
ATOM     91  C   UNL A   1      43.243  35.832  32.785  1.00  0.00     0.173 A 
ATOM     92  F   UNL A   1      43.752  36.118  29.194  1.00  0.00    -0.203 F 
ATOM     93  C   UNL A   1      44.074  37.700  30.907  1.00  0.00     0.198 A 
ATOM     94  C   UNL A   1      43.601  37.115  33.188  1.00  0.00     0.198 A 
ATOM     95  F   UNL A   1      42.854  34.949  33.717  1.00  0.00    -0.203 F 
ATOM     96  F   UNL A   1      44.513  38.587  30.005  1.00  0.00    -0.200 F 
ATOM     97  C   UNL A   1      44.025  38.045  32.251  1.00  0.00     0.200 A 
ATOM     98  F   UNL A   1      43.541  37.450  34.484  1.00  0.00    -0.200 F 
ATOM     99  F   UNL A   1      44.397  39.271  32.643  1.00  0.00    -0.200 F 
ENDBRANCH  66  89
ENDBRANCH  40  41
ENDBRANCH  32  35
ENDBRANCH  30  31
ENDBRANCH  29  30
ENDBRANCH   1  29
TORSDOF 15
ENDMDL
MODEL 3
REMARK VINA RESULT:     -12.6      3.716      8.778
REMARK SMILES CCc1ccc(C(=O)NCCCCNC(=O)c2ccc(-c3c4nc(c(-c5c(F)c(F)c(F)c(F)c5F)c5ccc([nH]5)c(-c5c(F)c(F)c(F)c(F)c5F)c5nc(c(-c6c(F)c(F)c(F)c(F)c6F)c6ccc3[nH]6)C=C5)C=C4)cc2)cc1S(=O)(=O)Nc1ccc(F)c(F)c1F
REMARK SMILES IDX 11 1 10 2 9 3 7 4 8 5 6 7 3 8 4 9 81 10 5 11 80 12 2 13 1 14
REMARK SMILES IDX 82 15 83 16 84 17 85 18 86 20 87 21 93 22 88 23 91 24 94 25
REMARK SMILES IDX 89 26 92 27 90 28 12 29 13 30 14 31 15 32 16 34 17 35 18 36
REMARK SMILES IDX 79 37 19 38 78 39 20 40 21 41 22 42 72 43 23 44 77 45 71 46
REMARK SMILES IDX 73 47 24 48 76 49 70 50 69 51 25 53 57 54 37 55 56 56 38 57
REMARK SMILES IDX 41 58 55 59 74 60 39 61 40 62 54 64 75 65 42 66 26 67 27 68
REMARK SMILES IDX 35 69 28 70 29 71 33 72 36 73 30 74 31 75 34 76 32 77 58 78
REMARK SMILES IDX 59 79 67 80 60 81 61 82 65 83 68 84 62 85 63 86 66 87 64 88
REMARK SMILES IDX 43 89 44 90 52 91 45 92 46 93 50 94 53 95 47 96 48 97 51 98
REMARK SMILES IDX 49 99
REMARK H PARENT 9 6 85 19 14 33 73 52 41 63
REMARK Flexibility Score: inf
ROOT
ATOM      1  C   UNL A   1      33.320  29.239  24.548  1.00  0.00     0.023 C 
ENDROOT
BRANCH   1   2
ATOM      2  C   UNL A   1      33.325  28.965  23.044  1.00  0.00     0.116 C 
BRANCH   2   3
ATOM      3  N   UNL A   1      31.995  29.195  22.507  1.00  0.00    -0.352 N 
ATOM      4  C   UNL A   1      30.904  28.371  22.410  1.00  0.00     0.251 C 
ATOM      5  O   UNL A   1      29.902  28.778  21.826  1.00  0.00    -0.269 OA
ATOM      6  H   UNL A   1      31.854  30.101  22.149  1.00  0.00     0.163 HD
BRANCH   4   7
ATOM      7  C   UNL A   1      30.856  27.076  23.129  1.00  0.00     0.041 A 
ATOM      8  C   UNL A   1      31.008  24.978  25.005  1.00  0.00    -0.028 A 
ATOM      9  C   UNL A   1      29.950  25.913  25.028  1.00  0.00     0.006 A 
ATOM     10  C   UNL A   1      31.863  24.984  23.882  1.00  0.00     0.091 A 
ATOM     11  C   UNL A   1      29.880  26.954  24.110  1.00  0.00     0.014 A 
ATOM     12  C   UNL A   1      31.766  26.037  22.945  1.00  0.00     0.036 A 
BRANCH   8  13
ATOM     13  C   UNL A   1      31.116  24.129  26.246  1.00  0.00     0.033 C 
ATOM     14  C   UNL A   1      30.656  22.687  26.079  1.00  0.00     0.009 C 
ENDBRANCH   8  13
BRANCH  10  15
ATOM     15  S   UNL A   1      33.185  23.834  23.496  1.00  0.00     0.262 S 
ATOM     16  O   UNL A   1      32.585  22.606  23.018  1.00  0.00    -0.201 OA
ATOM     17  O   UNL A   1      34.090  24.570  22.636  1.00  0.00    -0.201 OA
BRANCH  15  18
ATOM     18  N   UNL A   1      34.079  23.488  24.855  1.00  0.00    -0.277 N 
ATOM     19  H   UNL A   1      33.637  23.645  25.720  1.00  0.00     0.180 HD
BRANCH  18  20
ATOM     20  C   UNL A   1      35.411  22.990  24.905  1.00  0.00     0.088 A 
ATOM     21  C   UNL A   1      36.375  23.923  25.331  1.00  0.00     0.033 A 
ATOM     22  C   UNL A   1      35.786  21.649  24.758  1.00  0.00     0.185 A 
ATOM     23  C   UNL A   1      37.645  23.499  25.725  1.00  0.00     0.045 A 
ATOM     24  C   UNL A   1      37.060  21.234  25.131  1.00  0.00     0.196 A 
ATOM     25  F   UNL A   1      34.910  20.720  24.355  1.00  0.00    -0.201 F 
ATOM     26  C   UNL A   1      37.970  22.150  25.642  1.00  0.00     0.162 A 
ATOM     27  F   UNL A   1      37.385  19.936  25.067  1.00  0.00    -0.200 F 
ATOM     28  F   UNL A   1      39.160  21.738  26.096  1.00  0.00    -0.204 F 
ENDBRANCH  18  20
ENDBRANCH  15  18
ENDBRANCH  10  15
ENDBRANCH   4   7
ENDBRANCH   2   3
ENDBRANCH   1   2
BRANCH   1  29
ATOM     29  C   UNL A   1      33.680  28.011  25.393  1.00  0.00     0.023 C 
BRANCH  29  30
ATOM     30  C   UNL A   1      33.750  28.272  26.894  1.00  0.00     0.116 C 
BRANCH  30  31
ATOM     31  N   UNL A   1      33.546  29.670  27.232  1.00  0.00    -0.352 N 
ATOM     32  C   UNL A   1      34.386  30.523  27.901  1.00  0.00     0.251 C 
ATOM     33  H   UNL A   1      32.689  30.058  26.943  1.00  0.00     0.163 HD
ATOM     34  O   UNL A   1      34.008  31.645  28.218  1.00  0.00    -0.269 OA
BRANCH  32  35
ATOM     35  C   UNL A   1      35.743  30.071  28.269  1.00  0.00     0.039 A 
ATOM     36  C   UNL A   1      36.764  30.189  27.324  1.00  0.00     0.014 A 
ATOM     37  C   UNL A   1      36.005  29.535  29.532  1.00  0.00     0.014 A 
ATOM     38  C   UNL A   1      38.064  29.813  27.662  1.00  0.00     0.010 A 
ATOM     39  C   UNL A   1      37.314  29.221  29.890  1.00  0.00     0.010 A 
ATOM     40  C   UNL A   1      38.353  29.348  28.956  1.00  0.00    -0.014 A 
BRANCH  40  41
ATOM     41  C   UNL A   1      39.736  28.977  29.338  1.00  0.00     0.031 A 
ATOM     42  C   UNL A   1      40.543  29.883  30.224  1.00  0.00     0.074 A 
ATOM     43  C   UNL A   1      40.280  27.846  28.847  1.00  0.00     0.049 A 
ATOM     44  N   UNL A   1      41.776  29.746  30.646  1.00  0.00    -0.248 NA
ATOM     45  C   UNL A   1      39.889  31.120  30.676  1.00  0.00     0.031 C 
ATOM     46  C   UNL A   1      39.614  26.917  27.933  1.00  0.00     0.029 A 
ATOM     47  N   UNL A   1      41.518  27.291  29.045  1.00  0.00    -0.354 N 
ATOM     48  C   UNL A   1      42.046  30.883  31.397  1.00  0.00     0.074 A 
ATOM     49  C   UNL A   1      40.870  31.724  31.329  1.00  0.00     0.031 C 
ATOM     50  C   UNL A   1      40.441  25.893  27.670  1.00  0.00     0.029 A 
ATOM     51  C   UNL A   1      41.703  26.108  28.372  1.00  0.00     0.049 A 
ATOM     52  H   UNL A   1      42.209  27.701  29.614  1.00  0.00     0.167 HD
ATOM     53  C   UNL A   1      43.162  31.184  32.101  1.00  0.00     0.037 A 
ATOM     54  C   UNL A   1      42.771  25.289  28.332  1.00  0.00     0.037 A 
ATOM     55  C   UNL A   1      44.318  30.331  32.187  1.00  0.00     0.049 A 
ATOM     56  C   UNL A   1      43.991  25.636  29.141  1.00  0.00     0.074 A 
ATOM     57  C   UNL A   1      45.480  30.519  32.915  1.00  0.00     0.029 A 
ATOM     58  N   UNL A   1      44.457  29.123  31.519  1.00  0.00    -0.354 N 
ATOM     59  N   UNL A   1      44.208  26.678  29.906  1.00  0.00    -0.248 NA
ATOM     60  C   UNL A   1      45.108  24.683  29.093  1.00  0.00     0.031 C 
ATOM     61  C   UNL A   1      46.337  29.443  32.659  1.00  0.00     0.029 A 
ATOM     62  C   UNL A   1      45.690  28.560  31.809  1.00  0.00     0.049 A 
ATOM     63  H   UNL A   1      43.780  28.724  30.927  1.00  0.00     0.167 HD
ATOM     64  C   UNL A   1      45.470  26.493  30.454  1.00  0.00     0.074 A 
ATOM     65  C   UNL A   1      45.963  25.230  29.946  1.00  0.00     0.031 C 
ATOM     66  C   UNL A   1      46.159  27.296  31.303  1.00  0.00     0.037 A 
BRANCH  53  67
ATOM     67  C   UNL A   1      43.183  32.491  32.841  1.00  0.00     0.064 A 
ATOM     68  C   UNL A   1      42.727  32.592  34.164  1.00  0.00     0.173 A 
ATOM     69  C   UNL A   1      43.689  33.648  32.231  1.00  0.00     0.173 A 
ATOM     70  F   UNL A   1      42.220  31.518  34.788  1.00  0.00    -0.203 F 
ATOM     71  C   UNL A   1      42.748  33.811  34.839  1.00  0.00     0.198 A 
ATOM     72  C   UNL A   1      43.738  34.857  32.919  1.00  0.00     0.198 A 
ATOM     73  F   UNL A   1      44.141  33.606  30.969  1.00  0.00    -0.203 F 
ATOM     74  F   UNL A   1      42.259  33.895  36.083  1.00  0.00    -0.200 F 
ATOM     75  C   UNL A   1      43.260  34.940  34.218  1.00  0.00     0.200 A 
ATOM     76  F   UNL A   1      44.243  35.946  32.323  1.00  0.00    -0.200 F 
ATOM     77  F   UNL A   1      43.285  36.111  34.870  1.00  0.00    -0.200 F 
ENDBRANCH  53  67
BRANCH  54  78
ATOM     78  C   UNL A   1      42.718  24.039  27.530  1.00  0.00     0.064 A 
ATOM     79  C   UNL A   1      42.344  22.824  28.119  1.00  0.00     0.173 A 
ATOM     80  C   UNL A   1      43.045  24.032  26.168  1.00  0.00     0.173 A 
ATOM     81  F   UNL A   1      42.041  22.777  29.425  1.00  0.00    -0.203 F 
ATOM     82  C   UNL A   1      42.322  21.642  27.381  1.00  0.00     0.198 A 
ATOM     83  C   UNL A   1      42.997  22.854  25.423  1.00  0.00     0.198 A 
ATOM     84  F   UNL A   1      43.403  25.170  25.556  1.00  0.00    -0.203 F 
ATOM     85  F   UNL A   1      42.009  20.485  27.981  1.00  0.00    -0.200 F 
ATOM     86  C   UNL A   1      42.644  21.659  26.032  1.00  0.00     0.200 A 
ATOM     87  F   UNL A   1      43.295  22.877  24.117  1.00  0.00    -0.200 F 
ATOM     88  F   UNL A   1      42.623  20.524  25.322  1.00  0.00    -0.200 F 
ENDBRANCH  54  78
BRANCH  66  89
ATOM     89  C   UNL A   1      47.501  26.809  31.767  1.00  0.00     0.064 A 
ATOM     90  C   UNL A   1      47.641  26.007  32.910  1.00  0.00     0.173 A 
ATOM     91  C   UNL A   1      48.659  27.130  31.043  1.00  0.00     0.173 A 
ATOM     92  F   UNL A   1      46.566  25.684  33.644  1.00  0.00    -0.203 F 
ATOM     93  C   UNL A   1      48.895  25.574  33.329  1.00  0.00     0.198 A 
ATOM     94  C   UNL A   1      49.908  26.669  31.447  1.00  0.00     0.198 A 
ATOM     95  F   UNL A   1      48.577  27.888  29.938  1.00  0.00    -0.203 F 
ATOM     96  F   UNL A   1      49.013  24.856  34.454  1.00  0.00    -0.200 F 
ATOM     97  C   UNL A   1      50.027  25.899  32.594  1.00  0.00     0.200 A 
ATOM     98  F   UNL A   1      50.998  26.974  30.729  1.00  0.00    -0.200 F 
ATOM     99  F   UNL A   1      51.233  25.480  32.999  1.00  0.00    -0.200 F 
ENDBRANCH  66  89
ENDBRANCH  40  41
ENDBRANCH  32  35
ENDBRANCH  30  31
ENDBRANCH  29  30
ENDBRANCH   1  29
TORSDOF 15
ENDMDL
