MODEL 1
REMARK VINA RESULT:     -12.1      0.000      0.000
REMARK SMILES COC(=O)[C@H]1CN(C(=O)[C@@H]2CC=CC[C@@H]2C(=O)NCCCCNC(=O)c2ccc(-c3c4nc(c(-c5c(F)c(F)c(F)c(F)c5F)c5ccc([nH]5)c(-c5c(F)c(F)c(F)c(F)c5F)c5nc(c(-c6c(F)c(F)c(F)c(F)c6F)c6ccc3[nH]6)C=C5)C=C4)cc2)C[C@H]1C
REMARK SMILES IDX 19 1 18 2 16 3 17 4 15 6 10 7 11 8 12 9 14 10 13 11 8 12
REMARK SMILES IDX 9 13 7 14 5 15 6 16 90 17 89 18 91 19 3 20 4 21 2 22 1 23
REMARK SMILES IDX 20 24 21 25 22 26 23 27 24 28 25 30 26 31 27 32 88 33 28 34
REMARK SMILES IDX 87 35 29 36 30 37 31 38 81 39 32 40 86 41 80 42 82 43 33 44
REMARK SMILES IDX 85 45 79 46 78 47 34 49 66 50 46 51 65 52 47 53 50 54 64 55
REMARK SMILES IDX 83 56 48 57 49 58 63 60 84 61 51 62 35 63 36 64 44 65 37 66
REMARK SMILES IDX 38 67 42 68 45 69 39 70 40 71 43 72 41 73 67 74 68 75 76 76
REMARK SMILES IDX 69 77 70 78 74 79 77 80 71 81 72 82 75 83 73 84 52 85 53 86
REMARK SMILES IDX 61 87 54 88 55 89 59 90 62 91 56 92 57 93 60 94 58 95
REMARK H PARENT 18 5 23 29 82 48 50 59
REMARK Flexibility Score: inf
ROOT
ATOM      1  C   UNL A   1      37.087  23.372  24.794  1.00  0.00     0.116 C 
ENDROOT
BRANCH   1   2
ATOM      2  N   UNL A   1      36.068  23.318  23.778  1.00  0.00    -0.356 N 
ATOM      3  C   UNL A   1      34.779  23.724  23.800  1.00  0.00     0.224 C 
ATOM      4  O   UNL A   1      34.285  23.946  22.685  1.00  0.00    -0.275 OA
ATOM      5  H   UNL A   1      36.358  22.918  22.926  1.00  0.00     0.163 HD
BRANCH   3   6
ATOM      6  C   UNL A   1      33.870  23.821  25.030  1.00  0.00     0.095 C 
ATOM      7  C   UNL A   1      32.421  23.327  25.202  1.00  0.00     0.095 C 
ATOM      8  C   UNL A   1      31.310  24.227  24.596  1.00  0.00     0.041 C 
ATOM      9  C   UNL A   1      31.725  25.639  24.306  1.00  0.00    -0.030 C 
ATOM     10  C   UNL A   1      33.930  25.326  25.416  1.00  0.00     0.041 C 
ATOM     11  C   UNL A   1      32.903  26.146  24.690  1.00  0.00    -0.030 C 
BRANCH   7  12
ATOM     12  C   UNL A   1      31.933  21.863  25.249  1.00  0.00     0.226 C 
ATOM     13  O   UNL A   1      30.879  21.671  25.881  1.00  0.00    -0.275 OA
BRANCH  12  14
ATOM     14  N   UNL A   1      32.513  20.789  24.633  1.00  0.00    -0.341 N 
ATOM     15  C   UNL A   1      32.650  18.420  24.657  1.00  0.00     0.123 C 
ATOM     16  C   UNL A   1      33.042  19.682  25.433  1.00  0.00     0.135 C 
ATOM     17  C   UNL A   1      32.094  18.939  23.315  1.00  0.00     0.021 C 
ATOM     18  C   UNL A   1      32.600  20.380  23.252  1.00  0.00     0.123 C 
ATOM     19  C   UNL A   1      32.389  18.135  22.062  1.00  0.00     0.010 C 
BRANCH  15  20
ATOM     20  C   UNL A   1      33.814  17.468  24.536  1.00  0.00     0.310 C 
ATOM     21  O   UNL A   1      34.980  17.806  24.402  1.00  0.00    -0.252 OA
BRANCH  20  22
ATOM     22  O   UNL A   1      33.356  16.186  24.547  1.00  0.00    -0.469 OA
ATOM     23  C   UNL A   1      32.480  15.836  25.621  1.00  0.00     0.282 C 
ENDBRANCH  20  22
ENDBRANCH  15  20
ENDBRANCH  12  14
ENDBRANCH   7  12
ENDBRANCH   3   6
ENDBRANCH   1   2
BRANCH   1  24
ATOM     24  C   UNL A   1      37.136  22.119  25.655  1.00  0.00     0.023 C 
BRANCH  24  25
ATOM     25  C   UNL A   1      38.186  21.107  25.194  1.00  0.00     0.023 C 
BRANCH  25  26
ATOM     26  C   UNL A   1      39.425  21.007  26.081  1.00  0.00     0.116 C 
BRANCH  26  27
ATOM     27  N   UNL A   1      40.163  19.761  25.924  1.00  0.00    -0.352 N 
ATOM     28  C   UNL A   1      41.514  19.571  26.110  1.00  0.00     0.251 C 
ATOM     29  H   UNL A   1      39.641  18.970  25.656  1.00  0.00     0.163 HD
ATOM     30  O   UNL A   1      42.053  18.492  25.896  1.00  0.00    -0.269 OA
BRANCH  28  31
ATOM     31  C   UNL A   1      42.307  20.735  26.542  1.00  0.00     0.039 A 
ATOM     32  C   UNL A   1      42.841  21.587  25.574  1.00  0.00     0.014 A 
ATOM     33  C   UNL A   1      42.358  21.057  27.901  1.00  0.00     0.014 A 
ATOM     34  C   UNL A   1      43.361  22.820  25.966  1.00  0.00     0.010 A 
ATOM     35  C   UNL A   1      42.824  22.309  28.280  1.00  0.00     0.010 A 
ATOM     36  C   UNL A   1      43.311  23.208  27.315  1.00  0.00    -0.014 A 
BRANCH  36  37
ATOM     37  C   UNL A   1      43.745  24.556  27.754  1.00  0.00     0.031 A 
ATOM     38  C   UNL A   1      42.712  25.583  28.110  1.00  0.00     0.074 A 
ATOM     39  C   UNL A   1      45.051  24.885  27.727  1.00  0.00     0.049 A 
ATOM     40  N   UNL A   1      42.860  26.860  28.348  1.00  0.00    -0.248 NA
ATOM     41  C   UNL A   1      41.317  25.116  28.167  1.00  0.00     0.031 C 
ATOM     42  C   UNL A   1      46.147  23.986  27.360  1.00  0.00     0.029 A 
ATOM     43  N   UNL A   1      45.676  26.079  27.992  1.00  0.00    -0.354 N 
ATOM     44  C   UNL A   1      41.579  27.355  28.548  1.00  0.00     0.074 A 
ATOM     45  C   UNL A   1      40.663  26.249  28.371  1.00  0.00     0.031 C 
ATOM     46  C   UNL A   1      47.309  24.657  27.431  1.00  0.00     0.029 A 
ATOM     47  C   UNL A   1      47.037  26.041  27.810  1.00  0.00     0.049 A 
ATOM     48  H   UNL A   1      45.194  26.885  28.284  1.00  0.00     0.167 HD
ATOM     49  C   UNL A   1      41.204  28.615  28.866  1.00  0.00     0.037 A 
ATOM     50  C   UNL A   1      47.958  27.017  27.922  1.00  0.00     0.037 A 
ATOM     51  C   UNL A   1      42.121  29.699  29.091  1.00  0.00     0.049 A 
ATOM     52  C   UNL A   1      47.517  28.404  28.303  1.00  0.00     0.074 A 
ATOM     53  C   UNL A   1      41.844  30.996  29.486  1.00  0.00     0.029 A 
ATOM     54  N   UNL A   1      43.497  29.608  28.946  1.00  0.00    -0.354 N 
ATOM     55  N   UNL A   1      46.308  28.850  28.537  1.00  0.00    -0.248 NA
ATOM     56  C   UNL A   1      48.568  29.423  28.435  1.00  0.00     0.031 C 
ATOM     57  C   UNL A   1      43.052  31.697  29.556  1.00  0.00     0.029 A 
ATOM     58  C   UNL A   1      44.083  30.829  29.235  1.00  0.00     0.049 A 
ATOM     59  H   UNL A   1      43.985  28.797  28.677  1.00  0.00     0.167 HD
ATOM     60  C   UNL A   1      46.452  30.189  28.871  1.00  0.00     0.074 A 
ATOM     61  C   UNL A   1      47.869  30.485  28.813  1.00  0.00     0.031 C 
ATOM     62  C   UNL A   1      45.497  31.094  29.193  1.00  0.00     0.037 A 
BRANCH  49  63
ATOM     63  C   UNL A   1      39.735  28.885  28.995  1.00  0.00     0.064 A 
ATOM     64  C   UNL A   1      39.068  28.743  30.220  1.00  0.00     0.173 A 
ATOM     65  C   UNL A   1      38.992  29.310  27.884  1.00  0.00     0.173 A 
ATOM     66  F   UNL A   1      39.733  28.324  31.307  1.00  0.00    -0.203 F 
ATOM     67  C   UNL A   1      37.701  28.990  30.323  1.00  0.00     0.198 A 
ATOM     68  C   UNL A   1      37.630  29.582  27.997  1.00  0.00     0.198 A 
ATOM     69  F   UNL A   1      39.584  29.463  26.691  1.00  0.00    -0.203 F 
ATOM     70  F   UNL A   1      37.075  28.800  31.492  1.00  0.00    -0.200 F 
ATOM     71  C   UNL A   1      36.986  29.414  29.214  1.00  0.00     0.200 A 
ATOM     72  F   UNL A   1      36.941  29.999  26.926  1.00  0.00    -0.200 F 
ATOM     73  F   UNL A   1      35.671  29.652  29.315  1.00  0.00    -0.200 F 
ENDBRANCH  49  63
BRANCH  50  74
ATOM     74  C   UNL A   1      49.394  26.714  27.690  1.00  0.00     0.064 A 
ATOM     75  C   UNL A   1      50.241  26.405  28.763  1.00  0.00     0.173 A 
ATOM     76  C   UNL A   1      49.947  26.729  26.402  1.00  0.00     0.173 A 
ATOM     77  F   UNL A   1      49.760  26.400  30.014  1.00  0.00    -0.203 F 
ATOM     78  C   UNL A   1      51.593  26.138  28.557  1.00  0.00     0.198 A 
ATOM     79  C   UNL A   1      51.295  26.440  26.196  1.00  0.00     0.198 A 
ATOM     80  F   UNL A   1      49.176  27.015  25.343  1.00  0.00    -0.203 F 
ATOM     81  F   UNL A   1      52.389  25.882  29.604  1.00  0.00    -0.200 F 
ATOM     82  C   UNL A   1      52.118  26.152  27.274  1.00  0.00     0.200 A 
ATOM     83  F   UNL A   1      51.796  26.442  24.953  1.00  0.00    -0.200 F 
ATOM     84  F   UNL A   1      53.418  25.892  27.077  1.00  0.00    -0.200 F 
ENDBRANCH  50  74
BRANCH  62  85
ATOM     85  C   UNL A   1      45.949  32.477  29.553  1.00  0.00     0.064 A 
ATOM     86  C   UNL A   1      46.325  32.806  30.862  1.00  0.00     0.173 A 
ATOM     87  C   UNL A   1      46.072  33.461  28.561  1.00  0.00     0.173 A 
ATOM     88  F   UNL A   1      46.209  31.901  31.845  1.00  0.00    -0.203 F 
ATOM     89  C   UNL A   1      46.802  34.078  31.167  1.00  0.00     0.198 A 
ATOM     90  C   UNL A   1      46.569  34.724  28.865  1.00  0.00     0.198 A 
ATOM     91  F   UNL A   1      45.728  33.189  27.293  1.00  0.00    -0.203 F 
ATOM     92  F   UNL A   1      47.132  34.382  32.430  1.00  0.00    -0.200 F 
ATOM     93  C   UNL A   1      46.932  35.032  30.169  1.00  0.00     0.200 A 
ATOM     94  F   UNL A   1      46.704  35.641  27.898  1.00  0.00    -0.200 F 
ATOM     95  F   UNL A   1      47.405  36.251  30.462  1.00  0.00    -0.200 F 
ENDBRANCH  62  85
ENDBRANCH  36  37
ENDBRANCH  28  31
ENDBRANCH  26  27
ENDBRANCH  25  26
ENDBRANCH  24  25
ENDBRANCH   1  24
TORSDOF 15
ENDMDL
MODEL 2
REMARK VINA RESULT:     -12.1      5.356     10.212
REMARK SMILES COC(=O)[C@H]1CN(C(=O)[C@@H]2CC=CC[C@@H]2C(=O)NCCCCNC(=O)c2ccc(-c3c4nc(c(-c5c(F)c(F)c(F)c(F)c5F)c5ccc([nH]5)c(-c5c(F)c(F)c(F)c(F)c5F)c5nc(c(-c6c(F)c(F)c(F)c(F)c6F)c6ccc3[nH]6)C=C5)C=C4)cc2)C[C@H]1C
REMARK SMILES IDX 19 1 18 2 16 3 17 4 15 6 10 7 11 8 12 9 14 10 13 11 8 12
REMARK SMILES IDX 9 13 7 14 5 15 6 16 90 17 89 18 91 19 3 20 4 21 2 22 1 23
REMARK SMILES IDX 20 24 21 25 22 26 23 27 24 28 25 30 26 31 27 32 88 33 28 34
REMARK SMILES IDX 87 35 29 36 30 37 31 38 81 39 32 40 86 41 80 42 82 43 33 44
REMARK SMILES IDX 85 45 79 46 78 47 34 49 66 50 46 51 65 52 47 53 50 54 64 55
REMARK SMILES IDX 83 56 48 57 49 58 63 60 84 61 51 62 35 63 36 64 44 65 37 66
REMARK SMILES IDX 38 67 42 68 45 69 39 70 40 71 43 72 41 73 67 74 68 75 76 76
REMARK SMILES IDX 69 77 70 78 74 79 77 80 71 81 72 82 75 83 73 84 52 85 53 86
REMARK SMILES IDX 61 87 54 88 55 89 59 90 62 91 56 92 57 93 60 94 58 95
REMARK H PARENT 18 5 23 29 82 48 50 59
REMARK Flexibility Score: inf
ROOT
ATOM      1  C   UNL A   1      32.643  28.152  25.596  1.00  0.00     0.116 C 
ENDROOT
BRANCH   1   2
ATOM      2  N   UNL A   1      31.479  27.501  26.140  1.00  0.00    -0.356 N 
ATOM      3  C   UNL A   1      30.784  26.427  25.702  1.00  0.00     0.224 C 
ATOM      4  O   UNL A   1      30.120  25.848  26.574  1.00  0.00    -0.275 OA
ATOM      5  H   UNL A   1      31.131  27.906  26.968  1.00  0.00     0.163 HD
BRANCH   3   6
ATOM      6  C   UNL A   1      30.658  25.947  24.253  1.00  0.00     0.095 C 
ATOM      7  C   UNL A   1      31.655  26.113  23.090  1.00  0.00     0.095 C 
ATOM      8  C   UNL A   1      31.669  27.497  22.387  1.00  0.00     0.041 C 
ATOM      9  C   UNL A   1      30.453  28.342  22.625  1.00  0.00    -0.030 C 
ATOM     10  C   UNL A   1      29.275  26.493  23.802  1.00  0.00     0.041 C 
ATOM     11  C   UNL A   1      29.359  27.886  23.249  1.00  0.00    -0.030 C 
BRANCH   7  12
ATOM     12  C   UNL A   1      33.039  25.444  22.944  1.00  0.00     0.226 C 
ATOM     13  O   UNL A   1      33.667  25.737  21.912  1.00  0.00    -0.275 OA
BRANCH  12  14
ATOM     14  N   UNL A   1      33.646  24.616  23.847  1.00  0.00    -0.341 N 
ATOM     15  C   UNL A   1      34.974  22.661  24.052  1.00  0.00     0.123 C 
ATOM     16  C   UNL A   1      33.577  23.164  23.672  1.00  0.00     0.135 C 
ATOM     17  C   UNL A   1      35.691  23.893  24.641  1.00  0.00     0.021 C 
ATOM     18  C   UNL A   1      34.546  24.858  24.948  1.00  0.00     0.123 C 
ATOM     19  C   UNL A   1      36.636  23.678  25.809  1.00  0.00     0.010 C 
BRANCH  15  20
ATOM     20  C   UNL A   1      34.896  21.470  24.974  1.00  0.00     0.310 C 
ATOM     21  O   UNL A   1      35.707  20.556  25.003  1.00  0.00    -0.252 OA
BRANCH  20  22
ATOM     22  O   UNL A   1      33.764  21.550  25.725  1.00  0.00    -0.469 OA
ATOM     23  C   UNL A   1      33.946  21.613  27.141  1.00  0.00     0.282 C 
ENDBRANCH  20  22
ENDBRANCH  15  20
ENDBRANCH  12  14
ENDBRANCH   7  12
ENDBRANCH   3   6
ENDBRANCH   1   2
BRANCH   1  24
ATOM     24  C   UNL A   1      32.489  29.661  25.498  1.00  0.00     0.023 C 
BRANCH  24  25
ATOM     25  C   UNL A   1      32.244  30.336  26.849  1.00  0.00     0.023 C 
BRANCH  25  26
ATOM     26  C   UNL A   1      33.255  31.415  27.229  1.00  0.00     0.116 C 
BRANCH  26  27
ATOM     27  N   UNL A   1      32.699  32.762  27.249  1.00  0.00    -0.352 N 
ATOM     28  C   UNL A   1      33.098  33.810  28.048  1.00  0.00     0.251 C 
ATOM     29  H   UNL A   1      31.958  32.942  26.626  1.00  0.00     0.163 HD
ATOM     30  O   UNL A   1      32.527  34.893  28.032  1.00  0.00    -0.269 OA
BRANCH  28  31
ATOM     31  C   UNL A   1      34.226  33.568  28.964  1.00  0.00     0.039 A 
ATOM     32  C   UNL A   1      34.031  32.745  30.075  1.00  0.00     0.014 A 
ATOM     33  C   UNL A   1      35.500  34.020  28.611  1.00  0.00     0.014 A 
ATOM     34  C   UNL A   1      35.140  32.300  30.794  1.00  0.00     0.010 A 
ATOM     35  C   UNL A   1      36.604  33.529  29.294  1.00  0.00     0.010 A 
ATOM     36  C   UNL A   1      36.436  32.650  30.379  1.00  0.00    -0.014 A 
BRANCH  36  37
ATOM     37  C   UNL A   1      37.642  32.102  31.044  1.00  0.00     0.031 A 
ATOM     38  C   UNL A   1      38.461  31.059  30.344  1.00  0.00     0.074 A 
ATOM     39  C   UNL A   1      37.933  32.460  32.309  1.00  0.00     0.049 A 
ATOM     40  N   UNL A   1      39.441  30.327  30.804  1.00  0.00    -0.248 NA
ATOM     41  C   UNL A   1      38.101  30.776  28.945  1.00  0.00     0.031 C 
ATOM     42  C   UNL A   1      37.189  33.434  33.111  1.00  0.00     0.029 A 
ATOM     43  N   UNL A   1      38.924  32.024  33.154  1.00  0.00    -0.354 N 
ATOM     44  C   UNL A   1      39.790  29.474  29.767  1.00  0.00     0.074 A 
ATOM     45  C   UNL A   1      38.897  29.754  28.665  1.00  0.00     0.031 C 
ATOM     46  C   UNL A   1      37.754  33.527  34.326  1.00  0.00     0.029 A 
ATOM     47  C   UNL A   1      38.874  32.594  34.403  1.00  0.00     0.049 A 
ATOM     48  H   UNL A   1      39.606  31.365  32.890  1.00  0.00     0.167 HD
ATOM     49  C   UNL A   1      40.779  28.550  29.735  1.00  0.00     0.037 A 
ATOM     50  C   UNL A   1      39.638  32.375  35.491  1.00  0.00     0.037 A 
ATOM     51  C   UNL A   1      41.696  28.309  30.815  1.00  0.00     0.049 A 
ATOM     52  C   UNL A   1      40.747  31.362  35.419  1.00  0.00     0.074 A 
ATOM     53  C   UNL A   1      42.776  27.444  30.853  1.00  0.00     0.029 A 
ATOM     54  N   UNL A   1      41.645  28.944  32.047  1.00  0.00    -0.354 N 
ATOM     55  N   UNL A   1      41.101  30.594  34.418  1.00  0.00    -0.248 NA
ATOM     56  C   UNL A   1      41.564  31.183  36.628  1.00  0.00     0.031 C 
ATOM     57  C   UNL A   1      43.362  27.537  32.120  1.00  0.00     0.029 A 
ATOM     58  C   UNL A   1      42.668  28.482  32.858  1.00  0.00     0.049 A 
ATOM     59  H   UNL A   1      40.979  29.620  32.307  1.00  0.00     0.167 HD
ATOM     60  C   UNL A   1      42.193  29.864  34.862  1.00  0.00     0.074 A 
ATOM     61  C   UNL A   1      42.450  30.283  36.225  1.00  0.00     0.031 C 
ATOM     62  C   UNL A   1      42.918  28.929  34.203  1.00  0.00     0.037 A 
BRANCH  49  63
ATOM     63  C   UNL A   1      40.919  27.735  28.484  1.00  0.00     0.064 A 
ATOM     64  C   UNL A   1      40.188  26.554  28.293  1.00  0.00     0.173 A 
ATOM     65  C   UNL A   1      41.780  28.152  27.459  1.00  0.00     0.173 A 
ATOM     66  F   UNL A   1      39.364  26.107  29.253  1.00  0.00    -0.203 F 
ATOM     67  C   UNL A   1      40.334  25.803  27.130  1.00  0.00     0.198 A 
ATOM     68  C   UNL A   1      41.903  27.412  26.285  1.00  0.00     0.198 A 
ATOM     69  F   UNL A   1      42.499  29.275  27.593  1.00  0.00    -0.203 F 
ATOM     70  F   UNL A   1      39.662  24.652  26.990  1.00  0.00    -0.200 F 
ATOM     71  C   UNL A   1      41.186  26.235  26.126  1.00  0.00     0.200 A 
ATOM     72  F   UNL A   1      42.721  27.835  25.312  1.00  0.00    -0.200 F 
ATOM     73  F   UNL A   1      41.325  25.512  25.006  1.00  0.00    -0.200 F 
ENDBRANCH  49  63
BRANCH  50  74
ATOM     74  C   UNL A   1      39.393  33.146  36.737  1.00  0.00     0.064 A 
ATOM     75  C   UNL A   1      40.071  34.350  36.978  1.00  0.00     0.173 A 
ATOM     76  C   UNL A   1      38.487  32.700  37.708  1.00  0.00     0.173 A 
ATOM     77  F   UNL A   1      40.963  34.804  36.086  1.00  0.00    -0.203 F 
ATOM     78  C   UNL A   1      39.862  35.070  38.152  1.00  0.00     0.198 A 
ATOM     79  C   UNL A   1      38.263  33.433  38.873  1.00  0.00     0.198 A 
ATOM     80  F   UNL A   1      37.812  31.557  37.523  1.00  0.00    -0.203 F 
ATOM     81  F   UNL A   1      40.551  36.197  38.374  1.00  0.00    -0.200 F 
ATOM     82  C   UNL A   1      38.956  34.613  39.096  1.00  0.00     0.200 A 
ATOM     83  F   UNL A   1      37.377  32.995  39.778  1.00  0.00    -0.200 F 
ATOM     84  F   UNL A   1      38.753  35.308  40.224  1.00  0.00    -0.200 F 
ENDBRANCH  50  74
BRANCH  62  85
ATOM     85  C   UNL A   1      44.084  28.324  34.923  1.00  0.00     0.064 A 
ATOM     86  C   UNL A   1      43.956  27.135  35.654  1.00  0.00     0.173 A 
ATOM     87  C   UNL A   1      45.357  28.905  34.821  1.00  0.00     0.173 A 
ATOM     88  F   UNL A   1      42.756  26.554  35.791  1.00  0.00    -0.203 F 
ATOM     89  C   UNL A   1      45.063  26.553  36.265  1.00  0.00     0.198 A 
ATOM     90  C   UNL A   1      46.464  28.309  35.415  1.00  0.00     0.198 A 
ATOM     91  F   UNL A   1      45.527  30.041  34.128  1.00  0.00    -0.203 F 
ATOM     92  F   UNL A   1      44.916  25.430  36.982  1.00  0.00    -0.200 F 
ATOM     93  C   UNL A   1      46.316  27.134  36.139  1.00  0.00     0.200 A 
ATOM     94  F   UNL A   1      47.676  28.866  35.284  1.00  0.00    -0.200 F 
ATOM     95  F   UNL A   1      47.383  26.564  36.717  1.00  0.00    -0.200 F 
ENDBRANCH  62  85
ENDBRANCH  36  37
ENDBRANCH  28  31
ENDBRANCH  26  27
ENDBRANCH  25  26
ENDBRANCH  24  25
ENDBRANCH   1  24
TORSDOF 15
ENDMDL
MODEL 3
REMARK VINA RESULT:     -12.1      1.779      8.080
REMARK SMILES COC(=O)[C@H]1CN(C(=O)[C@@H]2CC=CC[C@@H]2C(=O)NCCCCNC(=O)c2ccc(-c3c4nc(c(-c5c(F)c(F)c(F)c(F)c5F)c5ccc([nH]5)c(-c5c(F)c(F)c(F)c(F)c5F)c5nc(c(-c6c(F)c(F)c(F)c(F)c6F)c6ccc3[nH]6)C=C5)C=C4)cc2)C[C@H]1C
REMARK SMILES IDX 19 1 18 2 16 3 17 4 15 6 10 7 11 8 12 9 14 10 13 11 8 12
REMARK SMILES IDX 9 13 7 14 5 15 6 16 90 17 89 18 91 19 3 20 4 21 2 22 1 23
REMARK SMILES IDX 20 24 21 25 22 26 23 27 24 28 25 30 26 31 27 32 88 33 28 34
REMARK SMILES IDX 87 35 29 36 30 37 31 38 81 39 32 40 86 41 80 42 82 43 33 44
REMARK SMILES IDX 85 45 79 46 78 47 34 49 66 50 46 51 65 52 47 53 50 54 64 55
REMARK SMILES IDX 83 56 48 57 49 58 63 60 84 61 51 62 35 63 36 64 44 65 37 66
REMARK SMILES IDX 38 67 42 68 45 69 39 70 40 71 43 72 41 73 67 74 68 75 76 76
REMARK SMILES IDX 69 77 70 78 74 79 77 80 71 81 72 82 75 83 73 84 52 85 53 86
REMARK SMILES IDX 61 87 54 88 55 89 59 90 62 91 56 92 57 93 60 94 58 95
REMARK H PARENT 18 5 23 29 82 48 50 59
REMARK Flexibility Score: inf
ROOT
ATOM      1  C   UNL A   1      38.482  23.705  25.990  1.00  0.00     0.116 C 
ENDROOT
BRANCH   1   2
ATOM      2  N   UNL A   1      37.109  23.837  26.404  1.00  0.00    -0.356 N 
ATOM      3  C   UNL A   1      35.987  23.247  25.937  1.00  0.00     0.224 C 
ATOM      4  O   UNL A   1      35.043  23.216  26.741  1.00  0.00    -0.275 OA
ATOM      5  H   UNL A   1      36.964  24.462  27.152  1.00  0.00     0.163 HD
BRANCH   3   6
ATOM      6  C   UNL A   1      35.747  22.731  24.514  1.00  0.00     0.095 C 
ATOM      7  C   UNL A   1      34.454  22.773  23.677  1.00  0.00     0.095 C 
ATOM      8  C   UNL A   1      33.388  21.692  24.002  1.00  0.00     0.041 C 
ATOM      9  C   UNL A   1      33.899  20.506  24.764  1.00  0.00    -0.030 C 
ATOM     10  C   UNL A   1      36.260  21.265  24.561  1.00  0.00     0.041 C 
ATOM     11  C   UNL A   1      35.200  20.299  25.005  1.00  0.00    -0.030 C 
BRANCH   7  12
ATOM     12  C   UNL A   1      33.763  24.022  23.090  1.00  0.00     0.226 C 
ATOM     13  O   UNL A   1      33.538  23.983  21.867  1.00  0.00    -0.275 OA
BRANCH  12  14
ATOM     14  N   UNL A   1      33.340  25.123  23.781  1.00  0.00    -0.341 N 
ATOM     15  C   UNL A   1      32.340  25.835  25.812  1.00  0.00     0.123 C 
ATOM     16  C   UNL A   1      32.064  25.094  24.498  1.00  0.00     0.135 C 
ATOM     17  C   UNL A   1      33.750  26.437  25.636  1.00  0.00     0.021 C 
ATOM     18  C   UNL A   1      33.982  26.369  24.127  1.00  0.00     0.123 C 
ATOM     19  C   UNL A   1      34.020  27.806  26.233  1.00  0.00     0.010 C 
BRANCH  15  20
ATOM     20  C   UNL A   1      31.254  26.838  26.113  1.00  0.00     0.310 C 
ATOM     21  O   UNL A   1      30.919  27.185  27.236  1.00  0.00    -0.252 OA
BRANCH  20  22
ATOM     22  O   UNL A   1      30.680  27.250  24.951  1.00  0.00    -0.469 OA
ATOM     23  C   UNL A   1      30.931  28.604  24.565  1.00  0.00     0.282 C 
ENDBRANCH  20  22
ENDBRANCH  15  20
ENDBRANCH  12  14
ENDBRANCH   7  12
ENDBRANCH   3   6
ENDBRANCH   1   2
BRANCH   1  24
ATOM     24  C   UNL A   1      39.260  22.698  26.822  1.00  0.00     0.023 C 
BRANCH  24  25
ATOM     25  C   UNL A   1      39.704  21.468  26.027  1.00  0.00     0.023 C 
BRANCH  25  26
ATOM     26  C   UNL A   1      40.336  20.353  26.857  1.00  0.00     0.116 C 
BRANCH  26  27
ATOM     27  N   UNL A   1      41.192  19.459  26.088  1.00  0.00    -0.352 N 
ATOM     28  C   UNL A   1      42.481  19.703  25.672  1.00  0.00     0.251 C 
ATOM     29  H   UNL A   1      40.808  18.587  25.839  1.00  0.00     0.163 HD
ATOM     30  O   UNL A   1      43.101  18.908  24.977  1.00  0.00    -0.269 OA
BRANCH  28  31
ATOM     31  C   UNL A   1      43.085  20.989  26.063  1.00  0.00     0.039 A 
ATOM     32  C   UNL A   1      43.378  21.928  25.073  1.00  0.00     0.014 A 
ATOM     33  C   UNL A   1      43.187  21.309  27.420  1.00  0.00     0.014 A 
ATOM     34  C   UNL A   1      43.699  23.233  25.446  1.00  0.00     0.010 A 
ATOM     35  C   UNL A   1      43.450  22.623  27.785  1.00  0.00     0.010 A 
ATOM     36  C   UNL A   1      43.689  23.600  26.802  1.00  0.00    -0.014 A 
BRANCH  36  37
ATOM     37  C   UNL A   1      43.908  25.001  27.232  1.00  0.00     0.031 A 
ATOM     38  C   UNL A   1      45.308  25.499  27.438  1.00  0.00     0.074 A 
ATOM     39  C   UNL A   1      42.856  25.783  27.539  1.00  0.00     0.049 A 
ATOM     40  N   UNL A   1      45.719  26.619  27.971  1.00  0.00    -0.248 NA
ATOM     41  C   UNL A   1      46.391  24.594  27.021  1.00  0.00     0.031 C 
ATOM     42  C   UNL A   1      41.447  25.400  27.419  1.00  0.00     0.029 A 
ATOM     43  N   UNL A   1      42.810  27.062  28.040  1.00  0.00    -0.354 N 
ATOM     44  C   UNL A   1      47.105  26.539  27.987  1.00  0.00     0.074 A 
ATOM     45  C   UNL A   1      47.464  25.248  27.442  1.00  0.00     0.031 C 
ATOM     46  C   UNL A   1      40.677  26.422  27.827  1.00  0.00     0.029 A 
ATOM     47  C   UNL A   1      41.535  27.517  28.272  1.00  0.00     0.049 A 
ATOM     48  H   UNL A   1      43.614  27.599  28.216  1.00  0.00     0.167 HD
ATOM     49  C   UNL A   1      47.996  27.467  28.406  1.00  0.00     0.037 A 
ATOM     50  C   UNL A   1      41.108  28.681  28.799  1.00  0.00     0.037 A 
ATOM     51  C   UNL A   1      47.636  28.768  28.901  1.00  0.00     0.049 A 
ATOM     52  C   UNL A   1      42.121  29.706  29.232  1.00  0.00     0.074 A 
ATOM     53  C   UNL A   1      48.469  29.806  29.283  1.00  0.00     0.029 A 
ATOM     54  N   UNL A   1      46.334  29.212  29.073  1.00  0.00    -0.354 N 
ATOM     55  N   UNL A   1      43.429  29.641  29.198  1.00  0.00    -0.248 NA
ATOM     56  C   UNL A   1      41.598  30.967  29.776  1.00  0.00     0.031 C 
ATOM     57  C   UNL A   1      47.668  30.869  29.713  1.00  0.00     0.029 A 
ATOM     58  C   UNL A   1      46.339  30.506  29.566  1.00  0.00     0.049 A 
ATOM     59  H   UNL A   1      45.527  28.685  28.875  1.00  0.00     0.167 HD
ATOM     60  C   UNL A   1      43.886  30.856  29.688  1.00  0.00     0.074 A 
ATOM     61  C   UNL A   1      42.715  31.645  30.009  1.00  0.00     0.031 C 
ATOM     62  C   UNL A   1      45.161  31.280  29.858  1.00  0.00     0.037 A 
BRANCH  49  63
ATOM     63  C   UNL A   1      49.450  27.106  28.340  1.00  0.00     0.064 A 
ATOM     64  C   UNL A   1      50.204  27.309  27.175  1.00  0.00     0.173 A 
ATOM     65  C   UNL A   1      50.099  26.568  29.461  1.00  0.00     0.173 A 
ATOM     66  F   UNL A   1      49.623  27.805  26.073  1.00  0.00    -0.203 F 
ATOM     67  C   UNL A   1      51.551  26.961  27.126  1.00  0.00     0.198 A 
ATOM     68  C   UNL A   1      51.453  26.246  29.416  1.00  0.00     0.198 A 
ATOM     69  F   UNL A   1      49.421  26.357  30.599  1.00  0.00    -0.203 F 
ATOM     70  F   UNL A   1      52.240  27.118  25.987  1.00  0.00    -0.200 F 
ATOM     71  C   UNL A   1      52.175  26.436  28.247  1.00  0.00     0.200 A 
ATOM     72  F   UNL A   1      52.057  25.746  30.503  1.00  0.00    -0.200 F 
ATOM     73  F   UNL A   1      53.472  26.102  28.198  1.00  0.00    -0.200 F 
ENDBRANCH  49  63
BRANCH  50  74
ATOM     74  C   UNL A   1      39.653  28.949  28.929  1.00  0.00     0.064 A 
ATOM     75  C   UNL A   1      39.007  28.798  30.164  1.00  0.00     0.173 A 
ATOM     76  C   UNL A   1      38.882  29.354  27.832  1.00  0.00     0.173 A 
ATOM     77  F   UNL A   1      39.701  28.392  31.237  1.00  0.00    -0.203 F 
ATOM     78  C   UNL A   1      37.639  29.029  30.292  1.00  0.00     0.198 A 
ATOM     79  C   UNL A   1      37.517  29.606  27.966  1.00  0.00     0.198 A 
ATOM     80  F   UNL A   1      39.455  29.517  26.631  1.00  0.00    -0.203 F 
ATOM     81  F   UNL A   1      37.039  28.841  31.475  1.00  0.00    -0.200 F 
ATOM     82  C   UNL A   1      36.896  29.436  29.195  1.00  0.00     0.200 A 
ATOM     83  F   UNL A   1      36.805  30.011  26.906  1.00  0.00    -0.200 F 
ATOM     84  F   UNL A   1      35.581  29.660  29.319  1.00  0.00    -0.200 F 
ENDBRANCH  50  74
BRANCH  62  85
ATOM     85  C   UNL A   1      45.363  32.672  30.374  1.00  0.00     0.064 A 
ATOM     86  C   UNL A   1      45.407  33.773  29.509  1.00  0.00     0.173 A 
ATOM     87  C   UNL A   1      45.443  32.910  31.754  1.00  0.00     0.173 A 
ATOM     88  F   UNL A   1      45.350  33.591  28.182  1.00  0.00    -0.203 F 
ATOM     89  C   UNL A   1      45.533  35.066  30.009  1.00  0.00     0.198 A 
ATOM     90  C   UNL A   1      45.546  34.205  32.251  1.00  0.00     0.198 A 
ATOM     91  F   UNL A   1      45.400  31.885  32.620  1.00  0.00    -0.203 F 
ATOM     92  F   UNL A   1      45.599  36.105  29.164  1.00  0.00    -0.200 F 
ATOM     93  C   UNL A   1      45.593  35.282  31.378  1.00  0.00     0.200 A 
ATOM     94  F   UNL A   1      45.594  34.413  33.574  1.00  0.00    -0.200 F 
ATOM     95  F   UNL A   1      45.700  36.529  31.857  1.00  0.00    -0.200 F 
ENDBRANCH  62  85
ENDBRANCH  36  37
ENDBRANCH  28  31
ENDBRANCH  26  27
ENDBRANCH  25  26
ENDBRANCH  24  25
ENDBRANCH   1  24
TORSDOF 15
ENDMDL
