MODEL 1
REMARK VINA RESULT:     -11.1      0.000      0.000
REMARK SMILES CC[C@H](CCO)CNc1cc(C(=O)NCCCCNC(=O)c2ccc(-c3c4nc(c(-c5c(F)c(F)c(F)c(F)c5F)c5ccc([nH]5)c(-c5c(F)c(F)c(F)c(F)c5F)c5nc(c(-c6c(F)c(F)c(F)c(F)c6F)c6ccc3[nH]6)C=C5)C=C4)cc2)ccn1
REMARK SMILES IDX 12 1 13 2 14 3 11 5 9 6 10 7 87 8 86 9 85 10 8 11 7 13 3 14
REMARK SMILES IDX 2 15 1 16 4 17 5 18 6 19 15 21 16 22 17 23 18 24 19 25 20 26
REMARK SMILES IDX 21 28 22 29 23 30 84 31 24 32 83 33 25 34 26 35 27 36 77 37
REMARK SMILES IDX 28 38 82 39 76 40 78 41 29 42 81 43 75 44 74 45 30 47 62 48
REMARK SMILES IDX 42 49 61 50 43 51 46 52 60 53 79 54 44 55 45 56 59 58 80 59
REMARK SMILES IDX 47 60 31 61 32 62 40 63 33 64 34 65 38 66 41 67 35 68 36 69
REMARK SMILES IDX 39 70 37 71 63 72 64 73 72 74 65 75 66 76 70 77 73 78 67 79
REMARK SMILES IDX 68 80 71 81 69 82 48 83 49 84 57 85 50 86 51 87 55 88 58 89
REMARK SMILES IDX 52 90 53 91 56 92 54 93
REMARK H PARENT 14 4 8 12 6 20 19 27 78 46 46 57
REMARK Flexibility Score: inf
ROOT
ATOM      1  C   UNL A   1      36.523  22.661  23.902  1.00  0.00     0.251 C 
ATOM      2  O   UNL A   1      36.595  22.955  22.709  1.00  0.00    -0.269 OA
ATOM      3  N   UNL A   1      37.659  22.830  24.655  1.00  0.00    -0.352 N 
ATOM      4  H   UNL A   1      38.422  23.186  24.145  1.00  0.00     0.163 HD
ENDROOT
BRANCH   1   5
ATOM      5  C   UNL A   1      35.216  22.208  24.456  1.00  0.00     0.044 A 
ATOM      6  C   UNL A   1      33.718  20.609  25.443  1.00  0.00     0.126 A 
ATOM      7  C   UNL A   1      34.909  20.897  24.796  1.00  0.00     0.060 A 
ATOM      8  N   UNL A   1      32.770  21.541  25.632  1.00  0.00    -0.240 NA
ATOM      9  C   UNL A   1      33.034  22.797  25.215  1.00  0.00     0.114 A 
ATOM     10  C   UNL A   1      34.236  23.180  24.653  1.00  0.00     0.034 A 
BRANCH   6  11
ATOM     11  N   UNL A   1      33.471  19.362  25.972  1.00  0.00    -0.370 N 
ATOM     12  H   UNL A   1      33.695  19.177  26.912  1.00  0.00     0.162 HD
BRANCH  11  13
ATOM     13  C   UNL A   1      32.880  18.316  25.151  1.00  0.00     0.118 C 
BRANCH  13  14
ATOM     14  C   UNL A   1      33.947  17.323  24.623  1.00  0.00     0.010 C 
BRANCH  14  15
ATOM     15  C   UNL A   1      33.673  17.054  23.123  1.00  0.00     0.002 C 
ATOM     16  C   UNL A   1      32.537  17.874  22.523  1.00  0.00     0.004 C 
ENDBRANCH  14  15
BRANCH  14  17
ATOM     17  C   UNL A   1      33.992  16.032  25.475  1.00  0.00     0.033 C 
BRANCH  17  18
ATOM     18  C   UNL A   1      32.696  15.228  25.374  1.00  0.00     0.156 C 
BRANCH  18  19
ATOM     19  O   UNL A   1      32.910  13.875  25.745  1.00  0.00    -0.396 OA
ATOM     20  H   UNL A   1      32.212  13.320  25.363  1.00  0.00     0.210 HD
ENDBRANCH  18  19
ENDBRANCH  17  18
ENDBRANCH  14  17
ENDBRANCH  13  14
ENDBRANCH  11  13
ENDBRANCH   6  11
ENDBRANCH   1   5
BRANCH   3  21
ATOM     21  C   UNL A   1      37.955  22.588  26.052  1.00  0.00     0.116 C 
BRANCH  21  22
ATOM     22  C   UNL A   1      39.377  22.044  26.210  1.00  0.00     0.023 C 
BRANCH  22  23
ATOM     23  C   UNL A   1      39.557  20.624  25.669  1.00  0.00     0.023 C 
BRANCH  23  24
ATOM     24  C   UNL A   1      40.068  19.618  26.692  1.00  0.00     0.116 C 
BRANCH  24  25
ATOM     25  N   UNL A   1      41.198  18.839  26.214  1.00  0.00    -0.352 N 
ATOM     26  C   UNL A   1      42.455  19.274  25.872  1.00  0.00     0.251 C 
ATOM     27  H   UNL A   1      41.041  17.871  26.124  1.00  0.00     0.163 HD
ATOM     28  O   UNL A   1      43.260  18.503  25.370  1.00  0.00    -0.269 OA
BRANCH  26  29
ATOM     29  C   UNL A   1      42.811  20.692  26.083  1.00  0.00     0.039 A 
ATOM     30  C   UNL A   1      42.885  21.173  27.392  1.00  0.00     0.014 A 
ATOM     31  C   UNL A   1      43.075  21.537  25.003  1.00  0.00     0.014 A 
ATOM     32  C   UNL A   1      43.254  22.499  27.615  1.00  0.00     0.010 A 
ATOM     33  C   UNL A   1      43.532  22.830  25.231  1.00  0.00     0.010 A 
ATOM     34  C   UNL A   1      43.598  23.332  26.538  1.00  0.00    -0.014 A 
BRANCH  34  35
ATOM     35  C   UNL A   1      43.986  24.745  26.770  1.00  0.00     0.031 A 
ATOM     36  C   UNL A   1      42.980  25.727  27.303  1.00  0.00     0.074 A 
ATOM     37  C   UNL A   1      45.234  25.150  26.471  1.00  0.00     0.049 A 
ATOM     38  N   UNL A   1      43.135  26.993  27.599  1.00  0.00    -0.248 NA
ATOM     39  C   UNL A   1      41.610  25.231  27.500  1.00  0.00     0.031 C 
ATOM     40  C   UNL A   1      46.275  24.309  25.878  1.00  0.00     0.029 A 
ATOM     41  N   UNL A   1      45.840  26.370  26.625  1.00  0.00    -0.354 N 
ATOM     42  C   UNL A   1      41.884  27.442  28.001  1.00  0.00     0.074 A 
ATOM     43  C   UNL A   1      40.967  26.336  27.841  1.00  0.00     0.031 C 
ATOM     44  C   UNL A   1      47.400  25.028  25.751  1.00  0.00     0.029 A 
ATOM     45  C   UNL A   1      47.151  26.386  26.225  1.00  0.00     0.049 A 
ATOM     46  H   UNL A   1      45.376  27.160  26.988  1.00  0.00     0.167 HD
ATOM     47  C   UNL A   1      41.535  28.658  28.487  1.00  0.00     0.037 A 
ATOM     48  C   UNL A   1      48.055  27.384  26.246  1.00  0.00     0.037 A 
ATOM     49  C   UNL A   1      42.460  29.748  28.658  1.00  0.00     0.049 A 
ATOM     50  C   UNL A   1      47.659  28.716  26.821  1.00  0.00     0.074 A 
ATOM     51  C   UNL A   1      42.231  30.998  29.206  1.00  0.00     0.029 A 
ATOM     52  N   UNL A   1      43.793  29.720  28.270  1.00  0.00    -0.354 N 
ATOM     53  N   UNL A   1      46.496  29.105  27.288  1.00  0.00    -0.248 NA
ATOM     54  C   UNL A   1      48.707  29.741  26.891  1.00  0.00     0.031 C 
ATOM     55  C   UNL A   1      43.408  31.747  29.092  1.00  0.00     0.029 A 
ATOM     56  C   UNL A   1      44.392  30.941  28.542  1.00  0.00     0.049 A 
ATOM     57  H   UNL A   1      44.245  28.947  27.862  1.00  0.00     0.167 HD
ATOM     58  C   UNL A   1      46.679  30.407  27.734  1.00  0.00     0.074 A 
ATOM     59  C   UNL A   1      48.071  30.733  27.497  1.00  0.00     0.031 C 
ATOM     60  C   UNL A   1      45.778  31.253  28.293  1.00  0.00     0.037 A 
BRANCH  47  61
ATOM     61  C   UNL A   1      40.091  28.867  28.851  1.00  0.00     0.064 A 
ATOM     62  C   UNL A   1      39.608  28.625  30.147  1.00  0.00     0.173 A 
ATOM     63  C   UNL A   1      39.173  29.309  27.886  1.00  0.00     0.173 A 
ATOM     64  F   UNL A   1      40.437  28.189  31.108  1.00  0.00    -0.203 F 
ATOM     65  C   UNL A   1      38.256  28.767  30.450  1.00  0.00     0.198 A 
ATOM     66  C   UNL A   1      37.828  29.489  28.203  1.00  0.00     0.198 A 
ATOM     67  F   UNL A   1      39.576  29.562  26.633  1.00  0.00    -0.203 F 
ATOM     68  F   UNL A   1      37.808  28.454  31.674  1.00  0.00    -0.200 F 
ATOM     69  C   UNL A   1      37.368  29.204  29.479  1.00  0.00     0.200 A 
ATOM     70  F   UNL A   1      36.974  29.927  27.267  1.00  0.00    -0.200 F 
ATOM     71  F   UNL A   1      36.067  29.337  29.770  1.00  0.00    -0.200 F 
ENDBRANCH  47  61
BRANCH  48  72
ATOM     72  C   UNL A   1      49.433  27.135  25.749  1.00  0.00     0.064 A 
ATOM     73  C   UNL A   1      49.757  27.304  24.396  1.00  0.00     0.173 A 
ATOM     74  C   UNL A   1      50.461  26.752  26.623  1.00  0.00     0.173 A 
ATOM     75  F   UNL A   1      48.805  27.653  23.518  1.00  0.00    -0.203 F 
ATOM     76  C   UNL A   1      51.052  27.083  23.933  1.00  0.00     0.198 A 
ATOM     77  C   UNL A   1      51.763  26.562  26.164  1.00  0.00     0.198 A 
ATOM     78  F   UNL A   1      50.205  26.588  27.929  1.00  0.00    -0.203 F 
ATOM     79  F   UNL A   1      51.326  27.214  22.628  1.00  0.00    -0.200 F 
ATOM     80  C   UNL A   1      52.056  26.720  24.819  1.00  0.00     0.200 A 
ATOM     81  F   UNL A   1      52.732  26.230  27.027  1.00  0.00    -0.200 F 
ATOM     82  F   UNL A   1      53.305  26.523  24.375  1.00  0.00    -0.200 F 
ENDBRANCH  48  72
BRANCH  60  83
ATOM     83  C   UNL A   1      46.282  32.603  28.724  1.00  0.00     0.064 A 
ATOM     84  C   UNL A   1      46.255  33.715  27.868  1.00  0.00     0.173 A 
ATOM     85  C   UNL A   1      46.794  32.787  30.018  1.00  0.00     0.173 A 
ATOM     86  F   UNL A   1      45.786  33.595  26.617  1.00  0.00    -0.203 F 
ATOM     87  C   UNL A   1      46.764  34.947  28.277  1.00  0.00     0.198 A 
ATOM     88  C   UNL A   1      47.265  34.028  30.436  1.00  0.00     0.198 A 
ATOM     89  F   UNL A   1      46.834  31.761  30.882  1.00  0.00    -0.203 F 
ATOM     90  F   UNL A   1      46.792  35.974  27.418  1.00  0.00    -0.200 F 
ATOM     91  C   UNL A   1      47.263  35.102  29.561  1.00  0.00     0.200 A 
ATOM     92  F   UNL A   1      47.729  34.181  31.683  1.00  0.00    -0.200 F 
ATOM     93  F   UNL A   1      47.754  36.287  29.951  1.00  0.00    -0.200 F 
ENDBRANCH  60  83
ENDBRANCH  34  35
ENDBRANCH  26  29
ENDBRANCH  24  25
ENDBRANCH  23  24
ENDBRANCH  22  23
ENDBRANCH  21  22
ENDBRANCH   3  21
TORSDOF 18
ENDMDL
MODEL 2
REMARK VINA RESULT:     -10.6      4.962      8.319
REMARK SMILES CC[C@H](CCO)CNc1cc(C(=O)NCCCCNC(=O)c2ccc(-c3c4nc(c(-c5c(F)c(F)c(F)c(F)c5F)c5ccc([nH]5)c(-c5c(F)c(F)c(F)c(F)c5F)c5nc(c(-c6c(F)c(F)c(F)c(F)c6F)c6ccc3[nH]6)C=C5)C=C4)cc2)ccn1
REMARK SMILES IDX 12 1 13 2 14 3 11 5 9 6 10 7 87 8 86 9 85 10 8 11 7 13 3 14
REMARK SMILES IDX 2 15 1 16 4 17 5 18 6 19 15 21 16 22 17 23 18 24 19 25 20 26
REMARK SMILES IDX 21 28 22 29 23 30 84 31 24 32 83 33 25 34 26 35 27 36 77 37
REMARK SMILES IDX 28 38 82 39 76 40 78 41 29 42 81 43 75 44 74 45 30 47 62 48
REMARK SMILES IDX 42 49 61 50 43 51 46 52 60 53 79 54 44 55 45 56 59 58 80 59
REMARK SMILES IDX 47 60 31 61 32 62 40 63 33 64 34 65 38 66 41 67 35 68 36 69
REMARK SMILES IDX 39 70 37 71 63 72 64 73 72 74 65 75 66 76 70 77 73 78 67 79
REMARK SMILES IDX 68 80 71 81 69 82 48 83 49 84 57 85 50 86 51 87 55 88 58 89
REMARK SMILES IDX 52 90 53 91 56 92 54 93
REMARK H PARENT 14 4 8 12 6 20 19 27 78 46 46 57
REMARK Flexibility Score: inf
ROOT
ATOM      1  C   UNL A   1      31.926  24.113  26.472  1.00  0.00     0.251 C 
ATOM      2  O   UNL A   1      31.309  23.891  27.515  1.00  0.00    -0.269 OA
ATOM      3  N   UNL A   1      31.468  25.139  25.684  1.00  0.00    -0.352 N 
ATOM      4  H   UNL A   1      30.682  25.601  26.054  1.00  0.00     0.163 HD
ENDROOT
BRANCH   1   5
ATOM      5  C   UNL A   1      33.144  23.309  26.170  1.00  0.00     0.044 A 
ATOM      6  C   UNL A   1      34.324  21.407  25.294  1.00  0.00     0.126 A 
ATOM      7  C   UNL A   1      33.137  22.008  25.684  1.00  0.00     0.060 A 
ATOM      8  N   UNL A   1      35.515  21.988  25.503  1.00  0.00    -0.240 NA
ATOM      9  C   UNL A   1      35.524  23.217  26.063  1.00  0.00     0.114 A 
ATOM     10  C   UNL A   1      34.379  23.919  26.386  1.00  0.00     0.034 A 
BRANCH   6  11
ATOM     11  N   UNL A   1      34.333  20.204  24.625  1.00  0.00    -0.370 N 
ATOM     12  H   UNL A   1      35.050  20.009  23.980  1.00  0.00     0.162 HD
BRANCH  11  13
ATOM     13  C   UNL A   1      33.291  19.217  24.865  1.00  0.00     0.118 C 
BRANCH  13  14
ATOM     14  C   UNL A   1      33.818  17.768  24.707  1.00  0.00     0.010 C 
BRANCH  14  15
ATOM     15  C   UNL A   1      33.609  17.323  23.239  1.00  0.00     0.002 C 
ATOM     16  C   UNL A   1      32.521  18.082  22.489  1.00  0.00     0.004 C 
ENDBRANCH  14  15
BRANCH  14  17
ATOM     17  C   UNL A   1      33.165  16.812  25.733  1.00  0.00     0.033 C 
BRANCH  17  18
ATOM     18  C   UNL A   1      32.792  15.466  25.111  1.00  0.00     0.156 C 
BRANCH  18  19
ATOM     19  O   UNL A   1      33.789  14.491  25.377  1.00  0.00    -0.396 OA
ATOM     20  H   UNL A   1      33.961  14.457  26.331  1.00  0.00     0.210 HD
ENDBRANCH  18  19
ENDBRANCH  17  18
ENDBRANCH  14  17
ENDBRANCH  13  14
ENDBRANCH  11  13
ENDBRANCH   6  11
ENDBRANCH   1   5
BRANCH   3  21
ATOM     21  C   UNL A   1      31.914  25.674  24.414  1.00  0.00     0.116 C 
BRANCH  21  22
ATOM     22  C   UNL A   1      32.985  26.746  24.634  1.00  0.00     0.023 C 
BRANCH  22  23
ATOM     23  C   UNL A   1      32.443  28.040  25.246  1.00  0.00     0.023 C 
BRANCH  23  24
ATOM     24  C   UNL A   1      33.458  29.173  25.326  1.00  0.00     0.116 C 
BRANCH  24  25
ATOM     25  N   UNL A   1      32.892  30.414  25.829  1.00  0.00    -0.352 N 
ATOM     26  C   UNL A   1      33.306  31.174  26.896  1.00  0.00     0.251 C 
ATOM     27  H   UNL A   1      32.110  30.756  25.340  1.00  0.00     0.163 HD
ATOM     28  O   UNL A   1      32.645  32.134  27.264  1.00  0.00    -0.269 OA
BRANCH  26  29
ATOM     29  C   UNL A   1      34.539  30.797  27.617  1.00  0.00     0.039 A 
ATOM     30  C   UNL A   1      35.549  31.750  27.754  1.00  0.00     0.014 A 
ATOM     31  C   UNL A   1      34.695  29.518  28.157  1.00  0.00     0.014 A 
ATOM     32  C   UNL A   1      36.707  31.426  28.460  1.00  0.00     0.010 A 
ATOM     33  C   UNL A   1      35.808  29.228  28.939  1.00  0.00     0.010 A 
ATOM     34  C   UNL A   1      36.837  30.170  29.074  1.00  0.00    -0.014 A 
BRANCH  34  35
ATOM     35  C   UNL A   1      38.068  29.819  29.822  1.00  0.00     0.031 A 
ATOM     36  C   UNL A   1      38.283  30.346  31.214  1.00  0.00     0.074 A 
ATOM     37  C   UNL A   1      39.007  29.052  29.237  1.00  0.00     0.049 A 
ATOM     38  N   UNL A   1      39.278  30.128  32.038  1.00  0.00    -0.248 NA
ATOM     39  C   UNL A   1      37.264  31.266  31.738  1.00  0.00     0.031 C 
ATOM     40  C   UNL A   1      38.947  28.543  27.866  1.00  0.00     0.029 A 
ATOM     41  N   UNL A   1      40.194  28.565  29.721  1.00  0.00    -0.354 N 
ATOM     42  C   UNL A   1      39.007  30.894  33.165  1.00  0.00     0.074 A 
ATOM     43  C   UNL A   1      37.797  31.636  32.891  1.00  0.00     0.031 C 
ATOM     44  C   UNL A   1      40.031  27.788  27.631  1.00  0.00     0.029 A 
ATOM     45  C   UNL A   1      40.874  27.784  28.823  1.00  0.00     0.049 A 
ATOM     46  H   UNL A   1      40.526  28.759  30.628  1.00  0.00     0.167 HD
ATOM     47  C   UNL A   1      39.689  30.950  34.334  1.00  0.00     0.037 A 
ATOM     48  C   UNL A   1      42.044  27.129  28.949  1.00  0.00     0.037 A 
ATOM     49  C   UNL A   1      40.884  30.194  34.604  1.00  0.00     0.049 A 
ATOM     50  C   UNL A   1      42.769  27.177  30.266  1.00  0.00     0.074 A 
ATOM     51  C   UNL A   1      41.615  30.121  35.776  1.00  0.00     0.029 A 
ATOM     52  N   UNL A   1      41.530  29.386  33.679  1.00  0.00    -0.354 N 
ATOM     53  N   UNL A   1      42.456  27.828  31.361  1.00  0.00    -0.248 NA
ATOM     54  C   UNL A   1      43.998  26.382  30.370  1.00  0.00     0.031 C 
ATOM     55  C   UNL A   1      42.738  29.320  35.541  1.00  0.00     0.029 A 
ATOM     56  C   UNL A   1      42.668  28.831  34.245  1.00  0.00     0.049 A 
ATOM     57  H   UNL A   1      41.226  29.229  32.755  1.00  0.00     0.167 HD
ATOM     58  C   UNL A   1      43.430  27.499  32.294  1.00  0.00     0.074 A 
ATOM     59  C   UNL A   1      44.334  26.575  31.638  1.00  0.00     0.031 C 
ATOM     60  C   UNL A   1      43.563  27.919  33.577  1.00  0.00     0.037 A 
BRANCH  47  61
ATOM     61  C   UNL A   1      39.159  31.874  35.397  1.00  0.00     0.064 A 
ATOM     62  C   UNL A   1      39.456  33.246  35.406  1.00  0.00     0.173 A 
ATOM     63  C   UNL A   1      38.348  31.377  36.429  1.00  0.00     0.173 A 
ATOM     64  F   UNL A   1      40.236  33.776  34.451  1.00  0.00    -0.203 F 
ATOM     65  C   UNL A   1      39.006  34.074  36.431  1.00  0.00     0.198 A 
ATOM     66  C   UNL A   1      37.866  32.216  37.431  1.00  0.00     0.198 A 
ATOM     67  F   UNL A   1      38.026  30.076  36.471  1.00  0.00    -0.203 F 
ATOM     68  F   UNL A   1      39.368  35.364  36.457  1.00  0.00    -0.200 F 
ATOM     69  C   UNL A   1      38.207  33.559  37.441  1.00  0.00     0.200 A 
ATOM     70  F   UNL A   1      37.081  31.719  38.398  1.00  0.00    -0.200 F 
ATOM     71  F   UNL A   1      37.777  34.356  38.428  1.00  0.00    -0.200 F 
ENDBRANCH  47  61
BRANCH  48  72
ATOM     72  C   UNL A   1      42.568  26.339  27.806  1.00  0.00     0.064 A 
ATOM     73  C   UNL A   1      43.511  26.879  26.921  1.00  0.00     0.173 A 
ATOM     74  C   UNL A   1      42.158  25.014  27.593  1.00  0.00     0.173 A 
ATOM     75  F   UNL A   1      43.922  28.147  27.073  1.00  0.00    -0.203 F 
ATOM     76  C   UNL A   1      44.011  26.132  25.857  1.00  0.00     0.198 A 
ATOM     77  C   UNL A   1      42.683  24.257  26.547  1.00  0.00     0.198 A 
ATOM     78  F   UNL A   1      41.266  24.446  28.417  1.00  0.00    -0.203 F 
ATOM     79  F   UNL A   1      44.883  26.686  25.004  1.00  0.00    -0.200 F 
ATOM     80  C   UNL A   1      43.603  24.819  25.676  1.00  0.00     0.200 A 
ATOM     81  F   UNL A   1      42.299  22.983  26.388  1.00  0.00    -0.200 F 
ATOM     82  F   UNL A   1      44.097  24.095  24.662  1.00  0.00    -0.200 F 
ENDBRANCH  48  72
BRANCH  60  83
ATOM     83  C   UNL A   1      44.708  27.350  34.369  1.00  0.00     0.064 A 
ATOM     84  C   UNL A   1      44.590  26.154  35.094  1.00  0.00     0.173 A 
ATOM     85  C   UNL A   1      45.946  28.010  34.394  1.00  0.00     0.173 A 
ATOM     86  F   UNL A   1      43.426  25.487  35.113  1.00  0.00    -0.203 F 
ATOM     87  C   UNL A   1      45.653  25.667  35.851  1.00  0.00     0.198 A 
ATOM     88  C   UNL A   1      47.019  27.500  35.119  1.00  0.00     0.198 A 
ATOM     89  F   UNL A   1      46.119  29.151  33.709  1.00  0.00    -0.203 F 
ATOM     90  F   UNL A   1      45.494  24.562  36.592  1.00  0.00    -0.200 F 
ATOM     91  C   UNL A   1      46.867  26.337  35.858  1.00  0.00     0.200 A 
ATOM     92  F   UNL A   1      48.196  28.138  35.110  1.00  0.00    -0.200 F 
ATOM     93  F   UNL A   1      47.889  25.868  36.589  1.00  0.00    -0.200 F 
ENDBRANCH  60  83
ENDBRANCH  34  35
ENDBRANCH  26  29
ENDBRANCH  24  25
ENDBRANCH  23  24
ENDBRANCH  22  23
ENDBRANCH  21  22
ENDBRANCH   3  21
TORSDOF 18
ENDMDL
MODEL 3
REMARK VINA RESULT:     -10.6      2.153      4.043
REMARK SMILES CC[C@H](CCO)CNc1cc(C(=O)NCCCCNC(=O)c2ccc(-c3c4nc(c(-c5c(F)c(F)c(F)c(F)c5F)c5ccc([nH]5)c(-c5c(F)c(F)c(F)c(F)c5F)c5nc(c(-c6c(F)c(F)c(F)c(F)c6F)c6ccc3[nH]6)C=C5)C=C4)cc2)ccn1
REMARK SMILES IDX 12 1 13 2 14 3 11 5 9 6 10 7 87 8 86 9 85 10 8 11 7 13 3 14
REMARK SMILES IDX 2 15 1 16 4 17 5 18 6 19 15 21 16 22 17 23 18 24 19 25 20 26
REMARK SMILES IDX 21 28 22 29 23 30 84 31 24 32 83 33 25 34 26 35 27 36 77 37
REMARK SMILES IDX 28 38 82 39 76 40 78 41 29 42 81 43 75 44 74 45 30 47 62 48
REMARK SMILES IDX 42 49 61 50 43 51 46 52 60 53 79 54 44 55 45 56 59 58 80 59
REMARK SMILES IDX 47 60 31 61 32 62 40 63 33 64 34 65 38 66 41 67 35 68 36 69
REMARK SMILES IDX 39 70 37 71 63 72 64 73 72 74 65 75 66 76 70 77 73 78 67 79
REMARK SMILES IDX 68 80 71 81 69 82 48 83 49 84 57 85 50 86 51 87 55 88 58 89
REMARK SMILES IDX 52 90 53 91 56 92 54 93
REMARK H PARENT 14 4 8 12 6 20 19 27 78 46 46 57
REMARK Flexibility Score: inf
ROOT
ATOM      1  C   UNL A   1      34.968  22.525  26.313  1.00  0.00     0.251 C 
ATOM      2  O   UNL A   1      34.251  22.459  27.312  1.00  0.00    -0.269 OA
ATOM      3  N   UNL A   1      36.151  21.828  26.349  1.00  0.00    -0.352 N 
ATOM      4  H   UNL A   1      36.292  21.333  27.188  1.00  0.00     0.163 HD
ENDROOT
BRANCH   1   5
ATOM      5  C   UNL A   1      34.487  23.292  25.129  1.00  0.00     0.044 A 
ATOM      6  C   UNL A   1      34.007  25.297  23.895  1.00  0.00     0.126 A 
ATOM      7  C   UNL A   1      34.314  24.669  25.092  1.00  0.00     0.060 A 
ATOM      8  N   UNL A   1      33.727  24.603  22.781  1.00  0.00    -0.240 NA
ATOM      9  C   UNL A   1      33.806  23.257  22.845  1.00  0.00     0.114 A 
ATOM     10  C   UNL A   1      34.201  22.566  23.974  1.00  0.00     0.034 A 
BRANCH   6  11
ATOM     11  N   UNL A   1      34.026  26.670  23.779  1.00  0.00    -0.370 N 
ATOM     12  H   UNL A   1      34.279  27.083  22.923  1.00  0.00     0.162 HD
BRANCH  11  13
ATOM     13  C   UNL A   1      33.674  27.511  24.912  1.00  0.00     0.118 C 
BRANCH  13  14
ATOM     14  C   UNL A   1      32.695  28.644  24.509  1.00  0.00     0.010 C 
BRANCH  14  15
ATOM     15  C   UNL A   1      31.382  28.472  25.310  1.00  0.00     0.002 C 
ATOM     16  C   UNL A   1      31.138  27.065  25.843  1.00  0.00     0.004 C 
ENDBRANCH  14  15
BRANCH  14  17
ATOM     17  C   UNL A   1      32.475  28.685  22.978  1.00  0.00     0.033 C 
BRANCH  17  18
ATOM     18  C   UNL A   1      31.037  29.054  22.612  1.00  0.00     0.156 C 
BRANCH  18  19
ATOM     19  O   UNL A   1      31.011  30.074  21.625  1.00  0.00    -0.396 OA
ATOM     20  H   UNL A   1      31.806  30.009  21.073  1.00  0.00     0.210 HD
ENDBRANCH  18  19
ENDBRANCH  17  18
ENDBRANCH  14  17
ENDBRANCH  13  14
ENDBRANCH  11  13
ENDBRANCH   6  11
ENDBRANCH   1   5
BRANCH   3  21
ATOM     21  C   UNL A   1      37.230  21.679  25.394  1.00  0.00     0.116 C 
BRANCH  21  22
ATOM     22  C   UNL A   1      37.085  20.363  24.626  1.00  0.00     0.023 C 
BRANCH  22  23
ATOM     23  C   UNL A   1      38.142  19.318  24.992  1.00  0.00     0.023 C 
BRANCH  23  24
ATOM     24  C   UNL A   1      39.284  19.849  25.849  1.00  0.00     0.116 C 
BRANCH  24  25
ATOM     25  N   UNL A   1      40.400  18.923  25.954  1.00  0.00    -0.352 N 
ATOM     26  C   UNL A   1      41.733  19.205  26.127  1.00  0.00     0.251 C 
ATOM     27  H   UNL A   1      40.170  17.968  25.892  1.00  0.00     0.163 HD
ATOM     28  O   UNL A   1      42.565  18.310  26.075  1.00  0.00    -0.269 OA
BRANCH  26  29
ATOM     29  C   UNL A   1      42.154  20.604  26.342  1.00  0.00     0.039 A 
ATOM     30  C   UNL A   1      42.329  21.054  27.652  1.00  0.00     0.014 A 
ATOM     31  C   UNL A   1      42.378  21.463  25.263  1.00  0.00     0.014 A 
ATOM     32  C   UNL A   1      42.759  22.362  27.876  1.00  0.00     0.010 A 
ATOM     33  C   UNL A   1      42.896  22.733  25.486  1.00  0.00     0.010 A 
ATOM     34  C   UNL A   1      43.064  23.205  26.795  1.00  0.00    -0.014 A 
BRANCH  34  35
ATOM     35  C   UNL A   1      43.517  24.597  27.029  1.00  0.00     0.031 A 
ATOM     36  C   UNL A   1      42.557  25.626  27.559  1.00  0.00     0.074 A 
ATOM     37  C   UNL A   1      44.784  24.943  26.734  1.00  0.00     0.049 A 
ATOM     38  N   UNL A   1      42.770  26.884  27.855  1.00  0.00    -0.248 NA
ATOM     39  C   UNL A   1      41.164  25.196  27.750  1.00  0.00     0.031 C 
ATOM     40  C   UNL A   1      45.786  24.054  26.145  1.00  0.00     0.029 A 
ATOM     41  N   UNL A   1      45.446  26.134  26.891  1.00  0.00    -0.354 N 
ATOM     42  C   UNL A   1      41.540  27.391  28.252  1.00  0.00     0.074 A 
ATOM     43  C   UNL A   1      40.572  26.329  28.089  1.00  0.00     0.031 C 
ATOM     44  C   UNL A   1      46.944  24.720  26.022  1.00  0.00     0.029 A 
ATOM     45  C   UNL A   1      46.758  26.088  26.495  1.00  0.00     0.049 A 
ATOM     46  H   UNL A   1      45.018  26.944  27.252  1.00  0.00     0.167 HD
ATOM     47  C   UNL A   1      41.248  28.622  28.737  1.00  0.00     0.037 A 
ATOM     48  C   UNL A   1      47.708  27.042  26.520  1.00  0.00     0.037 A 
ATOM     49  C   UNL A   1      42.222  29.668  28.912  1.00  0.00     0.049 A 
ATOM     50  C   UNL A   1      47.373  28.392  27.093  1.00  0.00     0.074 A 
ATOM     51  C   UNL A   1      42.050  30.927  29.459  1.00  0.00     0.029 A 
ATOM     52  N   UNL A   1      43.553  29.577  28.529  1.00  0.00    -0.354 N 
ATOM     53  N   UNL A   1      46.228  28.834  27.556  1.00  0.00    -0.248 NA
ATOM     54  C   UNL A   1      48.468  29.366  27.167  1.00  0.00     0.031 C 
ATOM     55  C   UNL A   1      43.261  31.619  29.349  1.00  0.00     0.029 A 
ATOM     56  C   UNL A   1      44.209  30.768  28.802  1.00  0.00     0.049 A 
ATOM     57  H   UNL A   1      43.970  28.783  28.122  1.00  0.00     0.167 HD
ATOM     58  C   UNL A   1      46.470  30.127  28.003  1.00  0.00     0.074 A 
ATOM     59  C   UNL A   1      47.877  30.387  27.771  1.00  0.00     0.031 C 
ATOM     60  C   UNL A   1      45.608  31.015  28.559  1.00  0.00     0.037 A 
BRANCH  47  61
ATOM     61  C   UNL A   1      39.813  28.899  29.096  1.00  0.00     0.064 A 
ATOM     62  C   UNL A   1      39.326  28.724  30.402  1.00  0.00     0.173 A 
ATOM     63  C   UNL A   1      38.909  29.339  28.118  1.00  0.00     0.173 A 
ATOM     64  F   UNL A   1      40.142  28.294  31.376  1.00  0.00    -0.203 F 
ATOM     65  C   UNL A   1      37.981  28.928  30.702  1.00  0.00     0.198 A 
ATOM     66  C   UNL A   1      37.573  29.582  28.430  1.00  0.00     0.198 A 
ATOM     67  F   UNL A   1      39.317  29.530  26.854  1.00  0.00    -0.203 F 
ATOM     68  F   UNL A   1      37.526  28.679  31.937  1.00  0.00    -0.200 F 
ATOM     69  C   UNL A   1      37.107  29.362  29.717  1.00  0.00     0.200 A 
ATOM     70  F   UNL A   1      36.733  30.015  27.480  1.00  0.00    -0.200 F 
ATOM     71  F   UNL A   1      35.813  29.555  30.006  1.00  0.00    -0.200 F 
ENDBRANCH  47  61
BRANCH  48  72
ATOM     72  C   UNL A   1      49.074  26.728  26.027  1.00  0.00     0.064 A 
ATOM     73  C   UNL A   1      49.439  26.974  24.697  1.00  0.00     0.173 A 
ATOM     74  C   UNL A   1      50.052  26.204  26.886  1.00  0.00     0.173 A 
ATOM     75  F   UNL A   1      48.536  27.460  23.833  1.00  0.00    -0.203 F 
ATOM     76  C   UNL A   1      50.725  26.692  24.240  1.00  0.00     0.198 A 
ATOM     77  C   UNL A   1      51.345  25.951  26.435  1.00  0.00     0.198 A 
ATOM     78  F   UNL A   1      49.755  25.960  28.171  1.00  0.00    -0.203 F 
ATOM     79  F   UNL A   1      51.037  26.901  22.953  1.00  0.00    -0.200 F 
ATOM     80  C   UNL A   1      51.679  26.189  25.111  1.00  0.00     0.200 A 
ATOM     81  F   UNL A   1      52.268  25.482  27.286  1.00  0.00    -0.200 F 
ATOM     82  F   UNL A   1      52.920  25.932  24.674  1.00  0.00    -0.200 F 
ENDBRANCH  48  72
BRANCH  60  83
ATOM     83  C   UNL A   1      46.174  32.339  28.991  1.00  0.00     0.064 A 
ATOM     84  C   UNL A   1      46.708  32.538  30.274  1.00  0.00     0.173 A 
ATOM     85  C   UNL A   1      46.191  33.425  28.101  1.00  0.00     0.173 A 
ATOM     86  F   UNL A   1      46.709  31.538  31.168  1.00  0.00    -0.203 F 
ATOM     87  C   UNL A   1      47.191  33.785  30.664  1.00  0.00     0.198 A 
ATOM     88  C   UNL A   1      46.711  34.659  28.481  1.00  0.00     0.198 A 
ATOM     89  F   UNL A   1      45.704  33.289  26.858  1.00  0.00    -0.203 F 
ATOM     90  F   UNL A   1      47.629  33.969  31.917  1.00  0.00    -0.200 F 
ATOM     91  C   UNL A   1      47.197  34.842  29.766  1.00  0.00     0.200 A 
ATOM     92  F   UNL A   1      46.733  35.673  27.606  1.00  0.00    -0.200 F 
ATOM     93  F   UNL A   1      47.661  36.041  30.144  1.00  0.00    -0.200 F 
ENDBRANCH  60  83
ENDBRANCH  34  35
ENDBRANCH  26  29
ENDBRANCH  24  25
ENDBRANCH  23  24
ENDBRANCH  22  23
ENDBRANCH  21  22
ENDBRANCH   3  21
TORSDOF 18
ENDMDL
