MODEL 1
REMARK VINA RESULT:     -12.1      0.000      0.000
REMARK SMILES CC(C)Cc1s/c(=N/C(=O)CCC(=O)Nc2nccs2)[nH]c1C(=O)NCCCCNC(=O)c1ccc(-c2c3nc(c(-c4c(F)c(F)c(F)c(F)c4F)c4ccc([nH]4)c(-c4c(F)c(F)c(F)c(F)c4F)c4nc(c(-c5c(F)c(F)c(F)c(F)c5F)c5ccc2[nH]5)C=C4)C=C3)cc1
REMARK SMILES IDX 26 1 25 2 23 3 24 4 22 6 5 7 6 8 7 9 21 10 8 11 4 13 2 14
REMARK SMILES IDX 1 15 3 16 9 17 10 18 11 19 12 20 13 21 14 22 15 23 16 25
REMARK SMILES IDX 17 26 20 27 18 28 19 29 27 30 28 31 29 32 30 33 31 34 32 36
REMARK SMILES IDX 33 37 34 38 95 39 35 40 94 41 36 42 37 43 38 44 88 45 39 46
REMARK SMILES IDX 93 47 87 48 89 49 40 50 92 51 86 52 85 53 41 55 73 56 53 57
REMARK SMILES IDX 72 58 54 59 57 60 71 61 90 62 55 63 56 64 70 66 91 67 58 68
REMARK SMILES IDX 42 69 43 70 51 71 44 72 45 73 49 74 52 75 46 76 47 77 50 78
REMARK SMILES IDX 48 79 74 80 75 81 83 82 76 83 77 84 81 85 84 86 78 87 79 88
REMARK SMILES IDX 82 89 80 90 59 91 60 92 68 93 61 94 62 95 66 96 69 97 63 98
REMARK SMILES IDX 64 99 67 100 65 101
REMARK H PARENT 25 5 21 12 15 24 30 35 89 54 57 65
REMARK Flexibility Score: inf
ROOT
ATOM      1  C   UNL A   1      34.114  28.182  22.667  1.00  0.00     0.116 C 
ENDROOT
BRANCH   1   2
ATOM      2  N   UNL A   1      33.574  26.929  22.185  1.00  0.00    -0.351 N 
ATOM      3  C   UNL A   1      32.838  25.887  22.587  1.00  0.00     0.268 C 
ATOM      4  O   UNL A   1      32.462  25.194  21.620  1.00  0.00    -0.268 OA
ATOM      5  H   UNL A   1      33.836  26.801  21.245  1.00  0.00     0.163 HD
BRANCH   3   6
ATOM      6  C   UNL A   1      32.370  25.407  23.942  1.00  0.00     0.119 A 
ATOM      7  C   UNL A   1      31.419  25.698  24.868  1.00  0.00     0.038 A 
ATOM      8  S   UNL A   1      31.698  24.730  26.378  1.00  0.00    -0.101 S 
ATOM      9  C   UNL A   1      33.175  24.020  25.724  1.00  0.00     0.190 A 
ATOM     10  N   UNL A   1      33.270  24.447  24.441  1.00  0.00    -0.326 N 
ATOM     11  N   UNL A   1      33.923  23.304  26.483  1.00  0.00    -0.185 NA
ATOM     12  H   UNL A   1      33.974  24.084  23.855  1.00  0.00     0.169 HD
BRANCH   7  13
ATOM     13  C   UNL A   1      30.277  26.672  24.986  1.00  0.00     0.052 C 
BRANCH  13  14
ATOM     14  C   UNL A   1      29.444  26.937  23.728  1.00  0.00    -0.012 C 
ATOM     15  C   UNL A   1      27.945  26.699  23.877  1.00  0.00     0.008 C 
ATOM     16  C   UNL A   1      29.727  28.324  23.151  1.00  0.00     0.008 C 
ENDBRANCH  13  14
ENDBRANCH   7  13
BRANCH  11  17
ATOM     17  C   UNL A   1      35.085  22.810  25.943  1.00  0.00     0.248 C 
ATOM     18  O   UNL A   1      36.057  23.489  25.617  1.00  0.00    -0.273 OA
BRANCH  17  19
ATOM     19  C   UNL A   1      35.064  21.307  25.726  1.00  0.00     0.112 C 
BRANCH  19  20
ATOM     20  C   UNL A   1      33.668  20.705  25.701  1.00  0.00     0.110 C 
BRANCH  20  21
ATOM     21  C   UNL A   1      33.161  20.470  24.292  1.00  0.00     0.226 C 
ATOM     22  O   UNL A   1      32.982  21.433  23.538  1.00  0.00    -0.275 OA
ATOM     23  N   UNL A   1      32.888  19.227  23.812  1.00  0.00    -0.302 N 
ATOM     24  H   UNL A   1      32.601  19.174  22.872  1.00  0.00     0.172 HD
BRANCH  23  25
ATOM     25  C   UNL A   1      32.968  18.048  24.489  1.00  0.00     0.189 A 
ATOM     26  N   UNL A   1      32.155  17.562  25.387  1.00  0.00    -0.229 NA
ATOM     27  S   UNL A   1      34.291  17.063  24.048  1.00  0.00    -0.105 S 
ATOM     28  C   UNL A   1      32.578  16.301  25.754  1.00  0.00     0.125 A 
ATOM     29  C   UNL A   1      33.725  15.859  25.131  1.00  0.00     0.088 A 
ENDBRANCH  23  25
ENDBRANCH  20  21
ENDBRANCH  19  20
ENDBRANCH  17  19
ENDBRANCH  11  17
ENDBRANCH   3   6
ENDBRANCH   1   2
BRANCH   1  30
ATOM     30  C   UNL A   1      33.975  28.338  24.185  1.00  0.00     0.023 C 
BRANCH  30  31
ATOM     31  C   UNL A   1      32.880  29.324  24.614  1.00  0.00     0.023 C 
BRANCH  31  32
ATOM     32  C   UNL A   1      32.648  29.471  26.115  1.00  0.00     0.116 C 
BRANCH  32  33
ATOM     33  N   UNL A   1      32.422  30.842  26.548  1.00  0.00    -0.352 N 
ATOM     34  C   UNL A   1      33.266  31.653  27.275  1.00  0.00     0.251 C 
ATOM     35  H   UNL A   1      31.558  31.239  26.289  1.00  0.00     0.163 HD
ATOM     36  O   UNL A   1      32.909  32.775  27.625  1.00  0.00    -0.269 OA
BRANCH  34  37
ATOM     37  C   UNL A   1      34.590  31.138  27.697  1.00  0.00     0.039 A 
ATOM     38  C   UNL A   1      35.628  32.047  27.925  1.00  0.00     0.014 A 
ATOM     39  C   UNL A   1      34.783  29.776  27.950  1.00  0.00     0.014 A 
ATOM     40  C   UNL A   1      36.817  31.607  28.515  1.00  0.00     0.010 A 
ATOM     41  C   UNL A   1      35.943  29.352  28.597  1.00  0.00     0.010 A 
ATOM     42  C   UNL A   1      36.959  30.268  28.912  1.00  0.00    -0.014 A 
BRANCH  42  43
ATOM     43  C   UNL A   1      38.137  29.821  29.703  1.00  0.00     0.031 A 
ATOM     44  C   UNL A   1      38.371  30.349  31.090  1.00  0.00     0.074 A 
ATOM     45  C   UNL A   1      39.042  28.996  29.138  1.00  0.00     0.049 A 
ATOM     46  N   UNL A   1      39.376  30.129  31.901  1.00  0.00    -0.248 NA
ATOM     47  C   UNL A   1      37.355  31.266  31.628  1.00  0.00     0.031 C 
ATOM     48  C   UNL A   1      38.966  28.461  27.777  1.00  0.00     0.029 A 
ATOM     49  N   UNL A   1      40.213  28.473  29.632  1.00  0.00    -0.354 N 
ATOM     50  C   UNL A   1      39.119  30.887  33.036  1.00  0.00     0.074 A 
ATOM     51  C   UNL A   1      37.891  31.611  32.791  1.00  0.00     0.031 C 
ATOM     52  C   UNL A   1      40.028  27.671  27.553  1.00  0.00     0.029 A 
ATOM     53  C   UNL A   1      40.878  27.667  28.739  1.00  0.00     0.049 A 
ATOM     54  H   UNL A   1      40.544  28.658  30.540  1.00  0.00     0.167 HD
ATOM     55  C   UNL A   1      39.831  30.955  34.186  1.00  0.00     0.037 A 
ATOM     56  C   UNL A   1      42.043  27.002  28.862  1.00  0.00     0.037 A 
ATOM     57  C   UNL A   1      41.039  30.216  34.441  1.00  0.00     0.049 A 
ATOM     58  C   UNL A   1      42.804  27.081  30.158  1.00  0.00     0.074 A 
ATOM     59  C   UNL A   1      41.804  30.182  35.595  1.00  0.00     0.029 A 
ATOM     60  N   UNL A   1      41.661  29.378  33.527  1.00  0.00    -0.354 N 
ATOM     61  N   UNL A   1      42.513  27.748  31.247  1.00  0.00    -0.248 NA
ATOM     62  C   UNL A   1      44.051  26.308  30.244  1.00  0.00     0.031 C 
ATOM     63  C   UNL A   1      42.903  29.347  35.369  1.00  0.00     0.029 A 
ATOM     64  C   UNL A   1      42.804  28.831  34.087  1.00  0.00     0.049 A 
ATOM     65  H   UNL A   1      41.337  29.199  32.615  1.00  0.00     0.167 HD
ATOM     66  C   UNL A   1      43.521  27.455  32.155  1.00  0.00     0.074 A 
ATOM     67  C   UNL A   1      44.426  26.537  31.494  1.00  0.00     0.031 C 
ATOM     68  C   UNL A   1      43.684  27.907  33.422  1.00  0.00     0.037 A 
BRANCH  55  69
ATOM     69  C   UNL A   1      39.309  31.853  35.270  1.00  0.00     0.064 A 
ATOM     70  C   UNL A   1      38.478  31.361  36.288  1.00  0.00     0.173 A 
ATOM     71  C   UNL A   1      39.673  33.206  35.314  1.00  0.00     0.173 A 
ATOM     72  F   UNL A   1      38.093  30.077  36.283  1.00  0.00    -0.203 F 
ATOM     73  C   UNL A   1      38.009  32.199  37.296  1.00  0.00     0.198 A 
ATOM     74  C   UNL A   1      39.224  34.035  36.339  1.00  0.00     0.198 A 
ATOM     75  F   UNL A   1      40.470  33.725  34.367  1.00  0.00    -0.203 F 
ATOM     76  F   UNL A   1      37.180  31.717  38.232  1.00  0.00    -0.200 F 
ATOM     77  C   UNL A   1      38.387  33.533  37.324  1.00  0.00     0.200 A 
ATOM     78  F   UNL A   1      39.599  35.321  36.372  1.00  0.00    -0.200 F 
ATOM     79  F   UNL A   1      37.940  34.337  38.299  1.00  0.00    -0.200 F 
ENDBRANCH  55  69
BRANCH  56  80
ATOM     80  C   UNL A   1      42.553  26.176  27.736  1.00  0.00     0.064 A 
ATOM     81  C   UNL A   1      42.129  24.850  27.569  1.00  0.00     0.173 A 
ATOM     82  C   UNL A   1      43.483  26.684  26.819  1.00  0.00     0.173 A 
ATOM     83  F   UNL A   1      41.256  24.313  28.433  1.00  0.00    -0.203 F 
ATOM     84  C   UNL A   1      42.634  24.057  26.540  1.00  0.00     0.198 A 
ATOM     85  C   UNL A   1      43.967  25.897  25.775  1.00  0.00     0.198 A 
ATOM     86  F   UNL A   1      43.916  27.948  26.933  1.00  0.00    -0.203 F 
ATOM     87  F   UNL A   1      42.247  22.778  26.432  1.00  0.00    -0.200 F 
ATOM     88  C   UNL A   1      43.550  24.582  25.642  1.00  0.00     0.200 A 
ATOM     89  F   UNL A   1      44.843  26.414  24.901  1.00  0.00    -0.200 F 
ATOM     90  F   UNL A   1      44.035  23.820  24.653  1.00  0.00    -0.200 F 
ENDBRANCH  56  80
BRANCH  68  91
ATOM     91  C   UNL A   1      44.864  27.390  34.191  1.00  0.00     0.064 A 
ATOM     92  C   UNL A   1      46.079  28.087  34.228  1.00  0.00     0.173 A 
ATOM     93  C   UNL A   1      44.761  26.203  34.933  1.00  0.00     0.173 A 
ATOM     94  F   UNL A   1      46.230  29.218  33.522  1.00  0.00    -0.203 F 
ATOM     95  C   UNL A   1      47.158  27.605  34.965  1.00  0.00     0.198 A 
ATOM     96  C   UNL A   1      45.833  25.737  35.688  1.00  0.00     0.198 A 
ATOM     97  F   UNL A   1      43.618  25.502  34.932  1.00  0.00    -0.203 F 
ATOM     98  F   UNL A   1      48.323  28.266  34.954  1.00  0.00    -0.200 F 
ATOM     99  C   UNL A   1      47.031  26.435  35.700  1.00  0.00     0.200 A 
ATOM    100  F   UNL A   1      45.707  24.613  36.406  1.00  0.00    -0.200 F 
ATOM    101  F   UNL A   1      48.068  25.976  36.413  1.00  0.00    -0.200 F 
ENDBRANCH  68  91
ENDBRANCH  42  43
ENDBRANCH  34  37
ENDBRANCH  32  33
ENDBRANCH  31  32
ENDBRANCH  30  31
ENDBRANCH   1  30
TORSDOF 18
ENDMDL
MODEL 2
REMARK VINA RESULT:     -12.0      2.170      7.574
REMARK SMILES CC(C)Cc1s/c(=N/C(=O)CCC(=O)Nc2nccs2)[nH]c1C(=O)NCCCCNC(=O)c1ccc(-c2c3nc(c(-c4c(F)c(F)c(F)c(F)c4F)c4ccc([nH]4)c(-c4c(F)c(F)c(F)c(F)c4F)c4nc(c(-c5c(F)c(F)c(F)c(F)c5F)c5ccc2[nH]5)C=C4)C=C3)cc1
REMARK SMILES IDX 26 1 25 2 23 3 24 4 22 6 5 7 6 8 7 9 21 10 8 11 4 13 2 14
REMARK SMILES IDX 1 15 3 16 9 17 10 18 11 19 12 20 13 21 14 22 15 23 16 25
REMARK SMILES IDX 17 26 20 27 18 28 19 29 27 30 28 31 29 32 30 33 31 34 32 36
REMARK SMILES IDX 33 37 34 38 95 39 35 40 94 41 36 42 37 43 38 44 88 45 39 46
REMARK SMILES IDX 93 47 87 48 89 49 40 50 92 51 86 52 85 53 41 55 73 56 53 57
REMARK SMILES IDX 72 58 54 59 57 60 71 61 90 62 55 63 56 64 70 66 91 67 58 68
REMARK SMILES IDX 42 69 43 70 51 71 44 72 45 73 49 74 52 75 46 76 47 77 50 78
REMARK SMILES IDX 48 79 74 80 75 81 83 82 76 83 77 84 81 85 84 86 78 87 79 88
REMARK SMILES IDX 82 89 80 90 59 91 60 92 68 93 61 94 62 95 66 96 69 97 63 98
REMARK SMILES IDX 64 99 67 100 65 101
REMARK H PARENT 25 5 21 12 15 24 30 35 89 54 57 65
REMARK Flexibility Score: inf
ROOT
ATOM      1  C   UNL A   1      31.594  29.365  25.977  1.00  0.00     0.116 C 
ENDROOT
BRANCH   1   2
ATOM      2  N   UNL A   1      31.758  27.956  26.260  1.00  0.00    -0.351 N 
ATOM      3  C   UNL A   1      32.157  26.816  25.685  1.00  0.00     0.268 C 
ATOM      4  O   UNL A   1      32.330  25.915  26.530  1.00  0.00    -0.268 OA
ATOM      5  H   UNL A   1      31.483  27.776  27.188  1.00  0.00     0.163 HD
BRANCH   3   6
ATOM      6  C   UNL A   1      32.447  26.419  24.255  1.00  0.00     0.119 A 
ATOM      7  C   UNL A   1      31.948  26.618  23.008  1.00  0.00     0.038 A 
ATOM      8  S   UNL A   1      32.809  25.557  21.812  1.00  0.00    -0.101 S 
ATOM      9  C   UNL A   1      33.771  24.800  23.082  1.00  0.00     0.190 A 
ATOM     10  N   UNL A   1      33.474  25.457  24.231  1.00  0.00    -0.326 N 
ATOM     11  N   UNL A   1      34.513  23.793  22.798  1.00  0.00    -0.185 NA
ATOM     12  H   UNL A   1      33.981  25.260  25.052  1.00  0.00     0.169 HD
BRANCH   7  13
ATOM     13  C   UNL A   1      30.819  27.408  22.400  1.00  0.00     0.052 C 
BRANCH  13  14
ATOM     14  C   UNL A   1      29.617  27.723  23.296  1.00  0.00    -0.012 C 
ATOM     15  C   UNL A   1      28.627  28.733  22.726  1.00  0.00     0.008 C 
ATOM     16  C   UNL A   1      28.904  26.448  23.747  1.00  0.00     0.008 C 
ENDBRANCH  13  14
ENDBRANCH   7  13
BRANCH  11  17
ATOM     17  C   UNL A   1      35.209  23.208  23.828  1.00  0.00     0.248 C 
ATOM     18  O   UNL A   1      36.100  23.753  24.477  1.00  0.00    -0.273 OA
BRANCH  17  19
ATOM     19  C   UNL A   1      34.812  21.766  24.089  1.00  0.00     0.112 C 
BRANCH  19  20
ATOM     20  C   UNL A   1      33.461  21.608  24.768  1.00  0.00     0.110 C 
BRANCH  20  21
ATOM     21  C   UNL A   1      33.552  20.850  26.077  1.00  0.00     0.226 C 
ATOM     22  O   UNL A   1      33.772  21.466  27.126  1.00  0.00    -0.275 OA
ATOM     23  N   UNL A   1      33.402  19.500  26.150  1.00  0.00    -0.302 N 
ATOM     24  H   UNL A   1      33.439  19.104  27.051  1.00  0.00     0.172 HD
BRANCH  23  25
ATOM     25  C   UNL A   1      33.207  18.637  25.115  1.00  0.00     0.189 A 
ATOM     26  N   UNL A   1      32.092  18.308  24.521  1.00  0.00    -0.229 NA
ATOM     27  S   UNL A   1      34.636  17.943  24.489  1.00  0.00    -0.105 S 
ATOM     28  C   UNL A   1      32.366  17.458  23.470  1.00  0.00     0.125 A 
ATOM     29  C   UNL A   1      33.697  17.145  23.295  1.00  0.00     0.088 A 
ENDBRANCH  23  25
ENDBRANCH  20  21
ENDBRANCH  19  20
ENDBRANCH  17  19
ENDBRANCH  11  17
ENDBRANCH   3   6
ENDBRANCH   1   2
BRANCH   1  30
ATOM     30  C   UNL A   1      32.208  30.259  27.061  1.00  0.00     0.023 C 
BRANCH  30  31
ATOM     31  C   UNL A   1      31.979  31.759  26.837  1.00  0.00     0.023 C 
BRANCH  31  32
ATOM     32  C   UNL A   1      33.023  32.702  27.427  1.00  0.00     0.116 C 
BRANCH  32  33
ATOM     33  N   UNL A   1      32.528  34.045  27.689  1.00  0.00    -0.352 N 
ATOM     34  C   UNL A   1      33.026  34.976  28.576  1.00  0.00     0.251 C 
ATOM     35  H   UNL A   1      31.740  34.323  27.168  1.00  0.00     0.163 HD
ATOM     36  O   UNL A   1      32.459  36.053  28.737  1.00  0.00    -0.269 OA
BRANCH  34  37
ATOM     37  C   UNL A   1      34.217  34.642  29.393  1.00  0.00     0.039 A 
ATOM     38  C   UNL A   1      34.033  34.183  30.701  1.00  0.00     0.014 A 
ATOM     39  C   UNL A   1      35.502  34.698  28.844  1.00  0.00     0.014 A 
ATOM     40  C   UNL A   1      35.121  33.673  31.415  1.00  0.00     0.010 A 
ATOM     41  C   UNL A   1      36.572  34.128  29.533  1.00  0.00     0.010 A 
ATOM     42  C   UNL A   1      36.387  33.585  30.814  1.00  0.00    -0.014 A 
BRANCH  42  43
ATOM     43  C   UNL A   1      37.511  32.880  31.487  1.00  0.00     0.031 A 
ATOM     44  C   UNL A   1      38.187  31.713  30.825  1.00  0.00     0.074 A 
ATOM     45  C   UNL A   1      37.871  33.244  32.735  1.00  0.00     0.049 A 
ATOM     46  N   UNL A   1      39.133  30.933  31.286  1.00  0.00    -0.248 NA
ATOM     47  C   UNL A   1      37.721  31.357  29.476  1.00  0.00     0.031 C 
ATOM     48  C   UNL A   1      37.253  34.319  33.513  1.00  0.00     0.029 A 
ATOM     49  N   UNL A   1      38.834  32.740  33.574  1.00  0.00    -0.354 N 
ATOM     50  C   UNL A   1      39.366  29.992  30.292  1.00  0.00     0.074 A 
ATOM     51  C   UNL A   1      38.430  30.266  29.224  1.00  0.00     0.031 C 
ATOM     52  C   UNL A   1      37.865  34.409  34.705  1.00  0.00     0.029 A 
ATOM     53  C   UNL A   1      38.897  33.380  34.789  1.00  0.00     0.049 A 
ATOM     54  H   UNL A   1      39.425  31.993  33.328  1.00  0.00     0.167 HD
ATOM     55  C   UNL A   1      40.292  29.004  30.263  1.00  0.00     0.037 A 
ATOM     56  C   UNL A   1      39.693  33.159  35.854  1.00  0.00     0.037 A 
ATOM     57  C   UNL A   1      41.241  28.746  31.315  1.00  0.00     0.049 A 
ATOM     58  C   UNL A   1      40.725  32.066  35.788  1.00  0.00     0.074 A 
ATOM     59  C   UNL A   1      42.250  27.799  31.354  1.00  0.00     0.029 A 
ATOM     60  N   UNL A   1      41.300  29.441  32.513  1.00  0.00    -0.354 N 
ATOM     61  N   UNL A   1      40.979  31.227  34.813  1.00  0.00    -0.248 NA
ATOM     62  C   UNL A   1      41.587  31.894  36.966  1.00  0.00     0.031 C 
ATOM     63  C   UNL A   1      42.900  27.901  32.589  1.00  0.00     0.029 A 
ATOM     64  C   UNL A   1      42.320  28.937  33.303  1.00  0.00     0.049 A 
ATOM     65  H   UNL A   1      40.704  30.183  32.765  1.00  0.00     0.167 HD
ATOM     66  C   UNL A   1      42.044  30.450  35.247  1.00  0.00     0.074 A 
ATOM     67  C   UNL A   1      42.399  30.925  36.568  1.00  0.00     0.031 C 
ATOM     68  C   UNL A   1      42.670  29.432  34.609  1.00  0.00     0.037 A 
BRANCH  55  69
ATOM     69  C   UNL A   1      40.335  28.132  29.043  1.00  0.00     0.064 A 
ATOM     70  C   UNL A   1      39.597  26.941  28.970  1.00  0.00     0.173 A 
ATOM     71  C   UNL A   1      41.090  28.508  27.922  1.00  0.00     0.173 A 
ATOM     72  F   UNL A   1      38.870  26.533  30.020  1.00  0.00    -0.203 F 
ATOM     73  C   UNL A   1      39.634  26.145  27.828  1.00  0.00     0.198 A 
ATOM     74  C   UNL A   1      41.103  27.723  26.772  1.00  0.00     0.198 A 
ATOM     75  F   UNL A   1      41.809  29.641  27.938  1.00  0.00    -0.203 F 
ATOM     76  F   UNL A   1      38.957  24.989  27.799  1.00  0.00    -0.200 F 
ATOM     77  C   UNL A   1      40.381  26.540  26.728  1.00  0.00     0.200 A 
ATOM     78  F   UNL A   1      41.816  28.111  25.706  1.00  0.00    -0.200 F 
ATOM     79  F   UNL A   1      40.411  25.775  25.628  1.00  0.00    -0.200 F 
ENDBRANCH  55  69
BRANCH  56  80
ATOM     80  C   UNL A   1      39.569  34.008  37.067  1.00  0.00     0.064 A 
ATOM     81  C   UNL A   1      38.800  33.589  38.162  1.00  0.00     0.173 A 
ATOM     82  C   UNL A   1      40.198  35.258  37.152  1.00  0.00     0.173 A 
ATOM     83  F   UNL A   1      38.162  32.411  38.119  1.00  0.00    -0.203 F 
ATOM     84  C   UNL A   1      38.646  34.399  39.286  1.00  0.00     0.198 A 
ATOM     85  C   UNL A   1      40.065  36.055  38.288  1.00  0.00     0.198 A 
ATOM     86  F   UNL A   1      40.949  35.702  36.134  1.00  0.00    -0.203 F 
ATOM     87  F   UNL A   1      37.866  33.994  40.298  1.00  0.00    -0.200 F 
ATOM     88  C   UNL A   1      39.282  35.629  39.349  1.00  0.00     0.200 A 
ATOM     89  F   UNL A   1      40.692  37.238  38.350  1.00  0.00    -0.200 F 
ATOM     90  F   UNL A   1      39.134  36.407  40.430  1.00  0.00    -0.200 F 
ENDBRANCH  56  80
BRANCH  68  91
ATOM     91  C   UNL A   1      43.826  28.785  35.314  1.00  0.00     0.064 A 
ATOM     92  C   UNL A   1      43.642  27.709  36.192  1.00  0.00     0.173 A 
ATOM     93  C   UNL A   1      45.138  29.223  35.073  1.00  0.00     0.173 A 
ATOM     94  F   UNL A   1      42.406  27.265  36.466  1.00  0.00    -0.203 F 
ATOM     95  C   UNL A   1      44.728  27.105  36.821  1.00  0.00     0.198 A 
ATOM     96  C   UNL A   1      46.223  28.601  35.684  1.00  0.00     0.198 A 
ATOM     97  F   UNL A   1      45.366  30.247  34.238  1.00  0.00    -0.203 F 
ATOM     98  F   UNL A   1      44.526  26.104  37.688  1.00  0.00    -0.200 F 
ATOM     99  C   UNL A   1      46.017  27.547  36.560  1.00  0.00     0.200 A 
ATOM    100  F   UNL A   1      47.468  29.022  35.424  1.00  0.00    -0.200 F 
ATOM    101  F   UNL A   1      47.061  26.960  37.162  1.00  0.00    -0.200 F 
ENDBRANCH  68  91
ENDBRANCH  42  43
ENDBRANCH  34  37
ENDBRANCH  32  33
ENDBRANCH  31  32
ENDBRANCH  30  31
ENDBRANCH   1  30
TORSDOF 18
ENDMDL
MODEL 3
REMARK VINA RESULT:     -11.9      0.603      7.264
REMARK SMILES CC(C)Cc1s/c(=N/C(=O)CCC(=O)Nc2nccs2)[nH]c1C(=O)NCCCCNC(=O)c1ccc(-c2c3nc(c(-c4c(F)c(F)c(F)c(F)c4F)c4ccc([nH]4)c(-c4c(F)c(F)c(F)c(F)c4F)c4nc(c(-c5c(F)c(F)c(F)c(F)c5F)c5ccc2[nH]5)C=C4)C=C3)cc1
REMARK SMILES IDX 26 1 25 2 23 3 24 4 22 6 5 7 6 8 7 9 21 10 8 11 4 13 2 14
REMARK SMILES IDX 1 15 3 16 9 17 10 18 11 19 12 20 13 21 14 22 15 23 16 25
REMARK SMILES IDX 17 26 20 27 18 28 19 29 27 30 28 31 29 32 30 33 31 34 32 36
REMARK SMILES IDX 33 37 34 38 95 39 35 40 94 41 36 42 37 43 38 44 88 45 39 46
REMARK SMILES IDX 93 47 87 48 89 49 40 50 92 51 86 52 85 53 41 55 73 56 53 57
REMARK SMILES IDX 72 58 54 59 57 60 71 61 90 62 55 63 56 64 70 66 91 67 58 68
REMARK SMILES IDX 42 69 43 70 51 71 44 72 45 73 49 74 52 75 46 76 47 77 50 78
REMARK SMILES IDX 48 79 74 80 75 81 83 82 76 83 77 84 81 85 84 86 78 87 79 88
REMARK SMILES IDX 82 89 80 90 59 91 60 92 68 93 61 94 62 95 66 96 69 97 63 98
REMARK SMILES IDX 64 99 67 100 65 101
REMARK H PARENT 25 5 21 12 15 24 30 35 89 54 57 65
REMARK Flexibility Score: inf
ROOT
ATOM      1  C   UNL A   1      32.769  28.304  22.517  1.00  0.00     0.116 C 
ENDROOT
BRANCH   1   2
ATOM      2  N   UNL A   1      33.409  27.017  22.350  1.00  0.00    -0.351 N 
ATOM      3  C   UNL A   1      33.444  25.793  22.886  1.00  0.00     0.268 C 
ATOM      4  O   UNL A   1      34.017  24.981  22.132  1.00  0.00    -0.268 OA
ATOM      5  H   UNL A   1      34.025  27.057  21.583  1.00  0.00     0.163 HD
BRANCH   3   6
ATOM      6  C   UNL A   1      32.927  25.210  24.182  1.00  0.00     0.119 A 
ATOM      7  C   UNL A   1      31.952  25.441  25.100  1.00  0.00     0.038 A 
ATOM      8  S   UNL A   1      32.169  24.346  26.532  1.00  0.00    -0.101 S 
ATOM      9  C   UNL A   1      33.655  23.667  25.866  1.00  0.00     0.190 A 
ATOM     10  N   UNL A   1      33.797  24.197  24.626  1.00  0.00    -0.326 N 
ATOM     11  N   UNL A   1      34.367  22.878  26.585  1.00  0.00    -0.185 NA
ATOM     12  H   UNL A   1      34.513  23.871  24.034  1.00  0.00     0.169 HD
BRANCH   7  13
ATOM     13  C   UNL A   1      30.822  26.422  25.265  1.00  0.00     0.052 C 
BRANCH  13  14
ATOM     14  C   UNL A   1      29.642  26.307  24.294  1.00  0.00    -0.012 C 
ATOM     15  C   UNL A   1      29.303  27.580  23.527  1.00  0.00     0.008 C 
ATOM     16  C   UNL A   1      29.811  25.121  23.344  1.00  0.00     0.008 C 
ENDBRANCH  13  14
ENDBRANCH   7  13
BRANCH  11  17
ATOM     17  C   UNL A   1      35.538  22.409  26.040  1.00  0.00     0.248 C 
ATOM     18  O   UNL A   1      36.612  23.007  26.055  1.00  0.00    -0.273 OA
BRANCH  17  19
ATOM     19  C   UNL A   1      35.393  21.064  25.351  1.00  0.00     0.112 C 
BRANCH  19  20
ATOM     20  C   UNL A   1      34.036  20.408  25.553  1.00  0.00     0.110 C 
BRANCH  20  21
ATOM     21  C   UNL A   1      33.241  20.305  24.267  1.00  0.00     0.226 C 
ATOM     22  O   UNL A   1      33.023  21.323  23.601  1.00  0.00    -0.275 OA
ATOM     23  N   UNL A   1      32.750  19.124  23.805  1.00  0.00    -0.302 N 
ATOM     24  H   UNL A   1      32.280  19.154  22.940  1.00  0.00     0.172 HD
BRANCH  23  25
ATOM     25  C   UNL A   1      32.834  17.906  24.408  1.00  0.00     0.189 A 
ATOM     26  N   UNL A   1      32.124  17.428  25.393  1.00  0.00    -0.229 NA
ATOM     27  S   UNL A   1      33.999  16.857  23.731  1.00  0.00    -0.105 S 
ATOM     28  C   UNL A   1      32.496  16.122  25.636  1.00  0.00     0.125 A 
ATOM     29  C   UNL A   1      33.503  15.636  24.830  1.00  0.00     0.088 A 
ENDBRANCH  23  25
ENDBRANCH  20  21
ENDBRANCH  19  20
ENDBRANCH  17  19
ENDBRANCH  11  17
ENDBRANCH   3   6
ENDBRANCH   1   2
BRANCH   1  30
ATOM     30  C   UNL A   1      33.298  29.072  23.734  1.00  0.00     0.023 C 
BRANCH  30  31
ATOM     31  C   UNL A   1      32.203  29.534  24.704  1.00  0.00     0.023 C 
BRANCH  31  32
ATOM     32  C   UNL A   1      32.642  29.825  26.136  1.00  0.00     0.116 C 
BRANCH  32  33
ATOM     33  N   UNL A   1      32.390  31.192  26.567  1.00  0.00    -0.352 N 
ATOM     34  C   UNL A   1      33.210  32.014  27.310  1.00  0.00     0.251 C 
ATOM     35  H   UNL A   1      31.526  31.578  26.293  1.00  0.00     0.163 HD
ATOM     36  O   UNL A   1      32.833  33.130  27.655  1.00  0.00    -0.269 OA
BRANCH  34  37
ATOM     37  C   UNL A   1      34.534  31.515  27.754  1.00  0.00     0.039 A 
ATOM     38  C   UNL A   1      35.591  32.421  27.876  1.00  0.00     0.014 A 
ATOM     39  C   UNL A   1      34.708  30.180  28.132  1.00  0.00     0.014 A 
ATOM     40  C   UNL A   1      36.784  32.017  28.482  1.00  0.00     0.010 A 
ATOM     41  C   UNL A   1      35.873  29.797  28.795  1.00  0.00     0.010 A 
ATOM     42  C   UNL A   1      36.912  30.719  29.002  1.00  0.00    -0.014 A 
BRANCH  42  43
ATOM     43  C   UNL A   1      38.098  30.326  29.810  1.00  0.00     0.031 A 
ATOM     44  C   UNL A   1      39.107  29.356  29.266  1.00  0.00     0.074 A 
ATOM     45  C   UNL A   1      38.223  30.787  31.072  1.00  0.00     0.049 A 
ATOM     46  N   UNL A   1      40.162  28.844  29.849  1.00  0.00    -0.248 NA
ATOM     47  C   UNL A   1      38.888  28.876  27.893  1.00  0.00     0.031 C 
ATOM     48  C   UNL A   1      37.280  31.685  31.742  1.00  0.00     0.029 A 
ATOM     49  N   UNL A   1      39.187  30.552  32.022  1.00  0.00    -0.354 N 
ATOM     50  C   UNL A   1      40.724  27.977  28.922  1.00  0.00     0.074 A 
ATOM     51  C   UNL A   1      39.867  27.993  27.756  1.00  0.00     0.031 C 
ATOM     52  C   UNL A   1      37.722  31.942  32.984  1.00  0.00     0.029 A 
ATOM     53  C   UNL A   1      38.961  31.204  33.211  1.00  0.00     0.049 A 
ATOM     54  H   UNL A   1      39.966  29.973  31.866  1.00  0.00     0.167 HD
ATOM     55  C   UNL A   1      41.863  27.251  29.024  1.00  0.00     0.037 A 
ATOM     56  C   UNL A   1      39.669  31.205  34.357  1.00  0.00     0.037 A 
ATOM     57  C   UNL A   1      42.730  27.254  30.173  1.00  0.00     0.049 A 
ATOM     58  C   UNL A   1      40.941  30.403  34.437  1.00  0.00     0.074 A 
ATOM     59  C   UNL A   1      43.931  26.590  30.350  1.00  0.00     0.029 A 
ATOM     60  N   UNL A   1      42.488  27.959  31.343  1.00  0.00    -0.354 N 
ATOM     61  N   UNL A   1      41.496  29.641  33.527  1.00  0.00    -0.248 NA
ATOM     62  C   UNL A   1      41.689  30.469  35.700  1.00  0.00     0.031 C 
ATOM     63  C   UNL A   1      44.402  26.869  31.638  1.00  0.00     0.029 A 
ATOM     64  C   UNL A   1      43.512  27.737  32.250  1.00  0.00     0.049 A 
ATOM     65  H   UNL A   1      41.704  28.532  31.505  1.00  0.00     0.167 HD
ATOM     66  C   UNL A   1      42.668  29.160  34.094  1.00  0.00     0.074 A 
ATOM     67  C   UNL A   1      42.752  29.728  35.424  1.00  0.00     0.031 C 
ATOM     68  C   UNL A   1      43.590  28.322  33.562  1.00  0.00     0.037 A 
BRANCH  55  69
ATOM     69  C   UNL A   1      42.249  26.401  27.850  1.00  0.00     0.064 A 
ATOM     70  C   UNL A   1      43.147  26.864  26.876  1.00  0.00     0.173 A 
ATOM     71  C   UNL A   1      41.748  25.098  27.715  1.00  0.00     0.173 A 
ATOM     72  F   UNL A   1      43.644  28.107  26.954  1.00  0.00    -0.203 F 
ATOM     73  C   UNL A   1      43.509  26.063  25.797  1.00  0.00     0.198 A 
ATOM     74  C   UNL A   1      42.133  24.289  26.649  1.00  0.00     0.198 A 
ATOM     75  F   UNL A   1      40.890  24.605  28.622  1.00  0.00    -0.203 F 
ATOM     76  F   UNL A   1      44.333  26.543  24.856  1.00  0.00    -0.200 F 
ATOM     77  C   UNL A   1      43.007  24.774  25.687  1.00  0.00     0.200 A 
ATOM     78  F   UNL A   1      41.656  23.041  26.550  1.00  0.00    -0.200 F 
ATOM     79  F   UNL A   1      43.361  24.002  24.650  1.00  0.00    -0.200 F 
ENDBRANCH  55  69
BRANCH  56  80
ATOM     80  C   UNL A   1      39.212  32.013  35.517  1.00  0.00     0.064 A 
ATOM     81  C   UNL A   1      39.589  33.358  35.648  1.00  0.00     0.173 A 
ATOM     82  C   UNL A   1      38.409  31.459  36.524  1.00  0.00     0.173 A 
ATOM     83  F   UNL A   1      40.374  33.925  34.721  1.00  0.00    -0.203 F 
ATOM     84  C   UNL A   1      39.198  34.110  36.754  1.00  0.00     0.198 A 
ATOM     85  C   UNL A   1      37.998  32.221  37.616  1.00  0.00     0.198 A 
ATOM     86  F   UNL A   1      38.018  30.179  36.442  1.00  0.00    -0.203 F 
ATOM     87  F   UNL A   1      39.612  35.378  36.878  1.00  0.00    -0.200 F 
ATOM     88  C   UNL A   1      38.400  33.542  37.735  1.00  0.00     0.200 A 
ATOM     89  F   UNL A   1      37.215  31.671  38.555  1.00  0.00    -0.200 F 
ATOM     90  F   UNL A   1      38.024  34.265  38.799  1.00  0.00    -0.200 F 
ENDBRANCH  56  80
BRANCH  68  91
ATOM     91  C   UNL A   1      44.788  27.995  34.403  1.00  0.00     0.064 A 
ATOM     92  C   UNL A   1      44.799  26.894  35.271  1.00  0.00     0.173 A 
ATOM     93  C   UNL A   1      45.954  28.770  34.307  1.00  0.00     0.173 A 
ATOM     94  F   UNL A   1      43.702  26.133  35.409  1.00  0.00    -0.203 F 
ATOM     95  C   UNL A   1      45.927  26.591  36.027  1.00  0.00     0.198 A 
ATOM     96  C   UNL A   1      47.090  28.449  35.045  1.00  0.00     0.198 A 
ATOM     97  F   UNL A   1      45.995  29.831  33.487  1.00  0.00    -0.203 F 
ATOM     98  F   UNL A   1      45.902  25.558  36.881  1.00  0.00    -0.200 F 
ATOM     99  C   UNL A   1      47.073  27.364  35.908  1.00  0.00     0.200 A 
ATOM    100  F   UNL A   1      48.199  29.190  34.922  1.00  0.00    -0.200 F 
ATOM    101  F   UNL A   1      48.161  27.066  36.633  1.00  0.00    -0.200 F 
ENDBRANCH  68  91
ENDBRANCH  42  43
ENDBRANCH  34  37
ENDBRANCH  32  33
ENDBRANCH  31  32
ENDBRANCH  30  31
ENDBRANCH   1  30
TORSDOF 18
ENDMDL
