MODEL 1
REMARK VINA RESULT:     -11.6      0.000      0.000
REMARK SMILES CC[C@@H](Nc1ccc([N+](=O)[O-])c(N)n1)C(=O)NCCCCNC(=O)c1ccc(-c2c3nc(c(-c4c(F)c(F)c(F)c(F)c4F)c4ccc([nH]4)c(-c4c(F)c(F)c(F)c(F)c4F)c4nc(c(-c5c(F)c(F)c(F)c(F)c5F)c5ccc2[nH]5)C=C4)C=C3)cc1
REMARK SMILES IDX 19 1 18 2 17 3 15 4 16 5 3 7 2 8 1 9 4 10 5 12 6 13 14 14
REMARK SMILES IDX 7 15 12 16 8 17 13 18 9 21 10 22 11 23 20 24 21 25 22 26
REMARK SMILES IDX 23 27 24 29 25 30 26 31 87 32 27 33 86 34 28 35 29 36 30 37
REMARK SMILES IDX 80 38 31 39 85 40 79 41 81 42 32 43 84 44 78 45 77 46 33 48
REMARK SMILES IDX 65 49 45 50 64 51 46 52 49 53 63 54 82 55 47 56 48 57 62 59
REMARK SMILES IDX 83 60 50 61 34 62 35 63 43 64 36 65 37 66 41 67 44 68 38 69
REMARK SMILES IDX 39 70 42 71 40 72 66 73 67 74 75 75 68 76 69 77 73 78 76 79
REMARK SMILES IDX 70 80 71 81 74 82 72 83 51 84 52 85 60 86 53 87 54 88 58 89
REMARK SMILES IDX 61 90 55 91 56 92 59 93 57 94
REMARK H PARENT 17 6 4 11 13 19 13 20 22 28 81 47 49 58
REMARK Flexibility Score: inf
ROOT
ATOM      1  C   UNL A   1      31.668  30.434  25.866  1.00  0.00     0.023 C 
ENDROOT
BRANCH   1   2
ATOM      2  C   UNL A   1      32.303  29.310  26.675  1.00  0.00     0.116 C 
BRANCH   2   3
ATOM      3  N   UNL A   1      31.387  28.225  26.947  1.00  0.00    -0.354 N 
ATOM      4  C   UNL A   1      31.327  26.984  26.373  1.00  0.00     0.242 C 
ATOM      5  O   UNL A   1      30.503  26.186  26.829  1.00  0.00    -0.273 OA
ATOM      6  H   UNL A   1      30.712  28.403  27.641  1.00  0.00     0.163 HD
BRANCH   4   7
ATOM      7  C   UNL A   1      32.206  26.611  25.151  1.00  0.00     0.169 C 
BRANCH   7   8
ATOM      8  C   UNL A   1      32.906  25.282  25.431  1.00  0.00     0.031 C 
ATOM      9  C   UNL A   1      34.425  25.344  25.299  1.00  0.00     0.006 C 
ENDBRANCH   7   8
BRANCH   7  10
ATOM     10  N   UNL A   1      31.449  26.771  23.900  1.00  0.00    -0.358 N 
ATOM     11  H   UNL A   1      31.528  25.980  23.318  1.00  0.00     0.162 HD
BRANCH  10  12
ATOM     12  C   UNL A   1      30.668  27.735  23.346  1.00  0.00     0.129 A 
ATOM     13  C   UNL A   1      31.116  28.853  22.661  1.00  0.00     0.054 A 
ATOM     14  N   UNL A   1      29.345  27.505  23.480  1.00  0.00    -0.208 NA
ATOM     15  C   UNL A   1      30.208  29.796  22.192  1.00  0.00     0.093 A 
ATOM     16  C   UNL A   1      28.441  28.403  23.014  1.00  0.00     0.204 A 
ATOM     17  C   UNL A   1      28.849  29.579  22.400  1.00  0.00     0.311 A 
BRANCH  16  18
ATOM     18  N   UNL A   1      27.131  28.074  23.291  1.00  0.00    -0.378 N 
ATOM     19  H   UNL A   1      26.432  28.765  23.256  1.00  0.00     0.158 HD
ATOM     20  H   UNL A   1      26.895  27.147  23.524  1.00  0.00     0.158 HD
ENDBRANCH  16  18
BRANCH  17  21
ATOM     21  N   UNL A   1      27.903  30.592  21.959  1.00  0.00     0.066 N 
ATOM     22  O   UNL A   1      27.212  31.168  22.812  1.00  0.00    -0.258 OA
ATOM     23  O   UNL A   1      27.819  30.796  20.738  1.00  0.00    -0.258 OA
ENDBRANCH  17  21
ENDBRANCH  10  12
ENDBRANCH   7  10
ENDBRANCH   4   7
ENDBRANCH   2   3
ENDBRANCH   1   2
BRANCH   1  24
ATOM     24  C   UNL A   1      31.398  31.712  26.653  1.00  0.00     0.023 C 
BRANCH  24  25
ATOM     25  C   UNL A   1      32.643  32.444  27.142  1.00  0.00     0.116 C 
BRANCH  25  26
ATOM     26  N   UNL A   1      32.390  33.829  27.507  1.00  0.00    -0.352 N 
ATOM     27  C   UNL A   1      33.034  34.617  28.431  1.00  0.00     0.251 C 
ATOM     28  H   UNL A   1      31.651  34.263  27.024  1.00  0.00     0.163 HD
ATOM     29  O   UNL A   1      32.597  35.728  28.701  1.00  0.00    -0.269 OA
BRANCH  27  30
ATOM     30  C   UNL A   1      34.235  34.104  29.126  1.00  0.00     0.039 A 
ATOM     31  C   UNL A   1      34.061  33.273  30.233  1.00  0.00     0.014 A 
ATOM     32  C   UNL A   1      35.522  34.426  28.685  1.00  0.00     0.014 A 
ATOM     33  C   UNL A   1      35.177  32.715  30.858  1.00  0.00     0.010 A 
ATOM     34  C   UNL A   1      36.627  33.797  29.250  1.00  0.00     0.010 A 
ATOM     35  C   UNL A   1      36.469  32.939  30.348  1.00  0.00    -0.014 A 
BRANCH  35  36
ATOM     36  C   UNL A   1      37.646  32.273  30.959  1.00  0.00     0.031 A 
ATOM     37  C   UNL A   1      38.120  32.662  32.333  1.00  0.00     0.074 A 
ATOM     38  C   UNL A   1      38.305  31.325  30.263  1.00  0.00     0.049 A 
ATOM     39  N   UNL A   1      39.110  32.171  33.035  1.00  0.00    -0.248 NA
ATOM     40  C   UNL A   1      37.405  33.763  32.997  1.00  0.00     0.031 C 
ATOM     41  C   UNL A   1      37.988  30.910  28.895  1.00  0.00     0.029 A 
ATOM     42  N   UNL A   1      39.373  30.537  30.608  1.00  0.00    -0.354 N 
ATOM     43  C   UNL A   1      39.129  32.896  34.221  1.00  0.00     0.074 A 
ATOM     44  C   UNL A   1      38.105  33.909  34.112  1.00  0.00     0.031 C 
ATOM     45  C   UNL A   1      38.818  29.921  28.531  1.00  0.00     0.029 A 
ATOM     46  C   UNL A   1      39.748  29.654  29.624  1.00  0.00     0.049 A 
ATOM     47  H   UNL A   1      39.830  30.599  31.478  1.00  0.00     0.167 HD
ATOM     48  C   UNL A   1      39.903  32.707  35.317  1.00  0.00     0.037 A 
ATOM     49  C   UNL A   1      40.729  28.733  29.605  1.00  0.00     0.037 A 
ATOM     50  C   UNL A   1      40.922  31.695  35.422  1.00  0.00     0.049 A 
ATOM     51  C   UNL A   1      41.580  28.550  30.834  1.00  0.00     0.074 A 
ATOM     52  C   UNL A   1      41.742  31.403  36.499  1.00  0.00     0.029 A 
ATOM     53  N   UNL A   1      41.263  30.808  34.410  1.00  0.00    -0.354 N 
ATOM     54  N   UNL A   1      41.535  29.188  31.977  1.00  0.00    -0.248 NA
ATOM     55  C   UNL A   1      42.608  27.502  30.773  1.00  0.00     0.031 C 
ATOM     56  C   UNL A   1      42.611  30.373  36.122  1.00  0.00     0.029 A 
ATOM     57  C   UNL A   1      42.292  29.981  34.832  1.00  0.00     0.049 A 
ATOM     58  H   UNL A   1      40.837  30.773  33.524  1.00  0.00     0.167 HD
ATOM     59  C   UNL A   1      42.507  28.606  32.779  1.00  0.00     0.074 A 
ATOM     60  C   UNL A   1      43.105  27.541  32.000  1.00  0.00     0.031 C 
ATOM     61  C   UNL A   1      42.878  28.927  34.044  1.00  0.00     0.037 A 
BRANCH  48  62
ATOM     62  C   UNL A   1      39.665  33.606  36.497  1.00  0.00     0.064 A 
ATOM     63  C   UNL A   1      38.797  33.236  37.536  1.00  0.00     0.173 A 
ATOM     64  C   UNL A   1      40.340  34.830  36.614  1.00  0.00     0.173 A 
ATOM     65  F   UNL A   1      38.116  32.081  37.468  1.00  0.00    -0.203 F 
ATOM     66  C   UNL A   1      38.593  34.068  38.633  1.00  0.00     0.198 A 
ATOM     67  C   UNL A   1      40.160  35.645  37.730  1.00  0.00     0.198 A 
ATOM     68  F   UNL A   1      41.185  35.233  35.654  1.00  0.00    -0.203 F 
ATOM     69  F   UNL A   1      37.720  33.714  39.587  1.00  0.00    -0.200 F 
ATOM     70  C   UNL A   1      39.281  35.267  38.734  1.00  0.00     0.200 A 
ATOM     71  F   UNL A   1      40.837  36.797  37.834  1.00  0.00    -0.200 F 
ATOM     72  F   UNL A   1      39.092  36.062  39.796  1.00  0.00    -0.200 F 
ENDBRANCH  48  62
BRANCH  49  73
ATOM     73  C   UNL A   1      40.950  27.901  28.392  1.00  0.00     0.064 A 
ATOM     74  C   UNL A   1      41.754  28.354  27.336  1.00  0.00     0.173 A 
ATOM     75  C   UNL A   1      40.341  26.645  28.253  1.00  0.00     0.173 A 
ATOM     76  F   UNL A   1      42.345  29.555  27.411  1.00  0.00    -0.203 F 
ATOM     77  C   UNL A   1      41.914  27.598  26.175  1.00  0.00     0.198 A 
ATOM     78  C   UNL A   1      40.530  25.873  27.108  1.00  0.00     0.198 A 
ATOM     79  F   UNL A   1      39.570  26.160  29.237  1.00  0.00    -0.203 F 
ATOM     80  F   UNL A   1      42.637  28.082  25.157  1.00  0.00    -0.200 F 
ATOM     81  C   UNL A   1      41.305  26.357  26.064  1.00  0.00     0.200 A 
ATOM     82  F   UNL A   1      39.957  24.667  27.014  1.00  0.00    -0.200 F 
ATOM     83  F   UNL A   1      41.458  25.630  24.950  1.00  0.00    -0.200 F 
ENDBRANCH  49  73
BRANCH  61  84
ATOM     84  C   UNL A   1      43.960  28.092  34.670  1.00  0.00     0.064 A 
ATOM     85  C   UNL A   1      45.313  28.453  34.588  1.00  0.00     0.173 A 
ATOM     86  C   UNL A   1      43.637  26.919  35.370  1.00  0.00     0.173 A 
ATOM     87  F   UNL A   1      45.679  29.559  33.920  1.00  0.00    -0.203 F 
ATOM     88  C   UNL A   1      46.306  27.648  35.141  1.00  0.00     0.198 A 
ATOM     89  C   UNL A   1      44.629  26.136  35.955  1.00  0.00     0.198 A 
ATOM     90  F   UNL A   1      42.359  26.532  35.488  1.00  0.00    -0.203 F 
ATOM     91  F   UNL A   1      47.595  27.977  34.988  1.00  0.00    -0.200 F 
ATOM     92  C   UNL A   1      45.962  26.494  35.828  1.00  0.00     0.200 A 
ATOM     93  F   UNL A   1      44.294  25.030  36.632  1.00  0.00    -0.200 F 
ATOM     94  F   UNL A   1      46.918  25.718  36.358  1.00  0.00    -0.200 F 
ENDBRANCH  61  84
ENDBRANCH  35  36
ENDBRANCH  27  30
ENDBRANCH  25  26
ENDBRANCH  24  25
ENDBRANCH   1  24
TORSDOF 16
ENDMDL
MODEL 2
REMARK VINA RESULT:     -11.5      1.397      2.157
REMARK SMILES CC[C@@H](Nc1ccc([N+](=O)[O-])c(N)n1)C(=O)NCCCCNC(=O)c1ccc(-c2c3nc(c(-c4c(F)c(F)c(F)c(F)c4F)c4ccc([nH]4)c(-c4c(F)c(F)c(F)c(F)c4F)c4nc(c(-c5c(F)c(F)c(F)c(F)c5F)c5ccc2[nH]5)C=C4)C=C3)cc1
REMARK SMILES IDX 19 1 18 2 17 3 15 4 16 5 3 7 2 8 1 9 4 10 5 12 6 13 14 14
REMARK SMILES IDX 7 15 12 16 8 17 13 18 9 21 10 22 11 23 20 24 21 25 22 26
REMARK SMILES IDX 23 27 24 29 25 30 26 31 87 32 27 33 86 34 28 35 29 36 30 37
REMARK SMILES IDX 80 38 31 39 85 40 79 41 81 42 32 43 84 44 78 45 77 46 33 48
REMARK SMILES IDX 65 49 45 50 64 51 46 52 49 53 63 54 82 55 47 56 48 57 62 59
REMARK SMILES IDX 83 60 50 61 34 62 35 63 43 64 36 65 37 66 41 67 44 68 38 69
REMARK SMILES IDX 39 70 42 71 40 72 66 73 67 74 75 75 68 76 69 77 73 78 76 79
REMARK SMILES IDX 70 80 71 81 74 82 72 83 51 84 52 85 60 86 53 87 54 88 58 89
REMARK SMILES IDX 61 90 55 91 56 92 59 93 57 94
REMARK H PARENT 17 6 4 11 13 19 13 20 22 28 81 47 49 58
REMARK Flexibility Score: inf
ROOT
ATOM      1  C   UNL A   1      32.863  29.264  25.210  1.00  0.00     0.023 C 
ENDROOT
BRANCH   1   2
ATOM      2  C   UNL A   1      33.453  28.194  26.119  1.00  0.00     0.116 C 
BRANCH   2   3
ATOM      3  N   UNL A   1      32.458  27.271  26.621  1.00  0.00    -0.354 N 
ATOM      4  C   UNL A   1      32.077  26.058  26.115  1.00  0.00     0.242 C 
ATOM      5  O   UNL A   1      31.257  25.403  26.767  1.00  0.00    -0.273 OA
ATOM      6  H   UNL A   1      31.990  27.555  27.438  1.00  0.00     0.163 HD
BRANCH   4   7
ATOM      7  C   UNL A   1      32.594  25.550  24.744  1.00  0.00     0.169 C 
BRANCH   7   8
ATOM      8  C   UNL A   1      33.179  24.149  24.923  1.00  0.00     0.031 C 
ATOM      9  C   UNL A   1      34.329  24.083  25.923  1.00  0.00     0.006 C 
ENDBRANCH   7   8
BRANCH   7  10
ATOM     10  N   UNL A   1      31.588  25.776  23.695  1.00  0.00    -0.358 N 
ATOM     11  H   UNL A   1      31.599  25.064  23.014  1.00  0.00     0.162 HD
BRANCH  10  12
ATOM     12  C   UNL A   1      30.649  26.722  23.429  1.00  0.00     0.129 A 
ATOM     13  C   UNL A   1      29.316  26.673  23.800  1.00  0.00     0.054 A 
ATOM     14  N   UNL A   1      31.133  27.796  22.770  1.00  0.00    -0.208 NA
ATOM     15  C   UNL A   1      28.445  27.686  23.413  1.00  0.00     0.093 A 
ATOM     16  C   UNL A   1      30.305  28.804  22.398  1.00  0.00     0.204 A 
ATOM     17  C   UNL A   1      28.945  28.754  22.673  1.00  0.00     0.311 A 
BRANCH  16  18
ATOM     18  N   UNL A   1      30.923  29.795  21.665  1.00  0.00    -0.378 N 
ATOM     19  H   UNL A   1      30.419  30.598  21.400  1.00  0.00     0.158 HD
ATOM     20  H   UNL A   1      31.869  29.700  21.408  1.00  0.00     0.158 HD
ENDBRANCH  16  18
BRANCH  17  21
ATOM     21  N   UNL A   1      28.025  29.784  22.220  1.00  0.00     0.066 N 
ATOM     22  O   UNL A   1      28.069  30.137  21.032  1.00  0.00    -0.258 OA
ATOM     23  O   UNL A   1      27.264  30.278  23.067  1.00  0.00    -0.258 OA
ENDBRANCH  17  21
ENDBRANCH  10  12
ENDBRANCH   7  10
ENDBRANCH   4   7
ENDBRANCH   2   3
ENDBRANCH   1   2
BRANCH   1  24
ATOM     24  C   UNL A   1      31.935  30.252  25.908  1.00  0.00     0.023 C 
BRANCH  24  25
ATOM     25  C   UNL A   1      32.474  30.834  27.210  1.00  0.00     0.116 C 
BRANCH  25  26
ATOM     26  N   UNL A   1      32.633  32.280  27.172  1.00  0.00    -0.352 N 
ATOM     27  C   UNL A   1      33.661  33.056  27.653  1.00  0.00     0.251 C 
ATOM     28  H   UNL A   1      31.899  32.773  26.740  1.00  0.00     0.163 HD
ATOM     29  O   UNL A   1      33.563  34.276  27.649  1.00  0.00    -0.269 OA
BRANCH  27  30
ATOM     30  C   UNL A   1      34.869  32.411  28.212  1.00  0.00     0.039 A 
ATOM     31  C   UNL A   1      36.029  33.173  28.350  1.00  0.00     0.014 A 
ATOM     32  C   UNL A   1      34.858  31.070  28.609  1.00  0.00     0.014 A 
ATOM     33  C   UNL A   1      37.158  32.608  28.945  1.00  0.00     0.010 A 
ATOM     34  C   UNL A   1      35.952  30.537  29.284  1.00  0.00     0.010 A 
ATOM     35  C   UNL A   1      37.117  31.298  29.455  1.00  0.00    -0.014 A 
BRANCH  35  36
ATOM     36  C   UNL A   1      38.290  30.730  30.167  1.00  0.00     0.031 A 
ATOM     37  C   UNL A   1      38.582  31.117  31.591  1.00  0.00     0.074 A 
ATOM     38  C   UNL A   1      39.107  29.877  29.519  1.00  0.00     0.049 A 
ATOM     39  N   UNL A   1      39.543  30.701  32.379  1.00  0.00    -0.248 NA
ATOM     40  C   UNL A   1      37.697  32.118  32.205  1.00  0.00     0.031 C 
ATOM     41  C   UNL A   1      38.972  29.480  28.116  1.00  0.00     0.029 A 
ATOM     42  N   UNL A   1      40.210  29.186  29.952  1.00  0.00    -0.354 N 
ATOM     43  C   UNL A   1      39.370  31.382  33.578  1.00  0.00     0.074 A 
ATOM     44  C   UNL A   1      38.264  32.293  33.389  1.00  0.00     0.031 C 
ATOM     45  C   UNL A   1      39.930  28.590  27.815  1.00  0.00     0.029 A 
ATOM     46  C   UNL A   1      40.769  28.379  28.990  1.00  0.00     0.049 A 
ATOM     47  H   UNL A   1      40.570  29.262  30.866  1.00  0.00     0.167 HD
ATOM     48  C   UNL A   1      40.046  31.233  34.742  1.00  0.00     0.037 A 
ATOM     49  C   UNL A   1      41.836  27.560  29.050  1.00  0.00     0.037 A 
ATOM     50  C   UNL A   1      41.147  30.323  34.927  1.00  0.00     0.049 A 
ATOM     51  C   UNL A   1      42.574  27.419  30.354  1.00  0.00     0.074 A 
ATOM     52  C   UNL A   1      41.881  30.076  36.074  1.00  0.00     0.029 A 
ATOM     53  N   UNL A   1      41.675  29.510  33.934  1.00  0.00    -0.354 N 
ATOM     54  N   UNL A   1      42.351  28.010  31.502  1.00  0.00    -0.248 NA
ATOM     55  C   UNL A   1      43.704  26.480  30.374  1.00  0.00     0.031 C 
ATOM     56  C   UNL A   1      42.883  29.151  35.763  1.00  0.00     0.029 A 
ATOM     57  C   UNL A   1      42.736  28.774  34.438  1.00  0.00     0.049 A 
ATOM     58  H   UNL A   1      41.345  29.464  33.007  1.00  0.00     0.167 HD
ATOM     59  C   UNL A   1      43.292  27.499  32.385  1.00  0.00     0.074 A 
ATOM     60  C   UNL A   1      44.070  26.526  31.645  1.00  0.00     0.031 C 
ATOM     61  C   UNL A   1      43.501  27.811  33.688  1.00  0.00     0.037 A 
BRANCH  48  62
ATOM     62  C   UNL A   1      39.602  32.063  35.913  1.00  0.00     0.064 A 
ATOM     63  C   UNL A   1      40.202  33.298  36.205  1.00  0.00     0.173 A 
ATOM     64  C   UNL A   1      38.540  31.644  36.728  1.00  0.00     0.173 A 
ATOM     65  F   UNL A   1      41.231  33.740  35.465  1.00  0.00    -0.203 F 
ATOM     66  C   UNL A   1      39.775  34.068  37.283  1.00  0.00     0.198 A 
ATOM     67  C   UNL A   1      38.092  32.433  37.785  1.00  0.00     0.198 A 
ATOM     68  F   UNL A   1      37.925  30.475  36.493  1.00  0.00    -0.203 F 
ATOM     69  F   UNL A   1      40.399  35.219  37.570  1.00  0.00    -0.200 F 
ATOM     70  C   UNL A   1      38.715  33.640  38.067  1.00  0.00     0.200 A 
ATOM     71  F   UNL A   1      37.057  32.026  38.533  1.00  0.00    -0.200 F 
ATOM     72  F   UNL A   1      38.297  34.387  39.097  1.00  0.00    -0.200 F 
ENDBRANCH  48  62
BRANCH  49  73
ATOM     73  C   UNL A   1      42.260  26.797  27.845  1.00  0.00     0.064 A 
ATOM     74  C   UNL A   1      43.167  27.337  26.923  1.00  0.00     0.173 A 
ATOM     75  C   UNL A   1      41.746  25.518  27.579  1.00  0.00     0.173 A 
ATOM     76  F   UNL A   1      43.674  28.563  27.122  1.00  0.00    -0.203 F 
ATOM     77  C   UNL A   1      43.519  26.644  25.766  1.00  0.00     0.198 A 
ATOM     78  C   UNL A   1      42.126  24.811  26.440  1.00  0.00     0.198 A 
ATOM     79  F   UNL A   1      40.882  24.950  28.433  1.00  0.00    -0.203 F 
ATOM     80  F   UNL A   1      44.339  27.211  24.872  1.00  0.00    -0.200 F 
ATOM     81  C   UNL A   1      43.002  25.380  25.528  1.00  0.00     0.200 A 
ATOM     82  F   UNL A   1      41.639  23.581  26.225  1.00  0.00    -0.200 F 
ATOM     83  F   UNL A   1      43.339  24.713  24.416  1.00  0.00    -0.200 F 
ENDBRANCH  49  73
BRANCH  61  84
ATOM     84  C   UNL A   1      44.595  27.065  34.402  1.00  0.00     0.064 A 
ATOM     85  C   UNL A   1      45.909  27.554  34.456  1.00  0.00     0.173 A 
ATOM     86  C   UNL A   1      44.322  25.849  35.048  1.00  0.00     0.173 A 
ATOM     87  F   UNL A   1      46.228  28.705  33.844  1.00  0.00    -0.203 F 
ATOM     88  C   UNL A   1      46.918  26.830  35.088  1.00  0.00     0.198 A 
ATOM     89  C   UNL A   1      45.324  25.148  35.712  1.00  0.00     0.198 A 
ATOM     90  F   UNL A   1      43.080  25.341  35.037  1.00  0.00    -0.203 F 
ATOM     91  F   UNL A   1      48.178  27.283  35.064  1.00  0.00    -0.200 F 
ATOM     92  C   UNL A   1      46.623  25.632  35.719  1.00  0.00     0.200 A 
ATOM     93  F   UNL A   1      45.035  23.999  36.337  1.00  0.00    -0.200 F 
ATOM     94  F   UNL A   1      47.595  24.937  36.326  1.00  0.00    -0.200 F 
ENDBRANCH  61  84
ENDBRANCH  35  36
ENDBRANCH  27  30
ENDBRANCH  25  26
ENDBRANCH  24  25
ENDBRANCH   1  24
TORSDOF 16
ENDMDL
MODEL 3
REMARK VINA RESULT:     -11.5      1.017      2.318
REMARK SMILES CC[C@@H](Nc1ccc([N+](=O)[O-])c(N)n1)C(=O)NCCCCNC(=O)c1ccc(-c2c3nc(c(-c4c(F)c(F)c(F)c(F)c4F)c4ccc([nH]4)c(-c4c(F)c(F)c(F)c(F)c4F)c4nc(c(-c5c(F)c(F)c(F)c(F)c5F)c5ccc2[nH]5)C=C4)C=C3)cc1
REMARK SMILES IDX 19 1 18 2 17 3 15 4 16 5 3 7 2 8 1 9 4 10 5 12 6 13 14 14
REMARK SMILES IDX 7 15 12 16 8 17 13 18 9 21 10 22 11 23 20 24 21 25 22 26
REMARK SMILES IDX 23 27 24 29 25 30 26 31 87 32 27 33 86 34 28 35 29 36 30 37
REMARK SMILES IDX 80 38 31 39 85 40 79 41 81 42 32 43 84 44 78 45 77 46 33 48
REMARK SMILES IDX 65 49 45 50 64 51 46 52 49 53 63 54 82 55 47 56 48 57 62 59
REMARK SMILES IDX 83 60 50 61 34 62 35 63 43 64 36 65 37 66 41 67 44 68 38 69
REMARK SMILES IDX 39 70 42 71 40 72 66 73 67 74 75 75 68 76 69 77 73 78 76 79
REMARK SMILES IDX 70 80 71 81 74 82 72 83 51 84 52 85 60 86 53 87 54 88 58 89
REMARK SMILES IDX 61 90 55 91 56 92 59 93 57 94
REMARK H PARENT 17 6 4 11 13 19 13 20 22 28 81 47 49 58
REMARK Flexibility Score: inf
ROOT
ATOM      1  C   UNL A   1      31.672  30.378  25.723  1.00  0.00     0.023 C 
ENDROOT
BRANCH   1   2
ATOM      2  C   UNL A   1      32.816  29.382  25.856  1.00  0.00     0.116 C 
BRANCH   2   3
ATOM      3  N   UNL A   1      33.717  29.404  24.725  1.00  0.00    -0.354 N 
ATOM      4  C   UNL A   1      34.078  28.381  23.890  1.00  0.00     0.242 C 
ATOM      5  O   UNL A   1      34.806  28.658  22.932  1.00  0.00    -0.273 OA
ATOM      6  H   UNL A   1      34.130  30.276  24.528  1.00  0.00     0.163 HD
BRANCH   4   7
ATOM      7  C   UNL A   1      33.651  26.916  24.169  1.00  0.00     0.169 C 
BRANCH   7   8
ATOM      8  C   UNL A   1      33.837  26.621  25.658  1.00  0.00     0.031 C 
ATOM      9  C   UNL A   1      33.422  25.210  26.064  1.00  0.00     0.006 C 
ENDBRANCH   7   8
BRANCH   7  10
ATOM     10  N   UNL A   1      32.355  26.624  23.538  1.00  0.00    -0.358 N 
ATOM     11  H   UNL A   1      32.324  25.713  23.166  1.00  0.00     0.162 HD
BRANCH  10  12
ATOM     12  C   UNL A   1      31.191  27.296  23.340  1.00  0.00     0.129 A 
ATOM     13  C   UNL A   1      29.946  26.930  23.823  1.00  0.00     0.054 A 
ATOM     14  N   UNL A   1      31.337  28.435  22.631  1.00  0.00    -0.208 NA
ATOM     15  C   UNL A   1      28.821  27.680  23.498  1.00  0.00     0.093 A 
ATOM     16  C   UNL A   1      30.256  29.192  22.317  1.00  0.00     0.204 A 
ATOM     17  C   UNL A   1      28.978  28.814  22.705  1.00  0.00     0.311 A 
BRANCH  16  18
ATOM     18  N   UNL A   1      30.546  30.282  21.523  1.00  0.00    -0.378 N 
ATOM     19  H   UNL A   1      31.330  30.263  20.929  1.00  0.00     0.158 HD
ATOM     20  H   UNL A   1      29.968  31.078  21.550  1.00  0.00     0.158 HD
ENDBRANCH  16  18
BRANCH  17  21
ATOM     21  N   UNL A   1      27.796  29.567  22.319  1.00  0.00     0.066 N 
ATOM     22  O   UNL A   1      26.919  29.771  23.172  1.00  0.00    -0.258 OA
ATOM     23  O   UNL A   1      27.719  29.936  21.137  1.00  0.00    -0.258 OA
ENDBRANCH  17  21
ENDBRANCH  10  12
ENDBRANCH   7  10
ENDBRANCH   4   7
ENDBRANCH   2   3
ENDBRANCH   1   2
BRANCH   1  24
ATOM     24  C   UNL A   1      31.594  31.411  26.843  1.00  0.00     0.023 C 
BRANCH  24  25
ATOM     25  C   UNL A   1      32.814  32.316  26.973  1.00  0.00     0.116 C 
BRANCH  25  26
ATOM     26  N   UNL A   1      32.486  33.664  27.410  1.00  0.00    -0.352 N 
ATOM     27  C   UNL A   1      33.073  34.428  28.391  1.00  0.00     0.251 C 
ATOM     28  H   UNL A   1      31.736  34.090  26.936  1.00  0.00     0.163 HD
ATOM     29  O   UNL A   1      32.577  35.499  28.714  1.00  0.00    -0.269 OA
BRANCH  27  30
ATOM     30  C   UNL A   1      34.283  33.933  29.083  1.00  0.00     0.039 A 
ATOM     31  C   UNL A   1      34.126  33.098  30.189  1.00  0.00     0.014 A 
ATOM     32  C   UNL A   1      35.564  34.277  28.639  1.00  0.00     0.014 A 
ATOM     33  C   UNL A   1      35.252  32.558  30.810  1.00  0.00     0.010 A 
ATOM     34  C   UNL A   1      36.680  33.665  29.201  1.00  0.00     0.010 A 
ATOM     35  C   UNL A   1      36.538  32.804  30.297  1.00  0.00    -0.014 A 
BRANCH  35  36
ATOM     36  C   UNL A   1      37.728  32.156  30.905  1.00  0.00     0.031 A 
ATOM     37  C   UNL A   1      38.206  32.560  32.273  1.00  0.00     0.074 A 
ATOM     38  C   UNL A   1      38.394  31.213  30.210  1.00  0.00     0.049 A 
ATOM     39  N   UNL A   1      39.207  32.085  32.972  1.00  0.00    -0.248 NA
ATOM     40  C   UNL A   1      37.481  33.656  32.935  1.00  0.00     0.031 C 
ATOM     41  C   UNL A   1      38.073  30.785  28.847  1.00  0.00     0.029 A 
ATOM     42  N   UNL A   1      39.475  30.440  30.553  1.00  0.00    -0.354 N 
ATOM     43  C   UNL A   1      39.224  32.817  34.153  1.00  0.00     0.074 A 
ATOM     44  C   UNL A   1      38.187  33.818  34.045  1.00  0.00     0.031 C 
ATOM     45  C   UNL A   1      38.914  29.804  28.484  1.00  0.00     0.029 A 
ATOM     46  C   UNL A   1      39.854  29.556  29.572  1.00  0.00     0.049 A 
ATOM     47  H   UNL A   1      39.936  30.513  31.420  1.00  0.00     0.167 HD
ATOM     48  C   UNL A   1      40.008  32.645  35.245  1.00  0.00     0.037 A 
ATOM     49  C   UNL A   1      40.847  28.647  29.553  1.00  0.00     0.037 A 
ATOM     50  C   UNL A   1      41.040  31.646  35.350  1.00  0.00     0.049 A 
ATOM     51  C   UNL A   1      41.707  28.482  30.776  1.00  0.00     0.074 A 
ATOM     52  C   UNL A   1      41.871  31.371  36.423  1.00  0.00     0.029 A 
ATOM     53  N   UNL A   1      41.386  30.758  34.341  1.00  0.00    -0.354 N 
ATOM     54  N   UNL A   1      41.662  29.126  31.916  1.00  0.00    -0.248 NA
ATOM     55  C   UNL A   1      42.748  27.446  30.716  1.00  0.00     0.031 C 
ATOM     56  C   UNL A   1      42.750  30.351  36.046  1.00  0.00     0.029 A 
ATOM     57  C   UNL A   1      42.428  29.946  34.761  1.00  0.00     0.049 A 
ATOM     58  H   UNL A   1      40.954  30.712  33.458  1.00  0.00     0.167 HD
ATOM     59  C   UNL A   1      42.646  28.562  32.715  1.00  0.00     0.074 A 
ATOM     60  C   UNL A   1      43.253  27.500  31.939  1.00  0.00     0.031 C 
ATOM     61  C   UNL A   1      43.022  28.895  33.975  1.00  0.00     0.037 A 
BRANCH  48  62
ATOM     62  C   UNL A   1      39.766  33.549  36.421  1.00  0.00     0.064 A 
ATOM     63  C   UNL A   1      40.380  34.807  36.515  1.00  0.00     0.173 A 
ATOM     64  C   UNL A   1      38.882  33.175  37.444  1.00  0.00     0.173 A 
ATOM     65  F   UNL A   1      41.245  35.210  35.571  1.00  0.00    -0.203 F 
ATOM     66  C   UNL A   1      40.140  35.645  37.601  1.00  0.00     0.198 A 
ATOM     67  C   UNL A   1      38.617  34.030  38.511  1.00  0.00     0.198 A 
ATOM     68  F   UNL A   1      38.263  31.985  37.404  1.00  0.00    -0.203 F 
ATOM     69  F   UNL A   1      40.778  36.820  37.692  1.00  0.00    -0.200 F 
ATOM     70  C   UNL A   1      39.252  35.260  38.593  1.00  0.00     0.200 A 
ATOM     71  F   UNL A   1      37.747  33.663  39.462  1.00  0.00    -0.200 F 
ATOM     72  F   UNL A   1      39.012  36.072  39.632  1.00  0.00    -0.200 F 
ENDBRANCH  48  62
BRANCH  49  73
ATOM     73  C   UNL A   1      41.070  27.810  28.343  1.00  0.00     0.064 A 
ATOM     74  C   UNL A   1      40.451  26.561  28.197  1.00  0.00     0.173 A 
ATOM     75  C   UNL A   1      41.929  28.234  27.317  1.00  0.00     0.173 A 
ATOM     76  F   UNL A   1      39.634  26.102  29.156  1.00  0.00    -0.203 F 
ATOM     77  C   UNL A   1      40.706  25.754  27.089  1.00  0.00     0.198 A 
ATOM     78  C   UNL A   1      42.156  27.443  26.193  1.00  0.00     0.198 A 
ATOM     79  F   UNL A   1      42.540  29.425  27.401  1.00  0.00    -0.203 F 
ATOM     80  F   UNL A   1      40.149  24.539  27.006  1.00  0.00    -0.200 F 
ATOM     81  C   UNL A   1      41.555  26.197  26.086  1.00  0.00     0.200 A 
ATOM     82  F   UNL A   1      42.961  27.885  25.217  1.00  0.00    -0.200 F 
ATOM     83  F   UNL A   1      41.801  25.423  25.022  1.00  0.00    -0.200 F 
ENDBRANCH  49  73
BRANCH  61  84
ATOM     84  C   UNL A   1      44.118  28.078  34.600  1.00  0.00     0.064 A 
ATOM     85  C   UNL A   1      43.849  26.893  35.301  1.00  0.00     0.173 A 
ATOM     86  C   UNL A   1      45.458  28.482  34.488  1.00  0.00     0.173 A 
ATOM     87  F   UNL A   1      42.584  26.467  35.449  1.00  0.00    -0.203 F 
ATOM     88  C   UNL A   1      44.873  26.168  35.906  1.00  0.00     0.198 A 
ATOM     89  C   UNL A   1      46.483  27.735  35.062  1.00  0.00     0.198 A 
ATOM     90  F   UNL A   1      45.774  29.601  33.820  1.00  0.00    -0.203 F 
ATOM     91  F   UNL A   1      44.583  25.079  36.630  1.00  0.00    -0.200 F 
ATOM     92  C   UNL A   1      46.189  26.587  35.781  1.00  0.00     0.200 A 
ATOM     93  F   UNL A   1      47.755  28.132  34.926  1.00  0.00    -0.200 F 
ATOM     94  F   UNL A   1      47.173  25.890  36.366  1.00  0.00    -0.200 F 
ENDBRANCH  61  84
ENDBRANCH  35  36
ENDBRANCH  27  30
ENDBRANCH  25  26
ENDBRANCH  24  25
ENDBRANCH   1  24
TORSDOF 16
ENDMDL
