MODEL 1
REMARK VINA RESULT:     -13.1      0.000      0.000
REMARK SMILES O=C(NCCCCNC(=O)C1(Cc2ccncc2)Cc2ccccc2C1)c1ccc(-c2c3nc(c(-c4c(F)c(F)c(F)c(F)c4F)c4ccc([nH]4)c(-c4c(F)c(F)c(F)c(F)c4F)c4nc(c(-c5c(F)c(F)c(F)c(F)c5F)c5ccc2[nH]5)C=C4)C=C3)cc1
REMARK SMILES IDX 5 1 4 2 3 3 1 4 2 5 27 7 28 8 89 9 29 10 88 11 30 12 31 13
REMARK SMILES IDX 32 14 82 15 33 16 87 17 81 18 83 19 34 20 86 21 80 22 79 23
REMARK SMILES IDX 35 25 67 26 47 27 66 28 48 29 51 30 65 31 84 32 49 33 50 34
REMARK SMILES IDX 64 36 85 37 52 38 36 39 37 40 45 41 38 42 39 43 43 44 46 45
REMARK SMILES IDX 40 46 41 47 44 48 42 49 68 50 69 51 77 52 70 53 71 54 75 55
REMARK SMILES IDX 78 56 72 57 73 58 76 59 74 60 53 61 54 62 62 63 55 64 56 65
REMARK SMILES IDX 60 66 63 67 57 68 58 69 61 70 59 71 6 72 7 73 8 74 9 75
REMARK SMILES IDX 10 77 11 78 19 79 26 80 20 81 25 82 21 83 24 84 22 85 23 86
REMARK SMILES IDX 12 87 13 88 14 89 18 90 15 91 17 92 16 93
REMARK H PARENT 3 6 83 24 51 35 8 76
REMARK Flexibility Score: inf
ROOT
ATOM      1  C   UNL A   1      33.101  29.053  23.779  1.00  0.00     0.023 C 
ENDROOT
BRANCH   1   2
ATOM      2  C   UNL A   1      33.260  29.105  25.290  1.00  0.00     0.116 C 
BRANCH   2   3
ATOM      3  N   UNL A   1      32.639  30.264  25.917  1.00  0.00    -0.352 N 
ATOM      4  O   UNL A   1      32.429  31.979  27.376  1.00  0.00    -0.269 OA
ATOM      5  C   UNL A   1      33.121  31.074  26.920  1.00  0.00     0.251 C 
ATOM      6  H   UNL A   1      31.746  30.500  25.575  1.00  0.00     0.163 HD
BRANCH   5   7
ATOM      7  C   UNL A   1      34.464  30.816  27.479  1.00  0.00     0.039 A 
ATOM      8  C   UNL A   1      34.824  29.528  27.872  1.00  0.00     0.014 A 
ATOM      9  C   UNL A   1      35.345  31.884  27.669  1.00  0.00     0.014 A 
ATOM     10  C   UNL A   1      35.969  29.343  28.633  1.00  0.00     0.010 A 
ATOM     11  C   UNL A   1      36.553  31.674  28.342  1.00  0.00     0.010 A 
ATOM     12  C   UNL A   1      36.852  30.412  28.872  1.00  0.00    -0.014 A 
BRANCH  12  13
ATOM     13  C   UNL A   1      38.096  30.144  29.637  1.00  0.00     0.031 A 
ATOM     14  C   UNL A   1      38.270  30.624  31.052  1.00  0.00     0.074 A 
ATOM     15  C   UNL A   1      39.044  29.381  29.059  1.00  0.00     0.049 A 
ATOM     16  N   UNL A   1      39.265  30.406  31.877  1.00  0.00    -0.248 NA
ATOM     17  C   UNL A   1      37.200  31.461  31.616  1.00  0.00     0.031 C 
ATOM     18  C   UNL A   1      38.987  28.876  27.685  1.00  0.00     0.029 A 
ATOM     19  N   UNL A   1      40.210  28.861  29.555  1.00  0.00    -0.354 N 
ATOM     20  C   UNL A   1      38.953  31.091  33.044  1.00  0.00     0.074 A 
ATOM     21  C   UNL A   1      37.683  31.749  32.819  1.00  0.00     0.031 C 
ATOM     22  C   UNL A   1      40.029  28.061  27.471  1.00  0.00     0.029 A 
ATOM     23  C   UNL A   1      40.861  28.039  28.668  1.00  0.00     0.049 A 
ATOM     24  H   UNL A   1      40.549  29.059  30.459  1.00  0.00     0.167 HD
ATOM     25  C   UNL A   1      39.660  31.155  34.198  1.00  0.00     0.037 A 
ATOM     26  C   UNL A   1      42.006  27.346  28.800  1.00  0.00     0.037 A 
ATOM     27  C   UNL A   1      40.914  30.480  34.423  1.00  0.00     0.049 A 
ATOM     28  C   UNL A   1      42.753  27.421  30.098  1.00  0.00     0.074 A 
ATOM     29  C   UNL A   1      41.704  30.480  35.560  1.00  0.00     0.029 A 
ATOM     30  N   UNL A   1      41.555  29.676  33.492  1.00  0.00    -0.354 N 
ATOM     31  N   UNL A   1      42.443  28.072  31.192  1.00  0.00    -0.248 NA
ATOM     32  C   UNL A   1      44.013  26.671  30.178  1.00  0.00     0.031 C 
ATOM     33  C   UNL A   1      42.839  29.700  35.308  1.00  0.00     0.029 A 
ATOM     34  C   UNL A   1      42.736  29.183  34.027  1.00  0.00     0.049 A 
ATOM     35  H   UNL A   1      41.221  29.484  32.586  1.00  0.00     0.167 HD
ATOM     36  C   UNL A   1      43.470  27.819  32.087  1.00  0.00     0.074 A 
ATOM     37  C   UNL A   1      44.391  26.919  31.423  1.00  0.00     0.031 C 
ATOM     38  C   UNL A   1      43.645  28.302  33.341  1.00  0.00     0.037 A 
BRANCH  25  39
ATOM     39  C   UNL A   1      39.107  31.991  35.315  1.00  0.00     0.064 A 
ATOM     40  C   UNL A   1      38.372  31.420  36.366  1.00  0.00     0.173 A 
ATOM     41  C   UNL A   1      39.379  33.367  35.377  1.00  0.00     0.173 A 
ATOM     42  F   UNL A   1      38.075  30.113  36.348  1.00  0.00    -0.203 F 
ATOM     43  C   UNL A   1      37.922  32.198  37.431  1.00  0.00     0.198 A 
ATOM     44  C   UNL A   1      38.946  34.137  36.454  1.00  0.00     0.198 A 
ATOM     45  F   UNL A   1      40.082  33.961  34.401  1.00  0.00    -0.203 F 
ATOM     46  F   UNL A   1      37.201  31.636  38.410  1.00  0.00    -0.200 F 
ATOM     47  C   UNL A   1      38.217  33.553  37.479  1.00  0.00     0.200 A 
ATOM     48  F   UNL A   1      39.241  35.444  36.504  1.00  0.00    -0.200 F 
ATOM     49  F   UNL A   1      37.796  34.295  38.512  1.00  0.00    -0.200 F 
ENDBRANCH  25  39
BRANCH  26  50
ATOM     50  C   UNL A   1      42.509  26.535  27.663  1.00  0.00     0.064 A 
ATOM     51  C   UNL A   1      42.032  25.238  27.432  1.00  0.00     0.173 A 
ATOM     52  C   UNL A   1      43.461  27.051  26.773  1.00  0.00     0.173 A 
ATOM     53  F   UNL A   1      41.133  24.695  28.266  1.00  0.00    -0.203 F 
ATOM     54  C   UNL A   1      42.499  24.483  26.358  1.00  0.00     0.198 A 
ATOM     55  C   UNL A   1      43.904  26.308  25.682  1.00  0.00     0.198 A 
ATOM     56  F   UNL A   1      43.942  28.291  26.947  1.00  0.00    -0.203 F 
ATOM     57  F   UNL A   1      42.056  23.231  26.180  1.00  0.00    -0.200 F 
ATOM     58  C   UNL A   1      43.429  25.022  25.480  1.00  0.00     0.200 A 
ATOM     59  F   UNL A   1      44.787  26.840  24.826  1.00  0.00    -0.200 F 
ATOM     60  F   UNL A   1      43.868  24.299  24.441  1.00  0.00    -0.200 F 
ENDBRANCH  26  50
BRANCH  38  61
ATOM     61  C   UNL A   1      44.884  27.864  34.060  1.00  0.00     0.064 A 
ATOM     62  C   UNL A   1      46.072  28.605  33.976  1.00  0.00     0.173 A 
ATOM     63  C   UNL A   1      44.887  26.697  34.838  1.00  0.00     0.173 A 
ATOM     64  F   UNL A   1      46.121  29.718  33.229  1.00  0.00    -0.203 F 
ATOM     65  C   UNL A   1      47.229  28.174  34.619  1.00  0.00     0.198 A 
ATOM     66  C   UNL A   1      46.039  26.283  35.499  1.00  0.00     0.198 A 
ATOM     67  F   UNL A   1      43.773  25.958  34.951  1.00  0.00    -0.203 F 
ATOM     68  F   UNL A   1      48.367  28.868  34.480  1.00  0.00    -0.200 F 
ATOM     69  C   UNL A   1      47.211  27.017  35.382  1.00  0.00     0.200 A 
ATOM     70  F   UNL A   1      46.018  25.167  36.241  1.00  0.00    -0.200 F 
ATOM     71  F   UNL A   1      48.327  26.599  35.994  1.00  0.00    -0.200 F 
ENDBRANCH  38  61
ENDBRANCH  12  13
ENDBRANCH   5   7
ENDBRANCH   2   3
ENDBRANCH   1   2
BRANCH   1  72
ATOM     72  C   UNL A   1      31.675  28.937  23.264  1.00  0.00     0.023 C 
BRANCH  72  73
ATOM     73  C   UNL A   1      31.271  27.590  22.682  1.00  0.00     0.116 C 
BRANCH  73  74
ATOM     74  N   UNL A   1      32.164  27.070  21.664  1.00  0.00    -0.356 N 
ATOM     75  C   UNL A   1      32.695  25.821  21.498  1.00  0.00     0.227 C 
ATOM     76  H   UNL A   1      32.431  27.724  20.979  1.00  0.00     0.163 HD
ATOM     77  O   UNL A   1      33.173  25.589  20.384  1.00  0.00    -0.274 OA
BRANCH  75  78
ATOM     78  C   UNL A   1      32.820  24.812  22.654  1.00  0.00     0.061 C 
ATOM     79  C   UNL A   1      33.818  23.664  22.319  1.00  0.00     0.053 C 
ATOM     80  C   UNL A   1      33.461  25.504  23.907  1.00  0.00     0.053 C 
ATOM     81  C   UNL A   1      34.512  23.390  23.608  1.00  0.00    -0.044 A 
ATOM     82  C   UNL A   1      34.300  24.421  24.516  1.00  0.00    -0.044 A 
ATOM     83  C   UNL A   1      35.309  22.299  23.910  1.00  0.00     0.004 A 
ATOM     84  C   UNL A   1      34.893  24.383  25.765  1.00  0.00     0.004 A 
ATOM     85  C   UNL A   1      35.903  22.247  25.168  1.00  0.00     0.000 A 
ATOM     86  C   UNL A   1      35.695  23.283  26.091  1.00  0.00     0.000 A 
BRANCH  78  87
ATOM     87  C   UNL A   1      31.408  24.223  22.954  1.00  0.00     0.053 C 
BRANCH  87  88
ATOM     88  C   UNL A   1      31.016  24.064  24.410  1.00  0.00    -0.044 A 
ATOM     89  C   UNL A   1      30.463  25.116  25.146  1.00  0.00     0.024 A 
ATOM     90  C   UNL A   1      31.198  22.837  25.059  1.00  0.00     0.024 A 
ATOM     91  C   UNL A   1      30.138  24.904  26.478  1.00  0.00     0.111 A 
ATOM     92  C   UNL A   1      30.836  22.722  26.394  1.00  0.00     0.111 A 
ATOM     93  N   UNL A   1      30.308  23.729  27.119  1.00  0.00    -0.265 NA
ENDBRANCH  87  88
ENDBRANCH  78  87
ENDBRANCH  75  78
ENDBRANCH  73  74
ENDBRANCH  72  73
ENDBRANCH   1  72
TORSDOF 13
ENDMDL
MODEL 2
REMARK VINA RESULT:     -13.0      0.082      1.595
REMARK SMILES O=C(NCCCCNC(=O)C1(Cc2ccncc2)Cc2ccccc2C1)c1ccc(-c2c3nc(c(-c4c(F)c(F)c(F)c(F)c4F)c4ccc([nH]4)c(-c4c(F)c(F)c(F)c(F)c4F)c4nc(c(-c5c(F)c(F)c(F)c(F)c5F)c5ccc2[nH]5)C=C4)C=C3)cc1
REMARK SMILES IDX 5 1 4 2 3 3 1 4 2 5 27 7 28 8 89 9 29 10 88 11 30 12 31 13
REMARK SMILES IDX 32 14 82 15 33 16 87 17 81 18 83 19 34 20 86 21 80 22 79 23
REMARK SMILES IDX 35 25 67 26 47 27 66 28 48 29 51 30 65 31 84 32 49 33 50 34
REMARK SMILES IDX 64 36 85 37 52 38 36 39 37 40 45 41 38 42 39 43 43 44 46 45
REMARK SMILES IDX 40 46 41 47 44 48 42 49 68 50 69 51 77 52 70 53 71 54 75 55
REMARK SMILES IDX 78 56 72 57 73 58 76 59 74 60 53 61 54 62 62 63 55 64 56 65
REMARK SMILES IDX 60 66 63 67 57 68 58 69 61 70 59 71 6 72 7 73 8 74 9 75
REMARK SMILES IDX 10 77 11 78 19 79 26 80 20 81 25 82 21 83 24 84 22 85 23 86
REMARK SMILES IDX 12 87 13 88 14 89 18 90 15 91 17 92 16 93
REMARK H PARENT 3 6 83 24 51 35 8 76
REMARK Flexibility Score: inf
ROOT
ATOM      1  C   UNL A   1      33.235  29.046  23.885  1.00  0.00     0.023 C 
ENDROOT
BRANCH   1   2
ATOM      2  C   UNL A   1      33.161  29.039  25.403  1.00  0.00     0.116 C 
BRANCH   2   3
ATOM      3  N   UNL A   1      32.575  30.241  25.980  1.00  0.00    -0.352 N 
ATOM      4  O   UNL A   1      32.424  32.032  27.352  1.00  0.00    -0.269 OA
ATOM      5  C   UNL A   1      33.089  31.091  26.933  1.00  0.00     0.251 C 
ATOM      6  H   UNL A   1      31.681  30.478  25.639  1.00  0.00     0.163 HD
BRANCH   5   7
ATOM      7  C   UNL A   1      34.435  30.832  27.484  1.00  0.00     0.039 A 
ATOM      8  C   UNL A   1      34.793  29.547  27.887  1.00  0.00     0.014 A 
ATOM      9  C   UNL A   1      35.323  31.899  27.656  1.00  0.00     0.014 A 
ATOM     10  C   UNL A   1      35.943  29.365  28.641  1.00  0.00     0.010 A 
ATOM     11  C   UNL A   1      36.535  31.690  28.321  1.00  0.00     0.010 A 
ATOM     12  C   UNL A   1      36.833  30.432  28.862  1.00  0.00    -0.014 A 
BRANCH  12  13
ATOM     13  C   UNL A   1      38.082  30.167  29.621  1.00  0.00     0.031 A 
ATOM     14  C   UNL A   1      38.262  30.645  31.035  1.00  0.00     0.074 A 
ATOM     15  C   UNL A   1      39.028  29.407  29.036  1.00  0.00     0.049 A 
ATOM     16  N   UNL A   1      39.261  30.429  31.854  1.00  0.00    -0.248 NA
ATOM     17  C   UNL A   1      37.192  31.478  31.606  1.00  0.00     0.031 C 
ATOM     18  C   UNL A   1      38.965  28.904  27.661  1.00  0.00     0.029 A 
ATOM     19  N   UNL A   1      40.199  28.890  29.525  1.00  0.00    -0.354 N 
ATOM     20  C   UNL A   1      38.953  31.111  33.024  1.00  0.00     0.074 A 
ATOM     21  C   UNL A   1      37.681  31.766  32.806  1.00  0.00     0.031 C 
ATOM     22  C   UNL A   1      40.009  28.092  27.442  1.00  0.00     0.029 A 
ATOM     23  C   UNL A   1      40.847  28.071  28.634  1.00  0.00     0.049 A 
ATOM     24  H   UNL A   1      40.541  29.087  30.427  1.00  0.00     0.167 HD
ATOM     25  C   UNL A   1      39.666  31.176  34.175  1.00  0.00     0.037 A 
ATOM     26  C   UNL A   1      41.994  27.381  28.759  1.00  0.00     0.037 A 
ATOM     27  C   UNL A   1      40.923  30.504  34.392  1.00  0.00     0.049 A 
ATOM     28  C   UNL A   1      42.748  27.456  30.053  1.00  0.00     0.074 A 
ATOM     29  C   UNL A   1      41.719  30.505  35.525  1.00  0.00     0.029 A 
ATOM     30  N   UNL A   1      41.562  29.703  33.457  1.00  0.00    -0.354 N 
ATOM     31  N   UNL A   1      42.442  28.105  31.150  1.00  0.00    -0.248 NA
ATOM     32  C   UNL A   1      44.010  26.710  30.125  1.00  0.00     0.031 C 
ATOM     33  C   UNL A   1      42.855  29.728  35.265  1.00  0.00     0.029 A 
ATOM     34  C   UNL A   1      42.747  29.213  33.985  1.00  0.00     0.049 A 
ATOM     35  H   UNL A   1      41.224  29.512  32.552  1.00  0.00     0.167 HD
ATOM     36  C   UNL A   1      43.475  27.854  32.039  1.00  0.00     0.074 A 
ATOM     37  C   UNL A   1      44.394  26.957  31.368  1.00  0.00     0.031 C 
ATOM     38  C   UNL A   1      43.654  28.335  33.292  1.00  0.00     0.037 A 
BRANCH  25  39
ATOM     39  C   UNL A   1      39.116  32.009  35.296  1.00  0.00     0.064 A 
ATOM     40  C   UNL A   1      38.378  31.437  36.343  1.00  0.00     0.173 A 
ATOM     41  C   UNL A   1      39.396  33.383  35.364  1.00  0.00     0.173 A 
ATOM     42  F   UNL A   1      38.074  30.131  36.318  1.00  0.00    -0.203 F 
ATOM     43  C   UNL A   1      37.932  32.211  37.412  1.00  0.00     0.198 A 
ATOM     44  C   UNL A   1      38.966  34.150  36.446  1.00  0.00     0.198 A 
ATOM     45  F   UNL A   1      40.103  33.978  34.393  1.00  0.00    -0.203 F 
ATOM     46  F   UNL A   1      37.207  31.647  38.387  1.00  0.00    -0.200 F 
ATOM     47  C   UNL A   1      38.234  33.564  37.467  1.00  0.00     0.200 A 
ATOM     48  F   UNL A   1      39.268  35.454  36.503  1.00  0.00    -0.200 F 
ATOM     49  F   UNL A   1      37.816  34.303  38.503  1.00  0.00    -0.200 F 
ENDBRANCH  25  39
BRANCH  26  50
ATOM     50  C   UNL A   1      42.494  26.573  27.619  1.00  0.00     0.064 A 
ATOM     51  C   UNL A   1      43.444  27.088  26.727  1.00  0.00     0.173 A 
ATOM     52  C   UNL A   1      42.047  25.259  27.413  1.00  0.00     0.173 A 
ATOM     53  F   UNL A   1      43.889  28.344  26.874  1.00  0.00    -0.203 F 
ATOM     54  C   UNL A   1      43.919  26.322  25.664  1.00  0.00     0.198 A 
ATOM     55  C   UNL A   1      42.546  24.485  26.368  1.00  0.00     0.198 A 
ATOM     56  F   UNL A   1      41.145  24.719  28.244  1.00  0.00    -0.203 F 
ATOM     57  F   UNL A   1      44.798  26.851  24.802  1.00  0.00    -0.200 F 
ATOM     58  C   UNL A   1      43.475  25.020  25.490  1.00  0.00     0.200 A 
ATOM     59  F   UNL A   1      42.128  23.221  26.217  1.00  0.00    -0.200 F 
ATOM     60  F   UNL A   1      43.941  24.282  24.474  1.00  0.00    -0.200 F 
ENDBRANCH  26  50
BRANCH  38  61
ATOM     61  C   UNL A   1      44.899  27.900  34.005  1.00  0.00     0.064 A 
ATOM     62  C   UNL A   1      44.920  26.733  34.783  1.00  0.00     0.173 A 
ATOM     63  C   UNL A   1      46.078  28.652  33.910  1.00  0.00     0.173 A 
ATOM     64  F   UNL A   1      43.810  25.992  34.917  1.00  0.00    -0.203 F 
ATOM     65  C   UNL A   1      46.069  26.354  35.469  1.00  0.00     0.198 A 
ATOM     66  C   UNL A   1      47.233  28.256  34.577  1.00  0.00     0.198 A 
ATOM     67  F   UNL A   1      46.107  29.773  33.174  1.00  0.00    -0.203 F 
ATOM     68  F   UNL A   1      46.051  25.265  36.251  1.00  0.00    -0.200 F 
ATOM     69  C   UNL A   1      47.225  27.112  35.364  1.00  0.00     0.200 A 
ATOM     70  F   UNL A   1      48.351  28.986  34.470  1.00  0.00    -0.200 F 
ATOM     71  F   UNL A   1      48.329  26.750  36.031  1.00  0.00    -0.200 F 
ENDBRANCH  38  61
ENDBRANCH  12  13
ENDBRANCH   5   7
ENDBRANCH   2   3
ENDBRANCH   1   2
BRANCH   1  72
ATOM     72  C   UNL A   1      31.905  28.955  23.154  1.00  0.00     0.023 C 
BRANCH  72  73
ATOM     73  C   UNL A   1      31.466  27.566  22.714  1.00  0.00     0.116 C 
BRANCH  73  74
ATOM     74  N   UNL A   1      32.274  26.972  21.667  1.00  0.00    -0.356 N 
ATOM     75  C   UNL A   1      32.719  25.688  21.504  1.00  0.00     0.227 C 
ATOM     76  H   UNL A   1      32.548  27.594  20.955  1.00  0.00     0.163 HD
ATOM     77  O   UNL A   1      33.127  25.406  20.374  1.00  0.00    -0.274 OA
BRANCH  75  78
ATOM     78  C   UNL A   1      32.838  24.696  22.675  1.00  0.00     0.061 C 
ATOM     79  C   UNL A   1      33.833  23.540  22.360  1.00  0.00     0.053 C 
ATOM     80  C   UNL A   1      33.478  25.405  23.919  1.00  0.00     0.053 C 
ATOM     81  C   UNL A   1      34.522  23.284  23.654  1.00  0.00    -0.044 A 
ATOM     82  C   UNL A   1      34.311  24.328  24.547  1.00  0.00    -0.044 A 
ATOM     83  C   UNL A   1      35.315  22.195  23.975  1.00  0.00     0.004 A 
ATOM     84  C   UNL A   1      34.900  24.307  25.798  1.00  0.00     0.004 A 
ATOM     85  C   UNL A   1      35.905  22.159  25.236  1.00  0.00     0.000 A 
ATOM     86  C   UNL A   1      35.698  23.210  26.142  1.00  0.00     0.000 A 
BRANCH  78  87
ATOM     87  C   UNL A   1      31.423  24.116  22.979  1.00  0.00     0.053 C 
BRANCH  87  88
ATOM     88  C   UNL A   1      31.013  24.014  24.436  1.00  0.00    -0.044 A 
ATOM     89  C   UNL A   1      30.443  25.090  25.121  1.00  0.00     0.024 A 
ATOM     90  C   UNL A   1      31.193  22.815  25.136  1.00  0.00     0.024 A 
ATOM     91  C   UNL A   1      30.102  24.931  26.457  1.00  0.00     0.111 A 
ATOM     92  C   UNL A   1      30.814  22.751  26.470  1.00  0.00     0.111 A 
ATOM     93  N   UNL A   1      30.270  23.784  27.147  1.00  0.00    -0.265 NA
ENDBRANCH  87  88
ENDBRANCH  78  87
ENDBRANCH  75  78
ENDBRANCH  73  74
ENDBRANCH  72  73
ENDBRANCH   1  72
TORSDOF 13
ENDMDL
MODEL 3
REMARK VINA RESULT:     -12.9      1.731      2.823
REMARK SMILES O=C(NCCCCNC(=O)C1(Cc2ccncc2)Cc2ccccc2C1)c1ccc(-c2c3nc(c(-c4c(F)c(F)c(F)c(F)c4F)c4ccc([nH]4)c(-c4c(F)c(F)c(F)c(F)c4F)c4nc(c(-c5c(F)c(F)c(F)c(F)c5F)c5ccc2[nH]5)C=C4)C=C3)cc1
REMARK SMILES IDX 5 1 4 2 3 3 1 4 2 5 27 7 28 8 89 9 29 10 88 11 30 12 31 13
REMARK SMILES IDX 32 14 82 15 33 16 87 17 81 18 83 19 34 20 86 21 80 22 79 23
REMARK SMILES IDX 35 25 67 26 47 27 66 28 48 29 51 30 65 31 84 32 49 33 50 34
REMARK SMILES IDX 64 36 85 37 52 38 36 39 37 40 45 41 38 42 39 43 43 44 46 45
REMARK SMILES IDX 40 46 41 47 44 48 42 49 68 50 69 51 77 52 70 53 71 54 75 55
REMARK SMILES IDX 78 56 72 57 73 58 76 59 74 60 53 61 54 62 62 63 55 64 56 65
REMARK SMILES IDX 60 66 63 67 57 68 58 69 61 70 59 71 6 72 7 73 8 74 9 75
REMARK SMILES IDX 10 77 11 78 19 79 26 80 20 81 25 82 21 83 24 84 22 85 23 86
REMARK SMILES IDX 12 87 13 88 14 89 18 90 15 91 17 92 16 93
REMARK H PARENT 3 6 83 24 51 35 8 76
REMARK Flexibility Score: inf
ROOT
ATOM      1  C   UNL A   1      32.730  27.680  25.501  1.00  0.00     0.023 C 
ENDROOT
BRANCH   1   2
ATOM      2  C   UNL A   1      33.359  29.032  25.204  1.00  0.00     0.116 C 
BRANCH   2   3
ATOM      3  N   UNL A   1      32.705  30.154  25.862  1.00  0.00    -0.352 N 
ATOM      4  O   UNL A   1      32.441  31.818  27.372  1.00  0.00    -0.269 OA
ATOM      5  C   UNL A   1      33.159  30.946  26.893  1.00  0.00     0.251 C 
ATOM      6  H   UNL A   1      31.808  30.378  25.521  1.00  0.00     0.163 HD
BRANCH   5   7
ATOM      7  C   UNL A   1      34.505  30.704  27.453  1.00  0.00     0.039 A 
ATOM      8  C   UNL A   1      34.878  29.422  27.856  1.00  0.00     0.014 A 
ATOM      9  C   UNL A   1      35.377  31.782  27.633  1.00  0.00     0.014 A 
ATOM     10  C   UNL A   1      36.025  29.255  28.618  1.00  0.00     0.010 A 
ATOM     11  C   UNL A   1      36.587  31.589  28.307  1.00  0.00     0.010 A 
ATOM     12  C   UNL A   1      36.898  30.333  28.847  1.00  0.00    -0.014 A 
BRANCH  12  13
ATOM     13  C   UNL A   1      38.145  30.084  29.614  1.00  0.00     0.031 A 
ATOM     14  C   UNL A   1      38.320  30.586  31.020  1.00  0.00     0.074 A 
ATOM     15  C   UNL A   1      39.095  29.316  29.045  1.00  0.00     0.049 A 
ATOM     16  N   UNL A   1      39.317  30.386  31.846  1.00  0.00    -0.248 NA
ATOM     17  C   UNL A   1      37.247  31.427  31.574  1.00  0.00     0.031 C 
ATOM     18  C   UNL A   1      39.037  28.790  27.679  1.00  0.00     0.029 A 
ATOM     19  N   UNL A   1      40.265  28.809  29.546  1.00  0.00    -0.354 N 
ATOM     20  C   UNL A   1      39.004  31.087  33.003  1.00  0.00     0.074 A 
ATOM     21  C   UNL A   1      37.732  31.736  32.771  1.00  0.00     0.031 C 
ATOM     22  C   UNL A   1      40.083  27.977  27.476  1.00  0.00     0.029 A 
ATOM     23  C   UNL A   1      40.918  27.977  28.671  1.00  0.00     0.049 A 
ATOM     24  H   UNL A   1      40.604  29.023  30.446  1.00  0.00     0.167 HD
ATOM     25  C   UNL A   1      39.714  31.172  34.155  1.00  0.00     0.037 A 
ATOM     26  C   UNL A   1      42.066  27.291  28.811  1.00  0.00     0.037 A 
ATOM     27  C   UNL A   1      40.971  30.507  34.387  1.00  0.00     0.049 A 
ATOM     28  C   UNL A   1      42.816  27.390  30.105  1.00  0.00     0.074 A 
ATOM     29  C   UNL A   1      41.764  30.528  35.523  1.00  0.00     0.029 A 
ATOM     30  N   UNL A   1      41.615  29.692  33.468  1.00  0.00    -0.354 N 
ATOM     31  N   UNL A   1      42.504  28.057  31.190  1.00  0.00    -0.248 NA
ATOM     32  C   UNL A   1      44.079  26.648  30.194  1.00  0.00     0.031 C 
ATOM     33  C   UNL A   1      42.902  29.750  35.279  1.00  0.00     0.029 A 
ATOM     34  C   UNL A   1      42.799  29.213  34.007  1.00  0.00     0.049 A 
ATOM     35  H   UNL A   1      41.280  29.484  32.565  1.00  0.00     0.167 HD
ATOM     36  C   UNL A   1      43.535  27.822  32.087  1.00  0.00     0.074 A 
ATOM     37  C   UNL A   1      44.459  26.917  31.434  1.00  0.00     0.031 C 
ATOM     38  C   UNL A   1      43.710  28.325  33.332  1.00  0.00     0.037 A 
BRANCH  25  39
ATOM     39  C   UNL A   1      39.159  32.023  35.260  1.00  0.00     0.064 A 
ATOM     40  C   UNL A   1      38.402  31.470  36.303  1.00  0.00     0.173 A 
ATOM     41  C   UNL A   1      39.453  33.395  35.318  1.00  0.00     0.173 A 
ATOM     42  F   UNL A   1      38.084  30.167  36.288  1.00  0.00    -0.203 F 
ATOM     43  C   UNL A   1      37.950  32.260  37.359  1.00  0.00     0.198 A 
ATOM     44  C   UNL A   1      39.018  34.177  36.386  1.00  0.00     0.198 A 
ATOM     45  F   UNL A   1      40.178  33.972  34.349  1.00  0.00    -0.203 F 
ATOM     46  F   UNL A   1      37.207  31.715  38.331  1.00  0.00    -0.200 F 
ATOM     47  C   UNL A   1      38.266  33.610  37.403  1.00  0.00     0.200 A 
ATOM     48  F   UNL A   1      39.333  35.479  36.433  1.00  0.00    -0.200 F 
ATOM     49  F   UNL A   1      37.843  34.365  38.427  1.00  0.00    -0.200 F 
ENDBRANCH  25  39
BRANCH  26  50
ATOM     50  C   UNL A   1      42.571  26.465  27.686  1.00  0.00     0.064 A 
ATOM     51  C   UNL A   1      42.092  25.166  27.470  1.00  0.00     0.173 A 
ATOM     52  C   UNL A   1      43.525  26.969  26.790  1.00  0.00     0.173 A 
ATOM     53  F   UNL A   1      41.191  24.635  28.309  1.00  0.00    -0.203 F 
ATOM     54  C   UNL A   1      42.561  24.397  26.407  1.00  0.00     0.198 A 
ATOM     55  C   UNL A   1      43.969  26.211  25.710  1.00  0.00     0.198 A 
ATOM     56  F   UNL A   1      44.007  28.210  26.950  1.00  0.00    -0.203 F 
ATOM     57  F   UNL A   1      42.117  23.143  26.244  1.00  0.00    -0.200 F 
ATOM     58  C   UNL A   1      43.493  24.923  25.524  1.00  0.00     0.200 A 
ATOM     59  F   UNL A   1      44.854  26.731  24.849  1.00  0.00    -0.200 F 
ATOM     60  F   UNL A   1      43.933  24.186  24.495  1.00  0.00    -0.200 F 
ENDBRANCH  26  50
BRANCH  38  61
ATOM     61  C   UNL A   1      44.954  27.904  34.055  1.00  0.00     0.064 A 
ATOM     62  C   UNL A   1      46.138  28.649  33.957  1.00  0.00     0.173 A 
ATOM     63  C   UNL A   1      44.963  26.751  34.852  1.00  0.00     0.173 A 
ATOM     64  F   UNL A   1      46.180  29.750  33.192  1.00  0.00    -0.203 F 
ATOM     65  C   UNL A   1      47.298  28.234  34.603  1.00  0.00     0.198 A 
ATOM     66  C   UNL A   1      46.118  26.352  35.517  1.00  0.00     0.198 A 
ATOM     67  F   UNL A   1      43.853  26.009  34.980  1.00  0.00    -0.203 F 
ATOM     68  F   UNL A   1      48.433  28.930  34.450  1.00  0.00    -0.200 F 
ATOM     69  C   UNL A   1      47.287  27.089  35.385  1.00  0.00     0.200 A 
ATOM     70  F   UNL A   1      46.105  25.249  36.277  1.00  0.00    -0.200 F 
ATOM     71  F   UNL A   1      48.407  26.686  36.001  1.00  0.00    -0.200 F 
ENDBRANCH  38  61
ENDBRANCH  12  13
ENDBRANCH   5   7
ENDBRANCH   2   3
ENDBRANCH   1   2
BRANCH   1  72
ATOM     72  C   UNL A   1      33.621  26.469  25.278  1.00  0.00     0.023 C 
BRANCH  72  73
ATOM     73  C   UNL A   1      32.916  25.160  24.952  1.00  0.00     0.116 C 
BRANCH  73  74
ATOM     74  N   UNL A   1      32.745  24.259  26.076  1.00  0.00    -0.356 N 
ATOM     75  C   UNL A   1      33.226  22.996  26.288  1.00  0.00     0.227 C 
ATOM     76  H   UNL A   1      32.192  24.616  26.808  1.00  0.00     0.163 HD
ATOM     77  O   UNL A   1      33.172  22.595  27.454  1.00  0.00    -0.274 OA
BRANCH  75  78
ATOM     78  C   UNL A   1      33.677  22.077  25.139  1.00  0.00     0.061 C 
ATOM     79  C   UNL A   1      34.137  20.682  25.657  1.00  0.00     0.053 C 
ATOM     80  C   UNL A   1      32.461  21.742  24.207  1.00  0.00     0.053 C 
ATOM     81  C   UNL A   1      33.657  19.726  24.621  1.00  0.00    -0.044 A 
ATOM     82  C   UNL A   1      32.721  20.326  23.787  1.00  0.00    -0.044 A 
ATOM     83  C   UNL A   1      34.021  18.398  24.478  1.00  0.00     0.004 A 
ATOM     84  C   UNL A   1      32.115  19.597  22.779  1.00  0.00     0.004 A 
ATOM     85  C   UNL A   1      33.426  17.659  23.460  1.00  0.00     0.000 A 
ATOM     86  C   UNL A   1      32.478  18.256  22.615  1.00  0.00     0.000 A 
BRANCH  78  87
ATOM     87  C   UNL A   1      34.843  22.774  24.373  1.00  0.00     0.053 C 
BRANCH  87  88
ATOM     88  C   UNL A   1      36.227  22.686  24.985  1.00  0.00    -0.044 A 
ATOM     89  C   UNL A   1      37.041  21.563  24.815  1.00  0.00     0.024 A 
ATOM     90  C   UNL A   1      36.733  23.750  25.742  1.00  0.00     0.024 A 
ATOM     91  C   UNL A   1      38.293  21.544  25.413  1.00  0.00     0.111 A 
ATOM     92  C   UNL A   1      38.001  23.640  26.295  1.00  0.00     0.111 A 
ATOM     93  N   UNL A   1      38.794  22.559  26.146  1.00  0.00    -0.265 NA
ENDBRANCH  87  88
ENDBRANCH  78  87
ENDBRANCH  75  78
ENDBRANCH  73  74
ENDBRANCH  72  73
ENDBRANCH   1  72
TORSDOF 13
ENDMDL
