MODEL 1
REMARK VINA RESULT:     -12.9      0.000      0.000
REMARK SMILES Cc1ccc(Nc2cccc(F)c2C#N)cc1C(=O)NCCCCNC(=O)c1ccc(-c2c3nc(c(-c4c(F)c(F)c(F)c(F)c4F)c4ccc([nH]4)c(-c4c(F)c(F)c(F)c(F)c4F)c4nc(c(-c5c(F)c(F)c(F)c(F)c5F)c5ccc2[nH]5)C=C4)C=C3)cc1
REMARK SMILES IDX 22 1 21 2 20 3 18 4 19 5 17 7 1 8 2 9 3 10 4 11 16 12 5 13
REMARK SMILES IDX 6 14 7 16 8 17 13 18 9 19 11 20 10 21 12 22 14 23 15 24
REMARK SMILES IDX 23 25 24 26 25 27 26 28 27 30 28 31 29 32 90 33 30 34 89 35
REMARK SMILES IDX 31 36 32 37 33 38 83 39 34 40 88 41 82 42 84 43 35 44 87 45
REMARK SMILES IDX 81 46 80 47 36 49 68 50 48 51 67 52 49 53 52 54 66 55 85 56
REMARK SMILES IDX 50 57 51 58 65 60 86 61 53 62 37 63 38 64 46 65 39 66 40 67
REMARK SMILES IDX 44 68 47 69 41 70 42 71 45 72 43 73 69 74 70 75 78 76 71 77
REMARK SMILES IDX 72 78 76 79 79 80 73 81 74 82 77 83 75 84 54 85 55 86 63 87
REMARK SMILES IDX 56 88 57 89 61 90 64 91 58 92 59 93 62 94 60 95
REMARK H PARENT 20 6 6 15 25 29 84 48 52 59
REMARK Flexibility Score: inf
ROOT
ATOM      1  C   UNL A   1      32.981  29.077  26.721  1.00  0.00     0.023 C 
ENDROOT
BRANCH   1   2
ATOM      2  C   UNL A   1      34.104  28.244  26.088  1.00  0.00     0.116 C 
BRANCH   2   3
ATOM      3  N   UNL A   1      34.255  28.604  24.704  1.00  0.00    -0.352 N 
ATOM      4  C   UNL A   1      33.794  28.076  23.532  1.00  0.00     0.251 C 
ATOM      5  O   UNL A   1      34.269  28.621  22.527  1.00  0.00    -0.269 OA
ATOM      6  H   UNL A   1      34.811  29.406  24.574  1.00  0.00     0.163 HD
BRANCH   4   7
ATOM      7  C   UNL A   1      32.761  26.986  23.337  1.00  0.00     0.044 A 
ATOM      8  C   UNL A   1      30.442  28.015  24.052  1.00  0.00     0.045 C 
ATOM      9  C   UNL A   1      31.354  26.967  23.502  1.00  0.00    -0.038 A 
ATOM     10  C   UNL A   1      30.648  25.782  23.226  1.00  0.00     0.006 A 
ATOM     11  C   UNL A   1      31.298  24.600  22.943  1.00  0.00     0.026 A 
ATOM     12  C   UNL A   1      33.386  25.749  22.997  1.00  0.00     0.040 A 
ATOM     13  C   UNL A   1      32.683  24.550  22.856  1.00  0.00     0.039 A 
BRANCH  13  14
ATOM     14  N   UNL A   1      33.357  23.339  22.579  1.00  0.00    -0.354 N 
ATOM     15  H   UNL A   1      33.832  23.261  21.721  1.00  0.00     0.167 HD
BRANCH  14  16
ATOM     16  C   UNL A   1      33.390  22.234  23.462  1.00  0.00     0.059 A 
ATOM     17  C   UNL A   1      32.394  21.251  23.328  1.00  0.00     0.027 A 
ATOM     18  C   UNL A   1      34.518  21.959  24.264  1.00  0.00     0.111 A 
ATOM     19  C   UNL A   1      32.541  20.000  23.930  1.00  0.00     0.005 A 
ATOM     20  C   UNL A   1      34.652  20.702  24.850  1.00  0.00     0.143 A 
ATOM     21  C   UNL A   1      33.682  19.720  24.678  1.00  0.00     0.041 A 
ATOM     22  F   UNL A   1      35.755  20.395  25.549  1.00  0.00    -0.205 F 
BRANCH  18  23
ATOM     23  C   UNL A   1      35.576  22.921  24.438  1.00  0.00     0.104 C 
ATOM     24  N   UNL A   1      36.409  23.706  24.574  1.00  0.00    -0.192 NA
ENDBRANCH  18  23
ENDBRANCH  14  16
ENDBRANCH  13  14
ENDBRANCH   4   7
ENDBRANCH   2   3
ENDBRANCH   1   2
BRANCH   1  25
ATOM     25  C   UNL A   1      33.090  30.583  26.576  1.00  0.00     0.023 C 
BRANCH  25  26
ATOM     26  C   UNL A   1      33.368  31.278  27.885  1.00  0.00     0.116 C 
BRANCH  26  27
ATOM     27  N   UNL A   1      34.536  32.143  27.898  1.00  0.00    -0.352 N 
ATOM     28  C   UNL A   1      35.836  31.850  28.283  1.00  0.00     0.251 C 
ATOM     29  H   UNL A   1      34.383  33.066  27.590  1.00  0.00     0.163 HD
ATOM     30  O   UNL A   1      36.634  32.767  28.451  1.00  0.00    -0.269 OA
BRANCH  28  31
ATOM     31  C   UNL A   1      36.328  30.439  28.277  1.00  0.00     0.039 A 
ATOM     32  C   UNL A   1      36.445  29.845  29.544  1.00  0.00     0.014 A 
ATOM     33  C   UNL A   1      37.142  30.004  27.247  1.00  0.00     0.014 A 
ATOM     34  C   UNL A   1      37.607  29.163  29.860  1.00  0.00     0.010 A 
ATOM     35  C   UNL A   1      38.386  29.573  27.600  1.00  0.00     0.010 A 
ATOM     36  C   UNL A   1      38.624  29.199  28.922  1.00  0.00    -0.014 A 
BRANCH  36  37
ATOM     37  C   UNL A   1      39.984  28.783  29.146  1.00  0.00     0.031 A 
ATOM     38  C   UNL A   1      40.258  27.368  28.855  1.00  0.00     0.074 A 
ATOM     39  C   UNL A   1      40.893  29.770  29.302  1.00  0.00     0.049 A 
ATOM     40  N   UNL A   1      41.301  26.733  29.232  1.00  0.00    -0.248 NA
ATOM     41  C   UNL A   1      39.314  26.515  28.126  1.00  0.00     0.031 C 
ATOM     42  C   UNL A   1      42.342  29.731  29.148  1.00  0.00     0.029 A 
ATOM     43  N   UNL A   1      40.647  31.055  29.822  1.00  0.00    -0.354 N 
ATOM     44  C   UNL A   1      41.351  25.566  28.496  1.00  0.00     0.074 A 
ATOM     45  C   UNL A   1      40.031  25.404  27.956  1.00  0.00     0.031 C 
ATOM     46  C   UNL A   1      42.880  30.745  29.855  1.00  0.00     0.029 A 
ATOM     47  C   UNL A   1      41.792  31.372  30.590  1.00  0.00     0.049 A 
ATOM     48  H   UNL A   1      39.849  31.614  29.681  1.00  0.00     0.167 HD
ATOM     49  C   UNL A   1      42.579  25.009  28.295  1.00  0.00     0.037 A 
ATOM     50  C   UNL A   1      41.690  31.406  31.953  1.00  0.00     0.037 A 
ATOM     51  C   UNL A   1      43.565  25.759  29.079  1.00  0.00     0.049 A 
ATOM     52  C   UNL A   1      42.470  30.278  32.593  1.00  0.00     0.074 A 
ATOM     53  C   UNL A   1      44.443  26.774  28.738  1.00  0.00     0.029 A 
ATOM     54  N   UNL A   1      43.423  25.806  30.463  1.00  0.00    -0.354 N 
ATOM     55  N   UNL A   1      42.718  29.137  32.005  1.00  0.00    -0.248 NA
ATOM     56  C   UNL A   1      43.097  30.381  33.907  1.00  0.00     0.031 C 
ATOM     57  C   UNL A   1      44.750  27.495  29.925  1.00  0.00     0.029 A 
ATOM     58  C   UNL A   1      44.075  26.908  30.983  1.00  0.00     0.049 A 
ATOM     59  H   UNL A   1      42.925  25.146  30.997  1.00  0.00     0.167 HD
ATOM     60  C   UNL A   1      43.553  28.389  32.794  1.00  0.00     0.074 A 
ATOM     61  C   UNL A   1      43.749  29.207  33.979  1.00  0.00     0.031 C 
ATOM     62  C   UNL A   1      44.048  27.173  32.414  1.00  0.00     0.037 A 
BRANCH  49  63
ATOM     63  C   UNL A   1      42.966  24.025  27.207  1.00  0.00     0.064 A 
ATOM     64  C   UNL A   1      42.652  22.656  27.369  1.00  0.00     0.173 A 
ATOM     65  C   UNL A   1      43.689  24.314  26.033  1.00  0.00     0.173 A 
ATOM     66  F   UNL A   1      41.913  22.225  28.401  1.00  0.00    -0.203 F 
ATOM     67  C   UNL A   1      43.084  21.666  26.481  1.00  0.00     0.198 A 
ATOM     68  C   UNL A   1      44.127  23.322  25.145  1.00  0.00     0.198 A 
ATOM     69  F   UNL A   1      43.989  25.559  25.664  1.00  0.00    -0.203 F 
ATOM     70  F   UNL A   1      42.772  20.383  26.716  1.00  0.00    -0.200 F 
ATOM     71  C   UNL A   1      43.832  21.997  25.375  1.00  0.00     0.200 A 
ATOM     72  F   UNL A   1      44.839  23.670  24.063  1.00  0.00    -0.200 F 
ATOM     73  F   UNL A   1      44.254  21.051  24.526  1.00  0.00    -0.200 F 
ENDBRANCH  49  63
BRANCH  50  74
ATOM     74  C   UNL A   1      40.362  31.945  32.387  1.00  0.00     0.064 A 
ATOM     75  C   UNL A   1      40.067  33.278  32.021  1.00  0.00     0.173 A 
ATOM     76  C   UNL A   1      39.277  31.110  32.679  1.00  0.00     0.173 A 
ATOM     77  F   UNL A   1      41.068  34.133  31.756  1.00  0.00    -0.203 F 
ATOM     78  C   UNL A   1      38.761  33.693  31.767  1.00  0.00     0.198 A 
ATOM     79  C   UNL A   1      37.964  31.547  32.467  1.00  0.00     0.198 A 
ATOM     80  F   UNL A   1      39.478  29.833  33.037  1.00  0.00    -0.203 F 
ATOM     81  F   UNL A   1      38.536  34.909  31.250  1.00  0.00    -0.200 F 
ATOM     82  C   UNL A   1      37.711  32.814  31.957  1.00  0.00     0.200 A 
ATOM     83  F   UNL A   1      36.941  30.699  32.653  1.00  0.00    -0.200 F 
ATOM     84  F   UNL A   1      36.466  33.170  31.616  1.00  0.00    -0.200 F 
ENDBRANCH  50  74
BRANCH  62  85
ATOM     85  C   UNL A   1      44.647  26.141  33.343  1.00  0.00     0.064 A 
ATOM     86  C   UNL A   1      43.900  25.408  34.278  1.00  0.00     0.173 A 
ATOM     87  C   UNL A   1      45.998  25.731  33.195  1.00  0.00     0.173 A 
ATOM     88  F   UNL A   1      42.580  25.585  34.417  1.00  0.00    -0.203 F 
ATOM     89  C   UNL A   1      44.478  24.410  35.066  1.00  0.00     0.198 A 
ATOM     90  C   UNL A   1      46.545  24.674  33.917  1.00  0.00     0.198 A 
ATOM     91  F   UNL A   1      46.826  26.317  32.318  1.00  0.00    -0.203 F 
ATOM     92  F   UNL A   1      43.735  23.792  35.995  1.00  0.00    -0.200 F 
ATOM     93  C   UNL A   1      45.793  24.033  34.875  1.00  0.00     0.200 A 
ATOM     94  F   UNL A   1      47.796  24.272  33.660  1.00  0.00    -0.200 F 
ATOM     95  F   UNL A   1      46.326  23.039  35.597  1.00  0.00    -0.200 F 
ENDBRANCH  62  85
ENDBRANCH  36  37
ENDBRANCH  28  31
ENDBRANCH  26  27
ENDBRANCH  25  26
ENDBRANCH   1  25
TORSDOF 14
ENDMDL
MODEL 2
REMARK VINA RESULT:     -12.9      3.061      9.361
REMARK SMILES Cc1ccc(Nc2cccc(F)c2C#N)cc1C(=O)NCCCCNC(=O)c1ccc(-c2c3nc(c(-c4c(F)c(F)c(F)c(F)c4F)c4ccc([nH]4)c(-c4c(F)c(F)c(F)c(F)c4F)c4nc(c(-c5c(F)c(F)c(F)c(F)c5F)c5ccc2[nH]5)C=C4)C=C3)cc1
REMARK SMILES IDX 22 1 21 2 20 3 18 4 19 5 17 7 1 8 2 9 3 10 4 11 16 12 5 13
REMARK SMILES IDX 6 14 7 16 8 17 13 18 9 19 11 20 10 21 12 22 14 23 15 24
REMARK SMILES IDX 23 25 24 26 25 27 26 28 27 30 28 31 29 32 90 33 30 34 89 35
REMARK SMILES IDX 31 36 32 37 33 38 83 39 34 40 88 41 82 42 84 43 35 44 87 45
REMARK SMILES IDX 81 46 80 47 36 49 68 50 48 51 67 52 49 53 52 54 66 55 85 56
REMARK SMILES IDX 50 57 51 58 65 60 86 61 53 62 37 63 38 64 46 65 39 66 40 67
REMARK SMILES IDX 44 68 47 69 41 70 42 71 45 72 43 73 69 74 70 75 78 76 71 77
REMARK SMILES IDX 72 78 76 79 79 80 73 81 74 82 77 83 75 84 54 85 55 86 63 87
REMARK SMILES IDX 56 88 57 89 61 90 64 91 58 92 59 93 62 94 60 95
REMARK H PARENT 20 6 6 15 25 29 84 48 52 59
REMARK Flexibility Score: inf
ROOT
ATOM      1  C   UNL A   1      36.179  22.144  26.106  1.00  0.00     0.023 C 
ENDROOT
BRANCH   1   2
ATOM      2  C   UNL A   1      35.566  21.243  25.025  1.00  0.00     0.116 C 
BRANCH   2   3
ATOM      3  N   UNL A   1      35.274  22.022  23.852  1.00  0.00    -0.352 N 
ATOM      4  C   UNL A   1      34.437  23.070  23.595  1.00  0.00     0.251 C 
ATOM      5  O   UNL A   1      34.386  23.375  22.396  1.00  0.00    -0.269 OA
ATOM      6  H   UNL A   1      35.790  21.738  23.064  1.00  0.00     0.163 HD
BRANCH   4   7
ATOM      7  C   UNL A   1      33.647  23.903  24.582  1.00  0.00     0.044 A 
ATOM      8  C   UNL A   1      31.967  22.260  25.775  1.00  0.00     0.045 C 
ATOM      9  C   UNL A   1      32.652  23.565  25.531  1.00  0.00    -0.038 A 
ATOM     10  C   UNL A   1      32.098  24.579  26.333  1.00  0.00     0.006 A 
ATOM     11  C   UNL A   1      32.387  25.910  26.122  1.00  0.00     0.026 A 
ATOM     12  C   UNL A   1      33.948  25.290  24.431  1.00  0.00     0.040 A 
ATOM     13  C   UNL A   1      33.292  26.297  25.143  1.00  0.00     0.039 A 
BRANCH  13  14
ATOM     14  N   UNL A   1      33.584  27.660  24.912  1.00  0.00    -0.354 N 
ATOM     15  H   UNL A   1      34.018  27.903  24.062  1.00  0.00     0.167 HD
BRANCH  14  16
ATOM     16  C   UNL A   1      33.290  28.698  25.829  1.00  0.00     0.059 A 
ATOM     17  C   UNL A   1      34.251  29.007  26.807  1.00  0.00     0.027 A 
ATOM     18  C   UNL A   1      32.213  29.587  25.622  1.00  0.00     0.111 A 
ATOM     19  C   UNL A   1      34.177  30.202  27.525  1.00  0.00     0.005 A 
ATOM     20  C   UNL A   1      32.160  30.778  26.342  1.00  0.00     0.143 A 
ATOM     21  C   UNL A   1      33.139  31.097  27.279  1.00  0.00     0.041 A 
ATOM     22  F   UNL A   1      31.189  31.672  26.102  1.00  0.00    -0.205 F 
BRANCH  18  23
ATOM     23  C   UNL A   1      31.199  29.329  24.633  1.00  0.00     0.104 C 
ATOM     24  N   UNL A   1      30.376  29.114  23.854  1.00  0.00    -0.192 NA
ENDBRANCH  18  23
ENDBRANCH  14  16
ENDBRANCH  13  14
ENDBRANCH   4   7
ENDBRANCH   2   3
ENDBRANCH   1   2
BRANCH   1  25
ATOM     25  C   UNL A   1      37.494  22.818  25.761  1.00  0.00     0.023 C 
BRANCH  25  26
ATOM     26  C   UNL A   1      38.626  21.838  25.592  1.00  0.00     0.116 C 
BRANCH  26  27
ATOM     27  N   UNL A   1      39.689  21.933  26.579  1.00  0.00    -0.352 N 
ATOM     28  C   UNL A   1      40.376  23.056  27.016  1.00  0.00     0.251 C 
ATOM     29  H   UNL A   1      39.959  21.083  26.996  1.00  0.00     0.163 HD
ATOM     30  O   UNL A   1      41.399  22.914  27.679  1.00  0.00    -0.269 OA
BRANCH  28  31
ATOM     31  C   UNL A   1      39.770  24.416  26.882  1.00  0.00     0.039 A 
ATOM     32  C   UNL A   1      40.537  25.339  26.153  1.00  0.00     0.014 A 
ATOM     33  C   UNL A   1      38.900  24.875  27.855  1.00  0.00     0.014 A 
ATOM     34  C   UNL A   1      40.735  26.606  26.675  1.00  0.00     0.010 A 
ATOM     35  C   UNL A   1      39.278  26.005  28.518  1.00  0.00     0.010 A 
ATOM     36  C   UNL A   1      40.233  26.842  27.942  1.00  0.00    -0.014 A 
BRANCH  36  37
ATOM     37  C   UNL A   1      40.539  27.983  28.765  1.00  0.00     0.031 A 
ATOM     38  C   UNL A   1      39.565  29.082  28.693  1.00  0.00     0.074 A 
ATOM     39  C   UNL A   1      41.491  27.803  29.707  1.00  0.00     0.049 A 
ATOM     40  N   UNL A   1      39.771  30.270  29.116  1.00  0.00    -0.248 NA
ATOM     41  C   UNL A   1      38.246  28.929  28.070  1.00  0.00     0.031 C 
ATOM     42  C   UNL A   1      41.756  28.570  30.918  1.00  0.00     0.029 A 
ATOM     43  N   UNL A   1      42.571  26.902  29.639  1.00  0.00    -0.354 N 
ATOM     44  C   UNL A   1      38.541  30.894  29.182  1.00  0.00     0.074 A 
ATOM     45  C   UNL A   1      37.666  30.089  28.378  1.00  0.00     0.031 C 
ATOM     46  C   UNL A   1      43.038  28.372  31.283  1.00  0.00     0.029 A 
ATOM     47  C   UNL A   1      43.661  27.581  30.232  1.00  0.00     0.049 A 
ATOM     48  H   UNL A   1      42.567  25.994  29.260  1.00  0.00     0.167 HD
ATOM     49  C   UNL A   1      38.405  31.909  30.082  1.00  0.00     0.037 A 
ATOM     50  C   UNL A   1      44.688  28.010  29.438  1.00  0.00     0.037 A 
ATOM     51  C   UNL A   1      39.717  32.183  30.676  1.00  0.00     0.049 A 
ATOM     52  C   UNL A   1      44.732  29.521  29.361  1.00  0.00     0.074 A 
ATOM     53  C   UNL A   1      40.299  31.779  31.867  1.00  0.00     0.029 A 
ATOM     54  N   UNL A   1      40.757  32.588  29.845  1.00  0.00    -0.354 N 
ATOM     55  N   UNL A   1      43.685  30.289  29.512  1.00  0.00    -0.248 NA
ATOM     56  C   UNL A   1      45.967  30.280  29.190  1.00  0.00     0.031 C 
ATOM     57  C   UNL A   1      41.710  31.854  31.704  1.00  0.00     0.029 A 
ATOM     58  C   UNL A   1      41.981  32.318  30.427  1.00  0.00     0.049 A 
ATOM     59  H   UNL A   1      40.637  33.009  28.963  1.00  0.00     0.167 HD
ATOM     60  C   UNL A   1      44.080  31.602  29.517  1.00  0.00     0.074 A 
ATOM     61  C   UNL A   1      45.515  31.542  29.298  1.00  0.00     0.031 C 
ATOM     62  C   UNL A   1      43.216  32.641  29.728  1.00  0.00     0.037 A 
BRANCH  49  63
ATOM     63  C   UNL A   1      37.109  32.450  30.657  1.00  0.00     0.064 A 
ATOM     64  C   UNL A   1      36.285  33.270  29.852  1.00  0.00     0.173 A 
ATOM     65  C   UNL A   1      36.640  32.279  31.974  1.00  0.00     0.173 A 
ATOM     66  F   UNL A   1      36.558  33.479  28.556  1.00  0.00    -0.203 F 
ATOM     67  C   UNL A   1      35.143  33.913  30.340  1.00  0.00     0.198 A 
ATOM     68  C   UNL A   1      35.500  32.927  32.466  1.00  0.00     0.198 A 
ATOM     69  F   UNL A   1      37.233  31.463  32.846  1.00  0.00    -0.203 F 
ATOM     70  F   UNL A   1      34.426  34.699  29.526  1.00  0.00    -0.200 F 
ATOM     71  C   UNL A   1      34.757  33.752  31.651  1.00  0.00     0.200 A 
ATOM     72  F   UNL A   1      35.131  32.741  33.742  1.00  0.00    -0.200 F 
ATOM     73  F   UNL A   1      33.669  34.373  32.125  1.00  0.00    -0.200 F 
ENDBRANCH  49  63
BRANCH  50  74
ATOM     74  C   UNL A   1      44.963  27.041  28.331  1.00  0.00     0.064 A 
ATOM     75  C   UNL A   1      45.350  25.736  28.710  1.00  0.00     0.173 A 
ATOM     76  C   UNL A   1      44.418  27.197  27.051  1.00  0.00     0.173 A 
ATOM     77  F   UNL A   1      45.904  25.529  29.916  1.00  0.00    -0.203 F 
ATOM     78  C   UNL A   1      45.026  24.624  27.934  1.00  0.00     0.198 A 
ATOM     79  C   UNL A   1      44.137  26.080  26.255  1.00  0.00     0.198 A 
ATOM     80  F   UNL A   1      44.030  28.406  26.619  1.00  0.00    -0.203 F 
ATOM     81  F   UNL A   1      45.249  23.391  28.409  1.00  0.00    -0.200 F 
ATOM     82  C   UNL A   1      44.387  24.796  26.721  1.00  0.00     0.200 A 
ATOM     83  F   UNL A   1      43.519  26.242  25.075  1.00  0.00    -0.200 F 
ATOM     84  F   UNL A   1      43.978  23.730  26.019  1.00  0.00    -0.200 F 
ENDBRANCH  50  74
BRANCH  62  85
ATOM     85  C   UNL A   1      43.486  34.089  29.385  1.00  0.00     0.064 A 
ATOM     86  C   UNL A   1      43.561  34.576  28.071  1.00  0.00     0.173 A 
ATOM     87  C   UNL A   1      43.507  35.081  30.399  1.00  0.00     0.173 A 
ATOM     88  F   UNL A   1      43.403  33.771  27.013  1.00  0.00    -0.203 F 
ATOM     89  C   UNL A   1      43.736  35.934  27.796  1.00  0.00     0.198 A 
ATOM     90  C   UNL A   1      43.590  36.441  30.116  1.00  0.00     0.198 A 
ATOM     91  F   UNL A   1      43.413  34.770  31.700  1.00  0.00    -0.203 F 
ATOM     92  F   UNL A   1      43.874  36.336  26.524  1.00  0.00    -0.200 F 
ATOM     93  C   UNL A   1      43.735  36.867  28.814  1.00  0.00     0.200 A 
ATOM     94  F   UNL A   1      43.506  37.333  31.112  1.00  0.00    -0.200 F 
ATOM     95  F   UNL A   1      43.850  38.172  28.541  1.00  0.00    -0.200 F 
ENDBRANCH  62  85
ENDBRANCH  36  37
ENDBRANCH  28  31
ENDBRANCH  26  27
ENDBRANCH  25  26
ENDBRANCH   1  25
TORSDOF 14
ENDMDL
MODEL 3
REMARK VINA RESULT:     -12.7      1.144      2.025
REMARK SMILES Cc1ccc(Nc2cccc(F)c2C#N)cc1C(=O)NCCCCNC(=O)c1ccc(-c2c3nc(c(-c4c(F)c(F)c(F)c(F)c4F)c4ccc([nH]4)c(-c4c(F)c(F)c(F)c(F)c4F)c4nc(c(-c5c(F)c(F)c(F)c(F)c5F)c5ccc2[nH]5)C=C4)C=C3)cc1
REMARK SMILES IDX 22 1 21 2 20 3 18 4 19 5 17 7 1 8 2 9 3 10 4 11 16 12 5 13
REMARK SMILES IDX 6 14 7 16 8 17 13 18 9 19 11 20 10 21 12 22 14 23 15 24
REMARK SMILES IDX 23 25 24 26 25 27 26 28 27 30 28 31 29 32 90 33 30 34 89 35
REMARK SMILES IDX 31 36 32 37 33 38 83 39 34 40 88 41 82 42 84 43 35 44 87 45
REMARK SMILES IDX 81 46 80 47 36 49 68 50 48 51 67 52 49 53 52 54 66 55 85 56
REMARK SMILES IDX 50 57 51 58 65 60 86 61 53 62 37 63 38 64 46 65 39 66 40 67
REMARK SMILES IDX 44 68 47 69 41 70 42 71 45 72 43 73 69 74 70 75 78 76 71 77
REMARK SMILES IDX 72 78 76 79 79 80 73 81 74 82 77 83 75 84 54 85 55 86 63 87
REMARK SMILES IDX 56 88 57 89 61 90 64 91 58 92 59 93 62 94 60 95
REMARK H PARENT 20 6 6 15 25 29 84 48 52 59
REMARK Flexibility Score: inf
ROOT
ATOM      1  C   UNL A   1      32.553  28.880  26.756  1.00  0.00     0.023 C 
ENDROOT
BRANCH   1   2
ATOM      2  C   UNL A   1      31.992  28.169  25.517  1.00  0.00     0.116 C 
BRANCH   2   3
ATOM      3  N   UNL A   1      32.766  28.527  24.359  1.00  0.00    -0.352 N 
ATOM      4  C   UNL A   1      33.426  27.811  23.402  1.00  0.00     0.251 C 
ATOM      5  O   UNL A   1      34.094  28.515  22.634  1.00  0.00    -0.269 OA
ATOM      6  H   UNL A   1      32.834  29.500  24.227  1.00  0.00     0.163 HD
BRANCH   4   7
ATOM      7  C   UNL A   1      33.382  26.318  23.152  1.00  0.00     0.044 A 
ATOM      8  C   UNL A   1      31.798  25.953  21.077  1.00  0.00     0.045 C 
ATOM      9  C   UNL A   1      32.748  25.539  22.153  1.00  0.00    -0.038 A 
ATOM     10  C   UNL A   1      32.903  24.141  22.175  1.00  0.00     0.006 A 
ATOM     11  C   UNL A   1      33.530  23.497  23.220  1.00  0.00     0.026 A 
ATOM     12  C   UNL A   1      34.060  25.609  24.188  1.00  0.00     0.040 A 
ATOM     13  C   UNL A   1      34.092  24.214  24.267  1.00  0.00     0.039 A 
BRANCH  13  14
ATOM     14  N   UNL A   1      34.725  23.560  25.348  1.00  0.00    -0.354 N 
ATOM     15  H   UNL A   1      34.272  23.568  26.222  1.00  0.00     0.167 HD
BRANCH  14  16
ATOM     16  C   UNL A   1      35.970  22.894  25.248  1.00  0.00     0.059 A 
ATOM     17  C   UNL A   1      37.135  23.626  25.537  1.00  0.00     0.027 A 
ATOM     18  C   UNL A   1      36.053  21.489  25.141  1.00  0.00     0.111 A 
ATOM     19  C   UNL A   1      38.346  22.972  25.772  1.00  0.00     0.005 A 
ATOM     20  C   UNL A   1      37.268  20.854  25.387  1.00  0.00     0.143 A 
ATOM     21  C   UNL A   1      38.408  21.582  25.714  1.00  0.00     0.041 A 
ATOM     22  F   UNL A   1      37.348  19.515  25.369  1.00  0.00    -0.205 F 
BRANCH  18  23
ATOM     23  C   UNL A   1      34.895  20.683  24.853  1.00  0.00     0.104 C 
ATOM     24  N   UNL A   1      33.957  20.054  24.623  1.00  0.00    -0.192 NA
ENDBRANCH  18  23
ENDBRANCH  14  16
ENDBRANCH  13  14
ENDBRANCH   4   7
ENDBRANCH   2   3
ENDBRANCH   1   2
BRANCH   1  25
ATOM     25  C   UNL A   1      33.441  30.084  26.504  1.00  0.00     0.023 C 
BRANCH  25  26
ATOM     26  C   UNL A   1      33.375  31.101  27.614  1.00  0.00     0.116 C 
BRANCH  26  27
ATOM     27  N   UNL A   1      34.537  31.965  27.742  1.00  0.00    -0.352 N 
ATOM     28  C   UNL A   1      35.794  31.667  28.246  1.00  0.00     0.251 C 
ATOM     29  H   UNL A   1      34.414  32.889  27.427  1.00  0.00     0.163 HD
ATOM     30  O   UNL A   1      36.574  32.583  28.493  1.00  0.00    -0.269 OA
BRANCH  28  31
ATOM     31  C   UNL A   1      36.284  30.256  28.278  1.00  0.00     0.039 A 
ATOM     32  C   UNL A   1      36.418  29.703  29.562  1.00  0.00     0.014 A 
ATOM     33  C   UNL A   1      37.082  29.786  27.250  1.00  0.00     0.014 A 
ATOM     34  C   UNL A   1      37.583  29.028  29.883  1.00  0.00     0.010 A 
ATOM     35  C   UNL A   1      38.331  29.364  27.600  1.00  0.00     0.010 A 
ATOM     36  C   UNL A   1      38.586  29.033  28.930  1.00  0.00    -0.014 A 
BRANCH  36  37
ATOM     37  C   UNL A   1      39.949  28.621  29.147  1.00  0.00     0.031 A 
ATOM     38  C   UNL A   1      40.225  27.206  28.857  1.00  0.00     0.074 A 
ATOM     39  C   UNL A   1      40.856  29.610  29.296  1.00  0.00     0.049 A 
ATOM     40  N   UNL A   1      41.272  26.575  29.230  1.00  0.00    -0.248 NA
ATOM     41  C   UNL A   1      39.280  26.348  28.135  1.00  0.00     0.031 C 
ATOM     42  C   UNL A   1      42.305  29.575  29.135  1.00  0.00     0.029 A 
ATOM     43  N   UNL A   1      40.609  30.896  29.815  1.00  0.00    -0.354 N 
ATOM     44  C   UNL A   1      41.322  25.406  28.495  1.00  0.00     0.074 A 
ATOM     45  C   UNL A   1      39.999  25.239  27.962  1.00  0.00     0.031 C 
ATOM     46  C   UNL A   1      42.843  30.592  29.837  1.00  0.00     0.029 A 
ATOM     47  C   UNL A   1      41.757  31.217  30.576  1.00  0.00     0.049 A 
ATOM     48  H   UNL A   1      39.809  31.452  29.677  1.00  0.00     0.167 HD
ATOM     49  C   UNL A   1      42.551  24.853  28.289  1.00  0.00     0.037 A 
ATOM     50  C   UNL A   1      41.662  31.253  31.940  1.00  0.00     0.037 A 
ATOM     51  C   UNL A   1      43.538  25.607  29.067  1.00  0.00     0.049 A 
ATOM     52  C   UNL A   1      42.449  30.129  32.578  1.00  0.00     0.074 A 
ATOM     53  C   UNL A   1      44.412  26.624  28.719  1.00  0.00     0.029 A 
ATOM     54  N   UNL A   1      43.403  25.656  30.451  1.00  0.00    -0.354 N 
ATOM     55  N   UNL A   1      42.697  28.988  31.991  1.00  0.00    -0.248 NA
ATOM     56  C   UNL A   1      43.082  30.236  33.888  1.00  0.00     0.031 C 
ATOM     57  C   UNL A   1      44.723  27.347  29.904  1.00  0.00     0.029 A 
ATOM     58  C   UNL A   1      44.055  26.760  30.966  1.00  0.00     0.049 A 
ATOM     59  H   UNL A   1      42.910  24.995  30.990  1.00  0.00     0.167 HD
ATOM     60  C   UNL A   1      43.538  28.244  32.777  1.00  0.00     0.074 A 
ATOM     61  C   UNL A   1      43.738  29.064  33.959  1.00  0.00     0.031 C 
ATOM     62  C   UNL A   1      44.034  27.028  32.397  1.00  0.00     0.037 A 
BRANCH  49  63
ATOM     63  C   UNL A   1      42.934  23.867  27.201  1.00  0.00     0.064 A 
ATOM     64  C   UNL A   1      42.576  22.506  27.342  1.00  0.00     0.173 A 
ATOM     65  C   UNL A   1      43.695  24.145  26.048  1.00  0.00     0.173 A 
ATOM     66  F   UNL A   1      41.799  22.089  28.351  1.00  0.00    -0.203 F 
ATOM     67  C   UNL A   1      42.999  21.513  26.454  1.00  0.00     0.198 A 
ATOM     68  C   UNL A   1      44.124  23.150  25.161  1.00  0.00     0.198 A 
ATOM     69  F   UNL A   1      44.040  25.384  25.699  1.00  0.00    -0.203 F 
ATOM     70  F   UNL A   1      42.644  20.238  26.668  1.00  0.00    -0.200 F 
ATOM     71  C   UNL A   1      43.784  21.832  25.370  1.00  0.00     0.200 A 
ATOM     72  F   UNL A   1      44.873  23.486  24.100  1.00  0.00    -0.200 F 
ATOM     73  F   UNL A   1      44.199  20.881  24.522  1.00  0.00    -0.200 F 
ENDBRANCH  49  63
BRANCH  50  74
ATOM     74  C   UNL A   1      40.335  31.789  32.380  1.00  0.00     0.064 A 
ATOM     75  C   UNL A   1      39.451  30.873  32.993  1.00  0.00     0.173 A 
ATOM     76  C   UNL A   1      40.132  33.148  32.651  1.00  0.00     0.173 A 
ATOM     77  F   UNL A   1      39.580  29.558  32.749  1.00  0.00    -0.203 F 
ATOM     78  C   UNL A   1      38.546  31.275  33.974  1.00  0.00     0.198 A 
ATOM     79  C   UNL A   1      39.189  33.551  33.603  1.00  0.00     0.198 A 
ATOM     80  F   UNL A   1      40.928  34.077  32.104  1.00  0.00    -0.203 F 
ATOM     81  F   UNL A   1      37.851  30.356  34.659  1.00  0.00    -0.200 F 
ATOM     82  C   UNL A   1      38.441  32.613  34.303  1.00  0.00     0.200 A 
ATOM     83  F   UNL A   1      39.080  34.849  33.925  1.00  0.00    -0.200 F 
ATOM     84  F   UNL A   1      37.652  32.996  35.316  1.00  0.00    -0.200 F 
ENDBRANCH  50  74
BRANCH  62  85
ATOM     85  C   UNL A   1      44.642  26.000  33.324  1.00  0.00     0.064 A 
ATOM     86  C   UNL A   1      43.893  25.221  34.221  1.00  0.00     0.173 A 
ATOM     87  C   UNL A   1      46.010  25.641  33.212  1.00  0.00     0.173 A 
ATOM     88  F   UNL A   1      42.563  25.348  34.320  1.00  0.00    -0.203 F 
ATOM     89  C   UNL A   1      44.481  24.229  35.007  1.00  0.00     0.198 A 
ATOM     90  C   UNL A   1      46.572  24.591  33.931  1.00  0.00     0.198 A 
ATOM     91  F   UNL A   1      46.844  26.275  32.374  1.00  0.00    -0.203 F 
ATOM     92  F   UNL A   1      43.733  23.565  35.899  1.00  0.00    -0.200 F 
ATOM     93  C   UNL A   1      45.815  23.903  34.852  1.00  0.00     0.200 A 
ATOM     94  F   UNL A   1      47.846  24.239  33.706  1.00  0.00    -0.200 F 
ATOM     95  F   UNL A   1      46.361  22.914  35.571  1.00  0.00    -0.200 F 
ENDBRANCH  62  85
ENDBRANCH  36  37
ENDBRANCH  28  31
ENDBRANCH  26  27
ENDBRANCH  25  26
ENDBRANCH   1  25
TORSDOF 14
ENDMDL
