MODEL 1
REMARK VINA RESULT:     -12.9      0.000      0.000
REMARK SMILES O=C(NCCCCNC(=O)c1coc(-c2csc(-c3ccc(Cl)cn3)n2)c1)c1ccc(-c2c3nc(c(-c4c(F)c(F)c(F)c(F)c4F)c4ccc([nH]4)c(-c4c(F)c(F)c(F)c(F)c4F)c4nc(c(-c5c(F)c(F)c(F)c(F)c5F)c5ccc2[nH]5)C=C4)C=C3)cc1
REMARK SMILES IDX 5 1 4 2 3 3 1 4 2 5 28 7 29 8 90 9 30 10 89 11 31 12 32 13
REMARK SMILES IDX 33 14 83 15 34 16 88 17 82 18 84 19 35 20 87 21 81 22 80 23
REMARK SMILES IDX 36 25 68 26 48 27 67 28 49 29 52 30 66 31 85 32 50 33 51 34
REMARK SMILES IDX 65 36 86 37 53 38 37 39 38 40 46 41 39 42 40 43 44 44 47 45
REMARK SMILES IDX 41 46 42 47 45 48 43 49 69 50 70 51 78 52 71 53 72 54 76 55
REMARK SMILES IDX 79 56 73 57 74 58 77 59 75 60 54 61 55 62 63 63 56 64 57 65
REMARK SMILES IDX 61 66 64 67 58 68 59 69 62 70 60 71 6 72 7 73 8 74 9 75
REMARK SMILES IDX 10 77 11 78 12 79 27 80 13 81 14 82 15 83 16 84 26 85 17 86
REMARK SMILES IDX 18 87 19 88 20 89 25 90 21 91 24 92 22 93 23 94
REMARK H PARENT 3 6 84 24 52 35 8 76
REMARK Flexibility Score: inf
ROOT
ATOM      1  C   UNL A   1      32.011  28.545  25.534  1.00  0.00     0.023 C 
ENDROOT
BRANCH   1   2
ATOM      2  C   UNL A   1      33.212  29.477  25.697  1.00  0.00     0.116 C 
BRANCH   2   3
ATOM      3  N   UNL A   1      32.839  30.806  26.143  1.00  0.00    -0.352 N 
ATOM      4  O   UNL A   1      32.842  32.644  27.432  1.00  0.00    -0.269 OA
ATOM      5  C   UNL A   1      33.384  31.583  27.134  1.00  0.00     0.251 C 
ATOM      6  H   UNL A   1      32.081  31.212  25.662  1.00  0.00     0.163 HD
BRANCH   5   7
ATOM      7  C   UNL A   1      34.593  31.153  27.876  1.00  0.00     0.039 A 
ATOM      8  C   UNL A   1      34.736  29.856  28.379  1.00  0.00     0.014 A 
ATOM      9  C   UNL A   1      35.650  32.064  27.999  1.00  0.00     0.014 A 
ATOM     10  C   UNL A   1      35.902  29.495  29.060  1.00  0.00     0.010 A 
ATOM     11  C   UNL A   1      36.826  31.696  28.657  1.00  0.00     0.010 A 
ATOM     12  C   UNL A   1      36.953  30.414  29.208  1.00  0.00    -0.014 A 
BRANCH  12  13
ATOM     13  C   UNL A   1      38.192  30.014  29.918  1.00  0.00     0.031 A 
ATOM     14  C   UNL A   1      38.463  30.501  31.311  1.00  0.00     0.074 A 
ATOM     15  C   UNL A   1      39.072  29.200  29.308  1.00  0.00     0.049 A 
ATOM     16  N   UNL A   1      39.459  30.205  32.108  1.00  0.00    -0.248 NA
ATOM     17  C   UNL A   1      37.494  31.447  31.882  1.00  0.00     0.031 C 
ATOM     18  C   UNL A   1      38.940  28.683  27.945  1.00  0.00     0.029 A 
ATOM     19  N   UNL A   1      40.247  28.659  29.762  1.00  0.00    -0.354 N 
ATOM     20  C   UNL A   1      39.243  30.932  33.268  1.00  0.00     0.074 A 
ATOM     21  C   UNL A   1      38.027  31.692  33.072  1.00  0.00     0.031 C 
ATOM     22  C   UNL A   1      39.983  27.878  27.684  1.00  0.00     0.029 A 
ATOM     23  C   UNL A   1      40.854  27.829  28.855  1.00  0.00     0.049 A 
ATOM     24  H   UNL A   1      40.620  28.849  30.654  1.00  0.00     0.167 HD
ATOM     25  C   UNL A   1      39.987  30.957  34.399  1.00  0.00     0.037 A 
ATOM     26  C   UNL A   1      41.979  27.098  28.962  1.00  0.00     0.037 A 
ATOM     27  C   UNL A   1      41.184  30.190  34.616  1.00  0.00     0.049 A 
ATOM     28  C   UNL A   1      42.770  27.123  30.236  1.00  0.00     0.074 A 
ATOM     29  C   UNL A   1      41.970  30.116  35.753  1.00  0.00     0.029 A 
ATOM     30  N   UNL A   1      41.768  29.362  33.671  1.00  0.00    -0.354 N 
ATOM     31  N   UNL A   1      42.529  27.777  31.343  1.00  0.00    -0.248 NA
ATOM     32  C   UNL A   1      43.991  26.304  30.272  1.00  0.00     0.031 C 
ATOM     33  C   UNL A   1      43.040  29.252  35.491  1.00  0.00     0.029 A 
ATOM     34  C   UNL A   1      42.912  28.782  34.195  1.00  0.00     0.049 A 
ATOM     35  H   UNL A   1      41.422  29.208  32.762  1.00  0.00     0.167 HD
ATOM     36  C   UNL A   1      43.560  27.449  32.210  1.00  0.00     0.074 A 
ATOM     37  C   UNL A   1      44.430  26.530  31.504  1.00  0.00     0.031 C 
ATOM     38  C   UNL A   1      43.767  27.875  33.479  1.00  0.00     0.037 A 
BRANCH  25  39
ATOM     39  C   UNL A   1      39.521  31.852  35.501  1.00  0.00     0.064 A 
ATOM     40  C   UNL A   1      39.969  33.177  35.592  1.00  0.00     0.173 A 
ATOM     41  C   UNL A   1      38.596  31.396  36.448  1.00  0.00     0.173 A 
ATOM     42  F   UNL A   1      40.864  33.650  34.712  1.00  0.00    -0.203 F 
ATOM     43  C   UNL A   1      39.507  34.015  36.602  1.00  0.00     0.198 A 
ATOM     44  C   UNL A   1      38.132  32.239  37.454  1.00  0.00     0.198 A 
ATOM     45  F   UNL A   1      38.147  30.133  36.399  1.00  0.00    -0.203 F 
ATOM     46  F   UNL A   1      39.957  35.275  36.684  1.00  0.00    -0.200 F 
ATOM     47  C   UNL A   1      38.587  33.547  37.530  1.00  0.00     0.200 A 
ATOM     48  F   UNL A   1      37.246  31.785  38.352  1.00  0.00    -0.200 F 
ATOM     49  F   UNL A   1      38.146  34.355  38.503  1.00  0.00    -0.200 F 
ENDBRANCH  25  39
BRANCH  26  50
ATOM     50  C   UNL A   1      42.403  26.249  27.827  1.00  0.00     0.064 A 
ATOM     51  C   UNL A   1      41.846  24.978  27.641  1.00  0.00     0.173 A 
ATOM     52  C   UNL A   1      43.350  26.701  26.901  1.00  0.00     0.173 A 
ATOM     53  F   UNL A   1      40.948  24.506  28.517  1.00  0.00    -0.203 F 
ATOM     54  C   UNL A   1      42.226  24.184  26.563  1.00  0.00     0.198 A 
ATOM     55  C   UNL A   1      43.725  25.908  25.819  1.00  0.00     0.198 A 
ATOM     56  F   UNL A   1      43.910  27.911  27.048  1.00  0.00    -0.203 F 
ATOM     57  F   UNL A   1      41.690  22.965  26.410  1.00  0.00    -0.200 F 
ATOM     58  C   UNL A   1      43.162  24.650  25.651  1.00  0.00     0.200 A 
ATOM     59  F   UNL A   1      44.630  26.359  24.940  1.00  0.00    -0.200 F 
ATOM     60  F   UNL A   1      43.526  23.886  24.613  1.00  0.00    -0.200 F 
ENDBRANCH  26  50
BRANCH  38  61
ATOM     61  C   UNL A   1      44.978  27.353  34.182  1.00  0.00     0.064 A 
ATOM     62  C   UNL A   1      46.193  28.049  34.134  1.00  0.00     0.173 A 
ATOM     63  C   UNL A   1      44.917  26.173  34.935  1.00  0.00     0.173 A 
ATOM     64  F   UNL A   1      46.297  29.176  33.413  1.00  0.00    -0.203 F 
ATOM     65  C   UNL A   1      47.311  27.577  34.813  1.00  0.00     0.198 A 
ATOM     66  C   UNL A   1      46.036  25.707  35.619  1.00  0.00     0.198 A 
ATOM     67  F   UNL A   1      43.775  25.474  35.003  1.00  0.00    -0.203 F 
ATOM     68  F   UNL A   1      48.470  28.247  34.742  1.00  0.00    -0.200 F 
ATOM     69  C   UNL A   1      47.232  26.408  35.557  1.00  0.00     0.200 A 
ATOM     70  F   UNL A   1      45.960  24.576  36.335  1.00  0.00    -0.200 F 
ATOM     71  F   UNL A   1      48.310  25.953  36.210  1.00  0.00    -0.200 F 
ENDBRANCH  38  61
ENDBRANCH  12  13
ENDBRANCH   5   7
ENDBRANCH   2   3
ENDBRANCH   1   2
BRANCH   1  72
ATOM     72  C   UNL A   1      31.020  28.913  24.419  1.00  0.00     0.023 C 
BRANCH  72  73
ATOM     73  C   UNL A   1      31.096  28.045  23.161  1.00  0.00     0.116 C 
BRANCH  73  74
ATOM     74  N   UNL A   1      32.256  28.375  22.353  1.00  0.00    -0.352 N 
ATOM     75  C   UNL A   1      33.360  27.609  22.080  1.00  0.00     0.254 C 
ATOM     76  H   UNL A   1      32.248  29.271  21.946  1.00  0.00     0.163 HD
ATOM     77  O   UNL A   1      34.362  28.150  21.625  1.00  0.00    -0.269 OA
BRANCH  75  78
ATOM     78  C   UNL A   1      33.307  26.189  22.340  1.00  0.00     0.078 A 
ATOM     79  C   UNL A   1      32.897  25.220  21.448  1.00  0.00     0.209 A 
ATOM     80  C   UNL A   1      33.769  25.480  23.483  1.00  0.00     0.066 A 
ATOM     81  O   UNL A   1      33.078  23.979  21.967  1.00  0.00    -0.462 OA
ATOM     82  C   UNL A   1      33.613  24.134  23.215  1.00  0.00     0.153 A 
BRANCH  82  83
ATOM     83  C   UNL A   1      34.000  23.019  24.123  1.00  0.00     0.117 A 
ATOM     84  C   UNL A   1      34.777  23.214  25.245  1.00  0.00     0.099 A 
ATOM     85  N   UNL A   1      33.599  21.716  23.894  1.00  0.00    -0.231 NA
ATOM     86  S   UNL A   1      34.951  21.735  26.090  1.00  0.00    -0.120 S 
ATOM     87  C   UNL A   1      34.022  20.939  24.874  1.00  0.00     0.142 A 
BRANCH  87  88
ATOM     88  C   UNL A   1      33.816  19.488  24.941  1.00  0.00     0.099 A 
ATOM     89  C   UNL A   1      34.815  18.613  24.519  1.00  0.00     0.033 A 
ATOM     90  N   UNL A   1      32.613  19.061  25.407  1.00  0.00    -0.252 NA
ATOM     91  C   UNL A   1      34.582  17.239  24.588  1.00  0.00     0.024 A 
ATOM     92  C   UNL A   1      32.408  17.721  25.441  1.00  0.00     0.132 A 
ATOM     93  C   UNL A   1      33.353  16.784  25.051  1.00  0.00     0.059 A 
ATOM     94  Cl  UNL A   1      33.018  15.104  25.135  1.00  0.00    -0.083 Cl
ENDBRANCH  87  88
ENDBRANCH  82  83
ENDBRANCH  75  78
ENDBRANCH  73  74
ENDBRANCH  72  73
ENDBRANCH   1  72
TORSDOF 13
ENDMDL
MODEL 2
REMARK VINA RESULT:     -12.8      5.245      8.090
REMARK SMILES O=C(NCCCCNC(=O)c1coc(-c2csc(-c3ccc(Cl)cn3)n2)c1)c1ccc(-c2c3nc(c(-c4c(F)c(F)c(F)c(F)c4F)c4ccc([nH]4)c(-c4c(F)c(F)c(F)c(F)c4F)c4nc(c(-c5c(F)c(F)c(F)c(F)c5F)c5ccc2[nH]5)C=C4)C=C3)cc1
REMARK SMILES IDX 5 1 4 2 3 3 1 4 2 5 28 7 29 8 90 9 30 10 89 11 31 12 32 13
REMARK SMILES IDX 33 14 83 15 34 16 88 17 82 18 84 19 35 20 87 21 81 22 80 23
REMARK SMILES IDX 36 25 68 26 48 27 67 28 49 29 52 30 66 31 85 32 50 33 51 34
REMARK SMILES IDX 65 36 86 37 53 38 37 39 38 40 46 41 39 42 40 43 44 44 47 45
REMARK SMILES IDX 41 46 42 47 45 48 43 49 69 50 70 51 78 52 71 53 72 54 76 55
REMARK SMILES IDX 79 56 73 57 74 58 77 59 75 60 54 61 55 62 63 63 56 64 57 65
REMARK SMILES IDX 61 66 64 67 58 68 59 69 62 70 60 71 6 72 7 73 8 74 9 75
REMARK SMILES IDX 10 77 11 78 12 79 27 80 13 81 14 82 15 83 16 84 26 85 17 86
REMARK SMILES IDX 18 87 19 88 20 89 25 90 21 91 24 92 22 93 23 94
REMARK H PARENT 3 6 84 24 52 35 8 76
REMARK Flexibility Score: inf
ROOT
ATOM      1  C   UNL A   1      35.170  33.580  28.185  1.00  0.00     0.023 C 
ENDROOT
BRANCH   1   2
ATOM      2  C   UNL A   1      34.539  32.564  29.138  1.00  0.00     0.116 C 
BRANCH   2   3
ATOM      3  N   UNL A   1      33.954  31.429  28.448  1.00  0.00    -0.352 N 
ATOM      4  O   UNL A   1      33.886  29.471  27.354  1.00  0.00    -0.269 OA
ATOM      5  C   UNL A   1      34.540  30.263  28.028  1.00  0.00     0.251 C 
ATOM      6  H   UNL A   1      32.992  31.510  28.252  1.00  0.00     0.163 HD
BRANCH   5   7
ATOM      7  C   UNL A   1      35.955  29.951  28.341  1.00  0.00     0.039 A 
ATOM      8  C   UNL A   1      36.339  29.379  29.558  1.00  0.00     0.014 A 
ATOM      9  C   UNL A   1      36.915  30.170  27.345  1.00  0.00     0.014 A 
ATOM     10  C   UNL A   1      37.685  29.091  29.800  1.00  0.00     0.010 A 
ATOM     11  C   UNL A   1      38.257  29.859  27.577  1.00  0.00     0.010 A 
ATOM     12  C   UNL A   1      38.654  29.333  28.813  1.00  0.00    -0.014 A 
BRANCH  12  13
ATOM     13  C   UNL A   1      40.076  29.008  29.076  1.00  0.00     0.031 A 
ATOM     14  C   UNL A   1      40.933  29.935  29.887  1.00  0.00     0.074 A 
ATOM     15  C   UNL A   1      40.596  27.866  28.592  1.00  0.00     0.049 A 
ATOM     16  N   UNL A   1      42.176  29.784  30.271  1.00  0.00    -0.248 NA
ATOM     17  C   UNL A   1      40.317  31.198  30.318  1.00  0.00     0.031 C 
ATOM     18  C   UNL A   1      39.877  26.895  27.765  1.00  0.00     0.029 A 
ATOM     19  N   UNL A   1      41.848  27.326  28.734  1.00  0.00    -0.354 N 
ATOM     20  C   UNL A   1      42.494  30.933  30.979  1.00  0.00     0.074 A 
ATOM     21  C   UNL A   1      41.319  31.778  30.966  1.00  0.00     0.031 C 
ATOM     22  C   UNL A   1      40.696  25.865  27.494  1.00  0.00     0.029 A 
ATOM     23  C   UNL A   1      41.992  26.107  28.123  1.00  0.00     0.049 A 
ATOM     24  H   UNL A   1      42.575  27.771  29.228  1.00  0.00     0.167 HD
ATOM     25  C   UNL A   1      43.659  31.250  31.593  1.00  0.00     0.037 A 
ATOM     26  C   UNL A   1      43.046  25.271  28.086  1.00  0.00     0.037 A 
ATOM     27  C   UNL A   1      44.825  30.411  31.632  1.00  0.00     0.049 A 
ATOM     28  C   UNL A   1      44.316  25.635  28.797  1.00  0.00     0.074 A 
ATOM     29  C   UNL A   1      46.030  30.634  32.278  1.00  0.00     0.029 A 
ATOM     30  N   UNL A   1      44.932  29.184  30.998  1.00  0.00    -0.354 N 
ATOM     31  N   UNL A   1      44.587  26.702  29.504  1.00  0.00    -0.248 NA
ATOM     32  C   UNL A   1      45.424  24.673  28.703  1.00  0.00     0.031 C 
ATOM     33  C   UNL A   1      46.872  29.545  32.022  1.00  0.00     0.029 A 
ATOM     34  C   UNL A   1      46.186  28.642  31.227  1.00  0.00     0.049 A 
ATOM     35  H   UNL A   1      44.221  28.759  30.465  1.00  0.00     0.167 HD
ATOM     36  C   UNL A   1      45.893  26.543  29.944  1.00  0.00     0.074 A 
ATOM     37  C   UNL A   1      46.360  25.271  29.431  1.00  0.00     0.031 C 
ATOM     38  C   UNL A   1      46.636  27.380  30.706  1.00  0.00     0.037 A 
BRANCH  25  39
ATOM     39  C   UNL A   1      43.728  32.576  32.278  1.00  0.00     0.064 A 
ATOM     40  C   UNL A   1      43.919  33.757  31.548  1.00  0.00     0.173 A 
ATOM     41  C   UNL A   1      43.564  32.671  33.666  1.00  0.00     0.173 A 
ATOM     42  F   UNL A   1      44.092  33.709  30.219  1.00  0.00    -0.203 F 
ATOM     43  C   UNL A   1      43.951  34.992  32.189  1.00  0.00     0.198 A 
ATOM     44  C   UNL A   1      43.591  33.908  34.303  1.00  0.00     0.198 A 
ATOM     45  F   UNL A   1      43.384  31.565  34.402  1.00  0.00    -0.203 F 
ATOM     46  F   UNL A   1      44.152  36.110  31.478  1.00  0.00    -0.200 F 
ATOM     47  C   UNL A   1      43.784  35.067  33.565  1.00  0.00     0.200 A 
ATOM     48  F   UNL A   1      43.433  33.980  35.632  1.00  0.00    -0.200 F 
ATOM     49  F   UNL A   1      43.818  36.257  34.180  1.00  0.00    -0.200 F 
ENDBRANCH  25  39
BRANCH  26  50
ATOM     50  C   UNL A   1      42.925  23.983  27.369  1.00  0.00     0.064 A 
ATOM     51  C   UNL A   1      42.459  22.840  28.032  1.00  0.00     0.173 A 
ATOM     52  C   UNL A   1      43.251  23.877  26.012  1.00  0.00     0.173 A 
ATOM     53  F   UNL A   1      42.152  22.900  29.335  1.00  0.00    -0.203 F 
ATOM     54  C   UNL A   1      42.323  21.631  27.357  1.00  0.00     0.198 A 
ATOM     55  C   UNL A   1      43.109  22.667  25.337  1.00  0.00     0.198 A 
ATOM     56  F   UNL A   1      43.707  24.947  25.346  1.00  0.00    -0.203 F 
ATOM     57  F   UNL A   1      41.886  20.546  28.012  1.00  0.00    -0.200 F 
ATOM     58  C   UNL A   1      42.645  21.546  26.010  1.00  0.00     0.200 A 
ATOM     59  F   UNL A   1      43.422  22.586  24.037  1.00  0.00    -0.200 F 
ATOM     60  F   UNL A   1      42.513  20.381  25.361  1.00  0.00    -0.200 F 
ENDBRANCH  26  50
BRANCH  38  61
ATOM     61  C   UNL A   1      48.031  26.948  31.027  1.00  0.00     0.064 A 
ATOM     62  C   UNL A   1      48.287  26.095  32.109  1.00  0.00     0.173 A 
ATOM     63  C   UNL A   1      49.108  27.357  30.232  1.00  0.00     0.173 A 
ATOM     64  F   UNL A   1      47.285  25.691  32.904  1.00  0.00    -0.203 F 
ATOM     65  C   UNL A   1      49.582  25.670  32.388  1.00  0.00     0.198 A 
ATOM     66  C   UNL A   1      50.403  26.924  30.510  1.00  0.00     0.198 A 
ATOM     67  F   UNL A   1      48.906  28.177  29.190  1.00  0.00    -0.203 F 
ATOM     68  F   UNL A   1      49.813  24.869  33.437  1.00  0.00    -0.200 F 
ATOM     69  C   UNL A   1      50.638  26.082  31.587  1.00  0.00     0.200 A 
ATOM     70  F   UNL A   1      51.423  27.326  29.738  1.00  0.00    -0.200 F 
ATOM     71  F   UNL A   1      51.886  25.674  31.858  1.00  0.00    -0.200 F 
ENDBRANCH  38  61
ENDBRANCH  12  13
ENDBRANCH   5   7
ENDBRANCH   2   3
ENDBRANCH   1   2
BRANCH   1  72
ATOM     72  C   UNL A   1      34.655  35.022  28.302  1.00  0.00     0.023 C 
BRANCH  72  73
ATOM     73  C   UNL A   1      33.321  35.185  29.034  1.00  0.00     0.116 C 
BRANCH  73  74
ATOM     74  N   UNL A   1      33.239  36.462  29.718  1.00  0.00    -0.352 N 
ATOM     75  C   UNL A   1      33.217  36.716  31.065  1.00  0.00     0.254 C 
ATOM     76  H   UNL A   1      33.193  37.253  29.135  1.00  0.00     0.163 HD
ATOM     77  O   UNL A   1      32.854  37.821  31.457  1.00  0.00    -0.269 OA
BRANCH  75  78
ATOM     78  C   UNL A   1      33.618  35.673  31.981  1.00  0.00     0.078 A 
ATOM     79  C   UNL A   1      32.828  34.627  32.409  1.00  0.00     0.209 A 
ATOM     80  C   UNL A   1      34.906  35.424  32.529  1.00  0.00     0.066 A 
ATOM     81  O   UNL A   1      33.543  33.763  33.173  1.00  0.00    -0.462 OA
ATOM     82  C   UNL A   1      34.818  34.248  33.250  1.00  0.00     0.153 A 
BRANCH  82  83
ATOM     83  C   UNL A   1      35.942  33.586  33.967  1.00  0.00     0.117 A 
ATOM     84  C   UNL A   1      36.320  33.943  35.243  1.00  0.00     0.099 A 
ATOM     85  N   UNL A   1      36.676  32.565  33.392  1.00  0.00    -0.231 NA
ATOM     86  S   UNL A   1      37.584  32.920  35.780  1.00  0.00    -0.120 S 
ATOM     87  C   UNL A   1      37.566  32.113  34.256  1.00  0.00     0.142 A 
BRANCH  87  88
ATOM     88  C   UNL A   1      38.546  31.057  33.975  1.00  0.00     0.099 A 
ATOM     89  C   UNL A   1      38.197  29.964  33.182  1.00  0.00     0.033 A 
ATOM     90  N   UNL A   1      39.775  31.195  34.538  1.00  0.00    -0.252 NA
ATOM     91  C   UNL A   1      39.150  28.974  32.942  1.00  0.00     0.024 A 
ATOM     92  C   UNL A   1      40.672  30.204  34.305  1.00  0.00     0.132 A 
ATOM     93  C   UNL A   1      40.409  29.092  33.520  1.00  0.00     0.059 A 
ATOM     94  Cl  UNL A   1      41.604  27.888  33.264  1.00  0.00    -0.083 Cl
ENDBRANCH  87  88
ENDBRANCH  82  83
ENDBRANCH  75  78
ENDBRANCH  73  74
ENDBRANCH  72  73
ENDBRANCH   1  72
TORSDOF 13
ENDMDL
MODEL 3
REMARK VINA RESULT:     -12.7      1.648      2.031
REMARK SMILES O=C(NCCCCNC(=O)c1coc(-c2csc(-c3ccc(Cl)cn3)n2)c1)c1ccc(-c2c3nc(c(-c4c(F)c(F)c(F)c(F)c4F)c4ccc([nH]4)c(-c4c(F)c(F)c(F)c(F)c4F)c4nc(c(-c5c(F)c(F)c(F)c(F)c5F)c5ccc2[nH]5)C=C4)C=C3)cc1
REMARK SMILES IDX 5 1 4 2 3 3 1 4 2 5 28 7 29 8 90 9 30 10 89 11 31 12 32 13
REMARK SMILES IDX 33 14 83 15 34 16 88 17 82 18 84 19 35 20 87 21 81 22 80 23
REMARK SMILES IDX 36 25 68 26 48 27 67 28 49 29 52 30 66 31 85 32 50 33 51 34
REMARK SMILES IDX 65 36 86 37 53 38 37 39 38 40 46 41 39 42 40 43 44 44 47 45
REMARK SMILES IDX 41 46 42 47 45 48 43 49 69 50 70 51 78 52 71 53 72 54 76 55
REMARK SMILES IDX 79 56 73 57 74 58 77 59 75 60 54 61 55 62 63 63 56 64 57 65
REMARK SMILES IDX 61 66 64 67 58 68 59 69 62 70 60 71 6 72 7 73 8 74 9 75
REMARK SMILES IDX 10 77 11 78 12 79 27 80 13 81 14 82 15 83 16 84 26 85 17 86
REMARK SMILES IDX 18 87 19 88 20 89 25 90 21 91 24 92 22 93 23 94
REMARK H PARENT 3 6 84 24 52 35 8 76
REMARK Flexibility Score: inf
ROOT
ATOM      1  C   UNL A   1      31.345  31.889  26.385  1.00  0.00     0.023 C 
ENDROOT
BRANCH   1   2
ATOM      2  C   UNL A   1      32.639  32.430  26.993  1.00  0.00     0.116 C 
BRANCH   2   3
ATOM      3  N   UNL A   1      32.508  33.791  27.481  1.00  0.00    -0.352 N 
ATOM      4  O   UNL A   1      32.870  35.571  28.799  1.00  0.00    -0.269 OA
ATOM      5  C   UNL A   1      33.219  34.444  28.455  1.00  0.00     0.251 C 
ATOM      6  H   UNL A   1      31.803  34.325  27.047  1.00  0.00     0.163 HD
BRANCH   5   7
ATOM      7  C   UNL A   1      34.378  33.807  29.126  1.00  0.00     0.039 A 
ATOM      8  C   UNL A   1      34.226  32.752  30.030  1.00  0.00     0.014 A 
ATOM      9  C   UNL A   1      35.663  34.236  28.770  1.00  0.00     0.014 A 
ATOM     10  C   UNL A   1      35.352  32.175  30.625  1.00  0.00     0.010 A 
ATOM     11  C   UNL A   1      36.789  33.643  29.345  1.00  0.00     0.010 A 
ATOM     12  C   UNL A   1      36.640  32.620  30.291  1.00  0.00    -0.014 A 
BRANCH  12  13
ATOM     13  C   UNL A   1      37.827  31.989  30.916  1.00  0.00     0.031 A 
ATOM     14  C   UNL A   1      38.229  32.343  32.317  1.00  0.00     0.074 A 
ATOM     15  C   UNL A   1      38.540  31.084  30.223  1.00  0.00     0.049 A 
ATOM     16  N   UNL A   1      39.197  31.848  33.048  1.00  0.00    -0.248 NA
ATOM     17  C   UNL A   1      37.448  33.395  32.984  1.00  0.00     0.031 C 
ATOM     18  C   UNL A   1      38.272  30.675  28.843  1.00  0.00     0.029 A 
ATOM     19  N   UNL A   1      39.631  30.338  30.589  1.00  0.00    -0.354 N 
ATOM     20  C   UNL A   1      39.146  32.530  34.254  1.00  0.00     0.074 A 
ATOM     21  C   UNL A   1      38.061  33.483  34.158  1.00  0.00     0.031 C 
ATOM     22  C   UNL A   1      39.162  29.732  28.489  1.00  0.00     0.029 A 
ATOM     23  C   UNL A   1      40.060  29.478  29.612  1.00  0.00     0.049 A 
ATOM     24  H   UNL A   1      40.066  30.414  31.470  1.00  0.00     0.167 HD
ATOM     25  C   UNL A   1      39.931  32.371  35.346  1.00  0.00     0.037 A 
ATOM     26  C   UNL A   1      41.057  28.574  29.624  1.00  0.00     0.037 A 
ATOM     27  C   UNL A   1      40.997  31.414  35.463  1.00  0.00     0.049 A 
ATOM     28  C   UNL A   1      41.894  28.399  30.858  1.00  0.00     0.074 A 
ATOM     29  C   UNL A   1      41.807  31.150  36.555  1.00  0.00     0.029 A 
ATOM     30  N   UNL A   1      41.403  30.562  34.449  1.00  0.00    -0.354 N 
ATOM     31  N   UNL A   1      41.805  29.016  32.008  1.00  0.00    -0.248 NA
ATOM     32  C   UNL A   1      42.968  27.397  30.790  1.00  0.00     0.031 C 
ATOM     33  C   UNL A   1      42.713  30.145  36.196  1.00  0.00     0.029 A 
ATOM     34  C   UNL A   1      42.459  29.778  34.885  1.00  0.00     0.049 A 
ATOM     35  H   UNL A   1      40.999  30.518  33.552  1.00  0.00     0.167 HD
ATOM     36  C   UNL A   1      42.805  28.479  32.804  1.00  0.00     0.074 A 
ATOM     37  C   UNL A   1      43.487  27.478  32.009  1.00  0.00     0.031 C 
ATOM     38  C   UNL A   1      43.128  28.792  34.082  1.00  0.00     0.037 A 
BRANCH  25  39
ATOM     39  C   UNL A   1      39.659  33.262  36.515  1.00  0.00     0.064 A 
ATOM     40  C   UNL A   1      40.322  34.489  36.656  1.00  0.00     0.173 A 
ATOM     41  C   UNL A   1      38.707  32.905  37.477  1.00  0.00     0.173 A 
ATOM     42  F   UNL A   1      41.250  34.862  35.762  1.00  0.00    -0.203 F 
ATOM     43  C   UNL A   1      40.041  35.328  37.730  1.00  0.00     0.198 A 
ATOM     44  C   UNL A   1      38.425  33.750  38.547  1.00  0.00     0.198 A 
ATOM     45  F   UNL A   1      38.054  31.737  37.382  1.00  0.00    -0.203 F 
ATOM     46  F   UNL A   1      40.696  36.491  37.859  1.00  0.00    -0.200 F 
ATOM     47  C   UNL A   1      39.092  34.960  38.673  1.00  0.00     0.200 A 
ATOM     48  F   UNL A   1      37.510  33.392  39.459  1.00  0.00    -0.200 F 
ATOM     49  F   UNL A   1      38.826  35.769  39.707  1.00  0.00    -0.200 F 
ENDBRANCH  25  39
BRANCH  26  50
ATOM     50  C   UNL A   1      41.294  27.738  28.427  1.00  0.00     0.064 A 
ATOM     51  C   UNL A   1      40.587  26.543  28.243  1.00  0.00     0.173 A 
ATOM     52  C   UNL A   1      42.208  28.128  27.442  1.00  0.00     0.173 A 
ATOM     53  F   UNL A   1      39.715  26.130  29.173  1.00  0.00    -0.203 F 
ATOM     54  C   UNL A   1      40.790  25.763  27.108  1.00  0.00     0.198 A 
ATOM     55  C   UNL A   1      42.406  27.349  26.304  1.00  0.00     0.198 A 
ATOM     56  F   UNL A   1      42.908  29.263  27.587  1.00  0.00    -0.203 F 
ATOM     57  F   UNL A   1      40.113  24.616  26.956  1.00  0.00    -0.200 F 
ATOM     58  C   UNL A   1      41.696  26.168  26.138  1.00  0.00     0.200 A 
ATOM     59  F   UNL A   1      43.282  27.741  25.370  1.00  0.00    -0.200 F 
ATOM     60  F   UNL A   1      41.890  25.417  25.046  1.00  0.00    -0.200 F 
ENDBRANCH  26  50
BRANCH  38  61
ATOM     61  C   UNL A   1      44.268  28.045  34.696  1.00  0.00     0.064 A 
ATOM     62  C   UNL A   1      45.576  28.542  34.621  1.00  0.00     0.173 A 
ATOM     63  C   UNL A   1      44.049  26.849  35.391  1.00  0.00     0.173 A 
ATOM     64  F   UNL A   1      45.830  29.678  33.953  1.00  0.00    -0.203 F 
ATOM     65  C   UNL A   1      46.632  27.861  35.219  1.00  0.00     0.198 A 
ATOM     66  C   UNL A   1      45.107  26.173  35.994  1.00  0.00     0.198 A 
ATOM     67  F   UNL A   1      42.814  26.337  35.482  1.00  0.00    -0.203 F 
ATOM     68  F   UNL A   1      47.879  28.341  35.123  1.00  0.00    -0.200 F 
ATOM     69  C   UNL A   1      46.396  26.678  35.907  1.00  0.00     0.200 A 
ATOM     70  F   UNL A   1      44.879  25.029  36.656  1.00  0.00    -0.200 F 
ATOM     71  F   UNL A   1      47.413  26.022  36.481  1.00  0.00    -0.200 F 
ENDBRANCH  38  61
ENDBRANCH  12  13
ENDBRANCH   5   7
ENDBRANCH   2   3
ENDBRANCH   1   2
BRANCH   1  72
ATOM     72  C   UNL A   1      31.425  30.479  25.779  1.00  0.00     0.023 C 
BRANCH  72  73
ATOM     73  C   UNL A   1      32.824  29.859  25.743  1.00  0.00     0.116 C 
BRANCH  73  74
ATOM     74  N   UNL A   1      33.321  29.741  24.386  1.00  0.00    -0.352 N 
ATOM     75  C   UNL A   1      33.520  28.610  23.638  1.00  0.00     0.254 C 
ATOM     76  H   UNL A   1      33.547  30.590  23.941  1.00  0.00     0.163 HD
ATOM     77  O   UNL A   1      34.214  28.677  22.628  1.00  0.00    -0.269 OA
BRANCH  75  78
ATOM     78  C   UNL A   1      32.909  27.372  24.066  1.00  0.00     0.078 A 
ATOM     79  C   UNL A   1      31.642  26.941  23.735  1.00  0.00     0.209 A 
ATOM     80  C   UNL A   1      33.497  26.299  24.791  1.00  0.00     0.066 A 
ATOM     81  O   UNL A   1      31.420  25.687  24.205  1.00  0.00    -0.462 OA
ATOM     82  C   UNL A   1      32.555  25.290  24.853  1.00  0.00     0.153 A 
BRANCH  82  83
ATOM     83  C   UNL A   1      32.753  23.959  25.490  1.00  0.00     0.117 A 
ATOM     84  C   UNL A   1      32.733  23.782  26.857  1.00  0.00     0.099 A 
ATOM     85  N   UNL A   1      32.967  22.815  24.744  1.00  0.00    -0.231 NA
ATOM     86  S   UNL A   1      32.909  22.118  27.227  1.00  0.00    -0.120 S 
ATOM     87  C   UNL A   1      33.048  21.768  25.544  1.00  0.00     0.142 A 
BRANCH  87  88
ATOM     88  C   UNL A   1      33.312  20.394  25.101  1.00  0.00     0.099 A 
ATOM     89  C   UNL A   1      34.620  19.951  24.915  1.00  0.00     0.033 A 
ATOM     90  N   UNL A   1      32.229  19.607  24.867  1.00  0.00    -0.252 NA
ATOM     91  C   UNL A   1      34.835  18.642  24.484  1.00  0.00     0.024 A 
ATOM     92  C   UNL A   1      32.469  18.346  24.427  1.00  0.00     0.132 A 
ATOM     93  C   UNL A   1      33.739  17.826  24.229  1.00  0.00     0.059 A 
ATOM     94  Cl  UNL A   1      33.958  16.215  23.681  1.00  0.00    -0.083 Cl
ENDBRANCH  87  88
ENDBRANCH  82  83
ENDBRANCH  75  78
ENDBRANCH  73  74
ENDBRANCH  72  73
ENDBRANCH   1  72
TORSDOF 13
ENDMDL
