MODEL 1
REMARK VINA RESULT:     -11.6      0.000      0.000
REMARK SMILES C[C@H](NC(=O)N(CC(=O)NCCCCNC(=O)c1ccc(-c2c3nc(c(-c4c(F)c(F)c(F)c(F)c4F)c4ccc([nH]4)c(-c4c(F)c(F)c(F)c(F)c4F)c4nc(c(-c5c(F)c(F)c(F)c(F)c5F)c5ccc2[nH]5)C=C4)C=C3)cc1)CC(F)(F)F)[C@@H]1CCCO1
REMARK SMILES IDX 11 1 10 2 8 3 9 4 7 6 6 7 4 8 3 9 5 11 2 12 1 13 86 14 87 15
REMARK SMILES IDX 90 16 88 17 89 18 81 19 82 20 83 21 84 22 85 23 12 24 13 25
REMARK SMILES IDX 14 26 15 27 16 28 17 30 18 31 19 32 80 33 20 34 79 35 21 36
REMARK SMILES IDX 22 37 23 38 73 39 24 40 78 41 72 42 74 43 25 44 77 45 71 46
REMARK SMILES IDX 70 47 26 49 58 50 38 51 57 52 39 53 42 54 56 55 75 56 40 57
REMARK SMILES IDX 41 58 55 60 76 61 43 62 27 63 28 64 36 65 29 66 30 67 34 68
REMARK SMILES IDX 37 69 31 70 32 71 35 72 33 73 59 74 60 75 68 76 61 77 62 78
REMARK SMILES IDX 66 79 69 80 63 81 64 82 67 83 65 84 44 85 45 86 53 87 46 88
REMARK SMILES IDX 47 89 51 90 54 91 48 92 49 93 52 94 50 95
REMARK H PARENT 10 5 3 10 15 29 74 48 42 59
REMARK Flexibility Score: inf
ROOT
ATOM      1  C   UNL A   1      33.045  29.643  26.383  1.00  0.00     0.116 C 
ENDROOT
BRANCH   1   2
ATOM      2  N   UNL A   1      33.314  29.776  24.965  1.00  0.00    -0.355 N 
ATOM      3  C   UNL A   1      33.621  28.863  24.007  1.00  0.00     0.239 C 
ATOM      4  O   UNL A   1      33.563  29.265  22.837  1.00  0.00    -0.273 OA
ATOM      5  H   UNL A   1      33.267  30.702  24.634  1.00  0.00     0.163 HD
BRANCH   3   6
ATOM      6  C   UNL A   1      33.855  27.363  24.268  1.00  0.00     0.221 C 
BRANCH   6   7
ATOM      7  N   UNL A   1      33.428  26.356  23.313  1.00  0.00    -0.306 N 
BRANCH   7   8
ATOM      8  C   UNL A   1      32.734  26.526  22.163  1.00  0.00     0.318 C 
ATOM      9  N   UNL A   1      31.459  26.903  22.046  1.00  0.00    -0.333 N 
ATOM     10  H   UNL A   1      31.231  26.768  21.098  1.00  0.00     0.165 HD
ATOM     11  O   UNL A   1      33.279  26.278  21.080  1.00  0.00    -0.249 OA
BRANCH   9  12
ATOM     12  C   UNL A   1      30.220  27.432  22.681  1.00  0.00     0.109 C 
ATOM     13  C   UNL A   1      29.706  26.886  24.005  1.00  0.00     0.034 C 
BRANCH  12  14
ATOM     14  C   UNL A   1      30.172  28.982  22.558  1.00  0.00     0.140 C 
ATOM     15  C   UNL A   1      29.908  29.803  23.817  1.00  0.00     0.036 C 
ATOM     16  O   UNL A   1      29.114  29.328  21.625  1.00  0.00    -0.376 OA
ATOM     17  C   UNL A   1      29.150  30.992  23.281  1.00  0.00     0.031 C 
ATOM     18  C   UNL A   1      28.296  30.345  22.217  1.00  0.00     0.160 C 
ENDBRANCH  12  14
ENDBRANCH   9  12
ENDBRANCH   7   8
BRANCH   7  19
ATOM     19  C   UNL A   1      33.831  24.960  23.650  1.00  0.00     0.237 C 
BRANCH  19  20
ATOM     20  C   UNL A   1      33.222  24.332  24.905  1.00  0.00     0.406 C 
ATOM     21  F   UNL A   1      31.969  24.759  25.158  1.00  0.00    -0.169 F 
ATOM     22  F   UNL A   1      33.168  22.983  24.776  1.00  0.00    -0.169 F 
ATOM     23  F   UNL A   1      33.983  24.584  25.995  1.00  0.00    -0.169 F 
ENDBRANCH  19  20
ENDBRANCH   7  19
ENDBRANCH   6   7
ENDBRANCH   3   6
ENDBRANCH   1   2
BRANCH   1  24
ATOM     24  C   UNL A   1      31.737  30.281  26.821  1.00  0.00     0.023 C 
BRANCH  24  25
ATOM     25  C   UNL A   1      31.681  31.790  26.634  1.00  0.00     0.023 C 
BRANCH  25  26
ATOM     26  C   UNL A   1      32.841  32.536  27.272  1.00  0.00     0.116 C 
BRANCH  26  27
ATOM     27  N   UNL A   1      32.521  33.929  27.551  1.00  0.00    -0.352 N 
ATOM     28  C   UNL A   1      33.032  34.753  28.526  1.00  0.00     0.251 C 
ATOM     29  H   UNL A   1      31.846  34.336  26.961  1.00  0.00     0.163 HD
ATOM     30  O   UNL A   1      32.531  35.845  28.753  1.00  0.00    -0.269 OA
BRANCH  28  31
ATOM     31  C   UNL A   1      34.187  34.286  29.318  1.00  0.00     0.039 A 
ATOM     32  C   UNL A   1      33.960  33.575  30.496  1.00  0.00     0.014 A 
ATOM     33  C   UNL A   1      35.489  34.516  28.865  1.00  0.00     0.014 A 
ATOM     34  C   UNL A   1      35.045  33.031  31.187  1.00  0.00     0.010 A 
ATOM     35  C   UNL A   1      36.556  33.894  29.501  1.00  0.00     0.010 A 
ATOM     36  C   UNL A   1      36.346  33.152  30.672  1.00  0.00    -0.014 A 
BRANCH  36  37
ATOM     37  C   UNL A   1      37.505  32.519  31.348  1.00  0.00     0.031 A 
ATOM     38  C   UNL A   1      38.211  31.363  30.695  1.00  0.00     0.074 A 
ATOM     39  C   UNL A   1      37.873  32.934  32.575  1.00  0.00     0.049 A 
ATOM     40  N   UNL A   1      39.191  30.625  31.153  1.00  0.00    -0.248 NA
ATOM     41  C   UNL A   1      37.730  30.959  29.364  1.00  0.00     0.031 C 
ATOM     42  C   UNL A   1      37.228  34.008  33.334  1.00  0.00     0.029 A 
ATOM     43  N   UNL A   1      38.871  32.495  33.407  1.00  0.00    -0.354 N 
ATOM     44  C   UNL A   1      39.428  29.666  30.178  1.00  0.00     0.074 A 
ATOM     45  C   UNL A   1      38.454  29.875  29.130  1.00  0.00     0.031 C 
ATOM     46  C   UNL A   1      37.860  34.158  34.508  1.00  0.00     0.029 A 
ATOM     47  C   UNL A   1      38.926  33.166  34.606  1.00  0.00     0.049 A 
ATOM     48  H   UNL A   1      39.490  31.767  33.169  1.00  0.00     0.167 HD
ATOM     49  C   UNL A   1      40.388  28.712  30.148  1.00  0.00     0.037 A 
ATOM     50  C   UNL A   1      39.737  32.991  35.666  1.00  0.00     0.037 A 
ATOM     51  C   UNL A   1      41.373  28.530  31.182  1.00  0.00     0.049 A 
ATOM     52  C   UNL A   1      40.796  31.923  35.607  1.00  0.00     0.074 A 
ATOM     53  C   UNL A   1      42.435  27.644  31.212  1.00  0.00     0.029 A 
ATOM     54  N   UNL A   1      41.413  29.245  32.369  1.00  0.00    -0.354 N 
ATOM     55  N   UNL A   1      41.067  31.076  34.643  1.00  0.00    -0.248 NA
ATOM     56  C   UNL A   1      41.671  31.791  36.780  1.00  0.00     0.031 C 
ATOM     57  C   UNL A   1      43.082  27.781  32.445  1.00  0.00     0.029 A 
ATOM     58  C   UNL A   1      42.463  28.798  33.154  1.00  0.00     0.049 A 
ATOM     59  H   UNL A   1      40.788  29.965  32.617  1.00  0.00     0.167 HD
ATOM     60  C   UNL A   1      42.156  30.334  35.078  1.00  0.00     0.074 A 
ATOM     61  C   UNL A   1      42.509  30.843  36.388  1.00  0.00     0.031 C 
ATOM     62  C   UNL A   1      42.806  29.322  34.452  1.00  0.00     0.037 A 
BRANCH  49  63
ATOM     63  C   UNL A   1      40.421  27.791  28.964  1.00  0.00     0.064 A 
ATOM     64  C   UNL A   1      41.218  28.059  27.840  1.00  0.00     0.173 A 
ATOM     65  C   UNL A   1      39.680  26.600  28.969  1.00  0.00     0.173 A 
ATOM     66  F   UNL A   1      41.939  29.189  27.777  1.00  0.00    -0.203 F 
ATOM     67  C   UNL A   1      41.249  27.185  26.756  1.00  0.00     0.198 A 
ATOM     68  C   UNL A   1      39.738  25.712  27.898  1.00  0.00     0.198 A 
ATOM     69  F   UNL A   1      38.904  26.291  30.019  1.00  0.00    -0.203 F 
ATOM     70  F   UNL A   1      41.977  27.489  25.672  1.00  0.00    -0.200 F 
ATOM     71  C   UNL A   1      40.516  26.009  26.789  1.00  0.00     0.200 A 
ATOM     72  F   UNL A   1      39.041  24.567  27.939  1.00  0.00    -0.200 F 
ATOM     73  F   UNL A   1      40.555  25.163  25.750  1.00  0.00    -0.200 F 
ENDBRANCH  49  63
BRANCH  50  74
ATOM     74  C   UNL A   1      39.590  33.853  36.868  1.00  0.00     0.064 A 
ATOM     75  C   UNL A   1      38.807  33.446  37.959  1.00  0.00     0.173 A 
ATOM     76  C   UNL A   1      40.215  35.107  36.948  1.00  0.00     0.173 A 
ATOM     77  F   UNL A   1      38.173  32.266  37.923  1.00  0.00    -0.203 F 
ATOM     78  C   UNL A   1      38.633  34.272  39.068  1.00  0.00     0.198 A 
ATOM     79  C   UNL A   1      40.067  35.917  38.072  1.00  0.00     0.198 A 
ATOM     80  F   UNL A   1      40.979  35.542  35.936  1.00  0.00    -0.203 F 
ATOM     81  F   UNL A   1      37.834  33.880  40.071  1.00  0.00    -0.200 F 
ATOM     82  C   UNL A   1      39.266  35.503  39.127  1.00  0.00     0.200 A 
ATOM     83  F   UNL A   1      40.693  37.100  38.131  1.00  0.00    -0.200 F 
ATOM     84  F   UNL A   1      39.099  36.295  40.194  1.00  0.00    -0.200 F 
ENDBRANCH  50  74
BRANCH  62  85
ATOM     85  C   UNL A   1      43.990  28.722  35.155  1.00  0.00     0.064 A 
ATOM     86  C   UNL A   1      45.286  29.232  34.988  1.00  0.00     0.173 A 
ATOM     87  C   UNL A   1      43.816  27.649  36.043  1.00  0.00     0.173 A 
ATOM     88  F   UNL A   1      45.508  30.247  34.139  1.00  0.00    -0.203 F 
ATOM     89  C   UNL A   1      46.367  28.672  35.662  1.00  0.00     0.198 A 
ATOM     90  C   UNL A   1      44.894  27.115  36.742  1.00  0.00     0.198 A 
ATOM     91  F   UNL A   1      42.596  27.130  36.247  1.00  0.00    -0.203 F 
ATOM     92  F   UNL A   1      47.604  29.141  35.447  1.00  0.00    -0.200 F 
ATOM     93  C   UNL A   1      46.169  27.620  36.545  1.00  0.00     0.200 A 
ATOM     94  F   UNL A   1      44.697  26.111  37.609  1.00  0.00    -0.200 F 
ATOM     95  F   UNL A   1      47.210  27.090  37.201  1.00  0.00    -0.200 F 
ENDBRANCH  62  85
ENDBRANCH  36  37
ENDBRANCH  28  31
ENDBRANCH  26  27
ENDBRANCH  25  26
ENDBRANCH  24  25
ENDBRANCH   1  24
TORSDOF 17
ENDMDL
MODEL 2
REMARK VINA RESULT:     -11.5      0.856      7.336
REMARK SMILES C[C@H](NC(=O)N(CC(=O)NCCCCNC(=O)c1ccc(-c2c3nc(c(-c4c(F)c(F)c(F)c(F)c4F)c4ccc([nH]4)c(-c4c(F)c(F)c(F)c(F)c4F)c4nc(c(-c5c(F)c(F)c(F)c(F)c5F)c5ccc2[nH]5)C=C4)C=C3)cc1)CC(F)(F)F)[C@@H]1CCCO1
REMARK SMILES IDX 11 1 10 2 8 3 9 4 7 6 6 7 4 8 3 9 5 11 2 12 1 13 86 14 87 15
REMARK SMILES IDX 90 16 88 17 89 18 81 19 82 20 83 21 84 22 85 23 12 24 13 25
REMARK SMILES IDX 14 26 15 27 16 28 17 30 18 31 19 32 80 33 20 34 79 35 21 36
REMARK SMILES IDX 22 37 23 38 73 39 24 40 78 41 72 42 74 43 25 44 77 45 71 46
REMARK SMILES IDX 70 47 26 49 58 50 38 51 57 52 39 53 42 54 56 55 75 56 40 57
REMARK SMILES IDX 41 58 55 60 76 61 43 62 27 63 28 64 36 65 29 66 30 67 34 68
REMARK SMILES IDX 37 69 31 70 32 71 35 72 33 73 59 74 60 75 68 76 61 77 62 78
REMARK SMILES IDX 66 79 69 80 63 81 64 82 67 83 65 84 44 85 45 86 53 87 46 88
REMARK SMILES IDX 47 89 51 90 54 91 48 92 49 93 52 94 50 95
REMARK H PARENT 10 5 3 10 15 29 74 48 42 59
REMARK Flexibility Score: inf
ROOT
ATOM      1  C   UNL A   1      31.762  29.675  27.025  1.00  0.00     0.116 C 
ENDROOT
BRANCH   1   2
ATOM      2  N   UNL A   1      33.115  29.164  27.121  1.00  0.00    -0.355 N 
ATOM      3  C   UNL A   1      34.023  28.811  26.174  1.00  0.00     0.239 C 
ATOM      4  O   UNL A   1      35.181  28.631  26.576  1.00  0.00    -0.273 OA
ATOM      5  H   UNL A   1      33.435  29.051  28.044  1.00  0.00     0.163 HD
BRANCH   3   6
ATOM      6  C   UNL A   1      33.750  28.795  24.658  1.00  0.00     0.221 C 
BRANCH   6   7
ATOM      7  N   UNL A   1      33.452  27.560  23.959  1.00  0.00    -0.306 N 
BRANCH   7   8
ATOM      8  C   UNL A   1      33.010  27.395  22.689  1.00  0.00     0.318 C 
ATOM      9  N   UNL A   1      31.752  27.514  22.257  1.00  0.00    -0.333 N 
ATOM     10  H   UNL A   1      31.758  27.172  21.334  1.00  0.00     0.165 HD
ATOM     11  O   UNL A   1      33.807  27.057  21.805  1.00  0.00    -0.249 OA
BRANCH   9  12
ATOM     12  C   UNL A   1      30.344  27.921  22.522  1.00  0.00     0.109 C 
ATOM     13  C   UNL A   1      29.489  27.209  23.561  1.00  0.00     0.034 C 
BRANCH  12  14
ATOM     14  C   UNL A   1      30.226  29.472  22.540  1.00  0.00     0.140 C 
ATOM     15  C   UNL A   1      29.283  30.117  23.550  1.00  0.00     0.036 C 
ATOM     16  O   UNL A   1      29.769  29.904  21.231  1.00  0.00    -0.376 OA
ATOM     17  C   UNL A   1      28.803  31.343  22.815  1.00  0.00     0.031 C 
ATOM     18  C   UNL A   1      28.675  30.814  21.407  1.00  0.00     0.160 C 
ENDBRANCH  12  14
ENDBRANCH   9  12
ENDBRANCH   7   8
BRANCH   7  19
ATOM     19  C   UNL A   1      33.684  26.317  24.751  1.00  0.00     0.237 C 
BRANCH  19  20
ATOM     20  C   UNL A   1      32.464  25.637  25.374  1.00  0.00     0.406 C 
ATOM     21  F   UNL A   1      31.803  24.838  24.513  1.00  0.00    -0.169 F 
ATOM     22  F   UNL A   1      32.840  24.869  26.426  1.00  0.00    -0.169 F 
ATOM     23  F   UNL A   1      31.590  26.551  25.857  1.00  0.00    -0.169 F 
ENDBRANCH  19  20
ENDBRANCH   7  19
ENDBRANCH   6   7
ENDBRANCH   3   6
ENDBRANCH   1   2
BRANCH   1  24
ATOM     24  C   UNL A   1      31.621  30.869  26.096  1.00  0.00     0.023 C 
BRANCH  24  25
ATOM     25  C   UNL A   1      31.379  32.192  26.806  1.00  0.00     0.023 C 
BRANCH  25  26
ATOM     26  C   UNL A   1      32.647  32.883  27.279  1.00  0.00     0.116 C 
BRANCH  26  27
ATOM     27  N   UNL A   1      32.418  34.272  27.653  1.00  0.00    -0.352 N 
ATOM     28  C   UNL A   1      33.011  35.004  28.655  1.00  0.00     0.251 C 
ATOM     29  H   UNL A   1      31.747  34.751  27.116  1.00  0.00     0.163 HD
ATOM     30  O   UNL A   1      32.583  36.105  28.966  1.00  0.00    -0.269 OA
BRANCH  28  31
ATOM     31  C   UNL A   1      34.166  34.425  29.371  1.00  0.00     0.039 A 
ATOM     32  C   UNL A   1      33.950  33.743  30.568  1.00  0.00     0.014 A 
ATOM     33  C   UNL A   1      35.450  34.522  28.829  1.00  0.00     0.014 A 
ATOM     34  C   UNL A   1      35.019  33.095  31.190  1.00  0.00     0.010 A 
ATOM     35  C   UNL A   1      36.491  33.798  29.397  1.00  0.00     0.010 A 
ATOM     36  C   UNL A   1      36.288  33.084  30.586  1.00  0.00    -0.014 A 
BRANCH  36  37
ATOM     37  C   UNL A   1      37.421  32.338  31.188  1.00  0.00     0.031 A 
ATOM     38  C   UNL A   1      37.922  32.714  32.555  1.00  0.00     0.074 A 
ATOM     39  C   UNL A   1      38.043  31.378  30.476  1.00  0.00     0.049 A 
ATOM     40  N   UNL A   1      38.945  32.239  33.222  1.00  0.00    -0.248 NA
ATOM     41  C   UNL A   1      37.199  33.789  33.253  1.00  0.00     0.031 C 
ATOM     42  C   UNL A   1      37.684  30.966  29.118  1.00  0.00     0.029 A 
ATOM     43  N   UNL A   1      39.116  30.584  30.791  1.00  0.00    -0.354 N 
ATOM     44  C   UNL A   1      38.995  32.968  34.402  1.00  0.00     0.074 A 
ATOM     45  C   UNL A   1      37.940  33.955  34.338  1.00  0.00     0.031 C 
ATOM     46  C   UNL A   1      38.507  29.980  28.725  1.00  0.00     0.029 A 
ATOM     47  C   UNL A   1      39.477  29.720  29.784  1.00  0.00     0.049 A 
ATOM     48  H   UNL A   1      39.584  30.628  31.656  1.00  0.00     0.167 HD
ATOM     49  C   UNL A   1      39.830  32.811  35.455  1.00  0.00     0.037 A 
ATOM     50  C   UNL A   1      40.485  28.829  29.720  1.00  0.00     0.037 A 
ATOM     51  C   UNL A   1      40.858  31.806  35.524  1.00  0.00     0.049 A 
ATOM     52  C   UNL A   1      41.399  28.675  30.906  1.00  0.00     0.074 A 
ATOM     53  C   UNL A   1      41.707  31.514  36.576  1.00  0.00     0.029 A 
ATOM     54  N   UNL A   1      41.178  30.933  34.495  1.00  0.00    -0.354 N 
ATOM     55  N   UNL A   1      41.385  29.311  32.052  1.00  0.00    -0.248 NA
ATOM     56  C   UNL A   1      42.466  27.671  30.793  1.00  0.00     0.031 C 
ATOM     57  C   UNL A   1      42.582  30.503  36.162  1.00  0.00     0.029 A 
ATOM     58  C   UNL A   1      42.234  30.121  34.876  1.00  0.00     0.049 A 
ATOM     59  H   UNL A   1      40.722  30.894  33.623  1.00  0.00     0.167 HD
ATOM     60  C   UNL A   1      42.416  28.767  32.805  1.00  0.00     0.074 A 
ATOM     61  C   UNL A   1      43.026  27.735  31.993  1.00  0.00     0.031 C 
ATOM     62  C   UNL A   1      42.823  29.092  34.058  1.00  0.00     0.037 A 
BRANCH  49  63
ATOM     63  C   UNL A   1      39.671  33.746  36.619  1.00  0.00     0.064 A 
ATOM     64  C   UNL A   1      40.285  35.008  36.644  1.00  0.00     0.173 A 
ATOM     65  C   UNL A   1      38.859  33.394  37.707  1.00  0.00     0.173 A 
ATOM     66  F   UNL A   1      41.082  35.392  35.635  1.00  0.00    -0.203 F 
ATOM     67  C   UNL A   1      40.115  35.869  37.725  1.00  0.00     0.198 A 
ATOM     68  C   UNL A   1      38.663  34.269  38.771  1.00  0.00     0.198 A 
ATOM     69  F   UNL A   1      38.244  32.201  37.734  1.00  0.00    -0.203 F 
ATOM     70  F   UNL A   1      40.753  37.047  37.750  1.00  0.00    -0.200 F 
ATOM     71  C   UNL A   1      39.297  35.503  38.784  1.00  0.00     0.200 A 
ATOM     72  F   UNL A   1      37.860  33.920  39.786  1.00  0.00    -0.200 F 
ATOM     73  F   UNL A   1      39.125  36.336  39.819  1.00  0.00    -0.200 F 
ENDBRANCH  49  63
BRANCH  50  74
ATOM     74  C   UNL A   1      40.675  28.005  28.497  1.00  0.00     0.064 A 
ATOM     75  C   UNL A   1      41.456  28.467  27.428  1.00  0.00     0.173 A 
ATOM     76  C   UNL A   1      40.070  26.746  28.364  1.00  0.00     0.173 A 
ATOM     77  F   UNL A   1      42.039  29.673  27.497  1.00  0.00    -0.203 F 
ATOM     78  C   UNL A   1      41.601  27.715  26.263  1.00  0.00     0.198 A 
ATOM     79  C   UNL A   1      40.243  25.981  27.213  1.00  0.00     0.198 A 
ATOM     80  F   UNL A   1      39.317  26.254  29.359  1.00  0.00    -0.203 F 
ATOM     81  F   UNL A   1      42.307  28.207  25.236  1.00  0.00    -0.200 F 
ATOM     82  C   UNL A   1      40.999  26.471  26.158  1.00  0.00     0.200 A 
ATOM     83  F   UNL A   1      39.672  24.772  27.121  1.00  0.00    -0.200 F 
ATOM     84  F   UNL A   1      41.140  25.749  25.039  1.00  0.00    -0.200 F 
ENDBRANCH  50  74
BRANCH  62  85
ATOM     85  C   UNL A   1      43.956  28.299  34.643  1.00  0.00     0.064 A 
ATOM     86  C   UNL A   1      45.286  28.742  34.568  1.00  0.00     0.173 A 
ATOM     87  C   UNL A   1      43.701  27.100  35.326  1.00  0.00     0.173 A 
ATOM     88  F   UNL A   1      45.584  29.874  33.913  1.00  0.00    -0.203 F 
ATOM     89  C   UNL A   1      46.319  28.000  35.132  1.00  0.00     0.198 A 
ATOM     90  C   UNL A   1      44.733  26.379  35.919  1.00  0.00     0.198 A 
ATOM     91  F   UNL A   1      42.447  26.636  35.434  1.00  0.00    -0.203 F 
ATOM     92  F   UNL A   1      47.587  28.415  35.004  1.00  0.00    -0.200 F 
ATOM     93  C   UNL A   1      46.041  26.824  35.814  1.00  0.00     0.200 A 
ATOM     94  F   UNL A   1      44.460  25.253  36.594  1.00  0.00    -0.200 F 
ATOM     95  F   UNL A   1      47.037  26.117  36.365  1.00  0.00    -0.200 F 
ENDBRANCH  62  85
ENDBRANCH  36  37
ENDBRANCH  28  31
ENDBRANCH  26  27
ENDBRANCH  25  26
ENDBRANCH  24  25
ENDBRANCH   1  24
TORSDOF 17
ENDMDL
MODEL 3
REMARK VINA RESULT:     -11.5      1.167      2.631
REMARK SMILES C[C@H](NC(=O)N(CC(=O)NCCCCNC(=O)c1ccc(-c2c3nc(c(-c4c(F)c(F)c(F)c(F)c4F)c4ccc([nH]4)c(-c4c(F)c(F)c(F)c(F)c4F)c4nc(c(-c5c(F)c(F)c(F)c(F)c5F)c5ccc2[nH]5)C=C4)C=C3)cc1)CC(F)(F)F)[C@@H]1CCCO1
REMARK SMILES IDX 11 1 10 2 8 3 9 4 7 6 6 7 4 8 3 9 5 11 2 12 1 13 86 14 87 15
REMARK SMILES IDX 90 16 88 17 89 18 81 19 82 20 83 21 84 22 85 23 12 24 13 25
REMARK SMILES IDX 14 26 15 27 16 28 17 30 18 31 19 32 80 33 20 34 79 35 21 36
REMARK SMILES IDX 22 37 23 38 73 39 24 40 78 41 72 42 74 43 25 44 77 45 71 46
REMARK SMILES IDX 70 47 26 49 58 50 38 51 57 52 39 53 42 54 56 55 75 56 40 57
REMARK SMILES IDX 41 58 55 60 76 61 43 62 27 63 28 64 36 65 29 66 30 67 34 68
REMARK SMILES IDX 37 69 31 70 32 71 35 72 33 73 59 74 60 75 68 76 61 77 62 78
REMARK SMILES IDX 66 79 69 80 63 81 64 82 67 83 65 84 44 85 45 86 53 87 46 88
REMARK SMILES IDX 47 89 51 90 54 91 48 92 49 93 52 94 50 95
REMARK H PARENT 10 5 3 10 15 29 74 48 42 59
REMARK Flexibility Score: inf
ROOT
ATOM      1  C   UNL A   1      31.633  29.787  25.071  1.00  0.00     0.116 C 
ENDROOT
BRANCH   1   2
ATOM      2  N   UNL A   1      32.829  29.686  24.259  1.00  0.00    -0.355 N 
ATOM      3  C   UNL A   1      33.460  28.623  23.696  1.00  0.00     0.239 C 
ATOM      4  O   UNL A   1      34.334  28.892  22.861  1.00  0.00    -0.273 OA
ATOM      5  H   UNL A   1      33.267  30.550  24.083  1.00  0.00     0.163 HD
BRANCH   3   6
ATOM      6  C   UNL A   1      33.047  27.152  23.893  1.00  0.00     0.221 C 
BRANCH   6   7
ATOM      7  N   UNL A   1      32.322  26.428  22.866  1.00  0.00    -0.306 N 
BRANCH   7   8
ATOM      8  C   UNL A   1      32.789  25.494  22.002  1.00  0.00     0.318 C 
ATOM      9  N   UNL A   1      32.833  24.175  22.197  1.00  0.00    -0.333 N 
ATOM     10  H   UNL A   1      33.372  23.818  21.455  1.00  0.00     0.165 HD
ATOM     11  O   UNL A   1      33.276  25.852  20.923  1.00  0.00    -0.249 OA
BRANCH   9  12
ATOM     12  C   UNL A   1      32.447  22.991  23.015  1.00  0.00     0.109 C 
ATOM     13  C   UNL A   1      32.153  21.641  22.377  1.00  0.00     0.034 C 
BRANCH  12  14
ATOM     14  C   UNL A   1      33.314  22.923  24.305  1.00  0.00     0.140 C 
ATOM     15  C   UNL A   1      32.915  23.790  25.495  1.00  0.00     0.036 C 
ATOM     16  O   UNL A   1      34.669  23.314  23.960  1.00  0.00    -0.376 OA
ATOM     17  C   UNL A   1      34.246  24.113  26.127  1.00  0.00     0.031 C 
ATOM     18  C   UNL A   1      35.117  24.292  24.907  1.00  0.00     0.160 C 
ENDBRANCH  12  14
ENDBRANCH   9  12
ENDBRANCH   7   8
BRANCH   7  19
ATOM     19  C   UNL A   1      30.869  26.754  22.774  1.00  0.00     0.237 C 
BRANCH  19  20
ATOM     20  C   UNL A   1      29.946  26.175  23.847  1.00  0.00     0.406 C 
ATOM     21  F   UNL A   1      30.137  26.721  25.064  1.00  0.00    -0.169 F 
ATOM     22  F   UNL A   1      28.648  26.384  23.513  1.00  0.00    -0.169 F 
ATOM     23  F   UNL A   1      30.104  24.835  23.955  1.00  0.00    -0.169 F 
ENDBRANCH  19  20
ENDBRANCH   7  19
ENDBRANCH   6   7
ENDBRANCH   3   6
ENDBRANCH   1   2
BRANCH   1  24
ATOM     24  C   UNL A   1      31.887  30.311  26.475  1.00  0.00     0.023 C 
BRANCH  24  25
ATOM     25  C   UNL A   1      31.651  31.805  26.640  1.00  0.00     0.023 C 
BRANCH  25  26
ATOM     26  C   UNL A   1      32.824  32.553  27.251  1.00  0.00     0.116 C 
BRANCH  26  27
ATOM     27  N   UNL A   1      32.507  33.945  27.540  1.00  0.00    -0.352 N 
ATOM     28  C   UNL A   1      33.026  34.764  28.515  1.00  0.00     0.251 C 
ATOM     29  H   UNL A   1      31.828  34.355  26.957  1.00  0.00     0.163 HD
ATOM     30  O   UNL A   1      32.528  35.854  28.751  1.00  0.00    -0.269 OA
BRANCH  28  31
ATOM     31  C   UNL A   1      34.187  34.292  29.296  1.00  0.00     0.039 A 
ATOM     32  C   UNL A   1      33.969  33.627  30.503  1.00  0.00     0.014 A 
ATOM     33  C   UNL A   1      35.484  34.470  28.806  1.00  0.00     0.014 A 
ATOM     34  C   UNL A   1      35.055  33.077  31.188  1.00  0.00     0.010 A 
ATOM     35  C   UNL A   1      36.549  33.841  29.438  1.00  0.00     0.010 A 
ATOM     36  C   UNL A   1      36.347  33.145  30.639  1.00  0.00    -0.014 A 
BRANCH  36  37
ATOM     37  C   UNL A   1      37.504  32.502  31.309  1.00  0.00     0.031 A 
ATOM     38  C   UNL A   1      38.206  31.349  30.647  1.00  0.00     0.074 A 
ATOM     39  C   UNL A   1      37.873  32.908  32.539  1.00  0.00     0.049 A 
ATOM     40  N   UNL A   1      39.184  30.605  31.100  1.00  0.00    -0.248 NA
ATOM     41  C   UNL A   1      37.723  30.957  29.313  1.00  0.00     0.031 C 
ATOM     42  C   UNL A   1      37.232  33.977  33.306  1.00  0.00     0.029 A 
ATOM     43  N   UNL A   1      38.870  32.459  33.368  1.00  0.00    -0.354 N 
ATOM     44  C   UNL A   1      39.417  29.652  30.117  1.00  0.00     0.074 A 
ATOM     45  C   UNL A   1      38.443  29.873  29.071  1.00  0.00     0.031 C 
ATOM     46  C   UNL A   1      37.865  34.117  34.482  1.00  0.00     0.029 A 
ATOM     47  C   UNL A   1      38.928  33.121  34.571  1.00  0.00     0.049 A 
ATOM     48  H   UNL A   1      39.487  31.731  33.124  1.00  0.00     0.167 HD
ATOM     49  C   UNL A   1      40.374  28.696  30.080  1.00  0.00     0.037 A 
ATOM     50  C   UNL A   1      39.739  32.935  35.630  1.00  0.00     0.037 A 
ATOM     51  C   UNL A   1      41.359  28.503  31.111  1.00  0.00     0.049 A 
ATOM     52  C   UNL A   1      40.795  31.864  35.562  1.00  0.00     0.074 A 
ATOM     53  C   UNL A   1      42.418  27.613  31.135  1.00  0.00     0.029 A 
ATOM     54  N   UNL A   1      41.402  29.210  32.304  1.00  0.00    -0.354 N 
ATOM     55  N   UNL A   1      41.062  31.024  34.592  1.00  0.00    -0.248 NA
ATOM     56  C   UNL A   1      41.669  31.721  36.734  1.00  0.00     0.031 C 
ATOM     57  C   UNL A   1      43.066  27.739  32.368  1.00  0.00     0.029 A 
ATOM     58  C   UNL A   1      42.451  28.753  33.085  1.00  0.00     0.049 A 
ATOM     59  H   UNL A   1      40.779  29.929  32.558  1.00  0.00     0.167 HD
ATOM     60  C   UNL A   1      42.149  30.275  35.021  1.00  0.00     0.074 A 
ATOM     61  C   UNL A   1      42.504  30.773  36.334  1.00  0.00     0.031 C 
ATOM     62  C   UNL A   1      42.796  29.266  34.387  1.00  0.00     0.037 A 
BRANCH  49  63
ATOM     63  C   UNL A   1      40.404  27.783  28.888  1.00  0.00     0.064 A 
ATOM     64  C   UNL A   1      39.648  26.602  28.842  1.00  0.00     0.173 A 
ATOM     65  C   UNL A   1      41.167  28.116  27.758  1.00  0.00     0.173 A 
ATOM     66  F   UNL A   1      38.910  26.230  29.899  1.00  0.00    -0.203 F 
ATOM     67  C   UNL A   1      39.677  25.774  27.722  1.00  0.00     0.198 A 
ATOM     68  C   UNL A   1      41.167  27.304  26.628  1.00  0.00     0.198 A 
ATOM     69  F   UNL A   1      41.905  29.236  27.746  1.00  0.00    -0.203 F 
ATOM     70  F   UNL A   1      38.987  24.625  27.722  1.00  0.00    -0.200 F 
ATOM     71  C   UNL A   1      40.429  26.130  26.613  1.00  0.00     0.200 A 
ATOM     72  F   UNL A   1      41.883  27.658  25.550  1.00  0.00    -0.200 F 
ATOM     73  F   UNL A   1      40.447  25.338  25.532  1.00  0.00    -0.200 F 
ENDBRANCH  49  63
BRANCH  50  74
ATOM     74  C   UNL A   1      39.595  33.789  36.839  1.00  0.00     0.064 A 
ATOM     75  C   UNL A   1      38.785  33.391  37.913  1.00  0.00     0.173 A 
ATOM     76  C   UNL A   1      40.250  35.026  36.941  1.00  0.00     0.173 A 
ATOM     77  F   UNL A   1      38.122  32.228  37.855  1.00  0.00    -0.203 F 
ATOM     78  C   UNL A   1      38.615  34.210  39.028  1.00  0.00     0.198 A 
ATOM     79  C   UNL A   1      40.105  35.827  38.071  1.00  0.00     0.198 A 
ATOM     80  F   UNL A   1      41.041  35.452  35.945  1.00  0.00    -0.203 F 
ATOM     81  F   UNL A   1      37.791  33.829  40.014  1.00  0.00    -0.200 F 
ATOM     82  C   UNL A   1      39.278  35.424  39.109  1.00  0.00     0.200 A 
ATOM     83  F   UNL A   1      40.760  36.994  38.152  1.00  0.00    -0.200 F 
ATOM     84  F   UNL A   1      39.114  36.209  40.182  1.00  0.00    -0.200 F 
ENDBRANCH  50  74
BRANCH  62  85
ATOM     85  C   UNL A   1      43.978  28.657  35.085  1.00  0.00     0.064 A 
ATOM     86  C   UNL A   1      45.276  29.163  34.919  1.00  0.00     0.173 A 
ATOM     87  C   UNL A   1      43.801  27.579  35.967  1.00  0.00     0.173 A 
ATOM     88  F   UNL A   1      45.501  30.182  34.077  1.00  0.00    -0.203 F 
ATOM     89  C   UNL A   1      46.356  28.594  35.589  1.00  0.00     0.198 A 
ATOM     90  C   UNL A   1      44.878  27.037  36.662  1.00  0.00     0.198 A 
ATOM     91  F   UNL A   1      42.578  27.064  36.168  1.00  0.00    -0.203 F 
ATOM     92  F   UNL A   1      47.594  29.060  35.376  1.00  0.00    -0.200 F 
ATOM     93  C   UNL A   1      46.154  27.538  36.466  1.00  0.00     0.200 A 
ATOM     94  F   UNL A   1      44.678  26.029  37.522  1.00  0.00    -0.200 F 
ATOM     95  F   UNL A   1      47.194  27.000  37.117  1.00  0.00    -0.200 F 
ENDBRANCH  62  85
ENDBRANCH  36  37
ENDBRANCH  28  31
ENDBRANCH  26  27
ENDBRANCH  25  26
ENDBRANCH  24  25
ENDBRANCH   1  24
TORSDOF 17
ENDMDL
