MODEL 1
REMARK VINA RESULT:     -13.3      0.000      0.000
REMARK SMILES CN1C=C/C(=C\C=C/C=N\c2ccc(C(=O)NCCCCNC(=O)c3ccc(-c4c5nc(c(-c6c(F)c(F)c(F)c(F)c6F)c6ccc([nH]6)c(-c6c(F)c(F)c(F)c(F)c6F)c6nc(c(-c7c(F)c(F)c(F)c(F)c7F)c7ccc4[nH]7)C=C6)C=C5)cc3)cc2)c2ccccc21
REMARK SMILES IDX 19 1 18 2 17 3 15 4 16 5 14 7 11 8 12 9 89 10 13 11 88 12
REMARK SMILES IDX 10 13 9 14 8 15 7 16 6 17 1 18 2 19 3 20 95 21 4 22 90 23
REMARK SMILES IDX 94 24 5 25 91 26 93 27 92 28 20 29 21 30 22 31 23 32 24 34
REMARK SMILES IDX 25 35 26 36 87 37 27 38 86 39 28 40 29 41 30 42 80 43 31 44
REMARK SMILES IDX 85 45 79 46 81 47 32 48 84 49 78 50 77 51 33 53 65 54 45 55
REMARK SMILES IDX 64 56 46 57 49 58 63 59 82 60 47 61 48 62 62 64 83 65 50 66
REMARK SMILES IDX 34 67 35 68 43 69 36 70 37 71 41 72 44 73 38 74 39 75 42 76
REMARK SMILES IDX 40 77 66 78 67 79 75 80 68 81 69 82 73 83 76 84 70 85 71 86
REMARK SMILES IDX 74 87 72 88 51 89 52 90 60 91 53 92 54 93 58 94 61 95 55 96
REMARK SMILES IDX 56 97 59 98 57 99
REMARK H PARENT 17 6 22 33 81 52 49 63
REMARK Flexibility Score: inf
ROOT
ATOM      1  C   UNL A   1      31.728  28.934  23.640  1.00  0.00     0.023 C 
ENDROOT
BRANCH   1   2
ATOM      2  C   UNL A   1      33.143  28.890  23.071  1.00  0.00     0.116 C 
BRANCH   2   3
ATOM      3  N   UNL A   1      33.318  27.987  21.948  1.00  0.00    -0.352 N 
ATOM      4  C   UNL A   1      33.088  26.636  21.841  1.00  0.00     0.251 C 
ATOM      5  O   UNL A   1      33.292  26.092  20.758  1.00  0.00    -0.269 OA
ATOM      6  H   UNL A   1      33.658  28.413  21.128  1.00  0.00     0.163 HD
BRANCH   4   7
ATOM      7  C   UNL A   1      32.684  25.811  23.009  1.00  0.00     0.039 A 
ATOM      8  C   UNL A   1      31.928  23.962  24.986  1.00  0.00     0.063 A 
ATOM      9  C   UNL A   1      31.040  24.305  23.963  1.00  0.00     0.029 A 
ATOM     10  C   UNL A   1      33.125  24.670  25.097  1.00  0.00     0.029 A 
ATOM     11  C   UNL A   1      31.426  25.197  22.961  1.00  0.00     0.016 A 
ATOM     12  C   UNL A   1      33.488  25.616  24.134  1.00  0.00     0.016 A 
BRANCH   8  13
ATOM     13  N   UNL A   1      31.645  22.972  25.935  1.00  0.00    -0.257 NA
ATOM     14  C   UNL A   1      31.888  21.719  25.706  1.00  0.00     0.111 C 
BRANCH  14  15
ATOM     15  C   UNL A   1      32.467  21.065  24.499  1.00  0.00     0.020 C 
ATOM     16  C   UNL A   1      33.770  21.042  24.174  1.00  0.00     0.002 C 
BRANCH  16  17
ATOM     17  C   UNL A   1      34.853  21.746  24.833  1.00  0.00     0.009 C 
ATOM     18  C   UNL A   1      40.110  19.813  25.734  1.00  0.00     0.149 C 
ATOM     19  N   UNL A   1      38.757  20.326  25.525  1.00  0.00    -0.351 N 
ATOM     20  C   UNL A   1      37.740  19.515  25.056  1.00  0.00     0.086 C 
ATOM     21  C   UNL A   1      38.480  21.684  25.857  1.00  0.00     0.048 A 
ATOM     22  C   UNL A   1      36.481  19.908  24.832  1.00  0.00     0.026 C 
ATOM     23  C   UNL A   1      37.162  22.210  25.671  1.00  0.00     0.005 A 
ATOM     24  C   UNL A   1      39.474  22.543  26.369  1.00  0.00     0.027 A 
ATOM     25  C   UNL A   1      36.102  21.296  25.092  1.00  0.00    -0.015 C 
ATOM     26  C   UNL A   1      36.914  23.556  26.013  1.00  0.00     0.011 A 
ATOM     27  C   UNL A   1      39.201  23.874  26.688  1.00  0.00     0.002 A 
ATOM     28  C   UNL A   1      37.924  24.379  26.512  1.00  0.00     0.001 A 
ENDBRANCH  16  17
ENDBRANCH  14  15
ENDBRANCH   8  13
ENDBRANCH   4   7
ENDBRANCH   2   3
ENDBRANCH   1   2
BRANCH   1  29
ATOM     29  C   UNL A   1      31.602  29.078  25.152  1.00  0.00     0.023 C 
BRANCH  29  30
ATOM     30  C   UNL A   1      32.797  29.688  25.871  1.00  0.00     0.116 C 
BRANCH  30  31
ATOM     31  N   UNL A   1      32.549  31.017  26.412  1.00  0.00    -0.352 N 
ATOM     32  C   UNL A   1      33.316  31.790  27.257  1.00  0.00     0.251 C 
ATOM     33  H   UNL A   1      31.699  31.427  26.131  1.00  0.00     0.163 HD
ATOM     34  O   UNL A   1      32.894  32.867  27.659  1.00  0.00    -0.269 OA
BRANCH  32  35
ATOM     35  C   UNL A   1      34.626  31.290  27.730  1.00  0.00     0.039 A 
ATOM     36  C   UNL A   1      34.820  29.937  28.008  1.00  0.00     0.014 A 
ATOM     37  C   UNL A   1      35.659  32.205  27.957  1.00  0.00     0.014 A 
ATOM     38  C   UNL A   1      35.943  29.541  28.723  1.00  0.00     0.010 A 
ATOM     39  C   UNL A   1      36.835  31.784  28.584  1.00  0.00     0.010 A 
ATOM     40  C   UNL A   1      36.955  30.463  29.042  1.00  0.00    -0.014 A 
BRANCH  40  41
ATOM     41  C   UNL A   1      38.096  30.027  29.892  1.00  0.00     0.031 A 
ATOM     42  C   UNL A   1      39.206  29.185  29.318  1.00  0.00     0.074 A 
ATOM     43  C   UNL A   1      38.179  30.469  31.162  1.00  0.00     0.049 A 
ATOM     44  N   UNL A   1      40.299  28.752  29.897  1.00  0.00    -0.248 NA
ATOM     45  C   UNL A   1      39.076  28.770  27.912  1.00  0.00     0.031 C 
ATOM     46  C   UNL A   1      37.179  31.304  31.828  1.00  0.00     0.029 A 
ATOM     47  N   UNL A   1      39.164  30.313  32.105  1.00  0.00    -0.354 N 
ATOM     48  C   UNL A   1      40.969  28.001  28.940  1.00  0.00     0.074 A 
ATOM     49  C   UNL A   1      40.151  28.011  27.747  1.00  0.00     0.031 C 
ATOM     50  C   UNL A   1      37.633  31.647  33.043  1.00  0.00     0.029 A 
ATOM     51  C   UNL A   1      38.924  31.005  33.267  1.00  0.00     0.049 A 
ATOM     52  H   UNL A   1      39.965  29.758  31.962  1.00  0.00     0.167 HD
ATOM     53  C   UNL A   1      42.164  27.372  29.041  1.00  0.00     0.037 A 
ATOM     54  C   UNL A   1      39.658  31.110  34.390  1.00  0.00     0.037 A 
ATOM     55  C   UNL A   1      42.999  27.392  30.214  1.00  0.00     0.049 A 
ATOM     56  C   UNL A   1      40.966  30.378  34.485  1.00  0.00     0.074 A 
ATOM     57  C   UNL A   1      44.236  26.801  30.402  1.00  0.00     0.029 A 
ATOM     58  N   UNL A   1      42.685  28.048  31.395  1.00  0.00    -0.354 N 
ATOM     59  N   UNL A   1      41.578  29.661  33.576  1.00  0.00    -0.248 NA
ATOM     60  C   UNL A   1      41.676  30.458  35.769  1.00  0.00     0.031 C 
ATOM     61  C   UNL A   1      44.657  27.069  31.709  1.00  0.00     0.029 A 
ATOM     62  C   UNL A   1      43.699  27.860  32.322  1.00  0.00     0.049 A 
ATOM     63  H   UNL A   1      41.865  28.569  31.552  1.00  0.00     0.167 HD
ATOM     64  C   UNL A   1      42.743  29.205  34.172  1.00  0.00     0.074 A 
ATOM     65  C   UNL A   1      42.767  29.748  35.516  1.00  0.00     0.031 C 
ATOM     66  C   UNL A   1      43.703  28.400  33.656  1.00  0.00     0.037 A 
BRANCH  53  67
ATOM     67  C   UNL A   1      42.655  26.598  27.853  1.00  0.00     0.064 A 
ATOM     68  C   UNL A   1      43.406  27.210  26.839  1.00  0.00     0.173 A 
ATOM     69  C   UNL A   1      42.435  25.216  27.765  1.00  0.00     0.173 A 
ATOM     70  F   UNL A   1      43.634  28.531  26.871  1.00  0.00    -0.203 F 
ATOM     71  C   UNL A   1      43.912  26.466  25.776  1.00  0.00     0.198 A 
ATOM     72  C   UNL A   1      42.961  24.471  26.714  1.00  0.00     0.198 A 
ATOM     73  F   UNL A   1      41.728  24.583  28.714  1.00  0.00    -0.203 F 
ATOM     74  F   UNL A   1      44.605  27.074  24.804  1.00  0.00    -0.200 F 
ATOM     75  C   UNL A   1      43.696  25.096  25.719  1.00  0.00     0.200 A 
ATOM     76  F   UNL A   1      42.762  23.146  26.665  1.00  0.00    -0.200 F 
ATOM     77  F   UNL A   1      44.197  24.380  24.702  1.00  0.00    -0.200 F 
ENDBRANCH  53  67
BRANCH  54  78
ATOM     78  C   UNL A   1      39.164  31.950  35.509  1.00  0.00     0.064 A 
ATOM     79  C   UNL A   1      38.361  31.402  36.517  1.00  0.00     0.173 A 
ATOM     80  C   UNL A   1      39.514  33.304  35.614  1.00  0.00     0.173 A 
ATOM     81  F   UNL A   1      37.983  30.117  36.449  1.00  0.00    -0.203 F 
ATOM     82  C   UNL A   1      37.924  32.178  37.589  1.00  0.00     0.198 A 
ATOM     83  C   UNL A   1      39.100  34.071  36.699  1.00  0.00     0.198 A 
ATOM     84  F   UNL A   1      40.284  33.873  34.674  1.00  0.00    -0.203 F 
ATOM     85  F   UNL A   1      37.136  31.637  38.528  1.00  0.00    -0.200 F 
ATOM     86  C   UNL A   1      38.303  33.509  37.684  1.00  0.00     0.200 A 
ATOM     87  F   UNL A   1      39.481  35.352  36.795  1.00  0.00    -0.200 F 
ATOM     88  F   UNL A   1      37.897  34.250  38.724  1.00  0.00    -0.200 F 
ENDBRANCH  54  78
BRANCH  66  89
ATOM     89  C   UNL A   1      44.860  28.053  34.542  1.00  0.00     0.064 A 
ATOM     90  C   UNL A   1      45.986  28.885  34.626  1.00  0.00     0.173 A 
ATOM     91  C   UNL A   1      44.819  26.913  35.357  1.00  0.00     0.173 A 
ATOM     92  F   UNL A   1      46.075  29.978  33.855  1.00  0.00    -0.203 F 
ATOM     93  C   UNL A   1      47.035  28.581  35.488  1.00  0.00     0.198 A 
ATOM     94  C   UNL A   1      45.859  26.624  36.235  1.00  0.00     0.198 A 
ATOM     95  F   UNL A   1      43.760  26.090  35.316  1.00  0.00    -0.203 F 
ATOM     96  F   UNL A   1      48.114  29.374  35.533  1.00  0.00    -0.200 F 
ATOM     97  C   UNL A   1      46.968  27.457  36.298  1.00  0.00     0.200 A 
ATOM     98  F   UNL A   1      45.789  25.543  37.025  1.00  0.00    -0.200 F 
ATOM     99  F   UNL A   1      47.974  27.171  37.136  1.00  0.00    -0.200 F 
ENDBRANCH  66  89
ENDBRANCH  40  41
ENDBRANCH  32  35
ENDBRANCH  30  31
ENDBRANCH  29  30
ENDBRANCH   1  29
TORSDOF 14
ENDMDL
MODEL 2
REMARK VINA RESULT:     -13.2      2.058      7.629
REMARK SMILES CN1C=C/C(=C\C=C/C=N\c2ccc(C(=O)NCCCCNC(=O)c3ccc(-c4c5nc(c(-c6c(F)c(F)c(F)c(F)c6F)c6ccc([nH]6)c(-c6c(F)c(F)c(F)c(F)c6F)c6nc(c(-c7c(F)c(F)c(F)c(F)c7F)c7ccc4[nH]7)C=C6)C=C5)cc3)cc2)c2ccccc21
REMARK SMILES IDX 19 1 18 2 17 3 15 4 16 5 14 7 11 8 12 9 89 10 13 11 88 12
REMARK SMILES IDX 10 13 9 14 8 15 7 16 6 17 1 18 2 19 3 20 95 21 4 22 90 23
REMARK SMILES IDX 94 24 5 25 91 26 93 27 92 28 20 29 21 30 22 31 23 32 24 34
REMARK SMILES IDX 25 35 26 36 87 37 27 38 86 39 28 40 29 41 30 42 80 43 31 44
REMARK SMILES IDX 85 45 79 46 81 47 32 48 84 49 78 50 77 51 33 53 65 54 45 55
REMARK SMILES IDX 64 56 46 57 49 58 63 59 82 60 47 61 48 62 62 64 83 65 50 66
REMARK SMILES IDX 34 67 35 68 43 69 36 70 37 71 41 72 44 73 38 74 39 75 42 76
REMARK SMILES IDX 40 77 66 78 67 79 75 80 68 81 69 82 73 83 76 84 70 85 71 86
REMARK SMILES IDX 74 87 72 88 51 89 52 90 60 91 53 92 54 93 58 94 61 95 55 96
REMARK SMILES IDX 56 97 59 98 57 99
REMARK H PARENT 17 6 22 33 81 52 49 63
REMARK Flexibility Score: inf
ROOT
ATOM      1  C   UNL A   1      32.221  30.420  27.100  1.00  0.00     0.023 C 
ENDROOT
BRANCH   1   2
ATOM      2  C   UNL A   1      33.662  30.004  26.823  1.00  0.00     0.116 C 
BRANCH   2   3
ATOM      3  N   UNL A   1      33.928  29.614  25.450  1.00  0.00    -0.352 N 
ATOM      4  C   UNL A   1      33.651  28.445  24.782  1.00  0.00     0.251 C 
ATOM      5  O   UNL A   1      33.957  28.365  23.594  1.00  0.00    -0.269 OA
ATOM      6  H   UNL A   1      34.380  30.301  24.908  1.00  0.00     0.163 HD
BRANCH   4   7
ATOM      7  C   UNL A   1      33.077  27.261  25.471  1.00  0.00     0.039 A 
ATOM      8  C   UNL A   1      31.799  24.963  26.464  1.00  0.00     0.063 A 
ATOM      9  C   UNL A   1      31.076  26.142  26.263  1.00  0.00     0.029 A 
ATOM     10  C   UNL A   1      33.186  24.996  26.315  1.00  0.00     0.029 A 
ATOM     11  C   UNL A   1      31.702  27.274  25.738  1.00  0.00     0.016 A 
ATOM     12  C   UNL A   1      33.829  26.149  25.856  1.00  0.00     0.016 A 
BRANCH   8  13
ATOM     13  N   UNL A   1      31.196  23.761  26.855  1.00  0.00    -0.257 NA
ATOM     14  C   UNL A   1      30.730  22.917  25.988  1.00  0.00     0.111 C 
BRANCH  14  15
ATOM     15  C   UNL A   1      30.709  22.993  24.500  1.00  0.00     0.020 C 
ATOM     16  C   UNL A   1      31.702  22.602  23.685  1.00  0.00     0.002 C 
BRANCH  16  17
ATOM     17  C   UNL A   1      33.030  22.160  24.067  1.00  0.00     0.009 C 
ATOM     18  C   UNL A   1      34.757  16.800  24.762  1.00  0.00     0.149 C 
ATOM     19  N   UNL A   1      34.330  18.190  24.602  1.00  0.00    -0.351 N 
ATOM     20  C   UNL A   1      33.000  18.521  24.420  1.00  0.00     0.086 C 
ATOM     21  C   UNL A   1      35.310  19.221  24.681  1.00  0.00     0.048 A 
ATOM     22  C   UNL A   1      32.530  19.763  24.260  1.00  0.00     0.026 C 
ATOM     23  C   UNL A   1      34.919  20.590  24.538  1.00  0.00     0.005 A 
ATOM     24  C   UNL A   1      36.674  18.938  24.898  1.00  0.00     0.027 A 
ATOM     25  C   UNL A   1      33.458  20.893  24.274  1.00  0.00    -0.015 C 
ATOM     26  C   UNL A   1      35.908  21.592  24.626  1.00  0.00     0.011 A 
ATOM     27  C   UNL A   1      37.633  19.950  24.969  1.00  0.00     0.002 A 
ATOM     28  C   UNL A   1      37.249  21.274  24.835  1.00  0.00     0.001 A 
ENDBRANCH  16  17
ENDBRANCH  14  15
ENDBRANCH   8  13
ENDBRANCH   4   7
ENDBRANCH   2   3
ENDBRANCH   1   2
BRANCH   1  29
ATOM     29  C   UNL A   1      31.891  31.900  26.937  1.00  0.00     0.023 C 
BRANCH  29  30
ATOM     30  C   UNL A   1      32.992  32.879  27.320  1.00  0.00     0.116 C 
BRANCH  30  31
ATOM     31  N   UNL A   1      32.504  34.186  27.740  1.00  0.00    -0.352 N 
ATOM     32  C   UNL A   1      32.988  35.049  28.699  1.00  0.00     0.251 C 
ATOM     33  H   UNL A   1      31.702  34.501  27.263  1.00  0.00     0.163 HD
ATOM     34  O   UNL A   1      32.385  36.085  28.955  1.00  0.00    -0.269 OA
BRANCH  32  35
ATOM     35  C   UNL A   1      34.203  34.695  29.465  1.00  0.00     0.039 A 
ATOM     36  C   UNL A   1      35.473  34.861  28.913  1.00  0.00     0.014 A 
ATOM     37  C   UNL A   1      34.062  34.130  30.736  1.00  0.00     0.014 A 
ATOM     38  C   UNL A   1      36.566  34.254  29.519  1.00  0.00     0.010 A 
ATOM     39  C   UNL A   1      35.181  33.610  31.394  1.00  0.00     0.010 A 
ATOM     40  C   UNL A   1      36.431  33.600  30.757  1.00  0.00    -0.014 A 
BRANCH  40  41
ATOM     41  C   UNL A   1      37.599  32.878  31.330  1.00  0.00     0.031 A 
ATOM     42  C   UNL A   1      38.078  33.177  32.727  1.00  0.00     0.074 A 
ATOM     43  C   UNL A   1      38.172  31.885  30.623  1.00  0.00     0.049 A 
ATOM     44  N   UNL A   1      39.049  32.615  33.405  1.00  0.00    -0.248 NA
ATOM     45  C   UNL A   1      37.383  34.245  33.462  1.00  0.00     0.031 C 
ATOM     46  C   UNL A   1      37.787  31.488  29.269  1.00  0.00     0.029 A 
ATOM     47  N   UNL A   1      39.169  31.003  30.959  1.00  0.00    -0.354 N 
ATOM     48  C   UNL A   1      39.094  33.273  34.628  1.00  0.00     0.074 A 
ATOM     49  C   UNL A   1      38.072  34.296  34.595  1.00  0.00     0.031 C 
ATOM     50  C   UNL A   1      38.486  30.399  28.916  1.00  0.00     0.029 A 
ATOM     51  C   UNL A   1      39.413  30.060  29.991  1.00  0.00     0.049 A 
ATOM     52  H   UNL A   1      39.661  31.044  31.810  1.00  0.00     0.167 HD
ATOM     53  C   UNL A   1      39.904  33.037  35.687  1.00  0.00     0.037 A 
ATOM     54  C   UNL A   1      40.287  29.036  29.968  1.00  0.00     0.037 A 
ATOM     55  C   UNL A   1      40.896  31.995  35.738  1.00  0.00     0.049 A 
ATOM     56  C   UNL A   1      41.193  28.815  31.145  1.00  0.00     0.074 A 
ATOM     57  C   UNL A   1      41.749  31.667  36.778  1.00  0.00     0.029 A 
ATOM     58  N   UNL A   1      41.159  31.104  34.708  1.00  0.00    -0.354 N 
ATOM     59  N   UNL A   1      41.232  29.456  32.287  1.00  0.00    -0.248 NA
ATOM     60  C   UNL A   1      42.187  27.740  31.022  1.00  0.00     0.031 C 
ATOM     61  C   UNL A   1      42.554  30.600  36.365  1.00  0.00     0.029 A 
ATOM     62  C   UNL A   1      42.175  30.238  35.082  1.00  0.00     0.049 A 
ATOM     63  H   UNL A   1      40.695  31.090  33.840  1.00  0.00     0.167 HD
ATOM     64  C   UNL A   1      42.249  28.864  33.020  1.00  0.00     0.074 A 
ATOM     65  C   UNL A   1      42.787  27.795  32.203  1.00  0.00     0.031 C 
ATOM     66  C   UNL A   1      42.704  29.185  34.256  1.00  0.00     0.037 A 
BRANCH  53  67
ATOM     67  C   UNL A   1      39.763  33.921  36.891  1.00  0.00     0.064 A 
ATOM     68  C   UNL A   1      40.375  35.181  36.951  1.00  0.00     0.173 A 
ATOM     69  C   UNL A   1      38.947  33.535  37.965  1.00  0.00     0.173 A 
ATOM     70  F   UNL A   1      41.175  35.591  35.956  1.00  0.00    -0.203 F 
ATOM     71  C   UNL A   1      40.182  36.019  38.047  1.00  0.00     0.198 A 
ATOM     72  C   UNL A   1      38.737  34.384  39.048  1.00  0.00     0.198 A 
ATOM     73  F   UNL A   1      38.334  32.341  37.952  1.00  0.00    -0.203 F 
ATOM     74  F   UNL A   1      40.797  37.208  38.096  1.00  0.00    -0.200 F 
ATOM     75  C   UNL A   1      39.356  35.623  39.090  1.00  0.00     0.200 A 
ATOM     76  F   UNL A   1      37.930  34.006  40.049  1.00  0.00    -0.200 F 
ATOM     77  F   UNL A   1      39.159  36.438  40.136  1.00  0.00    -0.200 F 
ENDBRANCH  53  67
BRANCH  54  78
ATOM     78  C   UNL A   1      40.335  28.143  28.784  1.00  0.00     0.064 A 
ATOM     79  C   UNL A   1      41.086  28.491  27.653  1.00  0.00     0.173 A 
ATOM     80  C   UNL A   1      39.664  26.912  28.771  1.00  0.00     0.173 A 
ATOM     81  F   UNL A   1      41.727  29.668  27.611  1.00  0.00    -0.203 F 
ATOM     82  C   UNL A   1      41.163  27.639  26.553  1.00  0.00     0.198 A 
ATOM     83  C   UNL A   1      39.764  26.050  27.683  1.00  0.00     0.198 A 
ATOM     84  F   UNL A   1      38.935  26.534  29.832  1.00  0.00    -0.203 F 
ATOM     85  F   UNL A   1      41.867  28.005  25.473  1.00  0.00    -0.200 F 
ATOM     86  C   UNL A   1      40.510  26.416  26.573  1.00  0.00     0.200 A 
ATOM     87  F   UNL A   1      39.145  24.862  27.712  1.00  0.00    -0.200 F 
ATOM     88  F   UNL A   1      40.599  25.590  25.521  1.00  0.00    -0.200 F 
ENDBRANCH  54  78
BRANCH  66  89
ATOM     89  C   UNL A   1      43.839  28.375  34.804  1.00  0.00     0.064 A 
ATOM     90  C   UNL A   1      43.608  27.180  35.499  1.00  0.00     0.173 A 
ATOM     91  C   UNL A   1      45.167  28.765  34.580  1.00  0.00     0.173 A 
ATOM     92  F   UNL A   1      42.354  26.775  35.748  1.00  0.00    -0.203 F 
ATOM     93  C   UNL A   1      44.670  26.408  35.962  1.00  0.00     0.198 A 
ATOM     94  C   UNL A   1      46.226  27.979  35.025  1.00  0.00     0.198 A 
ATOM     95  F   UNL A   1      45.437  29.898  33.915  1.00  0.00    -0.203 F 
ATOM     96  F   UNL A   1      44.428  25.283  36.649  1.00  0.00    -0.200 F 
ATOM     97  C   UNL A   1      45.977  26.803  35.718  1.00  0.00     0.200 A 
ATOM     98  F   UNL A   1      47.489  28.356  34.779  1.00  0.00    -0.200 F 
ATOM     99  F   UNL A   1      46.998  26.053  36.155  1.00  0.00    -0.200 F 
ENDBRANCH  66  89
ENDBRANCH  40  41
ENDBRANCH  32  35
ENDBRANCH  30  31
ENDBRANCH  29  30
ENDBRANCH   1  29
TORSDOF 14
ENDMDL
MODEL 3
REMARK VINA RESULT:     -13.2      2.070      3.272
REMARK SMILES CN1C=C/C(=C\C=C/C=N\c2ccc(C(=O)NCCCCNC(=O)c3ccc(-c4c5nc(c(-c6c(F)c(F)c(F)c(F)c6F)c6ccc([nH]6)c(-c6c(F)c(F)c(F)c(F)c6F)c6nc(c(-c7c(F)c(F)c(F)c(F)c7F)c7ccc4[nH]7)C=C6)C=C5)cc3)cc2)c2ccccc21
REMARK SMILES IDX 19 1 18 2 17 3 15 4 16 5 14 7 11 8 12 9 89 10 13 11 88 12
REMARK SMILES IDX 10 13 9 14 8 15 7 16 6 17 1 18 2 19 3 20 95 21 4 22 90 23
REMARK SMILES IDX 94 24 5 25 91 26 93 27 92 28 20 29 21 30 22 31 23 32 24 34
REMARK SMILES IDX 25 35 26 36 87 37 27 38 86 39 28 40 29 41 30 42 80 43 31 44
REMARK SMILES IDX 85 45 79 46 81 47 32 48 84 49 78 50 77 51 33 53 65 54 45 55
REMARK SMILES IDX 64 56 46 57 49 58 63 59 82 60 47 61 48 62 62 64 83 65 50 66
REMARK SMILES IDX 34 67 35 68 43 69 36 70 37 71 41 72 44 73 38 74 39 75 42 76
REMARK SMILES IDX 40 77 66 78 67 79 75 80 68 81 69 82 73 83 76 84 70 85 71 86
REMARK SMILES IDX 74 87 72 88 51 89 52 90 60 91 53 92 54 93 58 94 61 95 55 96
REMARK SMILES IDX 56 97 59 98 57 99
REMARK H PARENT 17 6 22 33 81 52 49 63
REMARK Flexibility Score: inf
ROOT
ATOM      1  C   UNL A   1      32.143  30.503  27.000  1.00  0.00     0.023 C 
ENDROOT
BRANCH   1   2
ATOM      2  C   UNL A   1      33.577  30.080  26.696  1.00  0.00     0.116 C 
BRANCH   2   3
ATOM      3  N   UNL A   1      33.808  29.659  25.326  1.00  0.00    -0.352 N 
ATOM      4  C   UNL A   1      33.532  28.469  24.696  1.00  0.00     0.251 C 
ATOM      5  O   UNL A   1      33.804  28.364  23.501  1.00  0.00    -0.269 OA
ATOM      6  H   UNL A   1      34.233  30.340  24.754  1.00  0.00     0.163 HD
BRANCH   4   7
ATOM      7  C   UNL A   1      33.000  27.293  25.431  1.00  0.00     0.039 A 
ATOM      8  C   UNL A   1      31.799  24.995  26.515  1.00  0.00     0.063 A 
ATOM      9  C   UNL A   1      31.040  26.143  26.279  1.00  0.00     0.029 A 
ATOM     10  C   UNL A   1      33.184  25.064  26.354  1.00  0.00     0.029 A 
ATOM     11  C   UNL A   1      31.627  27.275  25.709  1.00  0.00     0.016 A 
ATOM     12  C   UNL A   1      33.788  26.219  25.849  1.00  0.00     0.016 A 
BRANCH   8  13
ATOM     13  N   UNL A   1      31.236  23.790  26.954  1.00  0.00    -0.257 NA
ATOM     14  C   UNL A   1      30.771  22.912  26.121  1.00  0.00     0.111 C 
BRANCH  14  15
ATOM     15  C   UNL A   1      30.712  22.946  24.632  1.00  0.00     0.020 C 
ATOM     16  C   UNL A   1      31.679  22.523  23.804  1.00  0.00     0.002 C 
BRANCH  16  17
ATOM     17  C   UNL A   1      33.013  22.079  24.164  1.00  0.00     0.009 C 
ATOM     18  C   UNL A   1      34.776  16.714  24.705  1.00  0.00     0.149 C 
ATOM     19  N   UNL A   1      34.340  18.104  24.585  1.00  0.00    -0.351 N 
ATOM     20  C   UNL A   1      33.007  18.432  24.422  1.00  0.00     0.086 C 
ATOM     21  C   UNL A   1      35.314  19.139  24.683  1.00  0.00     0.048 A 
ATOM     22  C   UNL A   1      32.528  19.675  24.299  1.00  0.00     0.026 C 
ATOM     23  C   UNL A   1      34.914  20.509  24.578  1.00  0.00     0.005 A 
ATOM     24  C   UNL A   1      36.682  18.859  24.881  1.00  0.00     0.027 A 
ATOM     25  C   UNL A   1      33.449  20.810  24.334  1.00  0.00    -0.015 C 
ATOM     26  C   UNL A   1      35.898  21.514  24.684  1.00  0.00     0.011 A 
ATOM     27  C   UNL A   1      37.635  19.875  24.971  1.00  0.00     0.002 A 
ATOM     28  C   UNL A   1      37.243  21.199  24.874  1.00  0.00     0.001 A 
ENDBRANCH  16  17
ENDBRANCH  14  15
ENDBRANCH   8  13
ENDBRANCH   4   7
ENDBRANCH   2   3
ENDBRANCH   1   2
BRANCH   1  29
ATOM     29  C   UNL A   1      31.841  31.995  26.933  1.00  0.00     0.023 C 
BRANCH  29  30
ATOM     30  C   UNL A   1      32.977  32.930  27.328  1.00  0.00     0.116 C 
BRANCH  30  31
ATOM     31  N   UNL A   1      32.540  34.266  27.708  1.00  0.00    -0.352 N 
ATOM     32  C   UNL A   1      33.014  35.109  28.690  1.00  0.00     0.251 C 
ATOM     33  H   UNL A   1      31.789  34.622  27.181  1.00  0.00     0.163 HD
ATOM     34  O   UNL A   1      32.458  36.180  28.902  1.00  0.00    -0.269 OA
BRANCH  32  35
ATOM     35  C   UNL A   1      34.157  34.692  29.533  1.00  0.00     0.039 A 
ATOM     36  C   UNL A   1      35.457  34.696  29.031  1.00  0.00     0.014 A 
ATOM     37  C   UNL A   1      33.909  34.231  30.830  1.00  0.00     0.014 A 
ATOM     38  C   UNL A   1      36.460  34.029  29.725  1.00  0.00     0.010 A 
ATOM     39  C   UNL A   1      34.943  33.652  31.571  1.00  0.00     0.010 A 
ATOM     40  C   UNL A   1      36.211  33.477  30.994  1.00  0.00    -0.014 A 
BRANCH  40  41
ATOM     41  C   UNL A   1      37.277  32.687  31.666  1.00  0.00     0.031 A 
ATOM     42  C   UNL A   1      37.987  31.576  30.937  1.00  0.00     0.074 A 
ATOM     43  C   UNL A   1      37.672  33.033  32.907  1.00  0.00     0.049 A 
ATOM     44  N   UNL A   1      38.971  30.814  31.348  1.00  0.00    -0.248 NA
ATOM     45  C   UNL A   1      37.537  31.274  29.569  1.00  0.00     0.031 C 
ATOM     46  C   UNL A   1      37.077  34.101  33.710  1.00  0.00     0.029 A 
ATOM     47  N   UNL A   1      38.689  32.552  33.692  1.00  0.00    -0.354 N 
ATOM     48  C   UNL A   1      39.238  29.935  30.306  1.00  0.00     0.074 A 
ATOM     49  C   UNL A   1      38.298  30.237  29.248  1.00  0.00     0.031 C 
ATOM     50  C   UNL A   1      37.783  34.245  34.841  1.00  0.00     0.029 A 
ATOM     51  C   UNL A   1      38.839  33.238  34.873  1.00  0.00     0.049 A 
ATOM     52  H   UNL A   1      39.257  31.790  33.435  1.00  0.00     0.167 HD
ATOM     53  C   UNL A   1      40.190  28.975  30.231  1.00  0.00     0.037 A 
ATOM     54  C   UNL A   1      39.725  33.073  35.873  1.00  0.00     0.037 A 
ATOM     55  C   UNL A   1      41.152  28.698  31.265  1.00  0.00     0.049 A 
ATOM     56  C   UNL A   1      40.751  31.982  35.776  1.00  0.00     0.074 A 
ATOM     57  C   UNL A   1      42.167  27.757  31.269  1.00  0.00     0.029 A 
ATOM     58  N   UNL A   1      41.224  29.370  32.476  1.00  0.00    -0.354 N 
ATOM     59  N   UNL A   1      40.981  31.152  34.789  1.00  0.00    -0.248 NA
ATOM     60  C   UNL A   1      41.630  31.794  36.939  1.00  0.00     0.031 C 
ATOM     61  C   UNL A   1      42.833  27.835  32.497  1.00  0.00     0.029 A 
ATOM     62  C   UNL A   1      42.257  28.851  33.242  1.00  0.00     0.049 A 
ATOM     63  H   UNL A   1      40.630  30.105  32.751  1.00  0.00     0.167 HD
ATOM     64  C   UNL A   1      42.028  30.345  35.207  1.00  0.00     0.074 A 
ATOM     65  C   UNL A   1      42.408  30.802  36.529  1.00  0.00     0.031 C 
ATOM     66  C   UNL A   1      42.616  29.311  34.558  1.00  0.00     0.037 A 
BRANCH  53  67
ATOM     67  C   UNL A   1      40.248  28.138  28.987  1.00  0.00     0.064 A 
ATOM     68  C   UNL A   1      41.013  28.525  27.877  1.00  0.00     0.173 A 
ATOM     69  C   UNL A   1      39.591  26.899  28.932  1.00  0.00     0.173 A 
ATOM     70  F   UNL A   1      41.650  29.705  27.876  1.00  0.00    -0.203 F 
ATOM     71  C   UNL A   1      41.111  27.706  26.755  1.00  0.00     0.198 A 
ATOM     72  C   UNL A   1      39.709  26.073  27.818  1.00  0.00     0.198 A 
ATOM     73  F   UNL A   1      38.851  26.481  29.971  1.00  0.00    -0.203 F 
ATOM     74  F   UNL A   1      41.826  28.107  25.695  1.00  0.00    -0.200 F 
ATOM     75  C   UNL A   1      40.466  26.477  26.730  1.00  0.00     0.200 A 
ATOM     76  F   UNL A   1      39.096  24.881  27.800  1.00  0.00    -0.200 F 
ATOM     77  F   UNL A   1      40.574  25.684  25.654  1.00  0.00    -0.200 F 
ENDBRANCH  53  67
BRANCH  54  78
ATOM     78  C   UNL A   1      39.674  33.977  37.050  1.00  0.00     0.064 A 
ATOM     79  C   UNL A   1      40.350  35.204  37.041  1.00  0.00     0.173 A 
ATOM     80  C   UNL A   1      38.922  33.652  38.188  1.00  0.00     0.173 A 
ATOM     81  F   UNL A   1      41.099  35.549  35.983  1.00  0.00    -0.203 F 
ATOM     82  C   UNL A   1      40.276  36.072  38.129  1.00  0.00     0.198 A 
ATOM     83  C   UNL A   1      38.827  34.532  39.262  1.00  0.00     0.198 A 
ATOM     84  F   UNL A   1      38.256  32.489  38.241  1.00  0.00    -0.203 F 
ATOM     85  F   UNL A   1      40.952  37.229  38.106  1.00  0.00    -0.200 F 
ATOM     86  C   UNL A   1      39.507  35.740  39.233  1.00  0.00     0.200 A 
ATOM     87  F   UNL A   1      38.070  34.214  40.321  1.00  0.00    -0.200 F 
ATOM     88  F   UNL A   1      39.422  36.583  40.272  1.00  0.00    -0.200 F 
ENDBRANCH  54  78
BRANCH  66  89
ATOM     89  C   UNL A   1      43.730  28.599  35.262  1.00  0.00     0.064 A 
ATOM     90  C   UNL A   1      45.061  29.014  35.119  1.00  0.00     0.173 A 
ATOM     91  C   UNL A   1      43.459  27.534  36.133  1.00  0.00     0.173 A 
ATOM     92  F   UNL A   1      45.369  30.019  34.287  1.00  0.00    -0.203 F 
ATOM     93  C   UNL A   1      46.085  28.379  35.816  1.00  0.00     0.198 A 
ATOM     94  C   UNL A   1      44.482  26.915  36.845  1.00  0.00     0.198 A 
ATOM     95  F   UNL A   1      42.200  27.106  36.306  1.00  0.00    -0.203 F 
ATOM     96  F   UNL A   1      47.355  28.772  35.644  1.00  0.00    -0.200 F 
ATOM     97  C   UNL A   1      45.794  27.336  36.684  1.00  0.00     0.200 A 
ATOM     98  F   UNL A   1      44.199  25.916  37.692  1.00  0.00    -0.200 F 
ATOM     99  F   UNL A   1      46.780  26.733  37.362  1.00  0.00    -0.200 F 
ENDBRANCH  66  89
ENDBRANCH  40  41
ENDBRANCH  32  35
ENDBRANCH  30  31
ENDBRANCH  29  30
ENDBRANCH   1  29
TORSDOF 14
ENDMDL
