MODEL 1
REMARK VINA RESULT:     -12.9      0.000      0.000
REMARK SMILES O=C(NCCCCNC(=O)c1cc(-c2cc(Cl)ccc2Cl)cc([N+](=O)[O-])c1)c1ccc(-c2c3nc(c(-c4c(F)c(F)c(F)c(F)c4F)c4ccc([nH]4)c(-c4c(F)c(F)c(F)c(F)c4F)c4nc(c(-c5c(F)c(F)c(F)c(F)c5F)c5ccc2[nH]5)C=C4)C=C3)cc1
REMARK SMILES IDX 5 1 4 2 3 3 1 4 2 5 28 7 29 8 90 9 30 10 89 11 31 12 32 13
REMARK SMILES IDX 33 14 83 15 34 16 88 17 82 18 84 19 35 20 87 21 81 22 80 23
REMARK SMILES IDX 36 25 68 26 48 27 67 28 49 29 52 30 66 31 85 32 50 33 51 34
REMARK SMILES IDX 65 36 86 37 53 38 37 39 38 40 46 41 39 42 40 43 44 44 47 45
REMARK SMILES IDX 41 46 42 47 45 48 43 49 69 50 70 51 78 52 71 53 72 54 76 55
REMARK SMILES IDX 79 56 73 57 74 58 77 59 75 60 54 61 55 62 63 63 56 64 57 65
REMARK SMILES IDX 61 66 64 67 58 68 59 69 62 70 60 71 6 72 7 73 8 74 9 75
REMARK SMILES IDX 10 77 11 78 12 79 27 80 13 81 23 82 22 83 14 84 15 85 20 86
REMARK SMILES IDX 16 87 19 88 21 89 17 90 18 91 24 92 25 93 26 94
REMARK H PARENT 3 6 84 24 52 35 8 76
REMARK Flexibility Score: inf
ROOT
ATOM      1  C   UNL A   1      31.823  28.884  25.238  1.00  0.00     0.023 C 
ENDROOT
BRANCH   1   2
ATOM      2  C   UNL A   1      32.964  29.588  25.957  1.00  0.00     0.116 C 
BRANCH   2   3
ATOM      3  N   UNL A   1      32.636  30.944  26.374  1.00  0.00    -0.352 N 
ATOM      4  O   UNL A   1      32.825  32.856  27.566  1.00  0.00    -0.269 OA
ATOM      5  C   UNL A   1      33.317  31.787  27.224  1.00  0.00     0.251 C 
ATOM      6  H   UNL A   1      31.806  31.313  25.992  1.00  0.00     0.163 HD
BRANCH   5   7
ATOM      7  C   UNL A   1      34.631  31.371  27.758  1.00  0.00     0.039 A 
ATOM      8  C   UNL A   1      34.840  30.054  28.164  1.00  0.00     0.014 A 
ATOM      9  C   UNL A   1      35.644  32.322  27.907  1.00  0.00     0.014 A 
ATOM     10  C   UNL A   1      35.966  29.739  28.910  1.00  0.00     0.010 A 
ATOM     11  C   UNL A   1      36.833  31.969  28.553  1.00  0.00     0.010 A 
ATOM     12  C   UNL A   1      36.982  30.690  29.110  1.00  0.00    -0.014 A 
BRANCH  12  13
ATOM     13  C   UNL A   1      38.192  30.298  29.879  1.00  0.00     0.031 A 
ATOM     14  C   UNL A   1      38.380  30.716  31.313  1.00  0.00     0.074 A 
ATOM     15  C   UNL A   1      39.105  29.507  29.284  1.00  0.00     0.049 A 
ATOM     16  N   UNL A   1      39.351  30.416  32.140  1.00  0.00    -0.248 NA
ATOM     17  C   UNL A   1      37.352  31.592  31.896  1.00  0.00     0.031 C 
ATOM     18  C   UNL A   1      39.037  29.042  27.896  1.00  0.00     0.029 A 
ATOM     19  N   UNL A   1      40.249  28.928  29.770  1.00  0.00    -0.354 N 
ATOM     20  C   UNL A   1      39.069  31.086  33.325  1.00  0.00     0.074 A 
ATOM     21  C   UNL A   1      37.847  31.829  33.104  1.00  0.00     0.031 C 
ATOM     22  C   UNL A   1      40.052  28.201  27.662  1.00  0.00     0.029 A 
ATOM     23  C   UNL A   1      40.885  28.124  28.856  1.00  0.00     0.049 A 
ATOM     24  H   UNL A   1      40.583  29.075  30.684  1.00  0.00     0.167 HD
ATOM     25  C   UNL A   1      39.762  31.073  34.490  1.00  0.00     0.037 A 
ATOM     26  C   UNL A   1      42.022  27.411  28.960  1.00  0.00     0.037 A 
ATOM     27  C   UNL A   1      40.966  30.310  34.709  1.00  0.00     0.049 A 
ATOM     28  C   UNL A   1      42.777  27.436  30.257  1.00  0.00     0.074 A 
ATOM     29  C   UNL A   1      41.715  30.194  35.868  1.00  0.00     0.029 A 
ATOM     30  N   UNL A   1      41.602  29.539  33.747  1.00  0.00    -0.354 N 
ATOM     31  N   UNL A   1      42.476  28.038  31.381  1.00  0.00    -0.248 NA
ATOM     32  C   UNL A   1      44.035  26.679  30.297  1.00  0.00     0.031 C 
ATOM     33  C   UNL A   1      42.835  29.403  35.590  1.00  0.00     0.029 A 
ATOM     34  C   UNL A   1      42.750  28.968  34.277  1.00  0.00     0.049 A 
ATOM     35  H   UNL A   1      41.285  29.415  32.823  1.00  0.00     0.167 HD
ATOM     36  C   UNL A   1      43.490  27.712  32.270  1.00  0.00     0.074 A 
ATOM     37  C   UNL A   1      44.403  26.841  31.560  1.00  0.00     0.031 C 
ATOM     38  C   UNL A   1      43.648  28.098  33.560  1.00  0.00     0.037 A 
BRANCH  25  39
ATOM     39  C   UNL A   1      39.256  31.932  35.617  1.00  0.00     0.064 A 
ATOM     40  C   UNL A   1      38.381  31.436  36.596  1.00  0.00     0.173 A 
ATOM     41  C   UNL A   1      39.693  33.260  35.743  1.00  0.00     0.173 A 
ATOM     42  F   UNL A   1      37.926  30.176  36.520  1.00  0.00    -0.203 F 
ATOM     43  C   UNL A   1      37.940  32.247  37.640  1.00  0.00     0.198 A 
ATOM     44  C   UNL A   1      39.275  34.057  36.807  1.00  0.00     0.198 A 
ATOM     45  F   UNL A   1      40.536  33.784  34.841  1.00  0.00    -0.203 F 
ATOM     46  F   UNL A   1      37.066  31.766  38.536  1.00  0.00    -0.200 F 
ATOM     47  C   UNL A   1      38.393  33.552  37.749  1.00  0.00     0.200 A 
ATOM     48  F   UNL A   1      39.727  35.314  36.918  1.00  0.00    -0.200 F 
ATOM     49  F   UNL A   1      37.974  34.327  38.759  1.00  0.00    -0.200 F 
ENDBRANCH  25  39
BRANCH  26  50
ATOM     50  C   UNL A   1      42.505  26.617  27.802  1.00  0.00     0.064 A 
ATOM     51  C   UNL A   1      43.293  27.205  26.804  1.00  0.00     0.173 A 
ATOM     52  C   UNL A   1      42.193  25.255  27.671  1.00  0.00     0.173 A 
ATOM     53  F   UNL A   1      43.603  28.508  26.876  1.00  0.00    -0.203 F 
ATOM     54  C   UNL A   1      43.734  26.467  25.708  1.00  0.00     0.198 A 
ATOM     55  C   UNL A   1      42.664  24.510  26.593  1.00  0.00     0.198 A 
ATOM     56  F   UNL A   1      41.448  24.643  28.603  1.00  0.00    -0.203 F 
ATOM     57  F   UNL A   1      44.446  27.065  24.743  1.00  0.00    -0.200 F 
ATOM     58  C   UNL A   1      43.425  25.118  25.607  1.00  0.00     0.200 A 
ATOM     59  F   UNL A   1      42.380  23.203  26.511  1.00  0.00    -0.200 F 
ATOM     60  F   UNL A   1      43.856  24.407  24.556  1.00  0.00    -0.200 F 
ENDBRANCH  26  50
BRANCH  38  61
ATOM     61  C   UNL A   1      44.832  27.541  34.299  1.00  0.00     0.064 A 
ATOM     62  C   UNL A   1      46.085  28.172  34.276  1.00  0.00     0.173 A 
ATOM     63  C   UNL A   1      44.705  26.361  35.049  1.00  0.00     0.173 A 
ATOM     64  F   UNL A   1      46.263  29.293  33.561  1.00  0.00    -0.203 F 
ATOM     65  C   UNL A   1      47.176  27.623  34.945  1.00  0.00     0.198 A 
ATOM     66  C   UNL A   1      45.789  25.835  35.746  1.00  0.00     0.198 A 
ATOM     67  F   UNL A   1      43.528  25.721  35.110  1.00  0.00    -0.203 F 
ATOM     68  F   UNL A   1      48.378  28.209  34.855  1.00  0.00    -0.200 F 
ATOM     69  C   UNL A   1      47.026  26.459  35.684  1.00  0.00     0.200 A 
ATOM     70  F   UNL A   1      45.638  24.719  36.471  1.00  0.00    -0.200 F 
ATOM     71  F   UNL A   1      48.076  25.932  36.328  1.00  0.00    -0.200 F 
ENDBRANCH  38  61
ENDBRANCH  12  13
ENDBRANCH   5   7
ENDBRANCH   2   3
ENDBRANCH   1   2
BRANCH   1  72
ATOM     72  C   UNL A   1      31.871  28.970  23.718  1.00  0.00     0.023 C 
BRANCH  72  73
ATOM     73  C   UNL A   1      33.108  28.353  23.079  1.00  0.00     0.116 C 
BRANCH  73  74
ATOM     74  N   UNL A   1      32.792  27.473  21.963  1.00  0.00    -0.352 N 
ATOM     75  C   UNL A   1      32.684  26.105  21.950  1.00  0.00     0.251 C 
ATOM     76  H   UNL A   1      32.634  27.920  21.101  1.00  0.00     0.163 HD
ATOM     77  O   UNL A   1      32.545  25.494  20.896  1.00  0.00    -0.269 OA
BRANCH  75  78
ATOM     78  C   UNL A   1      32.767  25.364  23.225  1.00  0.00     0.047 A 
ATOM     79  C   UNL A   1      33.970  24.732  23.560  1.00  0.00     0.023 A 
ATOM     80  C   UNL A   1      31.671  25.311  24.086  1.00  0.00     0.099 A 
ATOM     81  C   UNL A   1      34.117  24.093  24.802  1.00  0.00    -0.009 A 
ATOM     82  C   UNL A   1      31.832  24.746  25.350  1.00  0.00     0.270 A 
ATOM     83  C   UNL A   1      33.050  24.157  25.718  1.00  0.00     0.094 A 
BRANCH  81  84
ATOM     84  C   UNL A   1      35.347  23.347  25.119  1.00  0.00     0.002 A 
ATOM     85  C   UNL A   1      36.484  24.034  25.589  1.00  0.00     0.030 A 
ATOM     86  C   UNL A   1      35.450  21.950  24.934  1.00  0.00     0.048 A 
ATOM     87  C   UNL A   1      37.671  23.349  25.862  1.00  0.00     0.041 A 
ATOM     88  C   UNL A   1      36.640  21.272  25.220  1.00  0.00     0.023 A 
ATOM     89  Cl  UNL A   1      34.142  21.003  24.306  1.00  0.00    -0.084 Cl
ATOM     90  Cl  UNL A   1      39.049  24.217  26.417  1.00  0.00    -0.084 Cl
ATOM     91  C   UNL A   1      37.752  21.971  25.682  1.00  0.00     0.022 A 
ENDBRANCH  81  84
BRANCH  82  92
ATOM     92  N   UNL A   1      30.724  24.803  26.308  1.00  0.00     0.062 N 
ATOM     93  O   UNL A   1      30.693  23.953  27.208  1.00  0.00    -0.258 OA
ATOM     94  O   UNL A   1      29.900  25.719  26.175  1.00  0.00    -0.258 OA
ENDBRANCH  82  92
ENDBRANCH  75  78
ENDBRANCH  73  74
ENDBRANCH  72  73
ENDBRANCH   1  72
TORSDOF 13
ENDMDL
MODEL 2
REMARK VINA RESULT:     -12.9      4.291      9.600
REMARK SMILES O=C(NCCCCNC(=O)c1cc(-c2cc(Cl)ccc2Cl)cc([N+](=O)[O-])c1)c1ccc(-c2c3nc(c(-c4c(F)c(F)c(F)c(F)c4F)c4ccc([nH]4)c(-c4c(F)c(F)c(F)c(F)c4F)c4nc(c(-c5c(F)c(F)c(F)c(F)c5F)c5ccc2[nH]5)C=C4)C=C3)cc1
REMARK SMILES IDX 5 1 4 2 3 3 1 4 2 5 28 7 29 8 90 9 30 10 89 11 31 12 32 13
REMARK SMILES IDX 33 14 83 15 34 16 88 17 82 18 84 19 35 20 87 21 81 22 80 23
REMARK SMILES IDX 36 25 68 26 48 27 67 28 49 29 52 30 66 31 85 32 50 33 51 34
REMARK SMILES IDX 65 36 86 37 53 38 37 39 38 40 46 41 39 42 40 43 44 44 47 45
REMARK SMILES IDX 41 46 42 47 45 48 43 49 69 50 70 51 78 52 71 53 72 54 76 55
REMARK SMILES IDX 79 56 73 57 74 58 77 59 75 60 54 61 55 62 63 63 56 64 57 65
REMARK SMILES IDX 61 66 64 67 58 68 59 69 62 70 60 71 6 72 7 73 8 74 9 75
REMARK SMILES IDX 10 77 11 78 12 79 27 80 13 81 23 82 22 83 14 84 15 85 20 86
REMARK SMILES IDX 16 87 19 88 21 89 17 90 18 91 24 92 25 93 26 94
REMARK H PARENT 3 6 84 24 52 35 8 76
REMARK Flexibility Score: inf
ROOT
ATOM      1  C   UNL A   1      35.137  21.950  25.388  1.00  0.00     0.023 C 
ENDROOT
BRANCH   1   2
ATOM      2  C   UNL A   1      36.517  22.428  25.816  1.00  0.00     0.116 C 
BRANCH   2   3
ATOM      3  N   UNL A   1      37.533  21.385  25.761  1.00  0.00    -0.352 N 
ATOM      4  O   UNL A   1      39.613  20.504  25.837  1.00  0.00    -0.269 OA
ATOM      5  C   UNL A   1      38.874  21.454  26.065  1.00  0.00     0.251 C 
ATOM      6  H   UNL A   1      37.214  20.502  25.463  1.00  0.00     0.163 HD
BRANCH   5   7
ATOM      7  C   UNL A   1      39.426  22.704  26.630  1.00  0.00     0.039 A 
ATOM      8  C   UNL A   1      38.990  23.941  26.158  1.00  0.00     0.014 A 
ATOM      9  C   UNL A   1      40.430  22.634  27.600  1.00  0.00     0.014 A 
ATOM     10  C   UNL A   1      39.700  25.086  26.489  1.00  0.00     0.010 A 
ATOM     11  C   UNL A   1      41.062  23.807  28.024  1.00  0.00     0.010 A 
ATOM     12  C   UNL A   1      40.741  25.037  27.431  1.00  0.00    -0.014 A 
BRANCH  12  13
ATOM     13  C   UNL A   1      41.447  26.295  27.788  1.00  0.00     0.031 A 
ATOM     14  C   UNL A   1      42.833  26.590  27.280  1.00  0.00     0.074 A 
ATOM     15  C   UNL A   1      40.799  27.206  28.540  1.00  0.00     0.049 A 
ATOM     16  N   UNL A   1      43.567  27.661  27.456  1.00  0.00    -0.248 NA
ATOM     17  C   UNL A   1      43.488  25.545  26.478  1.00  0.00     0.031 C 
ATOM     18  C   UNL A   1      39.455  27.032  29.097  1.00  0.00     0.029 A 
ATOM     19  N   UNL A   1      41.161  28.467  28.940  1.00  0.00    -0.354 N 
ATOM     20  C   UNL A   1      44.774  27.410  26.815  1.00  0.00     0.074 A 
ATOM     21  C   UNL A   1      44.687  26.074  26.266  1.00  0.00     0.031 C 
ATOM     22  C   UNL A   1      39.081  28.164  29.709  1.00  0.00     0.029 A 
ATOM     23  C   UNL A   1      40.184  29.116  29.653  1.00  0.00     0.049 A 
ATOM     24  H   UNL A   1      42.037  28.867  28.737  1.00  0.00     0.167 HD
ATOM     25  C   UNL A   1      45.852  28.224  26.692  1.00  0.00     0.037 A 
ATOM     26  C   UNL A   1      40.176  30.339  30.213  1.00  0.00     0.037 A 
ATOM     27  C   UNL A   1      45.922  29.562  27.222  1.00  0.00     0.049 A 
ATOM     28  C   UNL A   1      41.393  31.207  30.076  1.00  0.00     0.074 A 
ATOM     29  C   UNL A   1      46.950  30.483  27.108  1.00  0.00     0.029 A 
ATOM     30  N   UNL A   1      44.927  30.171  27.973  1.00  0.00    -0.354 N 
ATOM     31  N   UNL A   1      42.510  30.975  29.432  1.00  0.00    -0.248 NA
ATOM     32  C   UNL A   1      41.346  32.512  30.749  1.00  0.00     0.031 C 
ATOM     33  C   UNL A   1      46.603  31.624  27.840  1.00  0.00     0.029 A 
ATOM     34  C   UNL A   1      45.329  31.443  28.354  1.00  0.00     0.049 A 
ATOM     35  H   UNL A   1      44.062  29.761  28.202  1.00  0.00     0.167 HD
ATOM     36  C   UNL A   1      43.288  32.111  29.596  1.00  0.00     0.074 A 
ATOM     37  C   UNL A   1      42.506  33.041  30.384  1.00  0.00     0.031 C 
ATOM     38  C   UNL A   1      44.538  32.362  29.135  1.00  0.00     0.037 A 
BRANCH  25  39
ATOM     39  C   UNL A   1      47.061  27.683  25.978  1.00  0.00     0.064 A 
ATOM     40  C   UNL A   1      47.178  27.719  24.580  1.00  0.00     0.173 A 
ATOM     41  C   UNL A   1      48.140  27.164  26.711  1.00  0.00     0.173 A 
ATOM     42  F   UNL A   1      46.174  28.197  23.830  1.00  0.00    -0.203 F 
ATOM     43  C   UNL A   1      48.317  27.228  23.943  1.00  0.00     0.198 A 
ATOM     44  C   UNL A   1      49.289  26.704  26.072  1.00  0.00     0.198 A 
ATOM     45  F   UNL A   1      48.086  27.114  28.050  1.00  0.00    -0.203 F 
ATOM     46  F   UNL A   1      48.385  27.227  22.604  1.00  0.00    -0.200 F 
ATOM     47  C   UNL A   1      49.373  26.728  24.689  1.00  0.00     0.200 A 
ATOM     48  F   UNL A   1      50.316  26.236  26.797  1.00  0.00    -0.200 F 
ATOM     49  F   UNL A   1      50.470  26.264  24.074  1.00  0.00    -0.200 F 
ENDBRANCH  25  39
BRANCH  26  50
ATOM     50  C   UNL A   1      38.974  30.809  30.949  1.00  0.00     0.064 A 
ATOM     51  C   UNL A   1      37.961  31.521  30.293  1.00  0.00     0.173 A 
ATOM     52  C   UNL A   1      38.811  30.553  32.319  1.00  0.00     0.173 A 
ATOM     53  F   UNL A   1      38.079  31.805  28.987  1.00  0.00    -0.203 F 
ATOM     54  C   UNL A   1      36.841  31.977  30.983  1.00  0.00     0.198 A 
ATOM     55  C   UNL A   1      37.674  30.979  33.000  1.00  0.00     0.198 A 
ATOM     56  F   UNL A   1      39.748  29.869  32.991  1.00  0.00    -0.203 F 
ATOM     57  F   UNL A   1      35.909  32.697  30.342  1.00  0.00    -0.200 F 
ATOM     58  C   UNL A   1      36.694  31.699  32.334  1.00  0.00     0.200 A 
ATOM     59  F   UNL A   1      37.528  30.691  34.300  1.00  0.00    -0.200 F 
ATOM     60  F   UNL A   1      35.612  32.132  32.996  1.00  0.00    -0.200 F 
ENDBRANCH  26  50
BRANCH  38  61
ATOM     61  C   UNL A   1      45.116  33.715  29.432  1.00  0.00     0.064 A 
ATOM     62  C   UNL A   1      44.912  34.813  28.583  1.00  0.00     0.173 A 
ATOM     63  C   UNL A   1      45.880  33.918  30.593  1.00  0.00     0.173 A 
ATOM     64  F   UNL A   1      44.204  34.668  27.452  1.00  0.00    -0.203 F 
ATOM     65  C   UNL A   1      45.481  36.052  28.863  1.00  0.00     0.198 A 
ATOM     66  C   UNL A   1      46.417  35.168  30.889  1.00  0.00     0.198 A 
ATOM     67  F   UNL A   1      46.101  32.905  31.444  1.00  0.00    -0.203 F 
ATOM     68  F   UNL A   1      45.326  37.068  28.004  1.00  0.00    -0.200 F 
ATOM     69  C   UNL A   1      46.228  36.230  30.018  1.00  0.00     0.200 A 
ATOM     70  F   UNL A   1      47.125  35.341  32.013  1.00  0.00    -0.200 F 
ATOM     71  F   UNL A   1      46.775  37.423  30.288  1.00  0.00    -0.200 F 
ENDBRANCH  38  61
ENDBRANCH  12  13
ENDBRANCH   5   7
ENDBRANCH   2   3
ENDBRANCH   1   2
BRANCH   1  72
ATOM     72  C   UNL A   1      34.298  21.332  26.498  1.00  0.00     0.023 C 
BRANCH  72  73
ATOM     73  C   UNL A   1      33.783  22.318  27.538  1.00  0.00     0.116 C 
BRANCH  73  74
ATOM     74  N   UNL A   1      32.330  22.354  27.616  1.00  0.00    -0.352 N 
ATOM     75  C   UNL A   1      31.455  23.208  26.991  1.00  0.00     0.251 C 
ATOM     76  H   UNL A   1      31.918  21.673  28.195  1.00  0.00     0.163 HD
ATOM     77  O   UNL A   1      30.260  23.197  27.266  1.00  0.00    -0.269 OA
BRANCH  75  78
ATOM     78  C   UNL A   1      31.974  24.170  25.998  1.00  0.00     0.047 A 
ATOM     79  C   UNL A   1      32.245  25.480  26.407  1.00  0.00     0.023 A 
ATOM     80  C   UNL A   1      32.204  23.772  24.681  1.00  0.00     0.099 A 
ATOM     81  C   UNL A   1      32.822  26.399  25.515  1.00  0.00    -0.009 A 
ATOM     82  C   UNL A   1      32.846  24.654  23.813  1.00  0.00     0.270 A 
ATOM     83  C   UNL A   1      33.172  25.953  24.227  1.00  0.00     0.094 A 
BRANCH  81  84
ATOM     84  C   UNL A   1      33.022  27.804  25.913  1.00  0.00     0.002 A 
ATOM     85  C   UNL A   1      34.109  28.152  26.739  1.00  0.00     0.030 A 
ATOM     86  C   UNL A   1      32.133  28.831  25.525  1.00  0.00     0.048 A 
ATOM     87  C   UNL A   1      34.296  29.472  27.155  1.00  0.00     0.041 A 
ATOM     88  C   UNL A   1      32.334  30.152  25.939  1.00  0.00     0.023 A 
ATOM     89  Cl  UNL A   1      30.727  28.519  24.561  1.00  0.00    -0.084 Cl
ATOM     90  Cl  UNL A   1      35.622  29.865  28.179  1.00  0.00    -0.084 Cl
ATOM     91  C   UNL A   1      33.415  30.473  26.757  1.00  0.00     0.022 A 
ENDBRANCH  81  84
BRANCH  82  92
ATOM     92  N   UNL A   1      33.209  24.198  22.467  1.00  0.00     0.062 N 
ATOM     93  O   UNL A   1      33.066  22.997  22.205  1.00  0.00    -0.258 OA
ATOM     94  O   UNL A   1      33.610  25.052  21.663  1.00  0.00    -0.258 OA
ENDBRANCH  82  92
ENDBRANCH  75  78
ENDBRANCH  73  74
ENDBRANCH  72  73
ENDBRANCH   1  72
TORSDOF 13
ENDMDL
MODEL 3
REMARK VINA RESULT:     -12.8      4.328      9.589
REMARK SMILES O=C(NCCCCNC(=O)c1cc(-c2cc(Cl)ccc2Cl)cc([N+](=O)[O-])c1)c1ccc(-c2c3nc(c(-c4c(F)c(F)c(F)c(F)c4F)c4ccc([nH]4)c(-c4c(F)c(F)c(F)c(F)c4F)c4nc(c(-c5c(F)c(F)c(F)c(F)c5F)c5ccc2[nH]5)C=C4)C=C3)cc1
REMARK SMILES IDX 5 1 4 2 3 3 1 4 2 5 28 7 29 8 90 9 30 10 89 11 31 12 32 13
REMARK SMILES IDX 33 14 83 15 34 16 88 17 82 18 84 19 35 20 87 21 81 22 80 23
REMARK SMILES IDX 36 25 68 26 48 27 67 28 49 29 52 30 66 31 85 32 50 33 51 34
REMARK SMILES IDX 65 36 86 37 53 38 37 39 38 40 46 41 39 42 40 43 44 44 47 45
REMARK SMILES IDX 41 46 42 47 45 48 43 49 69 50 70 51 78 52 71 53 72 54 76 55
REMARK SMILES IDX 79 56 73 57 74 58 77 59 75 60 54 61 55 62 63 63 56 64 57 65
REMARK SMILES IDX 61 66 64 67 58 68 59 69 62 70 60 71 6 72 7 73 8 74 9 75
REMARK SMILES IDX 10 77 11 78 12 79 27 80 13 81 23 82 22 83 14 84 15 85 20 86
REMARK SMILES IDX 16 87 19 88 21 89 17 90 18 91 24 92 25 93 26 94
REMARK H PARENT 3 6 84 24 52 35 8 76
REMARK Flexibility Score: inf
ROOT
ATOM      1  C   UNL A   1      35.185  22.000  25.603  1.00  0.00     0.023 C 
ENDROOT
BRANCH   1   2
ATOM      2  C   UNL A   1      36.600  22.527  25.797  1.00  0.00     0.116 C 
BRANCH   2   3
ATOM      3  N   UNL A   1      37.615  21.483  25.762  1.00  0.00    -0.352 N 
ATOM      4  O   UNL A   1      39.693  20.599  25.876  1.00  0.00    -0.269 OA
ATOM      5  C   UNL A   1      38.951  21.551  26.089  1.00  0.00     0.251 C 
ATOM      6  H   UNL A   1      37.300  20.599  25.460  1.00  0.00     0.163 HD
BRANCH   5   7
ATOM      7  C   UNL A   1      39.495  22.801  26.661  1.00  0.00     0.039 A 
ATOM      8  C   UNL A   1      39.065  24.038  26.183  1.00  0.00     0.014 A 
ATOM      9  C   UNL A   1      40.485  22.732  27.644  1.00  0.00     0.014 A 
ATOM     10  C   UNL A   1      39.770  25.183  26.522  1.00  0.00     0.010 A 
ATOM     11  C   UNL A   1      41.111  23.905  28.076  1.00  0.00     0.010 A 
ATOM     12  C   UNL A   1      40.798  25.135  27.479  1.00  0.00    -0.014 A 
BRANCH  12  13
ATOM     13  C   UNL A   1      41.499  26.394  27.845  1.00  0.00     0.031 A 
ATOM     14  C   UNL A   1      42.897  26.681  27.369  1.00  0.00     0.074 A 
ATOM     15  C   UNL A   1      40.834  27.311  28.574  1.00  0.00     0.049 A 
ATOM     16  N   UNL A   1      43.630  27.751  27.556  1.00  0.00    -0.248 NA
ATOM     17  C   UNL A   1      43.569  25.629  26.590  1.00  0.00     0.031 C 
ATOM     18  C   UNL A   1      39.477  27.144  29.099  1.00  0.00     0.029 A 
ATOM     19  N   UNL A   1      41.190  28.574  28.974  1.00  0.00    -0.354 N 
ATOM     20  C   UNL A   1      44.852  27.492  26.947  1.00  0.00     0.074 A 
ATOM     21  C   UNL A   1      44.774  26.154  26.405  1.00  0.00     0.031 C 
ATOM     22  C   UNL A   1      39.091  28.281  29.694  1.00  0.00     0.029 A 
ATOM     23  C   UNL A   1      40.197  29.230  29.659  1.00  0.00     0.049 A 
ATOM     24  H   UNL A   1      42.072  28.970  28.790  1.00  0.00     0.167 HD
ATOM     25  C   UNL A   1      45.934  28.303  26.844  1.00  0.00     0.037 A 
ATOM     26  C   UNL A   1      40.179  30.457  30.211  1.00  0.00     0.037 A 
ATOM     27  C   UNL A   1      45.995  29.645  27.367  1.00  0.00     0.049 A 
ATOM     28  C   UNL A   1      41.402  31.321  30.098  1.00  0.00     0.074 A 
ATOM     29  C   UNL A   1      47.029  30.562  27.273  1.00  0.00     0.029 A 
ATOM     30  N   UNL A   1      44.983  30.261  28.090  1.00  0.00    -0.354 N 
ATOM     31  N   UNL A   1      42.533  31.081  29.483  1.00  0.00    -0.248 NA
ATOM     32  C   UNL A   1      41.342  32.630  30.761  1.00  0.00     0.031 C 
ATOM     33  C   UNL A   1      46.666  31.708  27.989  1.00  0.00     0.029 A 
ATOM     34  C   UNL A   1      45.379  31.535  28.472  1.00  0.00     0.049 A 
ATOM     35  H   UNL A   1      44.112  29.855  28.300  1.00  0.00     0.167 HD
ATOM     36  C   UNL A   1      43.311  32.216  29.659  1.00  0.00     0.074 A 
ATOM     37  C   UNL A   1      42.512  33.153  30.421  1.00  0.00     0.031 C 
ATOM     38  C   UNL A   1      44.572  32.460  29.227  1.00  0.00     0.037 A 
BRANCH  25  39
ATOM     39  C   UNL A   1      47.159  27.754  26.164  1.00  0.00     0.064 A 
ATOM     40  C   UNL A   1      48.206  27.157  26.884  1.00  0.00     0.173 A 
ATOM     41  C   UNL A   1      47.264  27.786  24.765  1.00  0.00     0.173 A 
ATOM     42  F   UNL A   1      48.162  27.107  28.224  1.00  0.00    -0.203 F 
ATOM     43  C   UNL A   1      49.322  26.640  26.230  1.00  0.00     0.198 A 
ATOM     44  C   UNL A   1      48.367  27.239  24.113  1.00  0.00     0.198 A 
ATOM     45  F   UNL A   1      46.289  28.336  24.026  1.00  0.00    -0.203 F 
ATOM     46  F   UNL A   1      50.332  26.119  26.942  1.00  0.00    -0.200 F 
ATOM     47  C   UNL A   1      49.398  26.675  24.846  1.00  0.00     0.200 A 
ATOM     48  F   UNL A   1      48.430  27.259  22.774  1.00  0.00    -0.200 F 
ATOM     49  F   UNL A   1      50.470  26.169  24.219  1.00  0.00    -0.200 F 
ENDBRANCH  25  39
BRANCH  26  50
ATOM     50  C   UNL A   1      38.961  30.934  30.913  1.00  0.00     0.064 A 
ATOM     51  C   UNL A   1      37.956  31.626  30.223  1.00  0.00     0.173 A 
ATOM     52  C   UNL A   1      38.773  30.707  32.285  1.00  0.00     0.173 A 
ATOM     53  F   UNL A   1      38.098  31.883  28.914  1.00  0.00    -0.203 F 
ATOM     54  C   UNL A   1      36.821  32.090  30.882  1.00  0.00     0.198 A 
ATOM     55  C   UNL A   1      37.621  31.140  32.935  1.00  0.00     0.198 A 
ATOM     56  F   UNL A   1      39.701  30.043  32.989  1.00  0.00    -0.203 F 
ATOM     57  F   UNL A   1      35.897  32.790  30.209  1.00  0.00    -0.200 F 
ATOM     58  C   UNL A   1      36.650  31.840  32.236  1.00  0.00     0.200 A 
ATOM     59  F   UNL A   1      37.452  30.879  34.238  1.00  0.00    -0.200 F 
ATOM     60  F   UNL A   1      35.553  32.281  32.867  1.00  0.00    -0.200 F 
ENDBRANCH  26  50
BRANCH  38  61
ATOM     61  C   UNL A   1      45.147  33.815  29.530  1.00  0.00     0.064 A 
ATOM     62  C   UNL A   1      45.896  34.060  30.690  1.00  0.00     0.173 A 
ATOM     63  C   UNL A   1      44.952  34.881  28.637  1.00  0.00     0.173 A 
ATOM     64  F   UNL A   1      46.097  33.080  31.584  1.00  0.00    -0.203 F 
ATOM     65  C   UNL A   1      46.395  35.331  30.966  1.00  0.00     0.198 A 
ATOM     66  C   UNL A   1      45.484  36.141  28.898  1.00  0.00     0.198 A 
ATOM     67  F   UNL A   1      44.249  34.700  27.509  1.00  0.00    -0.203 F 
ATOM     68  F   UNL A   1      47.052  35.556  32.111  1.00  0.00    -0.200 F 
ATOM     69  C   UNL A   1      46.194  36.367  30.067  1.00  0.00     0.200 A 
ATOM     70  F   UNL A   1      45.301  37.137  28.021  1.00  0.00    -0.200 F 
ATOM     71  F   UNL A   1      46.676  37.590  30.332  1.00  0.00    -0.200 F 
ENDBRANCH  38  61
ENDBRANCH  12  13
ENDBRANCH   5   7
ENDBRANCH   2   3
ENDBRANCH   1   2
BRANCH   1  72
ATOM     72  C   UNL A   1      34.498  21.522  26.876  1.00  0.00     0.023 C 
BRANCH  72  73
ATOM     73  C   UNL A   1      33.681  22.583  27.602  1.00  0.00     0.116 C 
BRANCH  73  74
ATOM     74  N   UNL A   1      32.251  22.459  27.365  1.00  0.00    -0.352 N 
ATOM     75  C   UNL A   1      31.445  23.213  26.548  1.00  0.00     0.251 C 
ATOM     76  H   UNL A   1      31.799  21.736  27.856  1.00  0.00     0.163 HD
ATOM     77  O   UNL A   1      30.227  23.071  26.561  1.00  0.00    -0.269 OA
BRANCH  75  78
ATOM     78  C   UNL A   1      32.060  24.228  25.670  1.00  0.00     0.047 A 
ATOM     79  C   UNL A   1      32.277  25.514  26.175  1.00  0.00     0.023 A 
ATOM     80  C   UNL A   1      32.430  23.902  24.365  1.00  0.00     0.099 A 
ATOM     81  C   UNL A   1      32.939  26.481  25.400  1.00  0.00    -0.009 A 
ATOM     82  C   UNL A   1      33.154  24.831  23.618  1.00  0.00     0.270 A 
ATOM     83  C   UNL A   1      33.426  26.105  24.134  1.00  0.00     0.094 A 
BRANCH  81  84
ATOM     84  C   UNL A   1      33.087  27.862  25.892  1.00  0.00     0.002 A 
ATOM     85  C   UNL A   1      34.130  28.183  26.783  1.00  0.00     0.030 A 
ATOM     86  C   UNL A   1      32.188  28.891  25.532  1.00  0.00     0.048 A 
ATOM     87  C   UNL A   1      34.267  29.478  27.287  1.00  0.00     0.041 A 
ATOM     88  C   UNL A   1      32.339  30.188  26.035  1.00  0.00     0.023 A 
ATOM     89  Cl  UNL A   1      30.830  28.608  24.492  1.00  0.00    -0.084 Cl
ATOM     90  Cl  UNL A   1      35.540  29.836  28.388  1.00  0.00    -0.084 Cl
ATOM     91  C   UNL A   1      33.377  30.482  26.915  1.00  0.00     0.022 A 
ENDBRANCH  81  84
BRANCH  82  92
ATOM     92  N   UNL A   1      33.660  24.450  22.295  1.00  0.00     0.062 N 
ATOM     93  O   UNL A   1      34.187  23.336  22.177  1.00  0.00    -0.258 OA
ATOM     94  O   UNL A   1      33.502  25.257  21.368  1.00  0.00    -0.258 OA
ENDBRANCH  82  92
ENDBRANCH  75  78
ENDBRANCH  73  74
ENDBRANCH  72  73
ENDBRANCH   1  72
TORSDOF 13
ENDMDL
