MODEL 1
REMARK VINA RESULT:     -12.8      0.000      0.000
REMARK SMILES O=C(NCCCCNC(=O)c1ccc(S(=O)(=O)NCc2ccn[nH]2)c(F)c1)c1ccc(-c2c3nc(c(-c4c(F)c(F)c(F)c(F)c4F)c4ccc([nH]4)c(-c4c(F)c(F)c(F)c(F)c4F)c4nc(c(-c5c(F)c(F)c(F)c(F)c5F)c5ccc2[nH]5)C=C4)C=C3)cc1
REMARK SMILES IDX 6 1 5 2 4 3 3 4 1 5 2 6 28 8 29 9 90 10 30 11 89 12 31 13
REMARK SMILES IDX 32 14 33 15 83 16 34 17 88 18 82 19 84 20 35 21 87 22 81 23
REMARK SMILES IDX 80 24 36 26 68 27 48 28 67 29 49 30 52 31 66 32 85 33 50 34
REMARK SMILES IDX 51 35 65 37 86 38 53 39 37 40 38 41 46 42 39 43 40 44 44 45
REMARK SMILES IDX 47 46 41 47 42 48 45 49 43 50 69 51 70 52 78 53 71 54 72 55
REMARK SMILES IDX 76 56 79 57 73 58 74 59 77 60 75 61 54 62 55 63 63 64 56 65
REMARK SMILES IDX 57 66 61 67 64 68 58 69 59 70 62 71 60 72 7 73 8 74 9 75
REMARK SMILES IDX 10 77 11 78 12 79 27 80 13 81 25 82 14 83 26 84 15 85 16 86
REMARK SMILES IDX 17 87 18 88 19 90 20 91 21 92 24 93 22 94 23 95
REMARK H PARENT 3 7 84 25 52 36 8 76 18 89 24 96
REMARK Flexibility Score: inf
ROOT
ATOM      1  C   UNL A   1      31.413  30.718  26.213  1.00  0.00     0.023 C 
ENDROOT
BRANCH   1   2
ATOM      2  C   UNL A   1      31.306  32.216  26.488  1.00  0.00     0.023 C 
BRANCH   2   3
ATOM      3  C   UNL A   1      32.507  32.842  27.185  1.00  0.00     0.116 C 
BRANCH   3   4
ATOM      4  N   UNL A   1      32.274  34.211  27.619  1.00  0.00    -0.352 N 
ATOM      5  O   UNL A   1      32.533  36.059  28.887  1.00  0.00    -0.269 OA
ATOM      6  C   UNL A   1      32.938  34.944  28.574  1.00  0.00     0.251 C 
ATOM      7  H   UNL A   1      31.537  34.677  27.163  1.00  0.00     0.163 HD
BRANCH   6   8
ATOM      8  C   UNL A   1      34.125  34.377  29.250  1.00  0.00     0.039 A 
ATOM      9  C   UNL A   1      35.406  34.571  28.729  1.00  0.00     0.014 A 
ATOM     10  C   UNL A   1      33.952  33.637  30.425  1.00  0.00     0.014 A 
ATOM     11  C   UNL A   1      36.490  33.910  29.297  1.00  0.00     0.010 A 
ATOM     12  C   UNL A   1      35.056  33.040  31.043  1.00  0.00     0.010 A 
ATOM     13  C   UNL A   1      36.329  33.147  30.466  1.00  0.00    -0.014 A 
BRANCH  13  14
ATOM     14  C   UNL A   1      37.527  32.535  31.094  1.00  0.00     0.031 A 
ATOM     15  C   UNL A   1      37.963  32.911  32.482  1.00  0.00     0.074 A 
ATOM     16  C   UNL A   1      38.188  31.579  30.411  1.00  0.00     0.049 A 
ATOM     17  N   UNL A   1      38.950  32.425  33.192  1.00  0.00    -0.248 NA
ATOM     18  C   UNL A   1      37.200  33.969  33.162  1.00  0.00     0.031 C 
ATOM     19  C   UNL A   1      37.858  31.140  29.055  1.00  0.00     0.029 A 
ATOM     20  N   UNL A   1      39.246  30.785  30.771  1.00  0.00    -0.354 N 
ATOM     21  C   UNL A   1      38.935  33.121  34.393  1.00  0.00     0.074 A 
ATOM     22  C   UNL A   1      37.854  34.080  34.312  1.00  0.00     0.031 C 
ATOM     23  C   UNL A   1      38.651  30.112  28.721  1.00  0.00     0.029 A 
ATOM     24  C   UNL A   1      39.583  29.858  29.814  1.00  0.00     0.049 A 
ATOM     25  H   UNL A   1      39.718  30.869  31.631  1.00  0.00     0.167 HD
ATOM     26  C   UNL A   1      39.747  32.963  35.466  1.00  0.00     0.037 A 
ATOM     27  C   UNL A   1      40.538  28.911  29.814  1.00  0.00     0.037 A 
ATOM     28  C   UNL A   1      40.807  31.992  35.551  1.00  0.00     0.049 A 
ATOM     29  C   UNL A   1      41.430  28.773  31.013  1.00  0.00     0.074 A 
ATOM     30  C   UNL A   1      41.663  31.742  36.610  1.00  0.00     0.029 A 
ATOM     31  N   UNL A   1      41.154  31.109  34.540  1.00  0.00    -0.354 N 
ATOM     32  N   UNL A   1      41.397  29.432  32.144  1.00  0.00    -0.248 NA
ATOM     33  C   UNL A   1      42.499  27.769  30.929  1.00  0.00     0.031 C 
ATOM     34  C   UNL A   1      42.552  30.732  36.226  1.00  0.00     0.029 A 
ATOM     35  C   UNL A   1      42.224  30.325  34.944  1.00  0.00     0.049 A 
ATOM     36  H   UNL A   1      40.707  31.046  33.666  1.00  0.00     0.167 HD
ATOM     37  C   UNL A   1      42.439  28.927  32.907  1.00  0.00     0.074 A 
ATOM     38  C   UNL A   1      43.068  27.884  32.121  1.00  0.00     0.031 C 
ATOM     39  C   UNL A   1      42.844  29.302  34.144  1.00  0.00     0.037 A 
BRANCH  26  40
ATOM     40  C   UNL A   1      39.532  33.856  36.652  1.00  0.00     0.064 A 
ATOM     41  C   UNL A   1      40.199  35.086  36.745  1.00  0.00     0.173 A 
ATOM     42  C   UNL A   1      38.749  33.447  37.742  1.00  0.00     0.173 A 
ATOM     43  F   UNL A   1      40.965  35.518  35.732  1.00  0.00    -0.203 F 
ATOM     44  C   UNL A   1      40.104  35.868  37.893  1.00  0.00     0.198 A 
ATOM     45  C   UNL A   1      38.643  34.240  38.881  1.00  0.00     0.198 A 
ATOM     46  F   UNL A   1      38.086  32.283  37.697  1.00  0.00    -0.203 F 
ATOM     47  F   UNL A   1      40.777  37.024  37.973  1.00  0.00    -0.200 F 
ATOM     48  C   UNL A   1      39.328  35.443  38.962  1.00  0.00     0.200 A 
ATOM     49  F   UNL A   1      37.878  33.837  39.907  1.00  0.00    -0.200 F 
ATOM     50  F   UNL A   1      39.240  36.194  40.068  1.00  0.00    -0.200 F 
ENDBRANCH  26  40
BRANCH  27  51
ATOM     51  C   UNL A   1      40.686  28.021  28.636  1.00  0.00     0.064 A 
ATOM     52  C   UNL A   1      41.459  28.401  27.529  1.00  0.00     0.173 A 
ATOM     53  C   UNL A   1      40.024  26.788  28.580  1.00  0.00     0.173 A 
ATOM     54  F   UNL A   1      42.107  29.575  27.534  1.00  0.00    -0.203 F 
ATOM     55  C   UNL A   1      41.546  27.590  26.401  1.00  0.00     0.198 A 
ATOM     56  C   UNL A   1      40.133  25.965  27.462  1.00  0.00     0.198 A 
ATOM     57  F   UNL A   1      39.288  26.375  29.623  1.00  0.00    -0.203 F 
ATOM     58  F   UNL A   1      42.262  27.993  25.342  1.00  0.00    -0.200 F 
ATOM     59  C   UNL A   1      40.887  26.370  26.369  1.00  0.00     0.200 A 
ATOM     60  F   UNL A   1      39.513  24.777  27.443  1.00  0.00    -0.200 F 
ATOM     61  F   UNL A   1      40.978  25.585  25.288  1.00  0.00    -0.200 F 
ENDBRANCH  27  51
BRANCH  39  62
ATOM     62  C   UNL A   1      44.028  28.587  34.721  1.00  0.00     0.064 A 
ATOM     63  C   UNL A   1      45.327  29.075  34.517  1.00  0.00     0.173 A 
ATOM     64  C   UNL A   1      43.874  27.390  35.435  1.00  0.00     0.173 A 
ATOM     65  F   UNL A   1      45.523  30.213  33.835  1.00  0.00    -0.203 F 
ATOM     66  C   UNL A   1      46.432  28.383  35.005  1.00  0.00     0.198 A 
ATOM     67  C   UNL A   1      44.980  26.715  35.941  1.00  0.00     0.198 A 
ATOM     68  F   UNL A   1      42.649  26.895  35.667  1.00  0.00    -0.203 F 
ATOM     69  F   UNL A   1      47.666  28.855  34.782  1.00  0.00    -0.200 F 
ATOM     70  C   UNL A   1      46.258  27.207  35.719  1.00  0.00     0.200 A 
ATOM     71  F   UNL A   1      44.810  25.591  36.651  1.00  0.00    -0.200 F 
ATOM     72  F   UNL A   1      47.323  26.551  36.200  1.00  0.00    -0.200 F 
ENDBRANCH  39  62
ENDBRANCH  13  14
ENDBRANCH   6   8
ENDBRANCH   3   4
ENDBRANCH   2   3
ENDBRANCH   1   2
BRANCH   1  73
ATOM     73  C   UNL A   1      32.830  30.167  26.096  1.00  0.00     0.116 C 
BRANCH  73  74
ATOM     74  N   UNL A   1      33.166  29.737  24.745  1.00  0.00    -0.352 N 
ATOM     75  C   UNL A   1      33.170  28.479  24.193  1.00  0.00     0.251 C 
ATOM     76  H   UNL A   1      33.432  30.460  24.134  1.00  0.00     0.163 HD
ATOM     77  O   UNL A   1      33.607  28.302  23.061  1.00  0.00    -0.269 OA
BRANCH  75  78
ATOM     78  C   UNL A   1      32.693  27.323  24.978  1.00  0.00     0.042 A 
ATOM     79  C   UNL A   1      33.589  26.482  25.646  1.00  0.00     0.015 A 
ATOM     80  C   UNL A   1      31.318  27.073  25.034  1.00  0.00     0.054 A 
ATOM     81  C   UNL A   1      33.120  25.308  26.230  1.00  0.00     0.026 A 
ATOM     82  C   UNL A   1      30.853  25.919  25.660  1.00  0.00     0.144 A 
ATOM     83  C   UNL A   1      31.749  25.010  26.204  1.00  0.00     0.118 A 
ATOM     84  F   UNL A   1      29.532  25.703  25.678  1.00  0.00    -0.205 F 
BRANCH  83  85
ATOM     85  S   UNL A   1      31.261  23.419  26.786  1.00  0.00     0.243 S 
ATOM     86  O   UNL A   1      32.316  22.978  27.670  1.00  0.00    -0.207 OA
ATOM     87  O   UNL A   1      29.900  23.559  27.256  1.00  0.00    -0.207 OA
BRANCH  85  88
ATOM     88  N   UNL A   1      31.201  22.374  25.498  1.00  0.00    -0.205 NA
ATOM     89  H   UNL A   1      30.605  22.829  24.806  1.00  0.00     0.141 HD
BRANCH  88  90
ATOM     90  C   UNL A   1      32.356  21.901  24.763  1.00  0.00     0.154 C 
BRANCH  90  91
ATOM     91  C   UNL A   1      32.408  20.428  24.706  1.00  0.00     0.050 A 
ATOM     92  C   UNL A   1      32.444  19.521  23.667  1.00  0.00     0.046 A 
ATOM     93  N   UNL A   1      32.451  19.671  25.847  1.00  0.00    -0.281 N 
ATOM     94  C   UNL A   1      32.506  18.261  24.288  1.00  0.00     0.135 A 
ATOM     95  N   UNL A   1      32.535  18.353  25.620  1.00  0.00    -0.184 NA
ATOM     96  H   UNL A   1      32.421  20.061  26.751  1.00  0.00     0.190 HD
ENDBRANCH  90  91
ENDBRANCH  88  90
ENDBRANCH  85  88
ENDBRANCH  83  85
ENDBRANCH  75  78
ENDBRANCH  73  74
ENDBRANCH   1  73
TORSDOF 15
ENDMDL
MODEL 2
REMARK VINA RESULT:     -12.8      0.478      2.055
REMARK SMILES O=C(NCCCCNC(=O)c1ccc(S(=O)(=O)NCc2ccn[nH]2)c(F)c1)c1ccc(-c2c3nc(c(-c4c(F)c(F)c(F)c(F)c4F)c4ccc([nH]4)c(-c4c(F)c(F)c(F)c(F)c4F)c4nc(c(-c5c(F)c(F)c(F)c(F)c5F)c5ccc2[nH]5)C=C4)C=C3)cc1
REMARK SMILES IDX 6 1 5 2 4 3 3 4 1 5 2 6 28 8 29 9 90 10 30 11 89 12 31 13
REMARK SMILES IDX 32 14 33 15 83 16 34 17 88 18 82 19 84 20 35 21 87 22 81 23
REMARK SMILES IDX 80 24 36 26 68 27 48 28 67 29 49 30 52 31 66 32 85 33 50 34
REMARK SMILES IDX 51 35 65 37 86 38 53 39 37 40 38 41 46 42 39 43 40 44 44 45
REMARK SMILES IDX 47 46 41 47 42 48 45 49 43 50 69 51 70 52 78 53 71 54 72 55
REMARK SMILES IDX 76 56 79 57 73 58 74 59 77 60 75 61 54 62 55 63 63 64 56 65
REMARK SMILES IDX 57 66 61 67 64 68 58 69 59 70 62 71 60 72 7 73 8 74 9 75
REMARK SMILES IDX 10 77 11 78 12 79 27 80 13 81 25 82 14 83 26 84 15 85 16 86
REMARK SMILES IDX 17 87 18 88 19 90 20 91 21 92 24 93 22 94 23 95
REMARK H PARENT 3 7 84 25 52 36 8 76 18 89 24 96
REMARK Flexibility Score: inf
ROOT
ATOM      1  C   UNL A   1      31.672  30.465  26.576  1.00  0.00     0.023 C 
ENDROOT
BRANCH   1   2
ATOM      2  C   UNL A   1      31.427  31.967  26.696  1.00  0.00     0.023 C 
BRANCH   2   3
ATOM      3  C   UNL A   1      32.672  32.821  26.901  1.00  0.00     0.116 C 
BRANCH   3   4
ATOM      4  N   UNL A   1      32.408  34.070  27.597  1.00  0.00    -0.352 N 
ATOM      5  O   UNL A   1      32.631  35.637  29.205  1.00  0.00    -0.269 OA
ATOM      6  C   UNL A   1      33.062  34.618  28.676  1.00  0.00     0.251 C 
ATOM      7  H   UNL A   1      31.655  34.597  27.246  1.00  0.00     0.163 HD
BRANCH   6   8
ATOM      8  C   UNL A   1      34.269  33.960  29.222  1.00  0.00     0.039 A 
ATOM      9  C   UNL A   1      34.161  32.850  30.062  1.00  0.00     0.014 A 
ATOM     10  C   UNL A   1      35.531  34.464  28.886  1.00  0.00     0.014 A 
ATOM     11  C   UNL A   1      35.297  32.338  30.679  1.00  0.00     0.010 A 
ATOM     12  C   UNL A   1      36.680  33.894  29.443  1.00  0.00     0.010 A 
ATOM     13  C   UNL A   1      36.570  32.846  30.368  1.00  0.00    -0.014 A 
BRANCH  13  14
ATOM     14  C   UNL A   1      37.765  32.209  30.975  1.00  0.00     0.031 A 
ATOM     15  C   UNL A   1      38.195  32.528  32.379  1.00  0.00     0.074 A 
ATOM     16  C   UNL A   1      38.430  31.283  30.256  1.00  0.00     0.049 A 
ATOM     17  N   UNL A   1      39.180  32.013  33.073  1.00  0.00    -0.248 NA
ATOM     18  C   UNL A   1      37.430  33.556  33.099  1.00  0.00     0.031 C 
ATOM     19  C   UNL A   1      38.105  30.900  28.881  1.00  0.00     0.029 A 
ATOM     20  N   UNL A   1      39.487  30.475  30.587  1.00  0.00    -0.354 N 
ATOM     21  C   UNL A   1      39.160  32.659  34.301  1.00  0.00     0.074 A 
ATOM     22  C   UNL A   1      38.079  33.620  34.255  1.00  0.00     0.031 C 
ATOM     23  C   UNL A   1      38.901  29.887  28.508  1.00  0.00     0.029 A 
ATOM     24  C   UNL A   1      39.829  29.589  29.594  1.00  0.00     0.049 A 
ATOM     25  H   UNL A   1      39.956  30.524  31.451  1.00  0.00     0.167 HD
ATOM     26  C   UNL A   1      39.968  32.457  35.370  1.00  0.00     0.037 A 
ATOM     27  C   UNL A   1      40.784  28.643  29.558  1.00  0.00     0.037 A 
ATOM     28  C   UNL A   1      41.029  31.484  35.419  1.00  0.00     0.049 A 
ATOM     29  C   UNL A   1      41.672  28.456  30.754  1.00  0.00     0.074 A 
ATOM     30  C   UNL A   1      41.881  31.191  36.470  1.00  0.00     0.029 A 
ATOM     31  N   UNL A   1      41.380  30.643  34.373  1.00  0.00    -0.354 N 
ATOM     32  N   UNL A   1      41.634  29.067  31.911  1.00  0.00    -0.248 NA
ATOM     33  C   UNL A   1      42.741  27.457  30.632  1.00  0.00     0.031 C 
ATOM     34  C   UNL A   1      42.771  30.198  36.048  1.00  0.00     0.029 A 
ATOM     35  C   UNL A   1      42.448  29.845  34.749  1.00  0.00     0.049 A 
ATOM     36  H   UNL A   1      40.936  30.617  33.495  1.00  0.00     0.167 HD
ATOM     37  C   UNL A   1      42.673  28.531  32.656  1.00  0.00     0.074 A 
ATOM     38  C   UNL A   1      43.305  27.522  31.831  1.00  0.00     0.031 C 
ATOM     39  C   UNL A   1      43.072  28.856  33.910  1.00  0.00     0.037 A 
BRANCH  26  40
ATOM     40  C   UNL A   1      39.747  33.300  36.590  1.00  0.00     0.064 A 
ATOM     41  C   UNL A   1      38.798  32.924  37.552  1.00  0.00     0.173 A 
ATOM     42  C   UNL A   1      40.399  34.531  36.755  1.00  0.00     0.173 A 
ATOM     43  F   UNL A   1      38.142  31.760  37.435  1.00  0.00    -0.203 F 
ATOM     44  C   UNL A   1      38.495  33.758  38.625  1.00  0.00     0.198 A 
ATOM     45  C   UNL A   1      40.107  35.354  37.840  1.00  0.00     0.198 A 
ATOM     46  F   UNL A   1      41.320  34.931  35.867  1.00  0.00    -0.203 F 
ATOM     47  F   UNL A   1      37.560  33.393  39.514  1.00  0.00    -0.200 F 
ATOM     48  C   UNL A   1      39.149  34.973  38.768  1.00  0.00     0.200 A 
ATOM     49  F   UNL A   1      40.752  36.521  37.986  1.00  0.00    -0.200 F 
ATOM     50  F   UNL A   1      38.856  35.777  39.799  1.00  0.00    -0.200 F 
ENDBRANCH  26  40
BRANCH  27  51
ATOM     51  C   UNL A   1      40.937  27.802  28.345  1.00  0.00     0.064 A 
ATOM     52  C   UNL A   1      40.291  26.563  28.232  1.00  0.00     0.173 A 
ATOM     53  C   UNL A   1      41.766  28.207  27.290  1.00  0.00     0.173 A 
ATOM     54  F   UNL A   1      39.492  26.131  29.219  1.00  0.00    -0.203 F 
ATOM     55  C   UNL A   1      40.485  25.750  27.119  1.00  0.00     0.198 A 
ATOM     56  C   UNL A   1      41.938  27.405  26.165  1.00  0.00     0.198 A 
ATOM     57  F   UNL A   1      42.390  29.393  27.346  1.00  0.00    -0.203 F 
ATOM     58  F   UNL A   1      39.884  24.554  27.052  1.00  0.00    -0.200 F 
ATOM     59  C   UNL A   1      41.305  26.173  26.084  1.00  0.00     0.200 A 
ATOM     60  F   UNL A   1      42.714  27.826  25.157  1.00  0.00    -0.200 F 
ATOM     61  F   UNL A   1      41.484  25.395  25.008  1.00  0.00    -0.200 F 
ENDBRANCH  27  51
BRANCH  39  62
ATOM     62  C   UNL A   1      44.255  28.118  34.461  1.00  0.00     0.064 A 
ATOM     63  C   UNL A   1      44.085  26.901  35.138  1.00  0.00     0.173 A 
ATOM     64  C   UNL A   1      45.550  28.644  34.359  1.00  0.00     0.173 A 
ATOM     65  F   UNL A   1      42.864  26.361  35.265  1.00  0.00    -0.203 F 
ATOM     66  C   UNL A   1      45.175  26.240  35.699  1.00  0.00     0.198 A 
ATOM     67  C   UNL A   1      46.639  27.969  34.901  1.00  0.00     0.198 A 
ATOM     68  F   UNL A   1      45.760  29.798  33.707  1.00  0.00    -0.203 F 
ATOM     69  F   UNL A   1      44.989  25.089  36.360  1.00  0.00    -0.200 F 
ATOM     70  C   UNL A   1      46.450  26.772  35.577  1.00  0.00     0.200 A 
ATOM     71  F   UNL A   1      47.874  28.471  34.763  1.00  0.00    -0.200 F 
ATOM     72  F   UNL A   1      47.499  26.127  36.106  1.00  0.00    -0.200 F 
ENDBRANCH  39  62
ENDBRANCH  13  14
ENDBRANCH   6   8
ENDBRANCH   3   4
ENDBRANCH   2   3
ENDBRANCH   1   2
BRANCH   1  73
ATOM     73  C   UNL A   1      33.096  30.054  26.217  1.00  0.00     0.116 C 
BRANCH  73  74
ATOM     74  N   UNL A   1      33.256  29.717  24.809  1.00  0.00    -0.352 N 
ATOM     75  C   UNL A   1      33.169  28.501  24.176  1.00  0.00     0.251 C 
ATOM     76  H   UNL A   1      33.458  30.479  24.220  1.00  0.00     0.163 HD
ATOM     77  O   UNL A   1      33.461  28.399  22.989  1.00  0.00    -0.269 OA
BRANCH  75  78
ATOM     78  C   UNL A   1      32.770  27.298  24.933  1.00  0.00     0.042 A 
ATOM     79  C   UNL A   1      33.724  26.475  25.538  1.00  0.00     0.015 A 
ATOM     80  C   UNL A   1      31.410  26.985  25.024  1.00  0.00     0.054 A 
ATOM     81  C   UNL A   1      33.328  25.260  26.094  1.00  0.00     0.026 A 
ATOM     82  C   UNL A   1      31.018  25.789  25.623  1.00  0.00     0.144 A 
ATOM     83  C   UNL A   1      31.972  24.903  26.103  1.00  0.00     0.118 A 
ATOM     84  F   UNL A   1      29.709  25.514  25.677  1.00  0.00    -0.205 F 
BRANCH  83  85
ATOM     85  S   UNL A   1      31.574  23.271  26.641  1.00  0.00     0.243 S 
ATOM     86  O   UNL A   1      32.780  22.744  27.236  1.00  0.00    -0.207 OA
ATOM     87  O   UNL A   1      30.350  23.383  27.404  1.00  0.00    -0.207 OA
BRANCH  85  88
ATOM     88  N   UNL A   1      31.210  22.345  25.313  1.00  0.00    -0.205 NA
ATOM     89  H   UNL A   1      30.587  22.918  24.744  1.00  0.00     0.141 HD
BRANCH  88  90
ATOM     90  C   UNL A   1      32.185  21.800  24.393  1.00  0.00     0.154 C 
BRANCH  90  91
ATOM     91  C   UNL A   1      32.333  20.340  24.544  1.00  0.00     0.050 A 
ATOM     92  C   UNL A   1      32.363  19.293  23.646  1.00  0.00     0.046 A 
ATOM     93  N   UNL A   1      32.498  19.764  25.776  1.00  0.00    -0.281 N 
ATOM     94  C   UNL A   1      32.548  18.144  24.436  1.00  0.00     0.135 A 
ATOM     95  N   UNL A   1      32.656  18.434  25.735  1.00  0.00    -0.184 NA
ATOM     96  H   UNL A   1      32.501  20.280  26.614  1.00  0.00     0.190 HD
ENDBRANCH  90  91
ENDBRANCH  88  90
ENDBRANCH  85  88
ENDBRANCH  83  85
ENDBRANCH  75  78
ENDBRANCH  73  74
ENDBRANCH   1  73
TORSDOF 15
ENDMDL
MODEL 3
REMARK VINA RESULT:     -12.8      5.286     10.741
REMARK SMILES O=C(NCCCCNC(=O)c1ccc(S(=O)(=O)NCc2ccn[nH]2)c(F)c1)c1ccc(-c2c3nc(c(-c4c(F)c(F)c(F)c(F)c4F)c4ccc([nH]4)c(-c4c(F)c(F)c(F)c(F)c4F)c4nc(c(-c5c(F)c(F)c(F)c(F)c5F)c5ccc2[nH]5)C=C4)C=C3)cc1
REMARK SMILES IDX 6 1 5 2 4 3 3 4 1 5 2 6 28 8 29 9 90 10 30 11 89 12 31 13
REMARK SMILES IDX 32 14 33 15 83 16 34 17 88 18 82 19 84 20 35 21 87 22 81 23
REMARK SMILES IDX 80 24 36 26 68 27 48 28 67 29 49 30 52 31 66 32 85 33 50 34
REMARK SMILES IDX 51 35 65 37 86 38 53 39 37 40 38 41 46 42 39 43 40 44 44 45
REMARK SMILES IDX 47 46 41 47 42 48 45 49 43 50 69 51 70 52 78 53 71 54 72 55
REMARK SMILES IDX 76 56 79 57 73 58 74 59 77 60 75 61 54 62 55 63 63 64 56 65
REMARK SMILES IDX 57 66 61 67 64 68 58 69 59 70 62 71 60 72 7 73 8 74 9 75
REMARK SMILES IDX 10 77 11 78 12 79 27 80 13 81 25 82 14 83 26 84 15 85 16 86
REMARK SMILES IDX 17 87 18 88 19 90 20 91 21 92 24 93 22 94 23 95
REMARK H PARENT 3 7 84 25 52 36 8 76 18 89 24 96
REMARK Flexibility Score: inf
ROOT
ATOM      1  C   UNL A   1      37.093  20.682  24.642  1.00  0.00     0.023 C 
ENDROOT
BRANCH   1   2
ATOM      2  C   UNL A   1      38.088  19.564  24.944  1.00  0.00     0.023 C 
BRANCH   2   3
ATOM      3  C   UNL A   1      39.232  19.937  25.878  1.00  0.00     0.116 C 
BRANCH   3   4
ATOM      4  N   UNL A   1      40.338  18.993  25.842  1.00  0.00    -0.352 N 
ATOM      5  O   UNL A   1      42.488  18.313  25.890  1.00  0.00    -0.269 OA
ATOM      6  C   UNL A   1      41.676  19.213  26.071  1.00  0.00     0.251 C 
ATOM      7  H   UNL A   1      40.093  18.065  25.623  1.00  0.00     0.163 HD
BRANCH   6   8
ATOM      8  C   UNL A   1      42.142  20.549  26.505  1.00  0.00     0.039 A 
ATOM      9  C   UNL A   1      42.216  20.874  27.861  1.00  0.00     0.014 A 
ATOM     10  C   UNL A   1      42.510  21.490  25.538  1.00  0.00     0.014 A 
ATOM     11  C   UNL A   1      42.516  22.177  28.243  1.00  0.00     0.010 A 
ATOM     12  C   UNL A   1      42.893  22.778  25.928  1.00  0.00     0.010 A 
ATOM     13  C   UNL A   1      42.869  23.140  27.282  1.00  0.00    -0.014 A 
BRANCH  13  14
ATOM     14  C   UNL A   1      43.275  24.493  27.737  1.00  0.00     0.031 A 
ATOM     15  C   UNL A   1      44.717  24.914  27.756  1.00  0.00     0.074 A 
ATOM     16  C   UNL A   1      42.309  25.368  28.080  1.00  0.00     0.049 A 
ATOM     17  N   UNL A   1      45.228  26.079  28.069  1.00  0.00    -0.248 NA
ATOM     18  C   UNL A   1      45.717  23.904  27.379  1.00  0.00     0.031 C 
ATOM     19  C   UNL A   1      40.877  25.066  28.106  1.00  0.00     0.029 A 
ATOM     20  N   UNL A   1      42.377  26.690  28.436  1.00  0.00    -0.354 N 
ATOM     21  C   UNL A   1      46.603  25.939  27.939  1.00  0.00     0.074 A 
ATOM     22  C   UNL A   1      46.853  24.571  27.538  1.00  0.00     0.031 C 
ATOM     23  C   UNL A   1      40.197  26.184  28.394  1.00  0.00     0.029 A 
ATOM     24  C   UNL A   1      41.145  27.268  28.631  1.00  0.00     0.049 A 
ATOM     25  H   UNL A   1      43.225  27.179  28.542  1.00  0.00     0.167 HD
ATOM     26  C   UNL A   1      47.564  26.876  28.129  1.00  0.00     0.037 A 
ATOM     27  C   UNL A   1      40.814  28.528  28.965  1.00  0.00     0.037 A 
ATOM     28  C   UNL A   1      47.310  28.242  28.507  1.00  0.00     0.049 A 
ATOM     29  C   UNL A   1      41.904  29.536  29.183  1.00  0.00     0.074 A 
ATOM     30  C   UNL A   1      48.220  29.267  28.696  1.00  0.00     0.029 A 
ATOM     31  N   UNL A   1      46.052  28.774  28.748  1.00  0.00    -0.354 N 
ATOM     32  N   UNL A   1      43.199  29.391  29.047  1.00  0.00    -0.248 NA
ATOM     33  C   UNL A   1      41.488  30.877  29.614  1.00  0.00     0.031 C 
ATOM     34  C   UNL A   1      47.517  30.412  29.087  1.00  0.00     0.029 A 
ATOM     35  C   UNL A   1      46.166  30.109  29.104  1.00  0.00     0.049 A 
ATOM     36  H   UNL A   1      45.205  28.279  28.678  1.00  0.00     0.167 HD
ATOM     37  C   UNL A   1      43.754  30.619  29.376  1.00  0.00     0.074 A 
ATOM     38  C   UNL A   1      42.653  31.507  29.690  1.00  0.00     0.031 C 
ATOM     39  C   UNL A   1      45.060  30.973  29.424  1.00  0.00     0.037 A 
BRANCH  26  40
ATOM     40  C   UNL A   1      48.994  26.468  27.934  1.00  0.00     0.064 A 
ATOM     41  C   UNL A   1      49.826  26.240  29.041  1.00  0.00     0.173 A 
ATOM     42  C   UNL A   1      49.568  26.406  26.656  1.00  0.00     0.173 A 
ATOM     43  F   UNL A   1      49.325  26.296  30.285  1.00  0.00    -0.203 F 
ATOM     44  C   UNL A   1      51.184  25.983  28.876  1.00  0.00     0.198 A 
ATOM     45  C   UNL A   1      50.924  26.130  26.495  1.00  0.00     0.198 A 
ATOM     46  F   UNL A   1      48.813  26.609  25.567  1.00  0.00    -0.203 F 
ATOM     47  F   UNL A   1      51.966  25.801  29.950  1.00  0.00    -0.200 F 
ATOM     48  C   UNL A   1      51.733  25.929  27.604  1.00  0.00     0.200 A 
ATOM     49  F   UNL A   1      51.450  26.062  25.263  1.00  0.00    -0.200 F 
ATOM     50  F   UNL A   1      53.041  25.684  27.445  1.00  0.00    -0.200 F 
ENDBRANCH  26  40
BRANCH  27  51
ATOM     51  C   UNL A   1      39.384  28.897  29.104  1.00  0.00     0.064 A 
ATOM     52  C   UNL A   1      38.648  29.383  28.013  1.00  0.00     0.173 A 
ATOM     53  C   UNL A   1      38.736  28.806  30.343  1.00  0.00     0.173 A 
ATOM     54  F   UNL A   1      39.228  29.493  26.809  1.00  0.00    -0.203 F 
ATOM     55  C   UNL A   1      37.324  29.785  28.162  1.00  0.00     0.198 A 
ATOM     56  C   UNL A   1      37.403  29.183  30.484  1.00  0.00     0.198 A 
ATOM     57  F   UNL A   1      39.394  28.329  31.410  1.00  0.00    -0.203 F 
ATOM     58  F   UNL A   1      36.654  30.280  27.111  1.00  0.00    -0.200 F 
ATOM     59  C   UNL A   1      36.700  29.681  29.396  1.00  0.00     0.200 A 
ATOM     60  F   UNL A   1      36.796  29.061  31.673  1.00  0.00    -0.200 F 
ATOM     61  F   UNL A   1      35.422  30.058  29.537  1.00  0.00    -0.200 F 
ENDBRANCH  27  51
BRANCH  39  62
ATOM     62  C   UNL A   1      45.371  32.380  29.840  1.00  0.00     0.064 A 
ATOM     63  C   UNL A   1      45.494  33.397  28.882  1.00  0.00     0.173 A 
ATOM     64  C   UNL A   1      45.593  32.706  31.185  1.00  0.00     0.173 A 
ATOM     65  F   UNL A   1      45.295  33.131  27.582  1.00  0.00    -0.203 F 
ATOM     66  C   UNL A   1      45.836  34.693  29.259  1.00  0.00     0.198 A 
ATOM     67  C   UNL A   1      45.912  34.007  31.560  1.00  0.00     0.198 A 
ATOM     68  F   UNL A   1      45.471  31.767  32.136  1.00  0.00    -0.203 F 
ATOM     69  F   UNL A   1      45.969  35.646  28.327  1.00  0.00    -0.200 F 
ATOM     70  C   UNL A   1      46.040  34.997  30.597  1.00  0.00     0.200 A 
ATOM     71  F   UNL A   1      46.087  34.306  32.854  1.00  0.00    -0.200 F 
ATOM     72  F   UNL A   1      46.356  36.248  30.958  1.00  0.00    -0.200 F 
ENDBRANCH  39  62
ENDBRANCH  13  14
ENDBRANCH   6   8
ENDBRANCH   3   4
ENDBRANCH   2   3
ENDBRANCH   1   2
BRANCH   1  73
ATOM     73  C   UNL A   1      36.867  21.686  25.768  1.00  0.00     0.116 C 
BRANCH  73  74
ATOM     74  N   UNL A   1      35.643  21.437  26.519  1.00  0.00    -0.352 N 
ATOM     75  C   UNL A   1      34.419  22.054  26.443  1.00  0.00     0.251 C 
ATOM     76  H   UNL A   1      35.705  20.715  27.184  1.00  0.00     0.163 HD
ATOM     77  O   UNL A   1      33.538  21.783  27.253  1.00  0.00    -0.269 OA
BRANCH  75  78
ATOM     78  C   UNL A   1      34.169  23.082  25.414  1.00  0.00     0.042 A 
ATOM     79  C   UNL A   1      34.140  24.441  25.741  1.00  0.00     0.015 A 
ATOM     80  C   UNL A   1      33.947  22.671  24.096  1.00  0.00     0.054 A 
ATOM     81  C   UNL A   1      33.732  25.368  24.785  1.00  0.00     0.026 A 
ATOM     82  C   UNL A   1      33.584  23.611  23.134  1.00  0.00     0.144 A 
ATOM     83  C   UNL A   1      33.419  24.943  23.485  1.00  0.00     0.118 A 
ATOM     84  F   UNL A   1      33.362  23.179  21.885  1.00  0.00    -0.205 F 
BRANCH  83  85
ATOM     85  S   UNL A   1      32.724  26.140  22.393  1.00  0.00     0.243 S 
ATOM     86  O   UNL A   1      33.745  26.421  21.409  1.00  0.00    -0.207 OA
ATOM     87  O   UNL A   1      31.428  25.630  22.003  1.00  0.00    -0.207 OA
BRANCH  85  88
ATOM     88  N   UNL A   1      32.435  27.535  23.244  1.00  0.00    -0.205 NA
ATOM     89  H   UNL A   1      33.230  27.638  23.876  1.00  0.00     0.141 HD
BRANCH  88  90
ATOM     90  C   UNL A   1      32.241  28.841  22.650  1.00  0.00     0.154 C 
BRANCH  90  91
ATOM     91  C   UNL A   1      30.816  29.130  22.404  1.00  0.00     0.050 A 
ATOM     92  C   UNL A   1      29.643  28.550  22.841  1.00  0.00     0.046 A 
ATOM     93  N   UNL A   1      30.427  30.175  21.608  1.00  0.00    -0.281 N 
ATOM     94  C   UNL A   1      28.620  29.316  22.253  1.00  0.00     0.135 A 
ATOM     95  N   UNL A   1      29.099  30.323  21.520  1.00  0.00    -0.184 NA
ATOM     96  H   UNL A   1      31.066  30.762  21.143  1.00  0.00     0.190 HD
ENDBRANCH  90  91
ENDBRANCH  88  90
ENDBRANCH  85  88
ENDBRANCH  83  85
ENDBRANCH  75  78
ENDBRANCH  73  74
ENDBRANCH   1  73
TORSDOF 15
ENDMDL
