MODEL 1
REMARK VINA RESULT:     -12.4      0.000      0.000
REMARK SMILES O=C(NCCCCNC(=O)c1ncoc1-c1cc(F)cc(F)c1)c1ccc(-c2c3nc(c(-c4c(F)c(F)c(F)c(F)c4F)c4ccc([nH]4)c(-c4c(F)c(F)c(F)c(F)c4F)c4nc(c(-c5c(F)c(F)c(F)c(F)c5F)c5ccc2[nH]5)C=C4)C=C3)cc1
REMARK SMILES IDX 5 1 4 2 3 3 1 4 2 5 24 7 25 8 86 9 26 10 85 11 27 12 28 13
REMARK SMILES IDX 29 14 79 15 30 16 84 17 78 18 80 19 31 20 83 21 77 22 76 23
REMARK SMILES IDX 32 25 64 26 44 27 63 28 45 29 48 30 62 31 81 32 46 33 47 34
REMARK SMILES IDX 61 36 82 37 49 38 33 39 34 40 42 41 35 42 36 43 40 44 43 45
REMARK SMILES IDX 37 46 38 47 41 48 39 49 65 50 66 51 74 52 67 53 68 54 72 55
REMARK SMILES IDX 75 56 69 57 70 58 73 59 71 60 50 61 51 62 59 63 52 64 53 65
REMARK SMILES IDX 57 66 60 67 54 68 55 69 58 70 56 71 6 72 7 73 8 74 9 75
REMARK SMILES IDX 10 77 11 78 12 79 15 80 13 81 14 82 16 83 17 84 23 85 18 86
REMARK SMILES IDX 21 87 19 88 20 89 22 90
REMARK H PARENT 3 6 80 24 48 35 8 76
REMARK Flexibility Score: inf
ROOT
ATOM      1  C   UNL A   1      31.144  31.874  26.520  1.00  0.00     0.023 C 
ENDROOT
BRANCH   1   2
ATOM      2  C   UNL A   1      32.463  32.514  26.933  1.00  0.00     0.116 C 
BRANCH   2   3
ATOM      3  N   UNL A   1      32.303  33.863  27.449  1.00  0.00    -0.352 N 
ATOM      4  O   UNL A   1      32.671  35.612  28.828  1.00  0.00    -0.269 OA
ATOM      5  C   UNL A   1      33.028  34.512  28.419  1.00  0.00     0.251 C 
ATOM      6  H   UNL A   1      31.572  34.387  27.047  1.00  0.00     0.163 HD
BRANCH   5   7
ATOM      7  C   UNL A   1      34.228  33.865  28.992  1.00  0.00     0.039 A 
ATOM      8  C   UNL A   1      34.104  32.792  29.877  1.00  0.00     0.014 A 
ATOM      9  C   UNL A   1      35.493  34.343  28.639  1.00  0.00     0.014 A 
ATOM     10  C   UNL A   1      35.232  32.293  30.518  1.00  0.00     0.010 A 
ATOM     11  C   UNL A   1      36.633  33.781  29.218  1.00  0.00     0.010 A 
ATOM     12  C   UNL A   1      36.510  32.770  30.184  1.00  0.00    -0.014 A 
BRANCH  12  13
ATOM     13  C   UNL A   1      37.704  32.144  30.805  1.00  0.00     0.031 A 
ATOM     14  C   UNL A   1      38.154  32.523  32.187  1.00  0.00     0.074 A 
ATOM     15  C   UNL A   1      38.364  31.196  30.113  1.00  0.00     0.049 A 
ATOM     16  N   UNL A   1      39.171  32.067  32.875  1.00  0.00    -0.248 NA
ATOM     17  C   UNL A   1      37.366  33.546  32.892  1.00  0.00     0.031 C 
ATOM     18  C   UNL A   1      38.013  30.746  28.763  1.00  0.00     0.029 A 
ATOM     19  N   UNL A   1      39.447  30.424  30.448  1.00  0.00    -0.354 N 
ATOM     20  C   UNL A   1      39.151  32.748  34.085  1.00  0.00     0.074 A 
ATOM     21  C   UNL A   1      38.039  33.672  34.029  1.00  0.00     0.031 C 
ATOM     22  C   UNL A   1      38.827  29.742  28.409  1.00  0.00     0.029 A 
ATOM     23  C   UNL A   1      39.800  29.524  29.473  1.00  0.00     0.049 A 
ATOM     24  H   UNL A   1      39.924  30.507  31.305  1.00  0.00     0.167 HD
ATOM     25  C   UNL A   1      39.980  32.602  35.146  1.00  0.00     0.037 A 
ATOM     26  C   UNL A   1      40.807  28.632  29.430  1.00  0.00     0.037 A 
ATOM     27  C   UNL A   1      41.079  31.671  35.195  1.00  0.00     0.049 A 
ATOM     28  C   UNL A   1      41.740  28.531  30.602  1.00  0.00     0.074 A 
ATOM     29  C   UNL A   1      41.968  31.443  36.232  1.00  0.00     0.029 A 
ATOM     30  N   UNL A   1      41.437  30.812  34.167  1.00  0.00    -0.354 N 
ATOM     31  N   UNL A   1      41.704  29.175  31.743  1.00  0.00    -0.248 NA
ATOM     32  C   UNL A   1      42.858  27.587  30.478  1.00  0.00     0.031 C 
ATOM     33  C   UNL A   1      42.891  30.480  35.815  1.00  0.00     0.029 A 
ATOM     34  C   UNL A   1      42.547  30.068  34.538  1.00  0.00     0.049 A 
ATOM     35  H   UNL A   1      40.972  30.741  33.302  1.00  0.00     0.167 HD
ATOM     36  C   UNL A   1      42.782  28.704  32.479  1.00  0.00     0.074 A 
ATOM     37  C   UNL A   1      43.441  27.705  31.663  1.00  0.00     0.031 C 
ATOM     38  C   UNL A   1      43.187  29.071  33.718  1.00  0.00     0.037 A 
BRANCH  25  39
ATOM     39  C   UNL A   1      39.744  33.464  36.352  1.00  0.00     0.064 A 
ATOM     40  C   UNL A   1      38.874  33.043  37.369  1.00  0.00     0.173 A 
ATOM     41  C   UNL A   1      40.301  34.747  36.454  1.00  0.00     0.173 A 
ATOM     42  F   UNL A   1      38.308  31.828  37.316  1.00  0.00    -0.203 F 
ATOM     43  C   UNL A   1      38.557  33.882  38.435  1.00  0.00     0.198 A 
ATOM     44  C   UNL A   1      40.001  35.574  37.535  1.00  0.00     0.198 A 
ATOM     45  F   UNL A   1      41.145  35.194  35.512  1.00  0.00    -0.203 F 
ATOM     46  F   UNL A   1      37.695  33.472  39.376  1.00  0.00    -0.200 F 
ATOM     47  C   UNL A   1      39.122  35.145  38.518  1.00  0.00     0.200 A 
ATOM     48  F   UNL A   1      40.563  36.788  37.624  1.00  0.00    -0.200 F 
ATOM     49  F   UNL A   1      38.819  35.951  39.545  1.00  0.00    -0.200 F 
ENDBRANCH  25  39
BRANCH  26  50
ATOM     50  C   UNL A   1      40.969  27.764  28.236  1.00  0.00     0.064 A 
ATOM     51  C   UNL A   1      40.368  26.498  28.166  1.00  0.00     0.173 A 
ATOM     52  C   UNL A   1      41.758  28.173  27.153  1.00  0.00     0.173 A 
ATOM     53  F   UNL A   1      39.609  26.057  29.180  1.00  0.00    -0.203 F 
ATOM     54  C   UNL A   1      40.571  25.665  27.068  1.00  0.00     0.198 A 
ATOM     55  C   UNL A   1      41.934  27.352  26.041  1.00  0.00     0.198 A 
ATOM     56  F   UNL A   1      42.337  29.383  27.165  1.00  0.00    -0.203 F 
ATOM     57  F   UNL A   1      40.019  24.444  27.046  1.00  0.00    -0.200 F 
ATOM     58  C   UNL A   1      41.349  26.095  26.005  1.00  0.00     0.200 A 
ATOM     59  F   UNL A   1      42.666  27.781  25.004  1.00  0.00    -0.200 F 
ATOM     60  F   UNL A   1      41.532  25.299  24.942  1.00  0.00    -0.200 F 
ENDBRANCH  26  50
BRANCH  38  61
ATOM     61  C   UNL A   1      44.390  28.376  34.284  1.00  0.00     0.064 A 
ATOM     62  C   UNL A   1      44.243  27.189  35.019  1.00  0.00     0.173 A 
ATOM     63  C   UNL A   1      45.678  28.915  34.154  1.00  0.00     0.173 A 
ATOM     64  F   UNL A   1      43.030  26.638  35.177  1.00  0.00    -0.203 F 
ATOM     65  C   UNL A   1      45.341  26.577  35.615  1.00  0.00     0.198 A 
ATOM     66  C   UNL A   1      46.777  28.284  34.727  1.00  0.00     0.198 A 
ATOM     67  F   UNL A   1      45.871  30.038  33.447  1.00  0.00    -0.203 F 
ATOM     68  F   UNL A   1      45.173  25.462  36.341  1.00  0.00    -0.200 F 
ATOM     69  C   UNL A   1      46.607  27.122  35.466  1.00  0.00     0.200 A 
ATOM     70  F   UNL A   1      48.005  28.797  34.561  1.00  0.00    -0.200 F 
ATOM     71  F   UNL A   1      47.666  26.524  36.030  1.00  0.00    -0.200 F 
ENDBRANCH  38  61
ENDBRANCH  12  13
ENDBRANCH   5   7
ENDBRANCH   2   3
ENDBRANCH   1   2
BRANCH   1  72
ATOM     72  C   UNL A   1      31.260  30.761  25.478  1.00  0.00     0.023 C 
BRANCH  72  73
ATOM     73  C   UNL A   1      32.315  29.698  25.786  1.00  0.00     0.116 C 
BRANCH  73  74
ATOM     74  N   UNL A   1      31.723  28.526  26.404  1.00  0.00    -0.351 N 
ATOM     75  C   UNL A   1      31.358  27.343  25.820  1.00  0.00     0.273 C 
ATOM     76  H   UNL A   1      31.561  28.591  27.374  1.00  0.00     0.163 HD
ATOM     77  O   UNL A   1      30.655  26.562  26.472  1.00  0.00    -0.267 OA
BRANCH  75  78
ATOM     78  C   UNL A   1      31.782  27.054  24.461  1.00  0.00     0.174 A 
ATOM     79  N   UNL A   1      32.883  26.284  24.113  1.00  0.00    -0.211 NA
ATOM     80  C   UNL A   1      31.124  27.449  23.312  1.00  0.00     0.167 A 
ATOM     81  C   UNL A   1      32.830  26.244  22.802  1.00  0.00     0.309 A 
ATOM     82  O   UNL A   1      31.792  26.921  22.241  1.00  0.00    -0.443 OA
BRANCH  80  83
ATOM     83  C   UNL A   1      29.981  28.288  23.018  1.00  0.00     0.026 A 
ATOM     84  C   UNL A   1      28.696  27.893  23.414  1.00  0.00     0.051 A 
ATOM     85  C   UNL A   1      30.139  29.487  22.314  1.00  0.00     0.051 A 
ATOM     86  C   UNL A   1      27.597  28.685  23.098  1.00  0.00     0.126 A 
ATOM     87  C   UNL A   1      29.020  30.255  22.000  1.00  0.00     0.126 A 
ATOM     88  F   UNL A   1      26.376  28.297  23.486  1.00  0.00    -0.207 F 
ATOM     89  C   UNL A   1      27.746  29.866  22.386  1.00  0.00     0.078 A 
ATOM     90  F   UNL A   1      29.180  31.390  21.307  1.00  0.00    -0.207 F 
ENDBRANCH  80  83
ENDBRANCH  75  78
ENDBRANCH  73  74
ENDBRANCH  72  73
ENDBRANCH   1  72
TORSDOF 12
ENDMDL
MODEL 2
REMARK VINA RESULT:     -12.3      0.436      7.448
REMARK SMILES O=C(NCCCCNC(=O)c1ncoc1-c1cc(F)cc(F)c1)c1ccc(-c2c3nc(c(-c4c(F)c(F)c(F)c(F)c4F)c4ccc([nH]4)c(-c4c(F)c(F)c(F)c(F)c4F)c4nc(c(-c5c(F)c(F)c(F)c(F)c5F)c5ccc2[nH]5)C=C4)C=C3)cc1
REMARK SMILES IDX 5 1 4 2 3 3 1 4 2 5 24 7 25 8 86 9 26 10 85 11 27 12 28 13
REMARK SMILES IDX 29 14 79 15 30 16 84 17 78 18 80 19 31 20 83 21 77 22 76 23
REMARK SMILES IDX 32 25 64 26 44 27 63 28 45 29 48 30 62 31 81 32 46 33 47 34
REMARK SMILES IDX 61 36 82 37 49 38 33 39 34 40 42 41 35 42 36 43 40 44 43 45
REMARK SMILES IDX 37 46 38 47 41 48 39 49 65 50 66 51 74 52 67 53 68 54 72 55
REMARK SMILES IDX 75 56 69 57 70 58 73 59 71 60 50 61 51 62 59 63 52 64 53 65
REMARK SMILES IDX 57 66 60 67 54 68 55 69 58 70 56 71 6 72 7 73 8 74 9 75
REMARK SMILES IDX 10 77 11 78 12 79 15 80 13 81 14 82 16 83 17 84 23 85 18 86
REMARK SMILES IDX 21 87 19 88 20 89 22 90
REMARK H PARENT 3 6 80 24 48 35 8 76
REMARK Flexibility Score: inf
ROOT
ATOM      1  C   UNL A   1      31.172  31.936  26.481  1.00  0.00     0.023 C 
ENDROOT
BRANCH   1   2
ATOM      2  C   UNL A   1      32.502  32.525  26.934  1.00  0.00     0.116 C 
BRANCH   2   3
ATOM      3  N   UNL A   1      32.385  33.894  27.407  1.00  0.00    -0.352 N 
ATOM      4  O   UNL A   1      32.782  35.663  28.751  1.00  0.00    -0.269 OA
ATOM      5  C   UNL A   1      33.102  34.536  28.387  1.00  0.00     0.251 C 
ATOM      6  H   UNL A   1      31.696  34.439  26.962  1.00  0.00     0.163 HD
BRANCH   5   7
ATOM      7  C   UNL A   1      34.248  33.852  29.024  1.00  0.00     0.039 A 
ATOM      8  C   UNL A   1      34.045  32.745  29.851  1.00  0.00     0.014 A 
ATOM      9  C   UNL A   1      35.540  34.329  28.791  1.00  0.00     0.014 A 
ATOM     10  C   UNL A   1      35.115  32.207  30.556  1.00  0.00     0.010 A 
ATOM     11  C   UNL A   1      36.627  33.730  29.434  1.00  0.00     0.010 A 
ATOM     12  C   UNL A   1      36.419  32.681  30.343  1.00  0.00    -0.014 A 
BRANCH  12  13
ATOM     13  C   UNL A   1      37.556  32.016  31.029  1.00  0.00     0.031 A 
ATOM     14  C   UNL A   1      38.356  30.941  30.350  1.00  0.00     0.074 A 
ATOM     15  C   UNL A   1      37.883  32.425  32.269  1.00  0.00     0.049 A 
ATOM     16  N   UNL A   1      39.381  30.266  30.807  1.00  0.00    -0.248 NA
ATOM     17  C   UNL A   1      37.956  30.569  28.984  1.00  0.00     0.031 C 
ATOM     18  C   UNL A   1      37.178  33.464  33.023  1.00  0.00     0.029 A 
ATOM     19  N   UNL A   1      38.897  32.037  33.108  1.00  0.00    -0.354 N 
ATOM     20  C   UNL A   1      39.744  29.389  29.794  1.00  0.00     0.074 A 
ATOM     21  C   UNL A   1      38.812  29.593  28.707  1.00  0.00     0.031 C 
ATOM     22  C   UNL A   1      37.812  33.672  34.186  1.00  0.00     0.029 A 
ATOM     23  C   UNL A   1      38.924  32.733  34.292  1.00  0.00     0.049 A 
ATOM     24  H   UNL A   1      39.543  31.330  32.883  1.00  0.00     0.167 HD
ATOM     25  C   UNL A   1      40.770  28.505  29.775  1.00  0.00     0.037 A 
ATOM     26  C   UNL A   1      39.741  32.619  35.355  1.00  0.00     0.037 A 
ATOM     27  C   UNL A   1      41.700  28.317  30.860  1.00  0.00     0.049 A 
ATOM     28  C   UNL A   1      40.837  31.593  35.323  1.00  0.00     0.074 A 
ATOM     29  C   UNL A   1      42.780  27.453  30.928  1.00  0.00     0.029 A 
ATOM     30  N   UNL A   1      41.663  29.004  32.064  1.00  0.00    -0.354 N 
ATOM     31  N   UNL A   1      41.175  30.777  34.355  1.00  0.00    -0.248 NA
ATOM     32  C   UNL A   1      41.660  31.467  36.533  1.00  0.00     0.031 C 
ATOM     33  C   UNL A   1      43.368  27.584  32.189  1.00  0.00     0.029 A 
ATOM     34  C   UNL A   1      42.689  28.568  32.889  1.00  0.00     0.049 A 
ATOM     35  H   UNL A   1      41.006  29.699  32.299  1.00  0.00     0.167 HD
ATOM     36  C   UNL A   1      42.257  30.051  34.830  1.00  0.00     0.074 A 
ATOM     37  C   UNL A   1      42.533  30.539  36.166  1.00  0.00     0.031 C 
ATOM     38  C   UNL A   1      42.956  29.068  34.214  1.00  0.00     0.037 A 
BRANCH  25  39
ATOM     39  C   UNL A   1      40.956  27.664  28.546  1.00  0.00     0.064 A 
ATOM     40  C   UNL A   1      41.782  28.104  27.499  1.00  0.00     0.173 A 
ATOM     41  C   UNL A   1      40.243  26.471  28.361  1.00  0.00     0.173 A 
ATOM     42  F   UNL A   1      42.480  29.243  27.621  1.00  0.00    -0.203 F 
ATOM     43  C   UNL A   1      41.871  27.389  26.307  1.00  0.00     0.198 A 
ATOM     44  C   UNL A   1      40.355  25.745  27.177  1.00  0.00     0.198 A 
ATOM     45  F   UNL A   1      39.447  26.002  29.334  1.00  0.00    -0.203 F 
ATOM     46  F   UNL A   1      42.637  27.849  25.308  1.00  0.00    -0.200 F 
ATOM     47  C   UNL A   1      41.160  26.210  26.148  1.00  0.00     0.200 A 
ATOM     48  F   UNL A   1      39.681  24.596  27.031  1.00  0.00    -0.200 F 
ATOM     49  F   UNL A   1      41.248  25.523  25.001  1.00  0.00    -0.200 F 
ENDBRANCH  25  39
BRANCH  26  50
ATOM     50  C   UNL A   1      39.550  33.509  36.528  1.00  0.00     0.064 A 
ATOM     51  C   UNL A   1      38.743  33.128  37.610  1.00  0.00     0.173 A 
ATOM     52  C   UNL A   1      40.145  34.777  36.572  1.00  0.00     0.173 A 
ATOM     53  F   UNL A   1      38.145  31.928  37.613  1.00  0.00    -0.203 F 
ATOM     54  C   UNL A   1      38.520  33.991  38.681  1.00  0.00     0.198 A 
ATOM     55  C   UNL A   1      39.947  35.627  37.658  1.00  0.00     0.198 A 
ATOM     56  F   UNL A   1      40.941  35.179  35.569  1.00  0.00    -0.203 F 
ATOM     57  F   UNL A   1      37.712  33.617  39.682  1.00  0.00    -0.200 F 
ATOM     58  C   UNL A   1      39.127  35.237  38.706  1.00  0.00     0.200 A 
ATOM     59  F   UNL A   1      40.556  36.820  37.691  1.00  0.00    -0.200 F 
ATOM     60  F   UNL A   1      38.924  36.061  39.743  1.00  0.00    -0.200 F 
ENDBRANCH  26  50
BRANCH  38  61
ATOM     61  C   UNL A   1      44.105  28.463  34.965  1.00  0.00     0.064 A 
ATOM     62  C   UNL A   1      43.909  27.327  35.766  1.00  0.00     0.173 A 
ATOM     63  C   UNL A   1      45.381  29.042  34.943  1.00  0.00     0.173 A 
ATOM     64  F   UNL A   1      42.704  26.741  35.826  1.00  0.00    -0.203 F 
ATOM     65  C   UNL A   1      44.948  26.803  36.529  1.00  0.00     0.198 A 
ATOM     66  C   UNL A   1      46.425  28.498  35.685  1.00  0.00     0.198 A 
ATOM     67  F   UNL A   1      45.621  30.119  34.180  1.00  0.00    -0.203 F 
ATOM     68  F   UNL A   1      44.731  25.737  37.312  1.00  0.00    -0.200 F 
ATOM     69  C   UNL A   1      46.206  27.386  36.485  1.00  0.00     0.200 A 
ATOM     70  F   UNL A   1      47.647  29.045  35.622  1.00  0.00    -0.200 F 
ATOM     71  F   UNL A   1      47.209  26.872  37.210  1.00  0.00    -0.200 F 
ENDBRANCH  38  61
ENDBRANCH  12  13
ENDBRANCH   5   7
ENDBRANCH   2   3
ENDBRANCH   1   2
BRANCH   1  72
ATOM     72  C   UNL A   1      31.277  30.806  25.456  1.00  0.00     0.023 C 
BRANCH  72  73
ATOM     73  C   UNL A   1      32.335  29.747  25.769  1.00  0.00     0.116 C 
BRANCH  73  74
ATOM     74  N   UNL A   1      31.746  28.578  26.394  1.00  0.00    -0.351 N 
ATOM     75  C   UNL A   1      31.377  27.393  25.815  1.00  0.00     0.273 C 
ATOM     76  H   UNL A   1      31.590  28.644  27.365  1.00  0.00     0.163 HD
ATOM     77  O   UNL A   1      30.678  26.613  26.472  1.00  0.00    -0.267 OA
BRANCH  75  78
ATOM     78  C   UNL A   1      31.793  27.102  24.453  1.00  0.00     0.174 A 
ATOM     79  N   UNL A   1      32.909  26.356  24.100  1.00  0.00    -0.211 NA
ATOM     80  C   UNL A   1      31.112  27.468  23.309  1.00  0.00     0.167 A 
ATOM     81  C   UNL A   1      32.842  26.301  22.790  1.00  0.00     0.309 A 
ATOM     82  O   UNL A   1      31.781  26.947  22.235  1.00  0.00    -0.443 OA
BRANCH  80  83
ATOM     83  C   UNL A   1      29.945  28.276  23.020  1.00  0.00     0.026 A 
ATOM     84  C   UNL A   1      28.676  27.854  23.438  1.00  0.00     0.051 A 
ATOM     85  C   UNL A   1      30.064  29.469  22.300  1.00  0.00     0.051 A 
ATOM     86  C   UNL A   1      27.553  28.615  23.127  1.00  0.00     0.126 A 
ATOM     87  C   UNL A   1      28.923  30.206  21.991  1.00  0.00     0.126 A 
ATOM     88  F   UNL A   1      26.347  28.203  23.537  1.00  0.00    -0.207 F 
ATOM     89  C   UNL A   1      27.664  29.791  22.399  1.00  0.00     0.078 A 
ATOM     90  F   UNL A   1      29.046  31.336  21.283  1.00  0.00    -0.207 F 
ENDBRANCH  80  83
ENDBRANCH  75  78
ENDBRANCH  73  74
ENDBRANCH  72  73
ENDBRANCH   1  72
TORSDOF 12
ENDMDL
MODEL 3
REMARK VINA RESULT:     -12.3      1.212      7.702
REMARK SMILES O=C(NCCCCNC(=O)c1ncoc1-c1cc(F)cc(F)c1)c1ccc(-c2c3nc(c(-c4c(F)c(F)c(F)c(F)c4F)c4ccc([nH]4)c(-c4c(F)c(F)c(F)c(F)c4F)c4nc(c(-c5c(F)c(F)c(F)c(F)c5F)c5ccc2[nH]5)C=C4)C=C3)cc1
REMARK SMILES IDX 5 1 4 2 3 3 1 4 2 5 24 7 25 8 86 9 26 10 85 11 27 12 28 13
REMARK SMILES IDX 29 14 79 15 30 16 84 17 78 18 80 19 31 20 83 21 77 22 76 23
REMARK SMILES IDX 32 25 64 26 44 27 63 28 45 29 48 30 62 31 81 32 46 33 47 34
REMARK SMILES IDX 61 36 82 37 49 38 33 39 34 40 42 41 35 42 36 43 40 44 43 45
REMARK SMILES IDX 37 46 38 47 41 48 39 49 65 50 66 51 74 52 67 53 68 54 72 55
REMARK SMILES IDX 75 56 69 57 70 58 73 59 71 60 50 61 51 62 59 63 52 64 53 65
REMARK SMILES IDX 57 66 60 67 54 68 55 69 58 70 56 71 6 72 7 73 8 74 9 75
REMARK SMILES IDX 10 77 11 78 12 79 15 80 13 81 14 82 16 83 17 84 23 85 18 86
REMARK SMILES IDX 21 87 19 88 20 89 22 90
REMARK H PARENT 3 6 80 24 48 35 8 76
REMARK Flexibility Score: inf
ROOT
ATOM      1  C   UNL A   1      31.765  32.076  26.924  1.00  0.00     0.023 C 
ENDROOT
BRANCH   1   2
ATOM      2  C   UNL A   1      32.920  33.066  26.998  1.00  0.00     0.116 C 
BRANCH   2   3
ATOM      3  N   UNL A   1      32.556  34.317  27.641  1.00  0.00    -0.352 N 
ATOM      4  O   UNL A   1      32.539  35.883  29.266  1.00  0.00    -0.269 OA
ATOM      5  C   UNL A   1      33.056  34.877  28.791  1.00  0.00     0.251 C 
ATOM      6  H   UNL A   1      31.852  34.837  27.189  1.00  0.00     0.163 HD
BRANCH   5   7
ATOM      7  C   UNL A   1      34.206  34.246  29.474  1.00  0.00     0.039 A 
ATOM      8  C   UNL A   1      35.515  34.578  29.118  1.00  0.00     0.014 A 
ATOM      9  C   UNL A   1      33.967  33.308  30.482  1.00  0.00     0.014 A 
ATOM     10  C   UNL A   1      36.578  33.870  29.666  1.00  0.00     0.010 A 
ATOM     11  C   UNL A   1      35.042  32.659  31.095  1.00  0.00     0.010 A 
ATOM     12  C   UNL A   1      36.356  32.915  30.672  1.00  0.00    -0.014 A 
BRANCH  12  13
ATOM     13  C   UNL A   1      37.518  32.251  31.315  1.00  0.00     0.031 A 
ATOM     14  C   UNL A   1      38.295  31.179  30.606  1.00  0.00     0.074 A 
ATOM     15  C   UNL A   1      37.888  32.658  32.544  1.00  0.00     0.049 A 
ATOM     16  N   UNL A   1      39.337  30.506  31.024  1.00  0.00    -0.248 NA
ATOM     17  C   UNL A   1      37.848  30.810  29.254  1.00  0.00     0.031 C 
ATOM     18  C   UNL A   1      37.208  33.694  33.325  1.00  0.00     0.029 A 
ATOM     19  N   UNL A   1      38.932  32.271  33.345  1.00  0.00    -0.354 N 
ATOM     20  C   UNL A   1      39.666  29.632  29.996  1.00  0.00     0.074 A 
ATOM     21  C   UNL A   1      38.695  29.836  28.943  1.00  0.00     0.031 C 
ATOM     22  C   UNL A   1      37.883  33.900  34.465  1.00  0.00     0.029 A 
ATOM     23  C   UNL A   1      39.000  32.964  34.528  1.00  0.00     0.049 A 
ATOM     24  H   UNL A   1      39.571  31.566  33.095  1.00  0.00     0.167 HD
ATOM     25  C   UNL A   1      40.693  28.751  29.938  1.00  0.00     0.037 A 
ATOM     26  C   UNL A   1      39.855  32.849  35.561  1.00  0.00     0.037 A 
ATOM     27  C   UNL A   1      41.661  28.562  30.989  1.00  0.00     0.049 A 
ATOM     28  C   UNL A   1      40.951  31.826  35.487  1.00  0.00     0.074 A 
ATOM     29  C   UNL A   1      42.745  27.700  31.017  1.00  0.00     0.029 A 
ATOM     30  N   UNL A   1      41.666  29.246  32.195  1.00  0.00    -0.354 N 
ATOM     31  N   UNL A   1      41.256  31.013  34.506  1.00  0.00    -0.248 NA
ATOM     32  C   UNL A   1      41.817  31.699  36.667  1.00  0.00     0.031 C 
ATOM     33  C   UNL A   1      43.377  27.830  32.256  1.00  0.00     0.029 A 
ATOM     34  C   UNL A   1      42.721  28.811  32.982  1.00  0.00     0.049 A 
ATOM     35  H   UNL A   1      41.016  29.939  32.455  1.00  0.00     0.167 HD
ATOM     36  C   UNL A   1      42.356  30.289  34.941  1.00  0.00     0.074 A 
ATOM     37  C   UNL A   1      42.679  30.774  36.267  1.00  0.00     0.031 C 
ATOM     38  C   UNL A   1      43.034  29.308  34.297  1.00  0.00     0.037 A 
BRANCH  25  39
ATOM     39  C   UNL A   1      40.836  27.913  28.701  1.00  0.00     0.064 A 
ATOM     40  C   UNL A   1      41.617  28.360  27.624  1.00  0.00     0.173 A 
ATOM     41  C   UNL A   1      40.125  26.715  28.542  1.00  0.00     0.173 A 
ATOM     42  F   UNL A   1      42.311  29.504  27.721  1.00  0.00    -0.203 F 
ATOM     43  C   UNL A   1      41.665  27.648  26.428  1.00  0.00     0.198 A 
ATOM     44  C   UNL A   1      40.196  25.992  27.353  1.00  0.00     0.198 A 
ATOM     45  F   UNL A   1      39.371  26.239  29.545  1.00  0.00    -0.203 F 
ATOM     46  F   UNL A   1      42.388  28.115  25.400  1.00  0.00    -0.200 F 
ATOM     47  C   UNL A   1      40.956  26.464  26.294  1.00  0.00     0.200 A 
ATOM     48  F   UNL A   1      39.525  24.838  27.232  1.00  0.00    -0.200 F 
ATOM     49  F   UNL A   1      41.004  25.779  25.144  1.00  0.00    -0.200 F 
ENDBRANCH  25  39
BRANCH  26  50
ATOM     50  C   UNL A   1      39.703  33.737  36.742  1.00  0.00     0.064 A 
ATOM     51  C   UNL A   1      38.889  33.377  37.827  1.00  0.00     0.173 A 
ATOM     52  C   UNL A   1      40.346  34.981  36.793  1.00  0.00     0.173 A 
ATOM     53  F   UNL A   1      38.247  32.200  37.823  1.00  0.00    -0.203 F 
ATOM     54  C   UNL A   1      38.705  34.239  38.905  1.00  0.00     0.198 A 
ATOM     55  C   UNL A   1      40.187  35.828  37.887  1.00  0.00     0.198 A 
ATOM     56  F   UNL A   1      41.150  35.361  35.789  1.00  0.00    -0.203 F 
ATOM     57  F   UNL A   1      37.889  33.887  39.908  1.00  0.00    -0.200 F 
ATOM     58  C   UNL A   1      39.358  35.461  38.937  1.00  0.00     0.200 A 
ATOM     59  F   UNL A   1      40.839  36.998  37.926  1.00  0.00    -0.200 F 
ATOM     60  F   UNL A   1      39.192  36.284  39.982  1.00  0.00    -0.200 F 
ENDBRANCH  26  50
BRANCH  38  61
ATOM     61  C   UNL A   1      44.211  28.704  35.006  1.00  0.00     0.064 A 
ATOM     62  C   UNL A   1      45.493  29.251  34.845  1.00  0.00     0.173 A 
ATOM     63  C   UNL A   1      44.080  27.550  35.790  1.00  0.00     0.173 A 
ATOM     64  F   UNL A   1      45.671  30.351  34.098  1.00  0.00    -0.203 F 
ATOM     65  C   UNL A   1      46.604  28.654  35.433  1.00  0.00     0.198 A 
ATOM     66  C   UNL A   1      45.189  26.972  36.401  1.00  0.00     0.198 A 
ATOM     67  F   UNL A   1      42.873  26.999  35.986  1.00  0.00    -0.203 F 
ATOM     68  F   UNL A   1      47.824  29.174  35.239  1.00  0.00    -0.200 F 
ATOM     69  C   UNL A   1      46.451  27.518  36.213  1.00  0.00     0.200 A 
ATOM     70  F   UNL A   1      45.038  25.889  37.176  1.00  0.00    -0.200 F 
ATOM     71  F   UNL A   1      47.520  26.951  36.790  1.00  0.00    -0.200 F 
ENDBRANCH  38  61
ENDBRANCH  12  13
ENDBRANCH   5   7
ENDBRANCH   2   3
ENDBRANCH   1   2
BRANCH   1  72
ATOM     72  C   UNL A   1      32.171  30.602  26.920  1.00  0.00     0.023 C 
BRANCH  72  73
ATOM     73  C   UNL A   1      31.404  29.724  25.930  1.00  0.00     0.116 C 
BRANCH  73  74
ATOM     74  N   UNL A   1      32.067  29.673  24.641  1.00  0.00    -0.351 N 
ATOM     75  C   UNL A   1      31.714  28.963  23.525  1.00  0.00     0.273 C 
ATOM     76  H   UNL A   1      32.881  30.221  24.557  1.00  0.00     0.163 HD
ATOM     77  O   UNL A   1      32.537  28.868  22.607  1.00  0.00    -0.267 OA
BRANCH  75  78
ATOM     78  C   UNL A   1      30.407  28.330  23.463  1.00  0.00     0.174 A 
ATOM     79  N   UNL A   1      30.131  27.026  23.848  1.00  0.00    -0.211 NA
ATOM     80  C   UNL A   1      29.234  28.945  23.071  1.00  0.00     0.167 A 
ATOM     81  C   UNL A   1      28.832  26.923  23.684  1.00  0.00     0.309 A 
ATOM     82  O   UNL A   1      28.215  28.043  23.220  1.00  0.00    -0.443 OA
BRANCH  80  83
ATOM     83  C   UNL A   1      28.883  30.239  22.526  1.00  0.00     0.026 A 
ATOM     84  C   UNL A   1      29.087  31.402  23.282  1.00  0.00     0.051 A 
ATOM     85  C   UNL A   1      28.314  30.346  21.252  1.00  0.00     0.051 A 
ATOM     86  C   UNL A   1      28.715  32.640  22.768  1.00  0.00     0.126 A 
ATOM     87  C   UNL A   1      27.940  31.597  20.765  1.00  0.00     0.126 A 
ATOM     88  F   UNL A   1      28.921  33.742  23.499  1.00  0.00    -0.207 F 
ATOM     89  C   UNL A   1      28.135  32.749  21.513  1.00  0.00     0.078 A 
ATOM     90  F   UNL A   1      27.375  31.685  19.555  1.00  0.00    -0.207 F 
ENDBRANCH  80  83
ENDBRANCH  75  78
ENDBRANCH  73  74
ENDBRANCH  72  73
ENDBRANCH   1  72
TORSDOF 12
ENDMDL
