MODEL 1
REMARK VINA RESULT:     -12.2      0.000      0.000
REMARK SMILES O=C(NCCCCNC(=O)c1cc(OCc2ccc(F)cc2)cs1)c1ccc(-c2c3nc(c(-c4c(F)c(F)c(F)c(F)c4F)c4ccc([nH]4)c(-c4c(F)c(F)c(F)c(F)c4F)c4nc(c(-c5c(F)c(F)c(F)c(F)c5F)c5ccc2[nH]5)C=C4)C=C3)cc1
REMARK SMILES IDX 6 1 5 2 4 3 3 4 1 5 2 6 25 8 26 9 87 10 27 11 86 12 28 13
REMARK SMILES IDX 29 14 30 15 80 16 31 17 85 18 79 19 81 20 32 21 84 22 78 23
REMARK SMILES IDX 77 24 33 26 65 27 45 28 64 29 46 30 49 31 63 32 82 33 47 34
REMARK SMILES IDX 48 35 62 37 83 38 50 39 34 40 35 41 43 42 36 43 37 44 41 45
REMARK SMILES IDX 44 46 38 47 39 48 42 49 40 50 66 51 67 52 75 53 68 54 69 55
REMARK SMILES IDX 73 56 76 57 70 58 71 59 74 60 72 61 51 62 52 63 60 64 53 65
REMARK SMILES IDX 54 66 58 67 61 68 55 69 56 70 59 71 57 72 7 73 8 74 9 75
REMARK SMILES IDX 10 77 11 78 12 79 24 80 13 81 23 82 14 83 15 84 16 85 17 86
REMARK SMILES IDX 22 87 18 88 21 89 19 90 20 91
REMARK H PARENT 3 7 81 25 49 36 8 76
REMARK Flexibility Score: inf
ROOT
ATOM      1  C   UNL A   1      31.488  30.783  26.074  1.00  0.00     0.023 C 
ENDROOT
BRANCH   1   2
ATOM      2  C   UNL A   1      31.358  32.239  26.513  1.00  0.00     0.023 C 
BRANCH   2   3
ATOM      3  C   UNL A   1      32.581  32.817  27.213  1.00  0.00     0.116 C 
BRANCH   3   4
ATOM      4  N   UNL A   1      32.405  34.200  27.621  1.00  0.00    -0.352 N 
ATOM      5  O   UNL A   1      32.723  36.044  28.885  1.00  0.00    -0.269 OA
ATOM      6  C   UNL A   1      33.076  34.906  28.590  1.00  0.00     0.251 C 
ATOM      7  H   UNL A   1      31.708  34.701  27.137  1.00  0.00     0.163 HD
BRANCH   6   8
ATOM      8  C   UNL A   1      34.217  34.288  29.301  1.00  0.00     0.039 A 
ATOM      9  C   UNL A   1      34.016  33.507  30.443  1.00  0.00     0.014 A 
ATOM     10  C   UNL A   1      35.508  34.470  28.794  1.00  0.00     0.014 A 
ATOM     11  C   UNL A   1      35.109  32.998  31.136  1.00  0.00     0.010 A 
ATOM     12  C   UNL A   1      36.601  33.897  29.450  1.00  0.00     0.010 A 
ATOM     13  C   UNL A   1      36.410  33.165  30.631  1.00  0.00    -0.014 A 
BRANCH  13  14
ATOM     14  C   UNL A   1      37.541  32.460  31.283  1.00  0.00     0.031 A 
ATOM     15  C   UNL A   1      38.240  31.312  30.614  1.00  0.00     0.074 A 
ATOM     16  C   UNL A   1      37.925  32.872  32.507  1.00  0.00     0.049 A 
ATOM     17  N   UNL A   1      39.224  30.577  31.068  1.00  0.00    -0.248 NA
ATOM     18  C   UNL A   1      37.779  30.933  29.270  1.00  0.00     0.031 C 
ATOM     19  C   UNL A   1      37.302  33.966  33.255  1.00  0.00     0.029 A 
ATOM     20  N   UNL A   1      38.924  32.429  33.336  1.00  0.00    -0.354 N 
ATOM     21  C   UNL A   1      39.493  29.645  30.075  1.00  0.00     0.074 A 
ATOM     22  C   UNL A   1      38.560  29.893  28.998  1.00  0.00     0.031 C 
ATOM     23  C   UNL A   1      37.945  34.125  34.420  1.00  0.00     0.029 A 
ATOM     24  C   UNL A   1      38.983  33.107  34.529  1.00  0.00     0.049 A 
ATOM     25  H   UNL A   1      39.538  31.697  33.099  1.00  0.00     0.167 HD
ATOM     26  C   UNL A   1      40.441  28.679  30.072  1.00  0.00     0.037 A 
ATOM     27  C   UNL A   1      39.764  32.913  35.608  1.00  0.00     0.037 A 
ATOM     28  C   UNL A   1      41.385  28.460  31.138  1.00  0.00     0.049 A 
ATOM     29  C   UNL A   1      40.779  31.809  35.585  1.00  0.00     0.074 A 
ATOM     30  C   UNL A   1      42.436  27.561  31.183  1.00  0.00     0.029 A 
ATOM     31  N   UNL A   1      41.388  29.141  32.345  1.00  0.00    -0.354 N 
ATOM     32  N   UNL A   1      41.059  30.971  34.618  1.00  0.00    -0.248 NA
ATOM     33  C   UNL A   1      41.577  31.611  36.802  1.00  0.00     0.031 C 
ATOM     34  C   UNL A   1      43.043  27.660  32.438  1.00  0.00     0.029 A 
ATOM     35  C   UNL A   1      42.398  28.651  33.159  1.00  0.00     0.049 A 
ATOM     36  H   UNL A   1      40.766  29.864  32.589  1.00  0.00     0.167 HD
ATOM     37  C   UNL A   1      42.062  30.148  35.106  1.00  0.00     0.074 A 
ATOM     38  C   UNL A   1      42.361  30.601  36.449  1.00  0.00     0.031 C 
ATOM     39  C   UNL A   1      42.673  29.105  34.497  1.00  0.00     0.037 A 
BRANCH  26  40
ATOM     40  C   UNL A   1      40.534  27.768  28.886  1.00  0.00     0.064 A 
ATOM     41  C   UNL A   1      41.317  28.127  27.778  1.00  0.00     0.173 A 
ATOM     42  C   UNL A   1      39.736  26.620  28.784  1.00  0.00     0.173 A 
ATOM     43  F   UNL A   1      42.089  29.223  27.825  1.00  0.00    -0.203 F 
ATOM     44  C   UNL A   1      41.278  27.385  26.602  1.00  0.00     0.198 A 
ATOM     45  C   UNL A   1      39.713  25.870  27.610  1.00  0.00     0.198 A 
ATOM     46  F   UNL A   1      38.971  26.235  29.816  1.00  0.00    -0.203 F 
ATOM     47  F   UNL A   1      42.001  27.771  25.541  1.00  0.00    -0.200 F 
ATOM     48  C   UNL A   1      40.473  26.259  26.517  1.00  0.00     0.200 A 
ATOM     49  F   UNL A   1      38.941  24.776  27.531  1.00  0.00    -0.200 F 
ATOM     50  F   UNL A   1      40.424  25.554  25.379  1.00  0.00    -0.200 F 
ENDBRANCH  26  40
BRANCH  27  51
ATOM     51  C   UNL A   1      39.580  33.771  36.805  1.00  0.00     0.064 A 
ATOM     52  C   UNL A   1      38.757  33.367  37.866  1.00  0.00     0.173 A 
ATOM     53  C   UNL A   1      40.193  35.028  36.895  1.00  0.00     0.173 A 
ATOM     54  F   UNL A   1      38.144  32.174  37.824  1.00  0.00    -0.203 F 
ATOM     55  C   UNL A   1      38.533  34.198  38.961  1.00  0.00     0.198 A 
ATOM     56  C   UNL A   1      39.991  35.846  38.005  1.00  0.00     0.198 A 
ATOM     57  F   UNL A   1      41.004  35.450  35.914  1.00  0.00    -0.203 F 
ATOM     58  F   UNL A   1      37.708  33.803  39.941  1.00  0.00    -0.200 F 
ATOM     59  C   UNL A   1      39.153  35.435  39.031  1.00  0.00     0.200 A 
ATOM     60  F   UNL A   1      40.609  37.032  38.081  1.00  0.00    -0.200 F 
ATOM     61  F   UNL A   1      38.947  36.230  40.090  1.00  0.00    -0.200 F 
ENDBRANCH  27  51
BRANCH  39  62
ATOM     62  C   UNL A   1      43.716  28.364  35.275  1.00  0.00     0.064 A 
ATOM     63  C   UNL A   1      43.360  27.306  36.124  1.00  0.00     0.173 A 
ATOM     64  C   UNL A   1      45.060  28.762  35.242  1.00  0.00     0.173 A 
ATOM     65  F   UNL A   1      42.085  26.895  36.193  1.00  0.00    -0.203 F 
ATOM     66  C   UNL A   1      44.309  26.687  36.930  1.00  0.00     0.198 A 
ATOM     67  C   UNL A   1      46.011  28.125  36.033  1.00  0.00     0.198 A 
ATOM     68  F   UNL A   1      45.449  29.758  34.432  1.00  0.00    -0.203 F 
ATOM     69  F   UNL A   1      43.942  25.703  37.762  1.00  0.00    -0.200 F 
ATOM     70  C   UNL A   1      45.635  27.096  36.883  1.00  0.00     0.200 A 
ATOM     71  F   UNL A   1      47.294  28.507  35.971  1.00  0.00    -0.200 F 
ATOM     72  F   UNL A   1      46.548  26.499  37.660  1.00  0.00    -0.200 F 
ENDBRANCH  39  62
ENDBRANCH  13  14
ENDBRANCH   6   8
ENDBRANCH   3   4
ENDBRANCH   2   3
ENDBRANCH   1   2
BRANCH   1  73
ATOM     73  C   UNL A   1      32.843  30.135  26.343  1.00  0.00     0.116 C 
BRANCH  73  74
ATOM     74  N   UNL A   1      33.455  29.581  25.145  1.00  0.00    -0.351 N 
ATOM     75  C   UNL A   1      33.346  28.309  24.627  1.00  0.00     0.261 C 
ATOM     76  H   UNL A   1      34.025  30.200  24.634  1.00  0.00     0.163 HD
ATOM     77  O   UNL A   1      34.070  28.016  23.673  1.00  0.00    -0.268 OA
BRANCH  75  78
ATOM     78  C   UNL A   1      32.396  27.402  25.233  1.00  0.00     0.096 A 
ATOM     79  C   UNL A   1      32.584  26.538  26.296  1.00  0.00     0.072 A 
ATOM     80  S   UNL A   1      30.805  27.301  24.620  1.00  0.00    -0.135 S 
ATOM     81  C   UNL A   1      31.497  25.632  26.447  1.00  0.00     0.131 A 
ATOM     82  C   UNL A   1      30.442  25.966  25.629  1.00  0.00     0.112 A 
BRANCH  81  83
ATOM     83  O   UNL A   1      31.400  24.528  27.235  1.00  0.00    -0.488 OA
BRANCH  83  84
ATOM     84  C   UNL A   1      31.071  23.305  26.567  1.00  0.00     0.265 C 
BRANCH  84  85
ATOM     85  C   UNL A   1      32.266  22.493  26.095  1.00  0.00    -0.011 A 
ATOM     86  C   UNL A   1      32.223  21.843  24.849  1.00  0.00     0.010 A 
ATOM     87  C   UNL A   1      33.427  22.386  26.879  1.00  0.00     0.010 A 
ATOM     88  C   UNL A   1      33.299  21.063  24.421  1.00  0.00     0.039 A 
ATOM     89  C   UNL A   1      34.500  21.604  26.448  1.00  0.00     0.039 A 
ATOM     90  C   UNL A   1      34.422  20.943  25.229  1.00  0.00     0.123 A 
ATOM     91  F   UNL A   1      35.432  20.157  24.837  1.00  0.00    -0.207 F 
ENDBRANCH  84  85
ENDBRANCH  83  84
ENDBRANCH  81  83
ENDBRANCH  75  78
ENDBRANCH  73  74
ENDBRANCH   1  73
TORSDOF 14
ENDMDL
MODEL 2
REMARK VINA RESULT:     -12.1      0.177      1.153
REMARK SMILES O=C(NCCCCNC(=O)c1cc(OCc2ccc(F)cc2)cs1)c1ccc(-c2c3nc(c(-c4c(F)c(F)c(F)c(F)c4F)c4ccc([nH]4)c(-c4c(F)c(F)c(F)c(F)c4F)c4nc(c(-c5c(F)c(F)c(F)c(F)c5F)c5ccc2[nH]5)C=C4)C=C3)cc1
REMARK SMILES IDX 6 1 5 2 4 3 3 4 1 5 2 6 25 8 26 9 87 10 27 11 86 12 28 13
REMARK SMILES IDX 29 14 30 15 80 16 31 17 85 18 79 19 81 20 32 21 84 22 78 23
REMARK SMILES IDX 77 24 33 26 65 27 45 28 64 29 46 30 49 31 63 32 82 33 47 34
REMARK SMILES IDX 48 35 62 37 83 38 50 39 34 40 35 41 43 42 36 43 37 44 41 45
REMARK SMILES IDX 44 46 38 47 39 48 42 49 40 50 66 51 67 52 75 53 68 54 69 55
REMARK SMILES IDX 73 56 76 57 70 58 71 59 74 60 72 61 51 62 52 63 60 64 53 65
REMARK SMILES IDX 54 66 58 67 61 68 55 69 56 70 59 71 57 72 7 73 8 74 9 75
REMARK SMILES IDX 10 77 11 78 12 79 24 80 13 81 23 82 14 83 15 84 16 85 17 86
REMARK SMILES IDX 22 87 18 88 21 89 19 90 20 91
REMARK H PARENT 3 7 81 25 49 36 8 76
REMARK Flexibility Score: inf
ROOT
ATOM      1  C   UNL A   1      31.526  30.780  26.077  1.00  0.00     0.023 C 
ENDROOT
BRANCH   1   2
ATOM      2  C   UNL A   1      31.376  32.234  26.518  1.00  0.00     0.023 C 
BRANCH   2   3
ATOM      3  C   UNL A   1      32.588  32.826  27.225  1.00  0.00     0.116 C 
BRANCH   3   4
ATOM      4  N   UNL A   1      32.393  34.206  27.635  1.00  0.00    -0.352 N 
ATOM      5  O   UNL A   1      32.688  36.053  28.901  1.00  0.00    -0.269 OA
ATOM      6  C   UNL A   1      33.056  34.921  28.603  1.00  0.00     0.251 C 
ATOM      7  H   UNL A   1      31.688  34.696  27.153  1.00  0.00     0.163 HD
BRANCH   6   8
ATOM      8  C   UNL A   1      34.209  34.319  29.310  1.00  0.00     0.039 A 
ATOM      9  C   UNL A   1      34.023  33.538  30.454  1.00  0.00     0.014 A 
ATOM     10  C   UNL A   1      35.494  34.516  28.797  1.00  0.00     0.014 A 
ATOM     11  C   UNL A   1      35.126  33.044  31.143  1.00  0.00     0.010 A 
ATOM     12  C   UNL A   1      36.598  33.958  29.449  1.00  0.00     0.010 A 
ATOM     13  C   UNL A   1      36.422  33.227  30.633  1.00  0.00    -0.014 A 
BRANCH  13  14
ATOM     14  C   UNL A   1      37.565  32.537  31.280  1.00  0.00     0.031 A 
ATOM     15  C   UNL A   1      38.276  31.398  30.611  1.00  0.00     0.074 A 
ATOM     16  C   UNL A   1      37.950  32.957  32.502  1.00  0.00     0.049 A 
ATOM     17  N   UNL A   1      39.272  30.676  31.061  1.00  0.00    -0.248 NA
ATOM     18  C   UNL A   1      37.814  31.010  29.269  1.00  0.00     0.031 C 
ATOM     19  C   UNL A   1      37.315  34.045  33.251  1.00  0.00     0.029 A 
ATOM     20  N   UNL A   1      38.957  32.529  33.328  1.00  0.00    -0.354 N 
ATOM     21  C   UNL A   1      39.548  29.746  30.070  1.00  0.00     0.074 A 
ATOM     22  C   UNL A   1      38.607  29.980  28.995  1.00  0.00     0.031 C 
ATOM     23  C   UNL A   1      37.961  34.214  34.413  1.00  0.00     0.029 A 
ATOM     24  C   UNL A   1      39.013  33.209  34.519  1.00  0.00     0.049 A 
ATOM     25  H   UNL A   1      39.579  31.805  33.089  1.00  0.00     0.167 HD
ATOM     26  C   UNL A   1      40.509  28.793  30.063  1.00  0.00     0.037 A 
ATOM     27  C   UNL A   1      39.801  33.028  35.595  1.00  0.00     0.037 A 
ATOM     28  C   UNL A   1      41.460  28.588  31.126  1.00  0.00     0.049 A 
ATOM     29  C   UNL A   1      40.831  31.937  35.569  1.00  0.00     0.074 A 
ATOM     30  C   UNL A   1      42.523  27.702  31.168  1.00  0.00     0.029 A 
ATOM     31  N   UNL A   1      41.460  29.271  32.332  1.00  0.00    -0.354 N 
ATOM     32  N   UNL A   1      41.117  31.101  34.602  1.00  0.00    -0.248 NA
ATOM     33  C   UNL A   1      41.637  31.752  36.783  1.00  0.00     0.031 C 
ATOM     34  C   UNL A   1      43.134  27.812  32.420  1.00  0.00     0.029 A 
ATOM     35  C   UNL A   1      42.479  28.796  33.142  1.00  0.00     0.049 A 
ATOM     36  H   UNL A   1      40.829  29.987  32.577  1.00  0.00     0.167 HD
ATOM     37  C   UNL A   1      42.133  30.292  35.088  1.00  0.00     0.074 A 
ATOM     38  C   UNL A   1      42.432  30.752  36.428  1.00  0.00     0.031 C 
ATOM     39  C   UNL A   1      42.754  29.256  34.478  1.00  0.00     0.037 A 
BRANCH  26  40
ATOM     40  C   UNL A   1      40.608  27.880  28.879  1.00  0.00     0.064 A 
ATOM     41  C   UNL A   1      41.382  28.247  27.768  1.00  0.00     0.173 A 
ATOM     42  C   UNL A   1      39.824  26.722  28.782  1.00  0.00     0.173 A 
ATOM     43  F   UNL A   1      42.141  29.353  27.809  1.00  0.00    -0.203 F 
ATOM     44  C   UNL A   1      41.347  27.502  26.593  1.00  0.00     0.198 A 
ATOM     45  C   UNL A   1      39.805  25.970  27.610  1.00  0.00     0.198 A 
ATOM     46  F   UNL A   1      39.068  26.330  29.818  1.00  0.00    -0.203 F 
ATOM     47  F   UNL A   1      42.062  27.895  25.528  1.00  0.00    -0.200 F 
ATOM     48  C   UNL A   1      40.557  26.366  26.513  1.00  0.00     0.200 A 
ATOM     49  F   UNL A   1      39.047  24.866  27.536  1.00  0.00    -0.200 F 
ATOM     50  F   UNL A   1      40.511  25.658  25.376  1.00  0.00    -0.200 F 
ENDBRANCH  26  40
BRANCH  27  51
ATOM     51  C   UNL A   1      39.612  33.886  36.791  1.00  0.00     0.064 A 
ATOM     52  C   UNL A   1      38.807  33.469  37.861  1.00  0.00     0.173 A 
ATOM     53  C   UNL A   1      40.200  35.155  36.871  1.00  0.00     0.173 A 
ATOM     54  F   UNL A   1      38.217  32.264  37.828  1.00  0.00    -0.203 F 
ATOM     55  C   UNL A   1      38.576  34.298  38.955  1.00  0.00     0.198 A 
ATOM     56  C   UNL A   1      39.992  35.972  37.981  1.00  0.00     0.198 A 
ATOM     57  F   UNL A   1      40.993  35.590  35.881  1.00  0.00    -0.203 F 
ATOM     58  F   UNL A   1      37.769  33.891  39.944  1.00  0.00    -0.200 F 
ATOM     59  C   UNL A   1      39.173  35.548  39.016  1.00  0.00     0.200 A 
ATOM     60  F   UNL A   1      40.587  37.171  38.047  1.00  0.00    -0.200 F 
ATOM     61  F   UNL A   1      38.960  36.342  40.074  1.00  0.00    -0.200 F 
ENDBRANCH  27  51
BRANCH  39  62
ATOM     62  C   UNL A   1      43.810  28.530  35.252  1.00  0.00     0.064 A 
ATOM     63  C   UNL A   1      45.163  28.869  35.109  1.00  0.00     0.173 A 
ATOM     64  C   UNL A   1      43.485  27.439  36.071  1.00  0.00     0.173 A 
ATOM     65  F   UNL A   1      45.523  29.901  34.331  1.00  0.00    -0.203 F 
ATOM     66  C   UNL A   1      46.156  28.127  35.742  1.00  0.00     0.198 A 
ATOM     67  C   UNL A   1      44.478  26.713  36.720  1.00  0.00     0.198 A 
ATOM     68  F   UNL A   1      42.202  27.089  36.250  1.00  0.00    -0.203 F 
ATOM     69  F   UNL A   1      47.445  28.445  35.563  1.00  0.00    -0.200 F 
ATOM     70  C   UNL A   1      45.813  27.051  36.548  1.00  0.00     0.200 A 
ATOM     71  F   UNL A   1      44.145  25.688  37.515  1.00  0.00    -0.200 F 
ATOM     72  F   UNL A   1      46.770  26.338  37.157  1.00  0.00    -0.200 F 
ENDBRANCH  39  62
ENDBRANCH  13  14
ENDBRANCH   6   8
ENDBRANCH   3   4
ENDBRANCH   2   3
ENDBRANCH   1   2
BRANCH   1  73
ATOM     73  C   UNL A   1      32.877  30.138  26.383  1.00  0.00     0.116 C 
BRANCH  73  74
ATOM     74  N   UNL A   1      33.528  29.598  25.200  1.00  0.00    -0.351 N 
ATOM     75  C   UNL A   1      33.440  28.331  24.665  1.00  0.00     0.261 C 
ATOM     76  H   UNL A   1      34.113  30.224  24.714  1.00  0.00     0.163 HD
ATOM     77  O   UNL A   1      34.195  28.050  23.732  1.00  0.00    -0.268 OA
BRANCH  75  78
ATOM     78  C   UNL A   1      32.473  27.416  25.230  1.00  0.00     0.096 A 
ATOM     79  C   UNL A   1      32.618  26.563  26.309  1.00  0.00     0.072 A 
ATOM     80  S   UNL A   1      30.916  27.288  24.537  1.00  0.00    -0.135 S 
ATOM     81  C   UNL A   1      31.537  25.643  26.412  1.00  0.00     0.131 A 
ATOM     82  C   UNL A   1      30.521  25.956  25.539  1.00  0.00     0.112 A 
BRANCH  81  83
ATOM     83  O   UNL A   1      31.415  24.545  27.204  1.00  0.00    -0.488 OA
BRANCH  83  84
ATOM     84  C   UNL A   1      31.179  23.305  26.528  1.00  0.00     0.265 C 
BRANCH  84  85
ATOM     85  C   UNL A   1      32.433  22.552  26.116  1.00  0.00    -0.011 A 
ATOM     86  C   UNL A   1      32.483  21.901  24.871  1.00  0.00     0.010 A 
ATOM     87  C   UNL A   1      33.558  22.500  26.956  1.00  0.00     0.010 A 
ATOM     88  C   UNL A   1      33.614  21.174  24.497  1.00  0.00     0.039 A 
ATOM     89  C   UNL A   1      34.688  21.771  26.580  1.00  0.00     0.039 A 
ATOM     90  C   UNL A   1      34.702  21.109  25.359  1.00  0.00     0.123 A 
ATOM     91  F   UNL A   1      35.766  20.373  25.018  1.00  0.00    -0.207 F 
ENDBRANCH  84  85
ENDBRANCH  83  84
ENDBRANCH  81  83
ENDBRANCH  75  78
ENDBRANCH  73  74
ENDBRANCH   1  73
TORSDOF 14
ENDMDL
MODEL 3
REMARK VINA RESULT:     -12.1      5.821     10.746
REMARK SMILES O=C(NCCCCNC(=O)c1cc(OCc2ccc(F)cc2)cs1)c1ccc(-c2c3nc(c(-c4c(F)c(F)c(F)c(F)c4F)c4ccc([nH]4)c(-c4c(F)c(F)c(F)c(F)c4F)c4nc(c(-c5c(F)c(F)c(F)c(F)c5F)c5ccc2[nH]5)C=C4)C=C3)cc1
REMARK SMILES IDX 6 1 5 2 4 3 3 4 1 5 2 6 25 8 26 9 87 10 27 11 86 12 28 13
REMARK SMILES IDX 29 14 30 15 80 16 31 17 85 18 79 19 81 20 32 21 84 22 78 23
REMARK SMILES IDX 77 24 33 26 65 27 45 28 64 29 46 30 49 31 63 32 82 33 47 34
REMARK SMILES IDX 48 35 62 37 83 38 50 39 34 40 35 41 43 42 36 43 37 44 41 45
REMARK SMILES IDX 44 46 38 47 39 48 42 49 40 50 66 51 67 52 75 53 68 54 69 55
REMARK SMILES IDX 73 56 76 57 70 58 71 59 74 60 72 61 51 62 52 63 60 64 53 65
REMARK SMILES IDX 54 66 58 67 61 68 55 69 56 70 59 71 57 72 7 73 8 74 9 75
REMARK SMILES IDX 10 77 11 78 12 79 24 80 13 81 23 82 14 83 15 84 16 85 17 86
REMARK SMILES IDX 22 87 18 88 21 89 19 90 20 91
REMARK H PARENT 3 7 81 25 49 36 8 76
REMARK Flexibility Score: inf
ROOT
ATOM      1  C   UNL A   1      37.057  20.295  24.883  1.00  0.00     0.023 C 
ENDROOT
BRANCH   1   2
ATOM      2  C   UNL A   1      38.212  19.303  24.997  1.00  0.00     0.023 C 
BRANCH   2   3
ATOM      3  C   UNL A   1      39.383  19.767  25.853  1.00  0.00     0.116 C 
BRANCH   3   4
ATOM      4  N   UNL A   1      40.500  18.838  25.843  1.00  0.00    -0.352 N 
ATOM      5  O   UNL A   1      42.667  18.203  25.898  1.00  0.00    -0.269 OA
ATOM      6  C   UNL A   1      41.835  19.092  26.054  1.00  0.00     0.251 C 
ATOM      7  H   UNL A   1      40.271  17.899  25.660  1.00  0.00     0.163 HD
BRANCH   6   8
ATOM      8  C   UNL A   1      42.279  20.447  26.449  1.00  0.00     0.039 A 
ATOM      9  C   UNL A   1      42.720  21.366  25.493  1.00  0.00     0.014 A 
ATOM     10  C   UNL A   1      42.220  20.811  27.798  1.00  0.00     0.014 A 
ATOM     11  C   UNL A   1      43.202  22.608  25.896  1.00  0.00     0.010 A 
ATOM     12  C   UNL A   1      42.635  22.085  28.194  1.00  0.00     0.010 A 
ATOM     13  C   UNL A   1      43.139  22.989  27.247  1.00  0.00    -0.014 A 
BRANCH  13  14
ATOM     14  C   UNL A   1      43.484  24.380  27.629  1.00  0.00     0.031 A 
ATOM     15  C   UNL A   1      42.424  25.388  27.966  1.00  0.00     0.074 A 
ATOM     16  C   UNL A   1      44.786  24.726  27.658  1.00  0.00     0.049 A 
ATOM     17  N   UNL A   1      42.566  26.649  28.289  1.00  0.00    -0.248 NA
ATOM     18  C   UNL A   1      41.026  24.932  27.934  1.00  0.00     0.031 C 
ATOM     19  C   UNL A   1      45.897  23.830  27.330  1.00  0.00     0.029 A 
ATOM     20  N   UNL A   1      45.399  25.912  27.976  1.00  0.00    -0.354 N 
ATOM     21  C   UNL A   1      41.283  27.139  28.488  1.00  0.00     0.074 A 
ATOM     22  C   UNL A   1      40.368  26.047  28.234  1.00  0.00     0.031 C 
ATOM     23  C   UNL A   1      47.055  24.488  27.485  1.00  0.00     0.029 A 
ATOM     24  C   UNL A   1      46.767  25.867  27.862  1.00  0.00     0.049 A 
ATOM     25  H   UNL A   1      44.906  26.715  28.257  1.00  0.00     0.167 HD
ATOM     26  C   UNL A   1      40.914  28.388  28.855  1.00  0.00     0.037 A 
ATOM     27  C   UNL A   1      47.690  26.834  28.013  1.00  0.00     0.037 A 
ATOM     28  C   UNL A   1      41.835  29.461  29.135  1.00  0.00     0.049 A 
ATOM     29  C   UNL A   1      47.243  28.217  28.385  1.00  0.00     0.074 A 
ATOM     30  C   UNL A   1      41.554  30.735  29.597  1.00  0.00     0.029 A 
ATOM     31  N   UNL A   1      43.209  29.387  28.971  1.00  0.00    -0.354 N 
ATOM     32  N   UNL A   1      46.030  28.652  28.623  1.00  0.00    -0.248 NA
ATOM     33  C   UNL A   1      48.284  29.247  28.496  1.00  0.00     0.031 C 
ATOM     34  C   UNL A   1      42.753  31.450  29.664  1.00  0.00     0.029 A 
ATOM     35  C   UNL A   1      43.785  30.608  29.284  1.00  0.00     0.049 A 
ATOM     36  H   UNL A   1      43.703  28.588  28.676  1.00  0.00     0.167 HD
ATOM     37  C   UNL A   1      46.160  30.002  28.911  1.00  0.00     0.074 A 
ATOM     38  C   UNL A   1      47.573  30.312  28.842  1.00  0.00     0.031 C 
ATOM     39  C   UNL A   1      45.192  30.903  29.197  1.00  0.00     0.037 A 
BRANCH  26  40
ATOM     40  C   UNL A   1      39.454  28.695  28.991  1.00  0.00     0.064 A 
ATOM     41  C   UNL A   1      38.745  29.249  27.913  1.00  0.00     0.173 A 
ATOM     42  C   UNL A   1      38.795  28.583  30.223  1.00  0.00     0.173 A 
ATOM     43  F   UNL A   1      39.337  29.388  26.717  1.00  0.00    -0.203 F 
ATOM     44  C   UNL A   1      37.440  29.705  28.072  1.00  0.00     0.198 A 
ATOM     45  C   UNL A   1      37.483  29.023  30.373  1.00  0.00     0.198 A 
ATOM     46  F   UNL A   1      39.430  28.059  31.282  1.00  0.00    -0.203 F 
ATOM     47  F   UNL A   1      36.797  30.271  27.040  1.00  0.00    -0.200 F 
ATOM     48  C   UNL A   1      36.810  29.595  29.302  1.00  0.00     0.200 A 
ATOM     49  F   UNL A   1      36.871  28.909  31.561  1.00  0.00    -0.200 F 
ATOM     50  F   UNL A   1      35.559  30.047  29.459  1.00  0.00    -0.200 F 
ENDBRANCH  26  40
BRANCH  27  51
ATOM     51  C   UNL A   1      49.121  26.520  27.776  1.00  0.00     0.064 A 
ATOM     52  C   UNL A   1      49.993  26.267  28.846  1.00  0.00     0.173 A 
ATOM     53  C   UNL A   1      49.653  26.504  26.480  1.00  0.00     0.173 A 
ATOM     54  F   UNL A   1      49.533  26.277  30.106  1.00  0.00    -0.203 F 
ATOM     55  C   UNL A   1      51.349  26.035  28.630  1.00  0.00     0.198 A 
ATOM     56  C   UNL A   1      51.004  26.242  26.264  1.00  0.00     0.198 A 
ATOM     57  F   UNL A   1      48.854  26.721  25.426  1.00  0.00    -0.203 F 
ATOM     58  F   UNL A   1      52.168  25.838  29.672  1.00  0.00    -0.200 F 
ATOM     59  C   UNL A   1      51.853  26.018  27.338  1.00  0.00     0.200 A 
ATOM     60  F   UNL A   1      51.484  26.205  25.013  1.00  0.00    -0.200 F 
ATOM     61  F   UNL A   1      53.155  25.784  27.129  1.00  0.00    -0.200 F 
ENDBRANCH  27  51
BRANCH  39  62
ATOM     62  C   UNL A   1      45.615  32.318  29.444  1.00  0.00     0.064 A 
ATOM     63  C   UNL A   1      45.930  32.756  30.738  1.00  0.00     0.173 A 
ATOM     64  C   UNL A   1      45.624  33.261  28.406  1.00  0.00     0.173 A 
ATOM     65  F   UNL A   1      45.928  31.891  31.764  1.00  0.00    -0.203 F 
ATOM     66  C   UNL A   1      46.217  34.094  30.989  1.00  0.00     0.198 A 
ATOM     67  C   UNL A   1      45.934  34.594  28.657  1.00  0.00     0.198 A 
ATOM     68  F   UNL A   1      45.345  32.883  27.149  1.00  0.00    -0.203 F 
ATOM     69  F   UNL A   1      46.479  34.499  32.240  1.00  0.00    -0.200 F 
ATOM     70  C   UNL A   1      46.220  35.012  29.948  1.00  0.00     0.200 A 
ATOM     71  F   UNL A   1      45.958  35.475  27.648  1.00  0.00    -0.200 F 
ATOM     72  F   UNL A   1      46.498  36.300  30.191  1.00  0.00    -0.200 F 
ENDBRANCH  39  62
ENDBRANCH  13  14
ENDBRANCH   6   8
ENDBRANCH   3   4
ENDBRANCH   2   3
ENDBRANCH   1   2
BRANCH   1  73
ATOM     73  C   UNL A   1      37.403  21.632  24.235  1.00  0.00     0.116 C 
BRANCH  73  74
ATOM     74  N   UNL A   1      37.836  22.633  25.197  1.00  0.00    -0.351 N 
ATOM     75  C   UNL A   1      37.075  23.524  25.921  1.00  0.00     0.261 C 
ATOM     76  H   UNL A   1      38.807  22.680  25.353  1.00  0.00     0.163 HD
ATOM     77  O   UNL A   1      37.669  24.384  26.577  1.00  0.00    -0.268 OA
BRANCH  75  78
ATOM     78  C   UNL A   1      35.636  23.397  25.867  1.00  0.00     0.096 A 
ATOM     79  C   UNL A   1      34.841  22.366  26.335  1.00  0.00     0.072 A 
ATOM     80  S   UNL A   1      34.699  24.626  25.137  1.00  0.00    -0.135 S 
ATOM     81  C   UNL A   1      33.496  22.480  25.882  1.00  0.00     0.131 A 
ATOM     82  C   UNL A   1      33.273  23.687  25.260  1.00  0.00     0.112 A 
BRANCH  81  83
ATOM     83  O   UNL A   1      32.483  21.578  25.963  1.00  0.00    -0.488 OA
BRANCH  83  84
ATOM     84  C   UNL A   1      31.963  21.101  24.717  1.00  0.00     0.265 C 
BRANCH  84  85
ATOM     85  C   UNL A   1      32.539  19.775  24.250  1.00  0.00    -0.011 A 
ATOM     86  C   UNL A   1      33.497  19.111  25.037  1.00  0.00     0.010 A 
ATOM     87  C   UNL A   1      32.125  19.187  23.043  1.00  0.00     0.010 A 
ATOM     88  C   UNL A   1      34.062  17.911  24.602  1.00  0.00     0.039 A 
ATOM     89  C   UNL A   1      32.694  17.988  22.610  1.00  0.00     0.039 A 
ATOM     90  C   UNL A   1      33.662  17.366  23.388  1.00  0.00     0.123 A 
ATOM     91  F   UNL A   1      34.239  16.241  22.951  1.00  0.00    -0.207 F 
ENDBRANCH  84  85
ENDBRANCH  83  84
ENDBRANCH  81  83
ENDBRANCH  75  78
ENDBRANCH  73  74
ENDBRANCH   1  73
TORSDOF 14
ENDMDL
