MODEL 1
REMARK VINA RESULT:     -12.2      0.000      0.000
REMARK SMILES C[C@H]1[C@H](C(=O)NCCCCNC(=O)c2ccc(-c3c4nc(c(-c5c(F)c(F)c(F)c(F)c5F)c5ccc([nH]5)c(-c5c(F)c(F)c(F)c(F)c5F)c5nc(c(-c6c(F)c(F)c(F)c(F)c6F)c6ccc3[nH]6)C=C5)C=C4)cc2)CC[N@@H+]1CC(=O)N1CCCC1
REMARK SMILES IDX 8 1 7 2 6 3 4 4 5 5 3 7 1 8 2 9 79 10 77 11 78 12 80 14
REMARK SMILES IDX 81 15 82 16 83 17 84 18 87 19 85 20 86 21 9 22 10 23 11 24
REMARK SMILES IDX 12 25 13 27 14 28 15 29 76 30 16 31 75 32 17 33 18 34 19 35
REMARK SMILES IDX 69 36 20 37 74 38 68 39 70 40 21 41 73 42 67 43 66 44 22 46
REMARK SMILES IDX 54 47 34 48 53 49 35 50 38 51 52 52 71 53 36 54 37 55 51 57
REMARK SMILES IDX 72 58 39 59 23 60 24 61 32 62 25 63 26 64 30 65 33 66 27 67
REMARK SMILES IDX 28 68 31 69 29 70 55 71 56 72 64 73 57 74 58 75 62 76 65 77
REMARK SMILES IDX 59 78 60 79 63 80 61 81 40 82 41 83 49 84 42 85 43 86 47 87
REMARK SMILES IDX 50 88 44 89 45 90 48 91 46 92
REMARK H PARENT 6 6 79 13 11 26 70 45 38 56
REMARK Flexibility Score: inf
ROOT
ATOM      1  C   UNL A   1      31.479  30.483  25.960  1.00  0.00     0.023 C 
ENDROOT
BRANCH   1   2
ATOM      2  C   UNL A   1      32.846  29.755  25.777  1.00  0.00     0.116 C 
BRANCH   2   3
ATOM      3  N   UNL A   1      33.352  29.459  24.422  1.00  0.00    -0.356 N 
ATOM      4  C   UNL A   1      33.025  28.697  23.337  1.00  0.00     0.229 C 
ATOM      5  O   UNL A   1      33.708  28.986  22.334  1.00  0.00    -0.275 OA
ATOM      6  H   UNL A   1      34.177  29.966  24.248  1.00  0.00     0.163 HD
BRANCH   4   7
ATOM      7  C   UNL A   1      32.033  27.512  23.152  1.00  0.00     0.142 C 
ATOM      8  C   UNL A   1      32.564  24.914  23.029  1.00  0.00     0.076 C 
ATOM      9  C   UNL A   1      32.461  26.204  23.844  1.00  0.00     0.194 C 
ATOM     10  N   UNL A   1      31.449  25.878  24.858  1.00  0.00    -0.324 N 
ATOM     11  C   UNL A   1      30.581  27.695  23.504  1.00  0.00     0.081 C 
ATOM     12  C   UNL A   1      30.331  26.825  24.731  1.00  0.00     0.263 C 
ATOM     13  H   UNL A   1      31.049  24.954  24.699  1.00  0.00     0.348 HD
BRANCH  10  14
ATOM     14  C   UNL A   1      32.052  25.745  26.207  1.00  0.00     0.364 C 
BRANCH  14  15
ATOM     15  C   UNL A   1      31.863  24.325  26.701  1.00  0.00     0.277 C 
ATOM     16  O   UNL A   1      30.725  24.103  27.102  1.00  0.00    -0.268 OA
ATOM     17  N   UNL A   1      32.957  23.474  26.831  1.00  0.00    -0.338 N 
ATOM     18  C   UNL A   1      34.207  23.577  26.111  1.00  0.00     0.119 C 
ATOM     19  C   UNL A   1      33.119  22.452  27.849  1.00  0.00     0.119 C 
ATOM     20  C   UNL A   1      34.950  22.258  26.376  1.00  0.00     0.023 C 
ATOM     21  C   UNL A   1      34.023  21.414  27.239  1.00  0.00     0.023 C 
ENDBRANCH  14  15
ENDBRANCH  10  14
ENDBRANCH   4   7
ENDBRANCH   2   3
ENDBRANCH   1   2
BRANCH   1  22
ATOM     22  C   UNL A   1      31.346  31.916  26.431  1.00  0.00     0.023 C 
BRANCH  22  23
ATOM     23  C   UNL A   1      32.612  32.476  26.984  1.00  0.00     0.116 C 
BRANCH  23  24
ATOM     24  N   UNL A   1      32.427  33.813  27.548  1.00  0.00    -0.352 N 
ATOM     25  C   UNL A   1      33.143  34.404  28.559  1.00  0.00     0.251 C 
ATOM     26  H   UNL A   1      31.703  34.354  27.156  1.00  0.00     0.163 HD
ATOM     27  O   UNL A   1      32.767  35.438  29.103  1.00  0.00    -0.269 OA
BRANCH  25  28
ATOM     28  C   UNL A   1      34.380  33.730  28.978  1.00  0.00     0.039 A 
ATOM     29  C   UNL A   1      35.618  34.331  28.766  1.00  0.00     0.014 A 
ATOM     30  C   UNL A   1      34.259  32.564  29.737  1.00  0.00     0.014 A 
ATOM     31  C   UNL A   1      36.742  33.768  29.364  1.00  0.00     0.010 A 
ATOM     32  C   UNL A   1      35.331  32.140  30.488  1.00  0.00     0.010 A 
ATOM     33  C   UNL A   1      36.596  32.685  30.248  1.00  0.00    -0.014 A 
BRANCH  33  34
ATOM     34  C   UNL A   1      37.758  31.994  30.841  1.00  0.00     0.031 A 
ATOM     35  C   UNL A   1      38.177  32.375  32.238  1.00  0.00     0.074 A 
ATOM     36  C   UNL A   1      38.452  31.096  30.120  1.00  0.00     0.049 A 
ATOM     37  N   UNL A   1      39.206  31.971  32.935  1.00  0.00    -0.248 NA
ATOM     38  C   UNL A   1      37.362  33.394  32.927  1.00  0.00     0.031 C 
ATOM     39  C   UNL A   1      38.172  30.717  28.733  1.00  0.00     0.029 A 
ATOM     40  N   UNL A   1      39.538  30.335  30.460  1.00  0.00    -0.354 N 
ATOM     41  C   UNL A   1      39.169  32.710  34.111  1.00  0.00     0.074 A 
ATOM     42  C   UNL A   1      38.093  33.660  33.994  1.00  0.00     0.031 C 
ATOM     43  C   UNL A   1      39.033  29.755  28.361  1.00  0.00     0.029 A 
ATOM     44  C   UNL A   1      39.944  29.481  29.466  1.00  0.00     0.049 A 
ATOM     45  H   UNL A   1      39.986  30.395  31.336  1.00  0.00     0.167 HD
ATOM     46  C   UNL A   1      39.929  32.566  35.218  1.00  0.00     0.037 A 
ATOM     47  C   UNL A   1      40.939  28.575  29.465  1.00  0.00     0.037 A 
ATOM     48  C   UNL A   1      40.951  31.568  35.342  1.00  0.00     0.049 A 
ATOM     49  C   UNL A   1      41.758  28.415  30.720  1.00  0.00     0.074 A 
ATOM     50  C   UNL A   1      41.740  31.270  36.434  1.00  0.00     0.029 A 
ATOM     51  N   UNL A   1      41.313  30.694  34.325  1.00  0.00    -0.354 N 
ATOM     52  N   UNL A   1      41.664  29.059  31.859  1.00  0.00    -0.248 NA
ATOM     53  C   UNL A   1      42.812  27.394  30.693  1.00  0.00     0.031 C 
ATOM     54  C   UNL A   1      42.619  30.248  36.061  1.00  0.00     0.029 A 
ATOM     55  C   UNL A   1      42.334  29.869  34.758  1.00  0.00     0.049 A 
ATOM     56  H   UNL A   1      40.903  30.666  33.430  1.00  0.00     0.167 HD
ATOM     57  C   UNL A   1      42.625  28.505  32.693  1.00  0.00     0.074 A 
ATOM     58  C   UNL A   1      43.276  27.457  31.933  1.00  0.00     0.031 C 
ATOM     59  C   UNL A   1      42.948  28.830  33.971  1.00  0.00     0.037 A 
BRANCH  46  60
ATOM     60  C   UNL A   1      39.661  33.491  36.371  1.00  0.00     0.064 A 
ATOM     61  C   UNL A   1      38.812  33.130  37.431  1.00  0.00     0.173 A 
ATOM     62  C   UNL A   1      40.256  34.760  36.415  1.00  0.00     0.173 A 
ATOM     63  F   UNL A   1      38.197  31.937  37.428  1.00  0.00    -0.203 F 
ATOM     64  C   UNL A   1      38.543  34.015  38.470  1.00  0.00     0.198 A 
ATOM     65  C   UNL A   1      40.015  35.629  37.476  1.00  0.00     0.198 A 
ATOM     66  F   UNL A   1      41.070  35.161  35.427  1.00  0.00    -0.203 F 
ATOM     67  F   UNL A   1      37.677  33.673  39.434  1.00  0.00    -0.200 F 
ATOM     68  C   UNL A   1      39.151  35.261  38.496  1.00  0.00     0.200 A 
ATOM     69  F   UNL A   1      40.611  36.829  37.505  1.00  0.00    -0.200 F 
ATOM     70  F   UNL A   1      38.896  36.111  39.501  1.00  0.00    -0.200 F 
ENDBRANCH  46  60
BRANCH  47  71
ATOM     71  C   UNL A   1      41.180  27.729  28.268  1.00  0.00     0.064 A 
ATOM     72  C   UNL A   1      42.051  28.148  27.252  1.00  0.00     0.173 A 
ATOM     73  C   UNL A   1      40.552  26.485  28.111  1.00  0.00     0.173 A 
ATOM     74  F   UNL A   1      42.668  29.335  27.347  1.00  0.00    -0.203 F 
ATOM     75  C   UNL A   1      42.262  27.371  26.114  1.00  0.00     0.198 A 
ATOM     76  C   UNL A   1      40.787  25.694  26.988  1.00  0.00     0.198 A 
ATOM     77  F   UNL A   1      39.718  26.029  29.059  1.00  0.00    -0.203 F 
ATOM     78  F   UNL A   1      43.061  27.821  25.137  1.00  0.00    -0.200 F 
ATOM     79  C   UNL A   1      41.633  26.142  25.985  1.00  0.00     0.200 A 
ATOM     80  F   UNL A   1      40.192  24.498  26.877  1.00  0.00    -0.200 F 
ATOM     81  F   UNL A   1      41.838  25.392  24.894  1.00  0.00    -0.200 F 
ENDBRANCH  47  71
BRANCH  59  82
ATOM     82  C   UNL A   1      44.026  28.022  34.630  1.00  0.00     0.064 A 
ATOM     83  C   UNL A   1      45.368  28.427  34.603  1.00  0.00     0.173 A 
ATOM     84  C   UNL A   1      43.700  26.860  35.344  1.00  0.00     0.173 A 
ATOM     85  F   UNL A   1      45.729  29.526  33.923  1.00  0.00    -0.203 F 
ATOM     86  C   UNL A   1      46.351  27.678  35.242  1.00  0.00     0.198 A 
ATOM     87  C   UNL A   1      44.680  26.135  36.013  1.00  0.00     0.198 A 
ATOM     88  F   UNL A   1      42.428  26.440  35.411  1.00  0.00    -0.203 F 
ATOM     89  F   UNL A   1      47.635  28.053  35.159  1.00  0.00    -0.200 F 
ATOM     90  C   UNL A   1      46.005  26.539  35.954  1.00  0.00     0.200 A 
ATOM     91  F   UNL A   1      44.341  25.046  36.717  1.00  0.00    -0.200 F 
ATOM     92  F   UNL A   1      46.952  25.827  36.580  1.00  0.00    -0.200 F 
ENDBRANCH  59  82
ENDBRANCH  33  34
ENDBRANCH  25  28
ENDBRANCH  23  24
ENDBRANCH  22  23
ENDBRANCH   1  22
TORSDOF 13
ENDMDL
MODEL 2
REMARK VINA RESULT:     -12.0      0.882      7.648
REMARK SMILES C[C@H]1[C@H](C(=O)NCCCCNC(=O)c2ccc(-c3c4nc(c(-c5c(F)c(F)c(F)c(F)c5F)c5ccc([nH]5)c(-c5c(F)c(F)c(F)c(F)c5F)c5nc(c(-c6c(F)c(F)c(F)c(F)c6F)c6ccc3[nH]6)C=C5)C=C4)cc2)CC[N@@H+]1CC(=O)N1CCCC1
REMARK SMILES IDX 8 1 7 2 6 3 4 4 5 5 3 7 1 8 2 9 79 10 77 11 78 12 80 14
REMARK SMILES IDX 81 15 82 16 83 17 84 18 87 19 85 20 86 21 9 22 10 23 11 24
REMARK SMILES IDX 12 25 13 27 14 28 15 29 76 30 16 31 75 32 17 33 18 34 19 35
REMARK SMILES IDX 69 36 20 37 74 38 68 39 70 40 21 41 73 42 67 43 66 44 22 46
REMARK SMILES IDX 54 47 34 48 53 49 35 50 38 51 52 52 71 53 36 54 37 55 51 57
REMARK SMILES IDX 72 58 39 59 23 60 24 61 32 62 25 63 26 64 30 65 33 66 27 67
REMARK SMILES IDX 28 68 31 69 29 70 55 71 56 72 64 73 57 74 58 75 62 76 65 77
REMARK SMILES IDX 59 78 60 79 63 80 61 81 40 82 41 83 49 84 42 85 43 86 47 87
REMARK SMILES IDX 50 88 44 89 45 90 48 91 46 92
REMARK H PARENT 6 6 79 13 11 26 70 45 38 56
REMARK Flexibility Score: inf
ROOT
ATOM      1  C   UNL A   1      31.435  30.779  26.165  1.00  0.00     0.023 C 
ENDROOT
BRANCH   1   2
ATOM      2  C   UNL A   1      32.771  29.984  26.032  1.00  0.00     0.116 C 
BRANCH   2   3
ATOM      3  N   UNL A   1      33.292  29.629  24.697  1.00  0.00    -0.356 N 
ATOM      4  C   UNL A   1      32.957  28.849  23.627  1.00  0.00     0.229 C 
ATOM      5  O   UNL A   1      33.672  29.082  22.632  1.00  0.00    -0.275 OA
ATOM      6  H   UNL A   1      34.140  30.099  24.526  1.00  0.00     0.163 HD
BRANCH   4   7
ATOM      7  C   UNL A   1      31.925  27.697  23.455  1.00  0.00     0.142 C 
ATOM      8  C   UNL A   1      32.353  25.191  22.690  1.00  0.00     0.076 C 
ATOM      9  C   UNL A   1      32.479  26.290  23.747  1.00  0.00     0.194 C 
ATOM     10  N   UNL A   1      31.737  25.741  24.890  1.00  0.00    -0.324 N 
ATOM     11  C   UNL A   1      30.606  27.767  24.178  1.00  0.00     0.081 C 
ATOM     12  C   UNL A   1      30.643  26.663  25.230  1.00  0.00     0.263 C 
ATOM     13  H   UNL A   1      31.290  24.856  24.652  1.00  0.00     0.348 HD
BRANCH  10  14
ATOM     14  C   UNL A   1      32.646  25.359  25.998  1.00  0.00     0.364 C 
BRANCH  14  15
ATOM     15  C   UNL A   1      32.302  23.960  26.468  1.00  0.00     0.277 C 
ATOM     16  O   UNL A   1      31.413  23.943  27.314  1.00  0.00    -0.268 OA
ATOM     17  N   UNL A   1      33.080  22.875  26.077  1.00  0.00    -0.338 N 
ATOM     18  C   UNL A   1      33.904  22.800  24.891  1.00  0.00     0.119 C 
ATOM     19  C   UNL A   1      33.361  21.700  26.883  1.00  0.00     0.119 C 
ATOM     20  C   UNL A   1      34.305  21.323  24.756  1.00  0.00     0.023 C 
ATOM     21  C   UNL A   1      33.622  20.590  25.901  1.00  0.00     0.023 C 
ENDBRANCH  14  15
ENDBRANCH  10  14
ENDBRANCH   4   7
ENDBRANCH   2   3
ENDBRANCH   1   2
BRANCH   1  22
ATOM     22  C   UNL A   1      31.365  32.258  26.482  1.00  0.00     0.023 C 
BRANCH  22  23
ATOM     23  C   UNL A   1      32.571  32.767  27.196  1.00  0.00     0.116 C 
BRANCH  23  24
ATOM     24  N   UNL A   1      32.416  34.157  27.626  1.00  0.00    -0.352 N 
ATOM     25  C   UNL A   1      33.093  34.805  28.628  1.00  0.00     0.251 C 
ATOM     26  H   UNL A   1      31.747  34.690  27.138  1.00  0.00     0.163 HD
ATOM     27  O   UNL A   1      32.734  35.900  29.052  1.00  0.00    -0.269 OA
BRANCH  25  28
ATOM     28  C   UNL A   1      34.264  34.119  29.190  1.00  0.00     0.039 A 
ATOM     29  C   UNL A   1      35.551  34.490  28.806  1.00  0.00     0.014 A 
ATOM     30  C   UNL A   1      34.050  33.214  30.232  1.00  0.00     0.014 A 
ATOM     31  C   UNL A   1      36.631  33.970  29.514  1.00  0.00     0.010 A 
ATOM     32  C   UNL A   1      35.102  32.875  31.051  1.00  0.00     0.010 A 
ATOM     33  C   UNL A   1      36.407  33.180  30.655  1.00  0.00    -0.014 A 
BRANCH  33  34
ATOM     34  C   UNL A   1      37.511  32.532  31.390  1.00  0.00     0.031 A 
ATOM     35  C   UNL A   1      38.243  31.397  30.720  1.00  0.00     0.074 A 
ATOM     36  C   UNL A   1      37.806  32.914  32.645  1.00  0.00     0.049 A 
ATOM     37  N   UNL A   1      39.184  30.623  31.192  1.00  0.00    -0.248 NA
ATOM     38  C   UNL A   1      37.817  31.040  29.352  1.00  0.00     0.031 C 
ATOM     39  C   UNL A   1      37.105  33.950  33.407  1.00  0.00     0.029 A 
ATOM     40  N   UNL A   1      38.779  32.472  33.500  1.00  0.00    -0.354 N 
ATOM     41  C   UNL A   1      39.427  29.686  30.196  1.00  0.00     0.074 A 
ATOM     42  C   UNL A   1      38.467  29.909  29.144  1.00  0.00     0.031 C 
ATOM     43  C   UNL A   1      37.708  34.099  34.598  1.00  0.00     0.029 A 
ATOM     44  C   UNL A   1      38.807  33.145  34.695  1.00  0.00     0.049 A 
ATOM     45  H   UNL A   1      39.399  31.739  33.279  1.00  0.00     0.167 HD
ATOM     46  C   UNL A   1      40.405  28.757  30.135  1.00  0.00     0.037 A 
ATOM     47  C   UNL A   1      39.642  33.003  35.742  1.00  0.00     0.037 A 
ATOM     48  C   UNL A   1      41.394  28.595  31.161  1.00  0.00     0.049 A 
ATOM     49  C   UNL A   1      40.741  31.978  35.642  1.00  0.00     0.074 A 
ATOM     50  C   UNL A   1      42.480  27.743  31.188  1.00  0.00     0.029 A 
ATOM     51  N   UNL A   1      41.414  29.319  32.345  1.00  0.00    -0.354 N 
ATOM     52  N   UNL A   1      41.017  31.151  34.662  1.00  0.00    -0.248 NA
ATOM     53  C   UNL A   1      41.652  31.875  36.788  1.00  0.00     0.031 C 
ATOM     54  C   UNL A   1      43.129  27.915  32.414  1.00  0.00     0.029 A 
ATOM     55  C   UNL A   1      42.483  28.917  33.123  1.00  0.00     0.049 A 
ATOM     56  H   UNL A   1      40.764  30.016  32.593  1.00  0.00     0.167 HD
ATOM     57  C   UNL A   1      42.147  30.449  35.059  1.00  0.00     0.074 A 
ATOM     58  C   UNL A   1      42.516  30.965  36.362  1.00  0.00     0.031 C 
ATOM     59  C   UNL A   1      42.821  29.465  34.412  1.00  0.00     0.037 A 
BRANCH  46  60
ATOM     60  C   UNL A   1      40.456  27.878  28.918  1.00  0.00     0.064 A 
ATOM     61  C   UNL A   1      41.208  28.224  27.783  1.00  0.00     0.173 A 
ATOM     62  C   UNL A   1      39.739  26.673  28.884  1.00  0.00     0.173 A 
ATOM     63  F   UNL A   1      41.894  29.376  27.752  1.00  0.00    -0.203 F 
ATOM     64  C   UNL A   1      41.210  27.417  26.649  1.00  0.00     0.198 A 
ATOM     65  C   UNL A   1      39.774  25.849  27.762  1.00  0.00     0.198 A 
ATOM     66  F   UNL A   1      38.999  26.296  29.937  1.00  0.00    -0.203 F 
ATOM     67  F   UNL A   1      41.880  27.803  25.554  1.00  0.00    -0.200 F 
ATOM     68  C   UNL A   1      40.500  26.226  26.643  1.00  0.00     0.200 A 
ATOM     69  F   UNL A   1      39.096  24.694  27.761  1.00  0.00    -0.200 F 
ATOM     70  F   UNL A   1      40.508  25.446  25.552  1.00  0.00    -0.200 F 
ENDBRANCH  46  60
BRANCH  47  71
ATOM     71  C   UNL A   1      39.499  33.875  36.937  1.00  0.00     0.064 A 
ATOM     72  C   UNL A   1      38.783  33.444  38.062  1.00  0.00     0.173 A 
ATOM     73  C   UNL A   1      40.075  35.153  36.984  1.00  0.00     0.173 A 
ATOM     74  F   UNL A   1      38.201  32.236  38.064  1.00  0.00    -0.203 F 
ATOM     75  C   UNL A   1      38.624  34.267  39.176  1.00  0.00     0.198 A 
ATOM     76  C   UNL A   1      39.943  35.963  38.110  1.00  0.00     0.198 A 
ATOM     77  F   UNL A   1      40.783  35.610  35.939  1.00  0.00    -0.203 F 
ATOM     78  F   UNL A   1      37.891  33.848  40.217  1.00  0.00    -0.200 F 
ATOM     79  C   UNL A   1      39.208  35.524  39.201  1.00  0.00     0.200 A 
ATOM     80  F   UNL A   1      40.526  37.169  38.137  1.00  0.00    -0.200 F 
ATOM     81  F   UNL A   1      39.059  36.315  40.272  1.00  0.00    -0.200 F 
ENDBRANCH  47  71
BRANCH  59  82
ATOM     82  C   UNL A   1      44.039  28.911  35.090  1.00  0.00     0.064 A 
ATOM     83  C   UNL A   1      43.958  27.828  35.976  1.00  0.00     0.173 A 
ATOM     84  C   UNL A   1      45.307  29.438  34.803  1.00  0.00     0.173 A 
ATOM     85  F   UNL A   1      42.766  27.299  36.290  1.00  0.00    -0.203 F 
ATOM     86  C   UNL A   1      45.102  27.312  36.576  1.00  0.00     0.198 A 
ATOM     87  C   UNL A   1      46.452  28.894  35.375  1.00  0.00     0.198 A 
ATOM     88  F   UNL A   1      45.437  30.465  33.950  1.00  0.00    -0.203 F 
ATOM     89  F   UNL A   1      44.998  26.311  37.461  1.00  0.00    -0.200 F 
ATOM     90  C   UNL A   1      46.349  27.839  36.267  1.00  0.00     0.200 A 
ATOM     91  F   UNL A   1      47.656  29.391  35.060  1.00  0.00    -0.200 F 
ATOM     92  F   UNL A   1      47.450  27.331  36.837  1.00  0.00    -0.200 F 
ENDBRANCH  59  82
ENDBRANCH  33  34
ENDBRANCH  25  28
ENDBRANCH  23  24
ENDBRANCH  22  23
ENDBRANCH   1  22
TORSDOF 13
ENDMDL
MODEL 3
REMARK VINA RESULT:     -12.0      0.659      1.763
REMARK SMILES C[C@H]1[C@H](C(=O)NCCCCNC(=O)c2ccc(-c3c4nc(c(-c5c(F)c(F)c(F)c(F)c5F)c5ccc([nH]5)c(-c5c(F)c(F)c(F)c(F)c5F)c5nc(c(-c6c(F)c(F)c(F)c(F)c6F)c6ccc3[nH]6)C=C5)C=C4)cc2)CC[N@@H+]1CC(=O)N1CCCC1
REMARK SMILES IDX 8 1 7 2 6 3 4 4 5 5 3 7 1 8 2 9 79 10 77 11 78 12 80 14
REMARK SMILES IDX 81 15 82 16 83 17 84 18 87 19 85 20 86 21 9 22 10 23 11 24
REMARK SMILES IDX 12 25 13 27 14 28 15 29 76 30 16 31 75 32 17 33 18 34 19 35
REMARK SMILES IDX 69 36 20 37 74 38 68 39 70 40 21 41 73 42 67 43 66 44 22 46
REMARK SMILES IDX 54 47 34 48 53 49 35 50 38 51 52 52 71 53 36 54 37 55 51 57
REMARK SMILES IDX 72 58 39 59 23 60 24 61 32 62 25 63 26 64 30 65 33 66 27 67
REMARK SMILES IDX 28 68 31 69 29 70 55 71 56 72 64 73 57 74 58 75 62 76 65 77
REMARK SMILES IDX 59 78 60 79 63 80 61 81 40 82 41 83 49 84 42 85 43 86 47 87
REMARK SMILES IDX 50 88 44 89 45 90 48 91 46 92
REMARK H PARENT 6 6 79 13 11 26 70 45 38 56
REMARK Flexibility Score: inf
ROOT
ATOM      1  C   UNL A   1      31.455  30.483  26.736  1.00  0.00     0.023 C 
ENDROOT
BRANCH   1   2
ATOM      2  C   UNL A   1      31.849  29.468  25.618  1.00  0.00     0.116 C 
BRANCH   2   3
ATOM      3  N   UNL A   1      31.327  29.636  24.248  1.00  0.00    -0.356 N 
ATOM      4  C   UNL A   1      30.635  28.927  23.308  1.00  0.00     0.229 C 
ATOM      5  O   UNL A   1      30.263  29.643  22.356  1.00  0.00    -0.275 OA
ATOM      6  H   UNL A   1      31.544  30.534  23.908  1.00  0.00     0.163 HD
BRANCH   4   7
ATOM      7  C   UNL A   1      30.303  27.412  23.174  1.00  0.00     0.142 C 
ATOM      8  C   UNL A   1      31.930  25.410  22.550  1.00  0.00     0.076 C 
ATOM      9  C   UNL A   1      31.460  26.467  23.551  1.00  0.00     0.194 C 
ATOM     10  N   UNL A   1      31.031  25.666  24.705  1.00  0.00    -0.324 N 
ATOM     11  C   UNL A   1      29.088  26.854  23.866  1.00  0.00     0.081 C 
ATOM     12  C   UNL A   1      29.613  25.948  24.975  1.00  0.00     0.263 C 
ATOM     13  H   UNL A   1      31.083  24.668  24.504  1.00  0.00     0.348 HD
BRANCH  10  14
ATOM     14  C   UNL A   1      31.963  25.817  25.849  1.00  0.00     0.364 C 
BRANCH  14  15
ATOM     15  C   UNL A   1      32.259  24.451  26.437  1.00  0.00     0.277 C 
ATOM     16  O   UNL A   1      31.417  24.086  27.251  1.00  0.00    -0.268 OA
ATOM     17  N   UNL A   1      33.471  23.821  26.174  1.00  0.00    -0.338 N 
ATOM     18  C   UNL A   1      34.322  24.053  25.028  1.00  0.00     0.119 C 
ATOM     19  C   UNL A   1      34.198  22.964  27.094  1.00  0.00     0.119 C 
ATOM     20  C   UNL A   1      35.360  22.919  25.044  1.00  0.00     0.023 C 
ATOM     21  C   UNL A   1      35.004  22.033  26.229  1.00  0.00     0.023 C 
ENDBRANCH  14  15
ENDBRANCH  10  14
ENDBRANCH   4   7
ENDBRANCH   2   3
ENDBRANCH   1   2
BRANCH   1  22
ATOM     22  C   UNL A   1      31.398  31.982  26.527  1.00  0.00     0.023 C 
BRANCH  22  23
ATOM     23  C   UNL A   1      32.670  32.676  26.880  1.00  0.00     0.116 C 
BRANCH  23  24
ATOM     24  N   UNL A   1      32.436  33.968  27.526  1.00  0.00    -0.352 N 
ATOM     25  C   UNL A   1      33.101  34.500  28.602  1.00  0.00     0.251 C 
ATOM     26  H   UNL A   1      31.717  34.520  27.143  1.00  0.00     0.163 HD
ATOM     27  O   UNL A   1      32.684  35.488  29.200  1.00  0.00    -0.269 OA
BRANCH  25  28
ATOM     28  C   UNL A   1      34.334  33.821  29.023  1.00  0.00     0.039 A 
ATOM     29  C   UNL A   1      35.575  34.420  28.817  1.00  0.00     0.014 A 
ATOM     30  C   UNL A   1      34.208  32.652  29.775  1.00  0.00     0.014 A 
ATOM     31  C   UNL A   1      36.695  33.851  29.417  1.00  0.00     0.010 A 
ATOM     32  C   UNL A   1      35.276  32.222  30.529  1.00  0.00     0.010 A 
ATOM     33  C   UNL A   1      36.544  32.765  30.296  1.00  0.00    -0.014 A 
BRANCH  33  34
ATOM     34  C   UNL A   1      37.702  32.068  30.890  1.00  0.00     0.031 A 
ATOM     35  C   UNL A   1      38.125  32.452  32.285  1.00  0.00     0.074 A 
ATOM     36  C   UNL A   1      38.389  31.163  30.171  1.00  0.00     0.049 A 
ATOM     37  N   UNL A   1      39.152  32.044  32.982  1.00  0.00    -0.248 NA
ATOM     38  C   UNL A   1      37.317  33.479  32.971  1.00  0.00     0.031 C 
ATOM     39  C   UNL A   1      38.104  30.781  28.786  1.00  0.00     0.029 A 
ATOM     40  N   UNL A   1      39.470  30.396  30.513  1.00  0.00    -0.354 N 
ATOM     41  C   UNL A   1      39.122  32.787  34.155  1.00  0.00     0.074 A 
ATOM     42  C   UNL A   1      38.052  33.745  34.037  1.00  0.00     0.031 C 
ATOM     43  C   UNL A   1      38.958  29.811  28.416  1.00  0.00     0.029 A 
ATOM     44  C   UNL A   1      39.869  29.536  29.522  1.00  0.00     0.049 A 
ATOM     45  H   UNL A   1      39.919  30.456  31.388  1.00  0.00     0.167 HD
ATOM     46  C   UNL A   1      39.882  32.643  35.262  1.00  0.00     0.037 A 
ATOM     47  C   UNL A   1      40.858  28.623  29.523  1.00  0.00     0.037 A 
ATOM     48  C   UNL A   1      40.897  31.638  35.388  1.00  0.00     0.049 A 
ATOM     49  C   UNL A   1      41.677  28.462  30.778  1.00  0.00     0.074 A 
ATOM     50  C   UNL A   1      41.686  31.339  36.480  1.00  0.00     0.029 A 
ATOM     51  N   UNL A   1      41.252  30.758  34.375  1.00  0.00    -0.354 N 
ATOM     52  N   UNL A   1      41.589  29.111  31.914  1.00  0.00    -0.248 NA
ATOM     53  C   UNL A   1      42.724  27.434  30.753  1.00  0.00     0.031 C 
ATOM     54  C   UNL A   1      42.558  30.310  36.111  1.00  0.00     0.029 A 
ATOM     55  C   UNL A   1      42.268  29.928  34.809  1.00  0.00     0.049 A 
ATOM     56  H   UNL A   1      40.841  30.730  33.480  1.00  0.00     0.167 HD
ATOM     57  C   UNL A   1      42.548  28.554  32.749  1.00  0.00     0.074 A 
ATOM     58  C   UNL A   1      43.191  27.499  31.992  1.00  0.00     0.031 C 
ATOM     59  C   UNL A   1      42.874  28.881  34.025  1.00  0.00     0.037 A 
BRANCH  46  60
ATOM     60  C   UNL A   1      39.621  33.574  36.411  1.00  0.00     0.064 A 
ATOM     61  C   UNL A   1      40.210  34.849  36.482  1.00  0.00     0.173 A 
ATOM     62  C   UNL A   1      38.775  33.187  37.460  1.00  0.00     0.173 A 
ATOM     63  F   UNL A   1      41.047  35.261  35.518  1.00  0.00    -0.203 F 
ATOM     64  C   UNL A   1      39.990  35.682  37.575  1.00  0.00     0.198 A 
ATOM     65  C   UNL A   1      38.527  34.039  38.534  1.00  0.00     0.198 A 
ATOM     66  F   UNL A   1      38.191  31.980  37.448  1.00  0.00    -0.203 F 
ATOM     67  F   UNL A   1      40.618  36.864  37.652  1.00  0.00    -0.200 F 
ATOM     68  C   UNL A   1      39.142  35.280  38.595  1.00  0.00     0.200 A 
ATOM     69  F   UNL A   1      37.699  33.654  39.514  1.00  0.00    -0.200 F 
ATOM     70  F   UNL A   1      38.926  36.086  39.645  1.00  0.00    -0.200 F 
ENDBRANCH  46  60
BRANCH  47  71
ATOM     71  C   UNL A   1      41.092  27.771  28.329  1.00  0.00     0.064 A 
ATOM     72  C   UNL A   1      41.955  28.186  27.305  1.00  0.00     0.173 A 
ATOM     73  C   UNL A   1      40.464  26.525  28.183  1.00  0.00     0.173 A 
ATOM     74  F   UNL A   1      42.571  29.374  27.389  1.00  0.00    -0.203 F 
ATOM     75  C   UNL A   1      42.159  27.403  26.170  1.00  0.00     0.198 A 
ATOM     76  C   UNL A   1      40.692  25.728  27.063  1.00  0.00     0.198 A 
ATOM     77  F   UNL A   1      39.638  26.073  29.139  1.00  0.00    -0.203 F 
ATOM     78  F   UNL A   1      42.951  27.848  25.184  1.00  0.00    -0.200 F 
ATOM     79  C   UNL A   1      41.531  26.172  26.052  1.00  0.00     0.200 A 
ATOM     80  F   UNL A   1      40.098  24.531  26.962  1.00  0.00    -0.200 F 
ATOM     81  F   UNL A   1      41.729  25.417  24.963  1.00  0.00    -0.200 F 
ENDBRANCH  47  71
BRANCH  59  82
ATOM     82  C   UNL A   1      43.948  28.069  34.686  1.00  0.00     0.064 A 
ATOM     83  C   UNL A   1      43.662  26.857  35.328  1.00  0.00     0.173 A 
ATOM     84  C   UNL A   1      45.286  28.487  34.624  1.00  0.00     0.173 A 
ATOM     85  F   UNL A   1      42.396  26.423  35.422  1.00  0.00    -0.203 F 
ATOM     86  C   UNL A   1      44.676  26.105  35.914  1.00  0.00     0.198 A 
ATOM     87  C   UNL A   1      46.301  27.713  35.177  1.00  0.00     0.198 A 
ATOM     88  F   UNL A   1      45.611  29.633  34.008  1.00  0.00    -0.203 F 
ATOM     89  F   UNL A   1      44.376  24.976  36.569  1.00  0.00    -0.200 F 
ATOM     90  C   UNL A   1      45.995  26.529  35.829  1.00  0.00     0.200 A 
ATOM     91  F   UNL A   1      47.576  28.114  35.077  1.00  0.00    -0.200 F 
ATOM     92  F   UNL A   1      46.971  25.796  36.382  1.00  0.00    -0.200 F 
ENDBRANCH  59  82
ENDBRANCH  33  34
ENDBRANCH  25  28
ENDBRANCH  23  24
ENDBRANCH  22  23
ENDBRANCH   1  22
TORSDOF 13
ENDMDL
