MODEL 1
REMARK VINA RESULT:     -12.3      0.000      0.000
REMARK SMILES COc1ccc([C@H](C)[N@H+]2CC[C@H](C(=O)NCCCCNC(=O)c3ccc(-c4c5nc(c(-c6c(F)c(F)c(F)c(F)c6F)c6ccc([nH]6)c(-c6c(F)c(F)c(F)c(F)c6F)c6nc(c(-c7c(F)c(F)c(F)c(F)c7F)c7ccc4[nH]7)C=C6)C=C5)cc3)[C@@H]2C)cc1
REMARK SMILES IDX 17 1 16 2 15 3 13 4 14 5 12 7 9 8 10 9 86 10 11 12 87 13
REMARK SMILES IDX 7 14 8 15 6 16 3 17 4 18 89 19 5 20 88 21 2 22 1 23 18 24
REMARK SMILES IDX 19 25 20 26 21 27 22 29 23 30 24 31 85 32 25 33 84 34 26 35
REMARK SMILES IDX 27 36 28 37 78 38 29 39 83 40 77 41 79 42 30 43 82 44 76 45
REMARK SMILES IDX 75 46 31 48 63 49 43 50 62 51 44 52 47 53 61 54 80 55 45 56
REMARK SMILES IDX 46 57 60 59 81 60 48 61 32 62 33 63 41 64 34 65 35 66 39 67
REMARK SMILES IDX 42 68 36 69 37 70 40 71 38 72 64 73 65 74 73 75 66 76 67 77
REMARK SMILES IDX 71 78 74 79 68 80 69 81 72 82 70 83 49 84 50 85 58 86 51 87
REMARK SMILES IDX 52 88 56 89 59 90 53 91 54 92 57 93 55 94
REMARK H PARENT 15 6 9 11 20 28 79 47 47 58
REMARK Flexibility Score: inf
ROOT
ATOM      1  C   UNL A   1      31.403  30.680  26.491  1.00  0.00     0.023 C 
ENDROOT
BRANCH   1   2
ATOM      2  C   UNL A   1      32.235  30.078  25.349  1.00  0.00     0.116 C 
BRANCH   2   3
ATOM      3  N   UNL A   1      31.359  29.557  24.322  1.00  0.00    -0.356 N 
ATOM      4  C   UNL A   1      31.028  28.285  23.991  1.00  0.00     0.229 C 
ATOM      5  O   UNL A   1      30.545  28.130  22.867  1.00  0.00    -0.275 OA
ATOM      6  H   UNL A   1      30.928  30.247  23.768  1.00  0.00     0.163 HD
BRANCH   4   7
ATOM      7  C   UNL A   1      31.130  27.157  25.012  1.00  0.00     0.142 C 
ATOM      8  N   UNL A   1      32.037  24.946  24.545  1.00  0.00    -0.326 N 
ATOM      9  C   UNL A   1      30.733  25.088  23.899  1.00  0.00     0.264 C 
ATOM     10  C   UNL A   1      32.407  26.284  25.056  1.00  0.00     0.194 C 
ATOM     11  H   UNL A   1      32.726  24.639  23.858  1.00  0.00     0.348 HD
ATOM     12  C   UNL A   1      30.019  26.144  24.711  1.00  0.00     0.081 C 
ATOM     13  C   UNL A   1      33.619  26.768  24.270  1.00  0.00     0.076 C 
BRANCH   8  14
ATOM     14  C   UNL A   1      32.166  23.831  25.509  1.00  0.00     0.212 C 
ATOM     15  C   UNL A   1      31.033  22.786  25.491  1.00  0.00     0.081 C 
BRANCH  14  16
ATOM     16  C   UNL A   1      33.563  23.208  25.409  1.00  0.00     0.009 A 
ATOM     17  C   UNL A   1      36.037  21.851  25.384  1.00  0.00     0.118 A 
ATOM     18  C   UNL A   1      34.969  21.375  24.627  1.00  0.00     0.047 A 
ATOM     19  C   UNL A   1      35.894  23.030  26.110  1.00  0.00     0.047 A 
ATOM     20  C   UNL A   1      33.738  22.040  24.649  1.00  0.00     0.013 A 
ATOM     21  C   UNL A   1      34.669  23.702  26.122  1.00  0.00     0.013 A 
BRANCH  17  22
ATOM     22  O   UNL A   1      37.194  21.121  25.324  1.00  0.00    -0.497 OA
ATOM     23  C   UNL A   1      38.355  21.829  25.751  1.00  0.00     0.278 C 
ENDBRANCH  17  22
ENDBRANCH  14  16
ENDBRANCH   8  14
ENDBRANCH   4   7
ENDBRANCH   2   3
ENDBRANCH   1   2
BRANCH   1  24
ATOM     24  C   UNL A   1      31.403  32.213  26.557  1.00  0.00     0.023 C 
BRANCH  24  25
ATOM     25  C   UNL A   1      32.602  32.823  27.268  1.00  0.00     0.116 C 
BRANCH  25  26
ATOM     26  N   UNL A   1      32.374  34.212  27.626  1.00  0.00    -0.352 N 
ATOM     27  C   UNL A   1      32.975  34.966  28.605  1.00  0.00     0.251 C 
ATOM     28  H   UNL A   1      31.694  34.679  27.090  1.00  0.00     0.163 HD
ATOM     29  O   UNL A   1      32.527  36.070  28.890  1.00  0.00    -0.269 OA
BRANCH  27  30
ATOM     30  C   UNL A   1      34.146  34.432  29.337  1.00  0.00     0.039 A 
ATOM     31  C   UNL A   1      33.936  33.781  30.555  1.00  0.00     0.014 A 
ATOM     32  C   UNL A   1      35.441  34.573  28.832  1.00  0.00     0.014 A 
ATOM     33  C   UNL A   1      35.018  33.221  31.237  1.00  0.00     0.010 A 
ATOM     34  C   UNL A   1      36.507  33.945  29.473  1.00  0.00     0.010 A 
ATOM     35  C   UNL A   1      36.308  33.265  30.684  1.00  0.00    -0.014 A 
BRANCH  35  36
ATOM     36  C   UNL A   1      37.455  32.602  31.357  1.00  0.00     0.031 A 
ATOM     37  C   UNL A   1      38.155  31.442  30.702  1.00  0.00     0.074 A 
ATOM     38  C   UNL A   1      37.826  33.003  32.588  1.00  0.00     0.049 A 
ATOM     39  N   UNL A   1      39.131  30.699  31.159  1.00  0.00    -0.248 NA
ATOM     40  C   UNL A   1      37.672  31.046  29.370  1.00  0.00     0.031 C 
ATOM     41  C   UNL A   1      37.194  34.080  33.352  1.00  0.00     0.029 A 
ATOM     42  N   UNL A   1      38.815  32.542  33.421  1.00  0.00    -0.354 N 
ATOM     43  C   UNL A   1      39.368  29.743  30.181  1.00  0.00     0.074 A 
ATOM     44  C   UNL A   1      38.398  29.964  29.130  1.00  0.00     0.031 C 
ATOM     45  C   UNL A   1      37.821  34.209  34.532  1.00  0.00     0.029 A 
ATOM     46  C   UNL A   1      38.869  33.199  34.627  1.00  0.00     0.049 A 
ATOM     47  H   UNL A   1      39.427  31.810  33.178  1.00  0.00     0.167 HD
ATOM     48  C   UNL A   1      40.321  28.780  30.151  1.00  0.00     0.037 A 
ATOM     49  C   UNL A   1      39.665  32.999  35.696  1.00  0.00     0.037 A 
ATOM     50  C   UNL A   1      41.297  28.577  31.191  1.00  0.00     0.049 A 
ATOM     51  C   UNL A   1      40.713  31.920  35.642  1.00  0.00     0.074 A 
ATOM     52  C   UNL A   1      42.349  27.678  31.222  1.00  0.00     0.029 A 
ATOM     53  N   UNL A   1      41.333  29.274  32.390  1.00  0.00    -0.354 N 
ATOM     54  N   UNL A   1      40.983  31.077  34.675  1.00  0.00    -0.248 NA
ATOM     55  C   UNL A   1      41.572  31.772  36.825  1.00  0.00     0.031 C 
ATOM     56  C   UNL A   1      42.981  27.787  32.465  1.00  0.00     0.029 A 
ATOM     57  C   UNL A   1      42.368  28.801  33.183  1.00  0.00     0.049 A 
ATOM     58  H   UNL A   1      40.715  29.998  32.641  1.00  0.00     0.167 HD
ATOM     59  C   UNL A   1      42.057  30.318  35.120  1.00  0.00     0.074 A 
ATOM     60  C   UNL A   1      42.400  30.812  36.437  1.00  0.00     0.031 C 
ATOM     61  C   UNL A   1      42.701  29.302  34.492  1.00  0.00     0.037 A 
BRANCH  48  62
ATOM     62  C   UNL A   1      40.351  27.864  28.960  1.00  0.00     0.064 A 
ATOM     63  C   UNL A   1      41.108  28.160  27.816  1.00  0.00     0.173 A 
ATOM     64  C   UNL A   1      39.637  26.655  28.977  1.00  0.00     0.173 A 
ATOM     65  F   UNL A   1      41.802  29.306  27.742  1.00  0.00    -0.203 F 
ATOM     66  C   UNL A   1      41.119  27.299  26.721  1.00  0.00     0.198 A 
ATOM     67  C   UNL A   1      39.681  25.780  27.894  1.00  0.00     0.198 A 
ATOM     68  F   UNL A   1      38.903  26.317  30.048  1.00  0.00    -0.203 F 
ATOM     69  F   UNL A   1      41.802  27.632  25.616  1.00  0.00    -0.200 F 
ATOM     70  C   UNL A   1      40.412  26.107  26.763  1.00  0.00     0.200 A 
ATOM     71  F   UNL A   1      39.010  24.621  27.945  1.00  0.00    -0.200 F 
ATOM     72  F   UNL A   1      40.430  25.277  25.712  1.00  0.00    -0.200 F 
ENDBRANCH  48  62
BRANCH  49  73
ATOM     73  C   UNL A   1      39.505  33.851  36.905  1.00  0.00     0.064 A 
ATOM     74  C   UNL A   1      38.729  33.427  37.993  1.00  0.00     0.173 A 
ATOM     75  C   UNL A   1      40.127  35.105  36.998  1.00  0.00     0.173 A 
ATOM     76  F   UNL A   1      38.098  32.245  37.944  1.00  0.00    -0.203 F 
ATOM     77  C   UNL A   1      38.565  34.234  39.117  1.00  0.00     0.198 A 
ATOM     78  C   UNL A   1      39.988  35.896  38.137  1.00  0.00     0.198 A 
ATOM     79  F   UNL A   1      40.886  35.555  35.988  1.00  0.00    -0.203 F 
ATOM     80  F   UNL A   1      37.778  33.824  40.122  1.00  0.00    -0.200 F 
ATOM     81  C   UNL A   1      39.200  35.463  39.192  1.00  0.00     0.200 A 
ATOM     82  F   UNL A   1      40.619  37.076  38.211  1.00  0.00    -0.200 F 
ATOM     83  F   UNL A   1      39.047  36.235  40.276  1.00  0.00    -0.200 F 
ENDBRANCH  49  73
BRANCH  61  84
ATOM     84  C   UNL A   1      43.867  28.678  35.206  1.00  0.00     0.064 A 
ATOM     85  C   UNL A   1      45.175  29.158  35.051  1.00  0.00     0.173 A 
ATOM     86  C   UNL A   1      43.663  27.606  36.090  1.00  0.00     0.173 A 
ATOM     87  F   UNL A   1      45.427  30.171  34.208  1.00  0.00    -0.203 F 
ATOM     88  C   UNL A   1      46.239  28.573  35.732  1.00  0.00     0.198 A 
ATOM     89  C   UNL A   1      44.725  27.046  36.797  1.00  0.00     0.198 A 
ATOM     90  F   UNL A   1      42.431  27.111  36.282  1.00  0.00    -0.203 F 
ATOM     91  F   UNL A   1      47.488  29.015  35.528  1.00  0.00    -0.200 F 
ATOM     92  C   UNL A   1      46.012  27.524  36.610  1.00  0.00     0.200 A 
ATOM     93  F   UNL A   1      44.499  26.044  37.657  1.00  0.00    -0.200 F 
ATOM     94  F   UNL A   1      47.037  26.968  37.272  1.00  0.00    -0.200 F 
ENDBRANCH  61  84
ENDBRANCH  35  36
ENDBRANCH  27  30
ENDBRANCH  25  26
ENDBRANCH  24  25
ENDBRANCH   1  24
TORSDOF 14
ENDMDL
MODEL 2
REMARK VINA RESULT:     -12.2      0.164      1.679
REMARK SMILES COc1ccc([C@H](C)[N@H+]2CC[C@H](C(=O)NCCCCNC(=O)c3ccc(-c4c5nc(c(-c6c(F)c(F)c(F)c(F)c6F)c6ccc([nH]6)c(-c6c(F)c(F)c(F)c(F)c6F)c6nc(c(-c7c(F)c(F)c(F)c(F)c7F)c7ccc4[nH]7)C=C6)C=C5)cc3)[C@@H]2C)cc1
REMARK SMILES IDX 17 1 16 2 15 3 13 4 14 5 12 7 9 8 10 9 86 10 11 12 87 13
REMARK SMILES IDX 7 14 8 15 6 16 3 17 4 18 89 19 5 20 88 21 2 22 1 23 18 24
REMARK SMILES IDX 19 25 20 26 21 27 22 29 23 30 24 31 85 32 25 33 84 34 26 35
REMARK SMILES IDX 27 36 28 37 78 38 29 39 83 40 77 41 79 42 30 43 82 44 76 45
REMARK SMILES IDX 75 46 31 48 63 49 43 50 62 51 44 52 47 53 61 54 80 55 45 56
REMARK SMILES IDX 46 57 60 59 81 60 48 61 32 62 33 63 41 64 34 65 35 66 39 67
REMARK SMILES IDX 42 68 36 69 37 70 40 71 38 72 64 73 65 74 73 75 66 76 67 77
REMARK SMILES IDX 71 78 74 79 68 80 69 81 72 82 70 83 49 84 50 85 58 86 51 87
REMARK SMILES IDX 52 88 56 89 59 90 53 91 54 92 57 93 55 94
REMARK H PARENT 15 6 9 11 20 28 79 47 47 58
REMARK Flexibility Score: inf
ROOT
ATOM      1  C   UNL A   1      31.436  30.658  26.529  1.00  0.00     0.023 C 
ENDROOT
BRANCH   1   2
ATOM      2  C   UNL A   1      32.244  30.074  25.360  1.00  0.00     0.116 C 
BRANCH   2   3
ATOM      3  N   UNL A   1      31.350  29.472  24.395  1.00  0.00    -0.356 N 
ATOM      4  C   UNL A   1      31.033  28.176  24.158  1.00  0.00     0.229 C 
ATOM      5  O   UNL A   1      30.523  27.939  23.060  1.00  0.00    -0.275 OA
ATOM      6  H   UNL A   1      30.892  30.117  23.809  1.00  0.00     0.163 HD
BRANCH   4   7
ATOM      7  C   UNL A   1      31.184  27.120  25.247  1.00  0.00     0.142 C 
ATOM      8  N   UNL A   1      32.105  24.893  24.899  1.00  0.00    -0.326 N 
ATOM      9  C   UNL A   1      30.779  24.977  24.287  1.00  0.00     0.264 C 
ATOM     10  C   UNL A   1      32.473  26.266  25.307  1.00  0.00     0.194 C 
ATOM     11  H   UNL A   1      32.776  24.549  24.211  1.00  0.00     0.348 HD
ATOM     12  C   UNL A   1      30.077  26.076  25.051  1.00  0.00     0.081 C 
ATOM     13  C   UNL A   1      33.652  26.710  24.451  1.00  0.00     0.076 C 
BRANCH   8  14
ATOM     14  C   UNL A   1      32.279  23.846  25.930  1.00  0.00     0.212 C 
ATOM     15  C   UNL A   1      31.076  22.912  26.157  1.00  0.00     0.081 C 
BRANCH  14  16
ATOM     16  C   UNL A   1      33.594  23.092  25.695  1.00  0.00     0.009 A 
ATOM     17  C   UNL A   1      36.081  21.908  25.083  1.00  0.00     0.118 A 
ATOM     18  C   UNL A   1      36.024  23.043  25.888  1.00  0.00     0.047 A 
ATOM     19  C   UNL A   1      34.900  21.329  24.627  1.00  0.00     0.047 A 
ATOM     20  C   UNL A   1      34.792  23.639  26.182  1.00  0.00     0.013 A 
ATOM     21  C   UNL A   1      33.668  21.915  24.930  1.00  0.00     0.013 A 
BRANCH  17  22
ATOM     22  O   UNL A   1      37.330  21.411  24.825  1.00  0.00    -0.497 OA
ATOM     23  C   UNL A   1      38.330  21.830  25.751  1.00  0.00     0.278 C 
ENDBRANCH  17  22
ENDBRANCH  14  16
ENDBRANCH   8  14
ENDBRANCH   4   7
ENDBRANCH   2   3
ENDBRANCH   1   2
BRANCH   1  24
ATOM     24  C   UNL A   1      31.409  32.191  26.599  1.00  0.00     0.023 C 
BRANCH  24  25
ATOM     25  C   UNL A   1      32.627  32.823  27.256  1.00  0.00     0.116 C 
BRANCH  25  26
ATOM     26  N   UNL A   1      32.390  34.207  27.625  1.00  0.00    -0.352 N 
ATOM     27  C   UNL A   1      32.983  34.957  28.611  1.00  0.00     0.251 C 
ATOM     28  H   UNL A   1      31.708  34.675  27.091  1.00  0.00     0.163 HD
ATOM     29  O   UNL A   1      32.528  36.056  28.904  1.00  0.00    -0.269 OA
BRANCH  27  30
ATOM     30  C   UNL A   1      34.155  34.424  29.342  1.00  0.00     0.039 A 
ATOM     31  C   UNL A   1      33.948  33.775  30.562  1.00  0.00     0.014 A 
ATOM     32  C   UNL A   1      35.449  34.564  28.834  1.00  0.00     0.014 A 
ATOM     33  C   UNL A   1      35.032  33.216  31.243  1.00  0.00     0.010 A 
ATOM     34  C   UNL A   1      36.517  33.938  29.473  1.00  0.00     0.010 A 
ATOM     35  C   UNL A   1      36.321  33.260  30.686  1.00  0.00    -0.014 A 
BRANCH  35  36
ATOM     36  C   UNL A   1      37.470  32.598  31.357  1.00  0.00     0.031 A 
ATOM     37  C   UNL A   1      38.170  31.440  30.702  1.00  0.00     0.074 A 
ATOM     38  C   UNL A   1      37.840  32.999  32.589  1.00  0.00     0.049 A 
ATOM     39  N   UNL A   1      39.148  30.698  31.157  1.00  0.00    -0.248 NA
ATOM     40  C   UNL A   1      37.687  31.044  29.370  1.00  0.00     0.031 C 
ATOM     41  C   UNL A   1      37.208  34.074  33.354  1.00  0.00     0.029 A 
ATOM     42  N   UNL A   1      38.831  32.539  33.421  1.00  0.00    -0.354 N 
ATOM     43  C   UNL A   1      39.386  29.743  30.178  1.00  0.00     0.074 A 
ATOM     44  C   UNL A   1      38.415  29.963  29.128  1.00  0.00     0.031 C 
ATOM     45  C   UNL A   1      37.835  34.203  34.533  1.00  0.00     0.029 A 
ATOM     46  C   UNL A   1      38.885  33.194  34.627  1.00  0.00     0.049 A 
ATOM     47  H   UNL A   1      39.444  31.808  33.177  1.00  0.00     0.167 HD
ATOM     48  C   UNL A   1      40.340  28.781  30.147  1.00  0.00     0.037 A 
ATOM     49  C   UNL A   1      39.682  32.996  35.695  1.00  0.00     0.037 A 
ATOM     50  C   UNL A   1      41.317  28.578  31.186  1.00  0.00     0.049 A 
ATOM     51  C   UNL A   1      40.732  31.918  35.639  1.00  0.00     0.074 A 
ATOM     52  C   UNL A   1      42.371  27.681  31.216  1.00  0.00     0.029 A 
ATOM     53  N   UNL A   1      41.353  29.275  32.386  1.00  0.00    -0.354 N 
ATOM     54  N   UNL A   1      41.002  31.076  34.672  1.00  0.00    -0.248 NA
ATOM     55  C   UNL A   1      41.592  31.770  36.822  1.00  0.00     0.031 C 
ATOM     56  C   UNL A   1      43.003  27.790  32.458  1.00  0.00     0.029 A 
ATOM     57  C   UNL A   1      42.389  28.802  33.177  1.00  0.00     0.049 A 
ATOM     58  H   UNL A   1      40.734  29.998  32.638  1.00  0.00     0.167 HD
ATOM     59  C   UNL A   1      42.077  30.318  35.116  1.00  0.00     0.074 A 
ATOM     60  C   UNL A   1      42.421  30.812  36.433  1.00  0.00     0.031 C 
ATOM     61  C   UNL A   1      42.722  29.304  34.486  1.00  0.00     0.037 A 
BRANCH  48  62
ATOM     62  C   UNL A   1      40.370  27.866  28.955  1.00  0.00     0.064 A 
ATOM     63  C   UNL A   1      41.137  28.156  27.816  1.00  0.00     0.173 A 
ATOM     64  C   UNL A   1      39.647  26.663  28.966  1.00  0.00     0.173 A 
ATOM     65  F   UNL A   1      41.840  29.297  27.748  1.00  0.00    -0.203 F 
ATOM     66  C   UNL A   1      41.149  27.297  26.720  1.00  0.00     0.198 A 
ATOM     67  C   UNL A   1      39.690  25.789  27.883  1.00  0.00     0.198 A 
ATOM     68  F   UNL A   1      38.903  26.329  30.032  1.00  0.00    -0.203 F 
ATOM     69  F   UNL A   1      41.841  27.625  25.620  1.00  0.00    -0.200 F 
ATOM     70  C   UNL A   1      40.432  26.111  26.757  1.00  0.00     0.200 A 
ATOM     71  F   UNL A   1      39.010  24.635  27.928  1.00  0.00    -0.200 F 
ATOM     72  F   UNL A   1      40.449  25.282  25.705  1.00  0.00    -0.200 F 
ENDBRANCH  48  62
BRANCH  49  73
ATOM     73  C   UNL A   1      39.522  33.846  36.905  1.00  0.00     0.064 A 
ATOM     74  C   UNL A   1      40.158  35.092  37.004  1.00  0.00     0.173 A 
ATOM     75  C   UNL A   1      38.729  33.432  37.985  1.00  0.00     0.173 A 
ATOM     76  F   UNL A   1      40.943  35.523  36.006  1.00  0.00    -0.203 F 
ATOM     77  C   UNL A   1      40.024  35.880  38.145  1.00  0.00     0.198 A 
ATOM     78  C   UNL A   1      38.569  34.237  39.112  1.00  0.00     0.198 A 
ATOM     79  F   UNL A   1      38.094  32.252  37.939  1.00  0.00    -0.203 F 
ATOM     80  F   UNL A   1      40.681  37.044  38.232  1.00  0.00    -0.200 F 
ATOM     81  C   UNL A   1      39.224  35.456  39.195  1.00  0.00     0.200 A 
ATOM     82  F   UNL A   1      37.782  33.830  40.117  1.00  0.00    -0.200 F 
ATOM     83  F   UNL A   1      39.090  36.218  40.288  1.00  0.00    -0.200 F 
ENDBRANCH  49  73
BRANCH  61  84
ATOM     84  C   UNL A   1      43.890  28.680  35.199  1.00  0.00     0.064 A 
ATOM     85  C   UNL A   1      43.740  27.561  36.030  1.00  0.00     0.173 A 
ATOM     86  C   UNL A   1      45.185  29.190  35.014  1.00  0.00     0.173 A 
ATOM     87  F   UNL A   1      42.522  27.044  36.252  1.00  0.00    -0.203 F 
ATOM     88  C   UNL A   1      44.837  26.991  36.671  1.00  0.00     0.198 A 
ATOM     89  C   UNL A   1      46.285  28.596  35.628  1.00  0.00     0.198 A 
ATOM     90  F   UNL A   1      45.388  30.255  34.224  1.00  0.00    -0.203 F 
ATOM     91  F   UNL A   1      44.662  25.955  37.502  1.00  0.00    -0.200 F 
ATOM     92  C   UNL A   1      46.109  27.504  36.463  1.00  0.00     0.200 A 
ATOM     93  F   UNL A   1      47.515  29.082  35.411  1.00  0.00    -0.200 F 
ATOM     94  F   UNL A   1      47.165  26.948  37.073  1.00  0.00    -0.200 F 
ENDBRANCH  61  84
ENDBRANCH  35  36
ENDBRANCH  27  30
ENDBRANCH  25  26
ENDBRANCH  24  25
ENDBRANCH   1  24
TORSDOF 14
ENDMDL
MODEL 3
REMARK VINA RESULT:     -12.2      5.267     11.028
REMARK SMILES COc1ccc([C@H](C)[N@H+]2CC[C@H](C(=O)NCCCCNC(=O)c3ccc(-c4c5nc(c(-c6c(F)c(F)c(F)c(F)c6F)c6ccc([nH]6)c(-c6c(F)c(F)c(F)c(F)c6F)c6nc(c(-c7c(F)c(F)c(F)c(F)c7F)c7ccc4[nH]7)C=C6)C=C5)cc3)[C@@H]2C)cc1
REMARK SMILES IDX 17 1 16 2 15 3 13 4 14 5 12 7 9 8 10 9 86 10 11 12 87 13
REMARK SMILES IDX 7 14 8 15 6 16 3 17 4 18 89 19 5 20 88 21 2 22 1 23 18 24
REMARK SMILES IDX 19 25 20 26 21 27 22 29 23 30 24 31 85 32 25 33 84 34 26 35
REMARK SMILES IDX 27 36 28 37 78 38 29 39 83 40 77 41 79 42 30 43 82 44 76 45
REMARK SMILES IDX 75 46 31 48 63 49 43 50 62 51 44 52 47 53 61 54 80 55 45 56
REMARK SMILES IDX 46 57 60 59 81 60 48 61 32 62 33 63 41 64 34 65 35 66 39 67
REMARK SMILES IDX 42 68 36 69 37 70 40 71 38 72 64 73 65 74 73 75 66 76 67 77
REMARK SMILES IDX 71 78 74 79 68 80 69 81 72 82 70 83 49 84 50 85 58 86 51 87
REMARK SMILES IDX 52 88 56 89 59 90 53 91 54 92 57 93 55 94
REMARK H PARENT 15 6 9 11 20 28 79 47 47 58
REMARK Flexibility Score: inf
ROOT
ATOM      1  C   UNL A   1      36.707  20.900  24.894  1.00  0.00     0.023 C 
ENDROOT
BRANCH   1   2
ATOM      2  C   UNL A   1      35.275  20.346  24.841  1.00  0.00     0.116 C 
BRANCH   2   3
ATOM      3  N   UNL A   1      34.613  20.571  26.108  1.00  0.00    -0.356 N 
ATOM      4  C   UNL A   1      33.832  21.592  26.539  1.00  0.00     0.229 C 
ATOM      5  O   UNL A   1      33.699  21.688  27.761  1.00  0.00    -0.275 OA
ATOM      6  H   UNL A   1      34.755  19.859  26.772  1.00  0.00     0.163 HD
BRANCH   4   7
ATOM      7  C   UNL A   1      33.070  22.467  25.551  1.00  0.00     0.142 C 
ATOM      8  N   UNL A   1      32.605  24.835  25.871  1.00  0.00    -0.326 N 
ATOM      9  C   UNL A   1      31.773  24.046  26.778  1.00  0.00     0.264 C 
ATOM     10  C   UNL A   1      33.573  23.901  25.258  1.00  0.00     0.194 C 
ATOM     11  H   UNL A   1      33.107  25.548  26.403  1.00  0.00     0.348 HD
ATOM     12  C   UNL A   1      31.659  22.694  26.109  1.00  0.00     0.081 C 
ATOM     13  C   UNL A   1      34.964  24.273  25.753  1.00  0.00     0.076 C 
BRANCH   8  14
ATOM     14  C   UNL A   1      31.882  25.721  24.932  1.00  0.00     0.212 C 
ATOM     15  C   UNL A   1      30.413  25.353  24.650  1.00  0.00     0.081 C 
BRANCH  14  16
ATOM     16  C   UNL A   1      32.069  27.187  25.343  1.00  0.00     0.009 A 
ATOM     17  C   UNL A   1      32.283  29.818  26.338  1.00  0.00     0.118 A 
ATOM     18  C   UNL A   1      33.095  28.807  26.848  1.00  0.00     0.047 A 
ATOM     19  C   UNL A   1      31.404  29.535  25.298  1.00  0.00     0.047 A 
ATOM     20  C   UNL A   1      32.981  27.499  26.364  1.00  0.00     0.013 A 
ATOM     21  C   UNL A   1      31.298  28.231  24.804  1.00  0.00     0.013 A 
BRANCH  17  22
ATOM     22  O   UNL A   1      32.443  31.060  26.892  1.00  0.00    -0.497 OA
ATOM     23  C   UNL A   1      33.655  31.222  27.625  1.00  0.00     0.278 C 
ENDBRANCH  17  22
ENDBRANCH  14  16
ENDBRANCH   8  14
ENDBRANCH   4   7
ENDBRANCH   2   3
ENDBRANCH   1   2
BRANCH   1  24
ATOM     24  C   UNL A   1      37.811  19.839  25.002  1.00  0.00     0.023 C 
BRANCH  24  25
ATOM     25  C   UNL A   1      39.045  20.276  25.777  1.00  0.00     0.116 C 
BRANCH  25  26
ATOM     26  N   UNL A   1      40.051  19.231  25.834  1.00  0.00    -0.352 N 
ATOM     27  C   UNL A   1      41.408  19.341  26.019  1.00  0.00     0.251 C 
ATOM     28  H   UNL A   1      39.713  18.314  25.725  1.00  0.00     0.163 HD
ATOM     29  O   UNL A   1      42.131  18.367  25.853  1.00  0.00    -0.269 OA
BRANCH  27  30
ATOM     30  C   UNL A   1      42.000  20.646  26.392  1.00  0.00     0.039 A 
ATOM     31  C   UNL A   1      42.380  21.526  25.374  1.00  0.00     0.014 A 
ATOM     32  C   UNL A   1      42.186  21.002  27.730  1.00  0.00     0.014 A 
ATOM     33  C   UNL A   1      42.891  22.784  25.700  1.00  0.00     0.010 A 
ATOM     34  C   UNL A   1      42.619  22.286  28.053  1.00  0.00     0.010 A 
ATOM     35  C   UNL A   1      42.980  23.190  27.043  1.00  0.00    -0.014 A 
BRANCH  35  36
ATOM     36  C   UNL A   1      43.443  24.555  27.403  1.00  0.00     0.031 A 
ATOM     37  C   UNL A   1      42.455  25.606  27.830  1.00  0.00     0.074 A 
ATOM     38  C   UNL A   1      44.747  24.869  27.280  1.00  0.00     0.049 A 
ATOM     39  N   UNL A   1      42.659  26.865  28.124  1.00  0.00    -0.248 NA
ATOM     40  C   UNL A   1      41.045  25.193  27.912  1.00  0.00     0.031 C 
ATOM     41  C   UNL A   1      45.796  23.956  26.824  1.00  0.00     0.029 A 
ATOM     42  N   UNL A   1      45.411  26.047  27.515  1.00  0.00    -0.354 N 
ATOM     43  C   UNL A   1      41.408  27.396  28.407  1.00  0.00     0.074 A 
ATOM     44  C   UNL A   1      40.444  26.338  28.199  1.00  0.00     0.031 C 
ATOM     45  C   UNL A   1      46.973  24.601  26.829  1.00  0.00     0.029 A 
ATOM     46  C   UNL A   1      46.758  25.983  27.246  1.00  0.00     0.049 A 
ATOM     47  H   UNL A   1      44.966  26.861  27.844  1.00  0.00     0.167 HD
ATOM     48  C   UNL A   1      41.094  28.646  28.824  1.00  0.00     0.037 A 
ATOM     49  C   UNL A   1      47.709  26.934  27.315  1.00  0.00     0.037 A 
ATOM     50  C   UNL A   1      42.060  29.690  29.049  1.00  0.00     0.049 A 
ATOM     51  C   UNL A   1      47.335  28.317  27.776  1.00  0.00     0.074 A 
ATOM     52  C   UNL A   1      41.852  30.967  29.542  1.00  0.00     0.029 A 
ATOM     53  N   UNL A   1      43.418  29.582  28.785  1.00  0.00    -0.354 N 
ATOM     54  N   UNL A   1      46.160  28.783  28.123  1.00  0.00    -0.248 NA
ATOM     55  C   UNL A   1      48.421  29.303  27.861  1.00  0.00     0.031 C 
ATOM     56  C   UNL A   1      43.071  31.652  29.513  1.00  0.00     0.029 A 
ATOM     57  C   UNL A   1      44.053  30.782  29.070  1.00  0.00     0.049 A 
ATOM     58  H   UNL A   1      43.865  28.773  28.444  1.00  0.00     0.167 HD
ATOM     59  C   UNL A   1      46.369  30.106  28.493  1.00  0.00     0.074 A 
ATOM     60  C   UNL A   1      47.786  30.361  28.345  1.00  0.00     0.031 C 
ATOM     61  C   UNL A   1      45.466  31.024  28.920  1.00  0.00     0.037 A 
BRANCH  48  62
ATOM     62  C   UNL A   1      39.642  28.960  29.055  1.00  0.00     0.064 A 
ATOM     63  C   UNL A   1      38.794  29.355  28.010  1.00  0.00     0.173 A 
ATOM     64  C   UNL A   1      39.083  28.830  30.337  1.00  0.00     0.173 A 
ATOM     65  F   UNL A   1      39.277  29.504  26.767  1.00  0.00    -0.203 F 
ATOM     66  C   UNL A   1      37.452  29.644  28.245  1.00  0.00     0.198 A 
ATOM     67  C   UNL A   1      37.733  29.084  30.560  1.00  0.00     0.198 A 
ATOM     68  F   UNL A   1      39.845  28.447  31.373  1.00  0.00    -0.203 F 
ATOM     69  F   UNL A   1      36.676  30.078  27.241  1.00  0.00    -0.200 F 
ATOM     70  C   UNL A   1      36.920  29.502  29.518  1.00  0.00     0.200 A 
ATOM     71  F   UNL A   1      37.218  28.929  31.788  1.00  0.00    -0.200 F 
ATOM     72  F   UNL A   1      35.628  29.774  29.741  1.00  0.00    -0.200 F 
ENDBRANCH  48  62
BRANCH  49  73
ATOM     73  C   UNL A   1      49.112  26.603  26.947  1.00  0.00     0.064 A 
ATOM     74  C   UNL A   1      49.542  26.648  25.613  1.00  0.00     0.173 A 
ATOM     75  C   UNL A   1      50.052  26.237  27.922  1.00  0.00     0.173 A 
ATOM     76  F   UNL A   1      48.675  26.973  24.642  1.00  0.00    -0.203 F 
ATOM     77  C   UNL A   1      50.850  26.321  25.267  1.00  0.00     0.198 A 
ATOM     78  C   UNL A   1      51.370  25.942  27.578  1.00  0.00     0.198 A 
ATOM     79  F   UNL A   1      49.695  26.185  29.213  1.00  0.00    -0.203 F 
ATOM     80  F   UNL A   1      51.221  26.325  23.979  1.00  0.00    -0.200 F 
ATOM     81  C   UNL A   1      51.766  25.975  26.250  1.00  0.00     0.200 A 
ATOM     82  F   UNL A   1      52.254  25.625  28.533  1.00  0.00    -0.200 F 
ATOM     83  F   UNL A   1      53.026  25.667  25.916  1.00  0.00    -0.200 F 
ENDBRANCH  49  73
BRANCH  61  84
ATOM     84  C   UNL A   1      45.987  32.384  29.290  1.00  0.00     0.064 A 
ATOM     85  C   UNL A   1      46.457  32.673  30.579  1.00  0.00     0.173 A 
ATOM     86  C   UNL A   1      46.053  33.403  28.326  1.00  0.00     0.173 A 
ATOM     87  F   UNL A   1      46.404  31.739  31.542  1.00  0.00    -0.203 F 
ATOM     88  C   UNL A   1      46.948  33.936  30.897  1.00  0.00     0.198 A 
ATOM     89  C   UNL A   1      46.577  34.654  28.638  1.00  0.00     0.198 A 
ATOM     90  F   UNL A   1      45.623  33.180  27.075  1.00  0.00    -0.203 F 
ATOM     91  F   UNL A   1      47.343  34.204  32.150  1.00  0.00    -0.200 F 
ATOM     92  C   UNL A   1      47.015  34.923  29.925  1.00  0.00     0.200 A 
ATOM     93  F   UNL A   1      46.657  35.600  27.692  1.00  0.00    -0.200 F 
ATOM     94  F   UNL A   1      47.497  36.136  30.231  1.00  0.00    -0.200 F 
ENDBRANCH  61  84
ENDBRANCH  35  36
ENDBRANCH  27  30
ENDBRANCH  25  26
ENDBRANCH  24  25
ENDBRANCH   1  24
TORSDOF 14
ENDMDL
