MODEL 1
REMARK VINA RESULT:     -11.8      0.000      0.000
REMARK SMILES COc1ccccc1/C=C/C(=O)N(CC(=O)NCCCCNC(=O)c1ccc(-c2c3nc(c(-c4c(F)c(F)c(F)c(F)c4F)c4ccc([nH]4)c(-c4c(F)c(F)c(F)c(F)c4F)c4nc(c(-c5c(F)c(F)c(F)c(F)c5F)c5ccc2[nH]5)C=C4)C=C3)cc1)C(C)(C)C
REMARK SMILES IDX 18 1 17 2 15 3 16 4 14 6 13 7 11 8 12 9 10 10 9 11 8 12 3 13
REMARK SMILES IDX 4 14 5 15 7 16 6 17 2 18 1 19 88 20 89 21 90 22 91 23 19 24
REMARK SMILES IDX 20 25 21 26 22 27 23 28 24 30 25 31 26 32 87 33 27 34 86 35
REMARK SMILES IDX 28 36 29 37 30 38 80 39 31 40 85 41 79 42 81 43 32 44 84 45
REMARK SMILES IDX 78 46 77 47 33 49 65 50 45 51 64 52 46 53 49 54 63 55 82 56
REMARK SMILES IDX 47 57 48 58 62 60 83 61 50 62 34 63 35 64 43 65 36 66 37 67
REMARK SMILES IDX 41 68 44 69 38 70 39 71 42 72 40 73 66 74 67 75 75 76 68 77
REMARK SMILES IDX 69 78 73 79 76 80 70 81 71 82 74 83 72 84 51 85 52 86 60 87
REMARK SMILES IDX 53 88 54 89 58 90 61 91 55 92 56 93 59 94 57 95
REMARK H PARENT 17 5 22 29 81 48 49 59
REMARK Flexibility Score: inf
ROOT
ATOM      1  C   UNL A   1      35.716  20.847  25.295  1.00  0.00     0.116 C 
ENDROOT
BRANCH   1   2
ATOM      2  N   UNL A   1      35.334  21.522  26.516  1.00  0.00    -0.355 N 
ATOM      3  C   UNL A   1      34.183  22.168  26.859  1.00  0.00     0.239 C 
ATOM      4  O   UNL A   1      34.012  22.382  28.066  1.00  0.00    -0.273 OA
ATOM      5  H   UNL A   1      36.023  21.514  27.220  1.00  0.00     0.163 HD
BRANCH   3   6
ATOM      6  C   UNL A   1      33.051  22.494  25.862  1.00  0.00     0.220 C 
BRANCH   6   7
ATOM      7  N   UNL A   1      33.377  23.353  24.712  1.00  0.00    -0.325 N 
BRANCH   7   8
ATOM      8  C   UNL A   1      34.333  24.375  24.763  1.00  0.00     0.247 C 
ATOM      9  O   UNL A   1      35.544  24.164  24.662  1.00  0.00    -0.270 OA
BRANCH   8  10
ATOM     10  C   UNL A   1      33.966  25.806  25.035  1.00  0.00     0.072 C 
ATOM     11  C   UNL A   1      33.346  26.311  26.111  1.00  0.00     0.017 C 
BRANCH  11  12
ATOM     12  C   UNL A   1      32.949  27.711  26.309  1.00  0.00     0.017 A 
ATOM     13  C   UNL A   1      31.872  28.235  25.572  1.00  0.00     0.126 A 
ATOM     14  C   UNL A   1      31.573  29.597  25.605  1.00  0.00     0.047 A 
ATOM     15  C   UNL A   1      32.335  30.449  26.402  1.00  0.00     0.004 A 
ATOM     16  C   UNL A   1      33.705  28.577  27.106  1.00  0.00     0.012 A 
ATOM     17  C   UNL A   1      33.395  29.939  27.154  1.00  0.00     0.001 A 
BRANCH  13  18
ATOM     18  O   UNL A   1      31.148  27.441  24.714  1.00  0.00    -0.496 OA
ATOM     19  C   UNL A   1      31.176  27.984  23.393  1.00  0.00     0.278 C 
ENDBRANCH  13  18
ENDBRANCH  11  12
ENDBRANCH   8  10
ENDBRANCH   7   8
BRANCH   7  20
ATOM     20  C   UNL A   1      32.641  23.090  23.405  1.00  0.00     0.035 C 
ATOM     21  C   UNL A   1      32.350  21.593  23.202  1.00  0.00     0.034 C 
ATOM     22  C   UNL A   1      31.310  23.878  23.364  1.00  0.00     0.034 C 
ATOM     23  C   UNL A   1      33.422  23.540  22.139  1.00  0.00     0.034 C 
ENDBRANCH   7  20
ENDBRANCH   6   7
ENDBRANCH   3   6
ENDBRANCH   1   2
BRANCH   1  24
ATOM     24  C   UNL A   1      37.137  21.120  24.825  1.00  0.00     0.023 C 
BRANCH  24  25
ATOM     25  C   UNL A   1      38.097  19.953  24.969  1.00  0.00     0.023 C 
BRANCH  25  26
ATOM     26  C   UNL A   1      39.373  20.290  25.722  1.00  0.00     0.116 C 
BRANCH  26  27
ATOM     27  N   UNL A   1      40.269  19.149  25.856  1.00  0.00    -0.352 N 
ATOM     28  C   UNL A   1      41.624  19.142  26.105  1.00  0.00     0.251 C 
ATOM     29  H   UNL A   1      39.851  18.264  25.756  1.00  0.00     0.163 HD
ATOM     30  O   UNL A   1      42.271  18.114  26.054  1.00  0.00    -0.269 OA
BRANCH  28  31
ATOM     31  C   UNL A   1      42.285  20.428  26.407  1.00  0.00     0.039 A 
ATOM     32  C   UNL A   1      42.828  21.174  25.360  1.00  0.00     0.014 A 
ATOM     33  C   UNL A   1      42.299  20.915  27.716  1.00  0.00     0.014 A 
ATOM     34  C   UNL A   1      43.325  22.452  25.618  1.00  0.00     0.010 A 
ATOM     35  C   UNL A   1      42.710  22.218  27.954  1.00  0.00     0.010 A 
ATOM     36  C   UNL A   1      43.233  22.997  26.909  1.00  0.00    -0.014 A 
BRANCH  36  37
ATOM     37  C   UNL A   1      43.699  24.370  27.211  1.00  0.00     0.031 A 
ATOM     38  C   UNL A   1      42.716  25.383  27.729  1.00  0.00     0.074 A 
ATOM     39  C   UNL A   1      44.967  24.728  26.936  1.00  0.00     0.049 A 
ATOM     40  N   UNL A   1      42.874  26.666  27.925  1.00  0.00    -0.248 NA
ATOM     41  C   UNL A   1      41.362  24.890  28.030  1.00  0.00     0.031 C 
ATOM     42  C   UNL A   1      45.999  23.845  26.387  1.00  0.00     0.029 A 
ATOM     43  N   UNL A   1      45.600  25.939  27.063  1.00  0.00    -0.354 N 
ATOM     44  C   UNL A   1      41.636  27.135  28.343  1.00  0.00     0.074 A 
ATOM     45  C   UNL A   1      40.725  26.013  28.323  1.00  0.00     0.031 C 
ATOM     46  C   UNL A   1      47.139  24.540  26.242  1.00  0.00     0.029 A 
ATOM     47  C   UNL A   1      46.909  25.923  26.648  1.00  0.00     0.049 A 
ATOM     48  H   UNL A   1      45.158  26.744  27.418  1.00  0.00     0.167 HD
ATOM     49  C   UNL A   1      41.297  28.386  28.734  1.00  0.00     0.037 A 
ATOM     50  C   UNL A   1      47.815  26.917  26.594  1.00  0.00     0.037 A 
ATOM     51  C   UNL A   1      42.218  29.489  28.792  1.00  0.00     0.049 A 
ATOM     52  C   UNL A   1      47.418  28.295  27.049  1.00  0.00     0.074 A 
ATOM     53  C   UNL A   1      41.993  30.781  29.230  1.00  0.00     0.029 A 
ATOM     54  N   UNL A   1      43.549  29.421  28.405  1.00  0.00    -0.354 N 
ATOM     55  N   UNL A   1      46.259  28.717  27.495  1.00  0.00    -0.248 NA
ATOM     56  C   UNL A   1      48.454  29.335  26.998  1.00  0.00     0.031 C 
ATOM     57  C   UNL A   1      43.178  31.506  29.076  1.00  0.00     0.029 A 
ATOM     58  C   UNL A   1      44.154  30.654  28.584  1.00  0.00     0.049 A 
ATOM     59  H   UNL A   1      43.996  28.618  28.055  1.00  0.00     0.167 HD
ATOM     60  C   UNL A   1      46.435  30.058  27.808  1.00  0.00     0.074 A 
ATOM     61  C   UNL A   1      47.815  30.378  27.509  1.00  0.00     0.031 C 
ATOM     62  C   UNL A   1      45.535  30.945  28.299  1.00  0.00     0.037 A 
BRANCH  49  63
ATOM     63  C   UNL A   1      39.871  28.623  29.135  1.00  0.00     0.064 A 
ATOM     64  C   UNL A   1      39.430  28.399  30.448  1.00  0.00     0.173 A 
ATOM     65  C   UNL A   1      38.939  29.103  28.202  1.00  0.00     0.173 A 
ATOM     66  F   UNL A   1      40.279  27.925  31.373  1.00  0.00    -0.203 F 
ATOM     67  C   UNL A   1      38.103  28.618  30.806  1.00  0.00     0.198 A 
ATOM     68  C   UNL A   1      37.619  29.349  28.572  1.00  0.00     0.198 A 
ATOM     69  F   UNL A   1      39.308  29.335  26.934  1.00  0.00    -0.203 F 
ATOM     70  F   UNL A   1      37.695  28.348  32.054  1.00  0.00    -0.200 F 
ATOM     71  C   UNL A   1      37.201  29.100  29.871  1.00  0.00     0.200 A 
ATOM     72  F   UNL A   1      36.750  29.826  27.669  1.00  0.00    -0.200 F 
ATOM     73  F   UNL A   1      35.925  29.317  30.218  1.00  0.00    -0.200 F 
ENDBRANCH  49  63
BRANCH  50  74
ATOM     74  C   UNL A   1      49.195  26.641  26.116  1.00  0.00     0.064 A 
ATOM     75  C   UNL A   1      49.563  26.920  24.792  1.00  0.00     0.173 A 
ATOM     76  C   UNL A   1      50.168  26.091  26.961  1.00  0.00     0.173 A 
ATOM     77  F   UNL A   1      48.661  27.428  23.939  1.00  0.00    -0.203 F 
ATOM     78  C   UNL A   1      50.846  26.640  24.326  1.00  0.00     0.198 A 
ATOM     79  C   UNL A   1      51.458  25.835  26.502  1.00  0.00     0.198 A 
ATOM     80  F   UNL A   1      49.869  25.810  28.238  1.00  0.00    -0.203 F 
ATOM     81  F   UNL A   1      51.156  26.874  23.044  1.00  0.00    -0.200 F 
ATOM     82  C   UNL A   1      51.794  26.101  25.182  1.00  0.00     0.200 A 
ATOM     83  F   UNL A   1      52.377  25.327  27.336  1.00  0.00    -0.200 F 
ATOM     84  F   UNL A   1      53.028  25.833  24.736  1.00  0.00    -0.200 F 
ENDBRANCH  50  74
BRANCH  62  85
ATOM     85  C   UNL A   1      46.026  32.332  28.590  1.00  0.00     0.064 A 
ATOM     86  C   UNL A   1      45.966  33.350  27.628  1.00  0.00     0.173 A 
ATOM     87  C   UNL A   1      46.512  32.655  29.866  1.00  0.00     0.173 A 
ATOM     88  F   UNL A   1      45.523  33.084  26.390  1.00  0.00    -0.203 F 
ATOM     89  C   UNL A   1      46.398  34.639  27.927  1.00  0.00     0.198 A 
ATOM     90  C   UNL A   1      46.916  33.951  30.169  1.00  0.00     0.198 A 
ATOM     91  F   UNL A   1      46.582  31.716  30.822  1.00  0.00    -0.203 F 
ATOM     92  F   UNL A   1      46.372  35.588  26.982  1.00  0.00    -0.200 F 
ATOM     93  C   UNL A   1      46.865  34.940  29.199  1.00  0.00     0.200 A 
ATOM     94  F   UNL A   1      47.354  34.244  31.401  1.00  0.00    -0.200 F 
ATOM     95  F   UNL A   1      47.271  36.185  29.487  1.00  0.00    -0.200 F 
ENDBRANCH  62  85
ENDBRANCH  36  37
ENDBRANCH  28  31
ENDBRANCH  26  27
ENDBRANCH  25  26
ENDBRANCH  24  25
ENDBRANCH   1  24
TORSDOF 17
ENDMDL
MODEL 2
REMARK VINA RESULT:     -11.7      0.271      1.947
REMARK SMILES COc1ccccc1/C=C/C(=O)N(CC(=O)NCCCCNC(=O)c1ccc(-c2c3nc(c(-c4c(F)c(F)c(F)c(F)c4F)c4ccc([nH]4)c(-c4c(F)c(F)c(F)c(F)c4F)c4nc(c(-c5c(F)c(F)c(F)c(F)c5F)c5ccc2[nH]5)C=C4)C=C3)cc1)C(C)(C)C
REMARK SMILES IDX 18 1 17 2 15 3 16 4 14 6 13 7 11 8 12 9 10 10 9 11 8 12 3 13
REMARK SMILES IDX 4 14 5 15 7 16 6 17 2 18 1 19 88 20 89 21 90 22 91 23 19 24
REMARK SMILES IDX 20 25 21 26 22 27 23 28 24 30 25 31 26 32 87 33 27 34 86 35
REMARK SMILES IDX 28 36 29 37 30 38 80 39 31 40 85 41 79 42 81 43 32 44 84 45
REMARK SMILES IDX 78 46 77 47 33 49 65 50 45 51 64 52 46 53 49 54 63 55 82 56
REMARK SMILES IDX 47 57 48 58 62 60 83 61 50 62 34 63 35 64 43 65 36 66 37 67
REMARK SMILES IDX 41 68 44 69 38 70 39 71 42 72 40 73 66 74 67 75 75 76 68 77
REMARK SMILES IDX 69 78 73 79 76 80 70 81 71 82 74 83 72 84 51 85 52 86 60 87
REMARK SMILES IDX 53 88 54 89 58 90 61 91 55 92 56 93 59 94 57 95
REMARK H PARENT 17 5 22 29 81 48 49 59
REMARK Flexibility Score: inf
ROOT
ATOM      1  C   UNL A   1      35.664  20.979  25.153  1.00  0.00     0.116 C 
ENDROOT
BRANCH   1   2
ATOM      2  N   UNL A   1      35.290  21.541  26.432  1.00  0.00    -0.355 N 
ATOM      3  C   UNL A   1      34.138  22.147  26.841  1.00  0.00     0.239 C 
ATOM      4  O   UNL A   1      33.978  22.253  28.065  1.00  0.00    -0.273 OA
ATOM      5  H   UNL A   1      35.985  21.475  27.126  1.00  0.00     0.163 HD
BRANCH   3   6
ATOM      6  C   UNL A   1      32.995  22.553  25.889  1.00  0.00     0.220 C 
BRANCH   6   7
ATOM      7  N   UNL A   1      33.324  23.446  24.765  1.00  0.00    -0.325 N 
BRANCH   7   8
ATOM      8  C   UNL A   1      34.270  24.473  24.852  1.00  0.00     0.247 C 
ATOM      9  O   UNL A   1      35.480  24.283  24.705  1.00  0.00    -0.270 OA
BRANCH   8  10
ATOM     10  C   UNL A   1      33.898  25.881  25.221  1.00  0.00     0.072 C 
ATOM     11  C   UNL A   1      32.727  26.329  25.697  1.00  0.00     0.017 C 
BRANCH  11  12
ATOM     12  C   UNL A   1      32.385  27.728  25.986  1.00  0.00     0.017 A 
ATOM     13  C   UNL A   1      31.609  28.453  25.065  1.00  0.00     0.126 A 
ATOM     14  C   UNL A   1      31.404  29.824  25.220  1.00  0.00     0.047 A 
ATOM     15  C   UNL A   1      31.954  30.482  26.317  1.00  0.00     0.004 A 
ATOM     16  C   UNL A   1      32.930  28.399  27.085  1.00  0.00     0.012 A 
ATOM     17  C   UNL A   1      32.712  29.770  27.250  1.00  0.00     0.001 A 
BRANCH  13  18
ATOM     18  O   UNL A   1      31.116  27.856  23.929  1.00  0.00    -0.496 OA
ATOM     19  C   UNL A   1      30.804  28.844  22.945  1.00  0.00     0.278 C 
ENDBRANCH  13  18
ENDBRANCH  11  12
ENDBRANCH   8  10
ENDBRANCH   7   8
BRANCH   7  20
ATOM     20  C   UNL A   1      32.600  23.213  23.445  1.00  0.00     0.035 C 
ATOM     21  C   UNL A   1      32.520  21.717  23.091  1.00  0.00     0.034 C 
ATOM     22  C   UNL A   1      31.170  23.800  23.499  1.00  0.00     0.034 C 
ATOM     23  C   UNL A   1      33.278  23.896  22.224  1.00  0.00     0.034 C 
ENDBRANCH   7  20
ENDBRANCH   6   7
ENDBRANCH   3   6
ENDBRANCH   1   2
BRANCH   1  24
ATOM     24  C   UNL A   1      37.117  21.188  24.757  1.00  0.00     0.023 C 
BRANCH  24  25
ATOM     25  C   UNL A   1      38.027  19.997  25.000  1.00  0.00     0.023 C 
BRANCH  25  26
ATOM     26  C   UNL A   1      39.300  20.335  25.757  1.00  0.00     0.116 C 
BRANCH  26  27
ATOM     27  N   UNL A   1      40.198  19.195  25.894  1.00  0.00    -0.352 N 
ATOM     28  C   UNL A   1      41.555  19.190  26.127  1.00  0.00     0.251 C 
ATOM     29  H   UNL A   1      39.777  18.310  25.808  1.00  0.00     0.163 HD
ATOM     30  O   UNL A   1      42.200  18.160  26.081  1.00  0.00    -0.269 OA
BRANCH  28  31
ATOM     31  C   UNL A   1      42.221  20.479  26.407  1.00  0.00     0.039 A 
ATOM     32  C   UNL A   1      42.719  21.230  25.341  1.00  0.00     0.014 A 
ATOM     33  C   UNL A   1      42.282  20.963  27.715  1.00  0.00     0.014 A 
ATOM     34  C   UNL A   1      43.219  22.510  25.583  1.00  0.00     0.010 A 
ATOM     35  C   UNL A   1      42.697  22.268  27.941  1.00  0.00     0.010 A 
ATOM     36  C   UNL A   1      43.174  23.051  26.878  1.00  0.00    -0.014 A 
BRANCH  36  37
ATOM     37  C   UNL A   1      43.645  24.426  27.165  1.00  0.00     0.031 A 
ATOM     38  C   UNL A   1      42.667  25.445  27.681  1.00  0.00     0.074 A 
ATOM     39  C   UNL A   1      44.911  24.780  26.878  1.00  0.00     0.049 A 
ATOM     40  N   UNL A   1      42.828  26.730  27.865  1.00  0.00    -0.248 NA
ATOM     41  C   UNL A   1      41.314  24.957  27.996  1.00  0.00     0.031 C 
ATOM     42  C   UNL A   1      45.937  23.891  26.329  1.00  0.00     0.029 A 
ATOM     43  N   UNL A   1      45.547  25.991  26.990  1.00  0.00    -0.354 N 
ATOM     44  C   UNL A   1      41.593  27.204  28.289  1.00  0.00     0.074 A 
ATOM     45  C   UNL A   1      40.681  26.083  28.284  1.00  0.00     0.031 C 
ATOM     46  C   UNL A   1      47.078  24.582  26.170  1.00  0.00     0.029 A 
ATOM     47  C   UNL A   1      46.853  25.969  26.567  1.00  0.00     0.049 A 
ATOM     48  H   UNL A   1      45.109  26.799  27.342  1.00  0.00     0.167 HD
ATOM     49  C   UNL A   1      41.259  28.459  28.671  1.00  0.00     0.037 A 
ATOM     50  C   UNL A   1      47.760  26.961  26.498  1.00  0.00     0.037 A 
ATOM     51  C   UNL A   1      42.183  29.560  28.713  1.00  0.00     0.049 A 
ATOM     52  C   UNL A   1      47.368  28.344  26.944  1.00  0.00     0.074 A 
ATOM     53  C   UNL A   1      41.962  30.856  29.142  1.00  0.00     0.029 A 
ATOM     54  N   UNL A   1      43.511  29.487  28.318  1.00  0.00    -0.354 N 
ATOM     55  N   UNL A   1      46.213  28.771  27.394  1.00  0.00    -0.248 NA
ATOM     56  C   UNL A   1      48.406  29.381  26.877  1.00  0.00     0.031 C 
ATOM     57  C   UNL A   1      43.148  31.578  28.974  1.00  0.00     0.029 A 
ATOM     58  C   UNL A   1      44.119  30.721  28.482  1.00  0.00     0.049 A 
ATOM     59  H   UNL A   1      43.955  28.680  27.971  1.00  0.00     0.167 HD
ATOM     60  C   UNL A   1      46.393  30.114  27.695  1.00  0.00     0.074 A 
ATOM     61  C   UNL A   1      47.772  30.429  27.384  1.00  0.00     0.031 C 
ATOM     62  C   UNL A   1      45.499  31.007  28.185  1.00  0.00     0.037 A 
BRANCH  49  63
ATOM     63  C   UNL A   1      39.837  28.701  29.080  1.00  0.00     0.064 A 
ATOM     64  C   UNL A   1      38.864  29.110  28.156  1.00  0.00     0.173 A 
ATOM     65  C   UNL A   1      39.435  28.498  30.409  1.00  0.00     0.173 A 
ATOM     66  F   UNL A   1      39.202  29.334  26.876  1.00  0.00    -0.203 F 
ATOM     67  C   UNL A   1      37.549  29.337  28.550  1.00  0.00     0.198 A 
ATOM     68  C   UNL A   1      38.111  28.696  30.794  1.00  0.00     0.198 A 
ATOM     69  F   UNL A   1      40.323  28.105  31.334  1.00  0.00    -0.203 F 
ATOM     70  F   UNL A   1      36.651  29.777  27.659  1.00  0.00    -0.200 F 
ATOM     71  C   UNL A   1      37.172  29.122  29.867  1.00  0.00     0.200 A 
ATOM     72  F   UNL A   1      37.745  28.478  32.065  1.00  0.00    -0.200 F 
ATOM     73  F   UNL A   1      35.903  29.334  30.245  1.00  0.00    -0.200 F 
ENDBRANCH  49  63
BRANCH  50  74
ATOM     74  C   UNL A   1      49.136  26.679  26.012  1.00  0.00     0.064 A 
ATOM     75  C   UNL A   1      50.105  26.149  26.876  1.00  0.00     0.173 A 
ATOM     76  C   UNL A   1      49.515  26.938  24.688  1.00  0.00     0.173 A 
ATOM     77  F   UNL A   1      49.797  25.903  28.158  1.00  0.00    -0.203 F 
ATOM     78  C   UNL A   1      51.407  25.908  26.439  1.00  0.00     0.198 A 
ATOM     79  C   UNL A   1      50.809  26.673  24.245  1.00  0.00     0.198 A 
ATOM     80  F   UNL A   1      48.624  27.441  23.821  1.00  0.00    -0.203 F 
ATOM     81  F   UNL A   1      52.324  25.444  27.297  1.00  0.00    -0.200 F 
ATOM     82  C   UNL A   1      51.756  26.166  25.122  1.00  0.00     0.200 A 
ATOM     83  F   UNL A   1      51.140  26.910  22.968  1.00  0.00    -0.200 F 
ATOM     84  F   UNL A   1      53.006  25.933  24.701  1.00  0.00    -0.200 F 
ENDBRANCH  50  74
BRANCH  62  85
ATOM     85  C   UNL A   1      45.993  32.395  28.460  1.00  0.00     0.064 A 
ATOM     86  C   UNL A   1      46.565  32.742  29.692  1.00  0.00     0.173 A 
ATOM     87  C   UNL A   1      45.940  33.376  27.457  1.00  0.00     0.173 A 
ATOM     88  F   UNL A   1      46.623  31.843  30.686  1.00  0.00    -0.203 F 
ATOM     89  C   UNL A   1      47.047  34.028  29.918  1.00  0.00     0.198 A 
ATOM     90  C   UNL A   1      46.448  34.651  27.677  1.00  0.00     0.198 A 
ATOM     91  F   UNL A   1      45.408  33.090  26.259  1.00  0.00    -0.203 F 
ATOM     92  F   UNL A   1      47.551  34.351  31.117  1.00  0.00    -0.200 F 
ATOM     93  C   UNL A   1      46.995  34.979  28.909  1.00  0.00     0.200 A 
ATOM     94  F   UNL A   1      46.410  35.565  26.697  1.00  0.00    -0.200 F 
ATOM     95  F   UNL A   1      47.469  36.214  29.126  1.00  0.00    -0.200 F 
ENDBRANCH  62  85
ENDBRANCH  36  37
ENDBRANCH  28  31
ENDBRANCH  26  27
ENDBRANCH  25  26
ENDBRANCH  24  25
ENDBRANCH   1  24
TORSDOF 17
ENDMDL
MODEL 3
REMARK VINA RESULT:     -11.7      0.628      7.175
REMARK SMILES COc1ccccc1/C=C/C(=O)N(CC(=O)NCCCCNC(=O)c1ccc(-c2c3nc(c(-c4c(F)c(F)c(F)c(F)c4F)c4ccc([nH]4)c(-c4c(F)c(F)c(F)c(F)c4F)c4nc(c(-c5c(F)c(F)c(F)c(F)c5F)c5ccc2[nH]5)C=C4)C=C3)cc1)C(C)(C)C
REMARK SMILES IDX 18 1 17 2 15 3 16 4 14 6 13 7 11 8 12 9 10 10 9 11 8 12 3 13
REMARK SMILES IDX 4 14 5 15 7 16 6 17 2 18 1 19 88 20 89 21 90 22 91 23 19 24
REMARK SMILES IDX 20 25 21 26 22 27 23 28 24 30 25 31 26 32 87 33 27 34 86 35
REMARK SMILES IDX 28 36 29 37 30 38 80 39 31 40 85 41 79 42 81 43 32 44 84 45
REMARK SMILES IDX 78 46 77 47 33 49 65 50 45 51 64 52 46 53 49 54 63 55 82 56
REMARK SMILES IDX 47 57 48 58 62 60 83 61 50 62 34 63 35 64 43 65 36 66 37 67
REMARK SMILES IDX 41 68 44 69 38 70 39 71 42 72 40 73 66 74 67 75 75 76 68 77
REMARK SMILES IDX 69 78 73 79 76 80 70 81 71 82 74 83 72 84 51 85 52 86 60 87
REMARK SMILES IDX 53 88 54 89 58 90 61 91 55 92 56 93 59 94 57 95
REMARK H PARENT 17 5 22 29 81 48 49 59
REMARK Flexibility Score: inf
ROOT
ATOM      1  C   UNL A   1      35.745  20.699  24.994  1.00  0.00     0.116 C 
ENDROOT
BRANCH   1   2
ATOM      2  N   UNL A   1      35.278  21.186  26.273  1.00  0.00    -0.355 N 
ATOM      3  C   UNL A   1      34.066  21.684  26.653  1.00  0.00     0.239 C 
ATOM      4  O   UNL A   1      33.852  21.736  27.871  1.00  0.00    -0.273 OA
ATOM      5  H   UNL A   1      35.950  21.154  26.992  1.00  0.00     0.163 HD
BRANCH   3   6
ATOM      6  C   UNL A   1      32.930  22.027  25.667  1.00  0.00     0.220 C 
BRANCH   6   7
ATOM      7  N   UNL A   1      33.140  23.155  24.745  1.00  0.00    -0.325 N 
BRANCH   7   8
ATOM      8  C   UNL A   1      33.981  24.236  25.034  1.00  0.00     0.247 C 
ATOM      9  O   UNL A   1      35.206  24.184  24.906  1.00  0.00    -0.270 OA
BRANCH   8  10
ATOM     10  C   UNL A   1      33.466  25.524  25.610  1.00  0.00     0.072 C 
ATOM     11  C   UNL A   1      33.678  26.772  25.167  1.00  0.00     0.017 C 
BRANCH  11  12
ATOM     12  C   UNL A   1      33.206  28.011  25.799  1.00  0.00     0.017 A 
ATOM     13  C   UNL A   1      32.032  28.625  25.327  1.00  0.00     0.126 A 
ATOM     14  C   UNL A   1      31.645  29.883  25.785  1.00  0.00     0.047 A 
ATOM     15  C   UNL A   1      32.416  30.533  26.746  1.00  0.00     0.004 A 
ATOM     16  C   UNL A   1      33.971  28.672  26.766  1.00  0.00     0.012 A 
ATOM     17  C   UNL A   1      33.574  29.927  27.239  1.00  0.00     0.001 A 
BRANCH  13  18
ATOM     18  O   UNL A   1      31.289  28.051  24.322  1.00  0.00    -0.496 OA
ATOM     19  C   UNL A   1      30.603  29.059  23.577  1.00  0.00     0.278 C 
ENDBRANCH  13  18
ENDBRANCH  11  12
ENDBRANCH   8  10
ENDBRANCH   7   8
BRANCH   7  20
ATOM     20  C   UNL A   1      32.412  23.118  23.408  1.00  0.00     0.035 C 
ATOM     21  C   UNL A   1      32.236  21.679  22.891  1.00  0.00     0.034 C 
ATOM     22  C   UNL A   1      31.023  23.789  23.528  1.00  0.00     0.034 C 
ATOM     23  C   UNL A   1      33.141  23.886  22.270  1.00  0.00     0.034 C 
ENDBRANCH   7  20
ENDBRANCH   6   7
ENDBRANCH   3   6
ENDBRANCH   1   2
BRANCH   1  24
ATOM     24  C   UNL A   1      37.210  20.976  24.695  1.00  0.00     0.023 C 
BRANCH  24  25
ATOM     25  C   UNL A   1      38.154  19.822  24.981  1.00  0.00     0.023 C 
BRANCH  25  26
ATOM     26  C   UNL A   1      39.299  20.175  25.915  1.00  0.00     0.116 C 
BRANCH  26  27
ATOM     27  N   UNL A   1      40.327  19.144  25.966  1.00  0.00    -0.352 N 
ATOM     28  C   UNL A   1      41.689  19.291  26.111  1.00  0.00     0.251 C 
ATOM     29  H   UNL A   1      40.005  18.217  25.888  1.00  0.00     0.163 HD
ATOM     30  O   UNL A   1      42.442  18.343  25.999  1.00  0.00    -0.269 OA
BRANCH  28  31
ATOM     31  C   UNL A   1      42.221  20.643  26.376  1.00  0.00     0.039 A 
ATOM     32  C   UNL A   1      42.573  21.457  25.298  1.00  0.00     0.014 A 
ATOM     33  C   UNL A   1      42.300  21.117  27.687  1.00  0.00     0.014 A 
ATOM     34  C   UNL A   1      42.940  22.782  25.534  1.00  0.00     0.010 A 
ATOM     35  C   UNL A   1      42.578  22.457  27.912  1.00  0.00     0.010 A 
ATOM     36  C   UNL A   1      42.906  23.301  26.839  1.00  0.00    -0.014 A 
BRANCH  36  37
ATOM     37  C   UNL A   1      43.236  24.717  27.123  1.00  0.00     0.031 A 
ATOM     38  C   UNL A   1      44.638  25.206  26.891  1.00  0.00     0.074 A 
ATOM     39  C   UNL A   1      42.312  25.528  27.670  1.00  0.00     0.049 A 
ATOM     40  N   UNL A   1      45.176  26.357  27.200  1.00  0.00    -0.248 NA
ATOM     41  C   UNL A   1      45.570  24.256  26.259  1.00  0.00     0.031 C 
ATOM     42  C   UNL A   1      40.931  25.152  27.985  1.00  0.00     0.029 A 
ATOM     43  N   UNL A   1      42.401  26.836  28.078  1.00  0.00    -0.354 N 
ATOM     44  C   UNL A   1      46.511  26.258  26.828  1.00  0.00     0.074 A 
ATOM     45  C   UNL A   1      46.713  24.920  26.319  1.00  0.00     0.031 C 
ATOM     46  C   UNL A   1      40.300  26.210  28.520  1.00  0.00     0.029 A 
ATOM     47  C   UNL A   1      41.238  27.324  28.621  1.00  0.00     0.049 A 
ATOM     48  H   UNL A   1      43.220  27.374  27.988  1.00  0.00     0.167 HD
ATOM     49  C   UNL A   1      47.473  27.208  26.883  1.00  0.00     0.037 A 
ATOM     50  C   UNL A   1      40.967  28.531  29.152  1.00  0.00     0.037 A 
ATOM     51  C   UNL A   1      47.254  28.550  27.351  1.00  0.00     0.049 A 
ATOM     52  C   UNL A   1      42.051  29.575  29.186  1.00  0.00     0.074 A 
ATOM     53  C   UNL A   1      48.145  29.606  27.391  1.00  0.00     0.029 A 
ATOM     54  N   UNL A   1      46.050  29.019  27.853  1.00  0.00    -0.354 N 
ATOM     55  N   UNL A   1      43.295  29.489  28.781  1.00  0.00    -0.248 NA
ATOM     56  C   UNL A   1      41.692  30.885  29.747  1.00  0.00     0.031 C 
ATOM     57  C   UNL A   1      47.490  30.707  27.951  1.00  0.00     0.029 A 
ATOM     58  C   UNL A   1      46.178  30.350  28.217  1.00  0.00     0.049 A 
ATOM     59  H   UNL A   1      45.226  28.487  27.939  1.00  0.00     0.167 HD
ATOM     60  C   UNL A   1      43.857  30.738  29.006  1.00  0.00     0.074 A 
ATOM     61  C   UNL A   1      42.815  31.568  29.576  1.00  0.00     0.031 C 
ATOM     62  C   UNL A   1      45.122  31.162  28.763  1.00  0.00     0.037 A 
BRANCH  49  63
ATOM     63  C   UNL A   1      48.847  26.827  26.416  1.00  0.00     0.064 A 
ATOM     64  C   UNL A   1      49.792  26.269  27.290  1.00  0.00     0.173 A 
ATOM     65  C   UNL A   1      49.216  27.000  25.074  1.00  0.00     0.173 A 
ATOM     66  F   UNL A   1      49.493  26.098  28.587  1.00  0.00    -0.203 F 
ATOM     67  C   UNL A   1      51.065  25.925  26.846  1.00  0.00     0.198 A 
ATOM     68  C   UNL A   1      50.481  26.627  24.626  1.00  0.00     0.198 A 
ATOM     69  F   UNL A   1      48.351  27.528  24.196  1.00  0.00    -0.203 F 
ATOM     70  F   UNL A   1      51.967  25.442  27.711  1.00  0.00    -0.200 F 
ATOM     71  C   UNL A   1      51.406  26.097  25.513  1.00  0.00     0.200 A 
ATOM     72  F   UNL A   1      50.806  26.783  23.334  1.00  0.00    -0.200 F 
ATOM     73  F   UNL A   1      52.630  25.759  25.084  1.00  0.00    -0.200 F 
ENDBRANCH  49  63
BRANCH  50  74
ATOM     74  C   UNL A   1      39.606  28.829  29.668  1.00  0.00     0.064 A 
ATOM     75  C   UNL A   1      38.636  29.409  28.837  1.00  0.00     0.173 A 
ATOM     76  C   UNL A   1      39.247  28.553  30.994  1.00  0.00     0.173 A 
ATOM     77  F   UNL A   1      38.939  29.712  27.566  1.00  0.00    -0.203 F 
ATOM     78  C   UNL A   1      37.366  29.719  29.319  1.00  0.00     0.198 A 
ATOM     79  C   UNL A   1      37.969  28.839  31.469  1.00  0.00     0.198 A 
ATOM     80  F   UNL A   1      40.136  27.994  31.828  1.00  0.00    -0.203 F 
ATOM     81  F   UNL A   1      36.475  30.314  28.516  1.00  0.00    -0.200 F 
ATOM     82  C   UNL A   1      37.032  29.430  30.633  1.00  0.00     0.200 A 
ATOM     83  F   UNL A   1      37.645  28.546  32.736  1.00  0.00    -0.200 F 
ATOM     84  F   UNL A   1      35.811  29.726  31.097  1.00  0.00    -0.200 F 
ENDBRANCH  50  74
BRANCH  62  85
ATOM     85  C   UNL A   1      45.437  32.596  29.066  1.00  0.00     0.064 A 
ATOM     86  C   UNL A   1      45.244  33.608  28.116  1.00  0.00     0.173 A 
ATOM     87  C   UNL A   1      45.888  32.965  30.343  1.00  0.00     0.173 A 
ATOM     88  F   UNL A   1      44.829  33.302  26.878  1.00  0.00    -0.203 F 
ATOM     89  C   UNL A   1      45.512  34.939  28.426  1.00  0.00     0.198 A 
ATOM     90  C   UNL A   1      46.129  34.299  30.658  1.00  0.00     0.198 A 
ATOM     91  F   UNL A   1      46.081  32.033  31.288  1.00  0.00    -0.203 F 
ATOM     92  F   UNL A   1      45.362  35.886  27.491  1.00  0.00    -0.200 F 
ATOM     93  C   UNL A   1      45.947  35.283  29.699  1.00  0.00     0.200 A 
ATOM     94  F   UNL A   1      46.535  34.632  31.891  1.00  0.00    -0.200 F 
ATOM     95  F   UNL A   1      46.196  36.566  29.998  1.00  0.00    -0.200 F 
ENDBRANCH  62  85
ENDBRANCH  36  37
ENDBRANCH  28  31
ENDBRANCH  26  27
ENDBRANCH  25  26
ENDBRANCH  24  25
ENDBRANCH   1  24
TORSDOF 17
ENDMDL
