MODEL 1
REMARK VINA RESULT:     -13.2      0.000      0.000
REMARK SMILES COc1cc([C@H]2[NH2+]CCC3=c4ccccc4=N[C@H]32)ccc1OCC(=O)NCCCCNC(=O)c1ccc(-c2c3nc(c(-c4c(F)c(F)c(F)c(F)c4F)c4ccc([nH]4)c(-c4c(F)c(F)c(F)c(F)c4F)c4nc(c(-c5c(F)c(F)c(F)c(F)c5F)c5ccc2[nH]5)C=C4)C=C3)cc1
REMARK SMILES IDX 28 1 27 2 26 3 24 4 25 5 23 7 22 8 21 9 3 10 4 11 5 12 20 13
REMARK SMILES IDX 19 14 2 15 1 16 6 17 7 18 18 19 8 20 10 23 17 24 9 25 11 26
REMARK SMILES IDX 16 27 12 28 15 29 13 30 14 31 29 32 30 33 31 34 32 35 33 37
REMARK SMILES IDX 34 38 35 39 96 40 36 41 95 42 37 43 38 44 39 45 89 46 40 47
REMARK SMILES IDX 94 48 88 49 90 50 41 51 93 52 87 53 86 54 42 56 74 57 54 58
REMARK SMILES IDX 73 59 55 60 58 61 72 62 91 63 56 64 57 65 71 67 92 68 59 69
REMARK SMILES IDX 43 70 44 71 52 72 45 73 46 74 50 75 53 76 47 77 48 78 51 79
REMARK SMILES IDX 49 80 75 81 76 82 84 83 77 84 78 85 82 86 85 87 79 88 80 89
REMARK SMILES IDX 83 90 81 91 60 92 61 93 69 94 62 95 63 96 67 97 70 98 64 99
REMARK SMILES IDX 65 100 68 101 66 102
REMARK H PARENT 26 6 7 21 7 22 31 36 90 55 58 66
REMARK Flexibility Score: inf
ROOT
ATOM      1  C   UNL A   1      31.593  30.880  25.849  1.00  0.00     0.023 C 
ENDROOT
BRANCH   1   2
ATOM      2  C   UNL A   1      32.580  29.778  26.235  1.00  0.00     0.116 C 
BRANCH   2   3
ATOM      3  N   UNL A   1      33.412  29.355  25.129  1.00  0.00    -0.353 N 
ATOM      4  C   UNL A   1      33.059  28.958  23.877  1.00  0.00     0.257 C 
ATOM      5  O   UNL A   1      33.959  28.911  23.032  1.00  0.00    -0.271 OA
ATOM      6  H   UNL A   1      34.380  29.356  25.309  1.00  0.00     0.163 HD
BRANCH   4   7
ATOM      7  C   UNL A   1      31.600  28.667  23.503  1.00  0.00     0.329 C 
BRANCH   7   8
ATOM      8  O   UNL A   1      30.858  27.642  24.105  1.00  0.00    -0.480 OA
BRANCH   8   9
ATOM      9  C   UNL A   1      31.378  26.440  24.462  1.00  0.00     0.161 A 
ATOM     10  C   UNL A   1      31.878  25.372  23.718  1.00  0.00     0.161 A 
ATOM     11  C   UNL A   1      32.224  24.136  24.361  1.00  0.00     0.060 A 
ATOM     12  C   UNL A   1      32.020  23.912  25.747  1.00  0.00     0.016 A 
ATOM     13  C   UNL A   1      31.162  26.222  25.814  1.00  0.00     0.051 A 
ATOM     14  C   UNL A   1      31.417  24.988  26.407  1.00  0.00     0.014 A 
BRANCH  10  15
ATOM     15  O   UNL A   1      31.718  25.312  22.354  1.00  0.00    -0.493 OA
ATOM     16  C   UNL A   1      32.899  25.572  21.605  1.00  0.00     0.278 C 
ENDBRANCH  10  15
BRANCH  12  17
ATOM     17  C   UNL A   1      32.113  22.513  26.446  1.00  0.00     0.243 C 
ATOM     18  N   UNL A   1      31.369  21.410  25.751  1.00  0.00    -0.338 N 
ATOM     19  C   UNL A   1      33.516  21.953  27.012  1.00  0.00     0.196 C 
ATOM     20  C   UNL A   1      32.152  20.553  24.846  1.00  0.00     0.265 C 
ATOM     21  H   UNL A   1      30.623  21.838  25.203  1.00  0.00     0.346 HD
ATOM     22  H   UNL A   1      31.051  20.792  26.497  1.00  0.00     0.346 HD
ATOM     23  C   UNL A   1      34.208  21.130  25.966  1.00  0.00    -0.025 C 
ATOM     24  N   UNL A   1      34.523  22.984  27.373  1.00  0.00    -0.270 NA
ATOM     25  C   UNL A   1      33.435  19.979  25.456  1.00  0.00     0.095 C 
ATOM     26  C   UNL A   1      35.333  21.696  25.554  1.00  0.00     0.001 A 
ATOM     27  C   UNL A   1      35.413  22.869  26.433  1.00  0.00     0.066 A 
ATOM     28  C   UNL A   1      36.270  21.469  24.506  1.00  0.00     0.010 A 
ATOM     29  C   UNL A   1      36.463  23.862  26.111  1.00  0.00     0.028 A 
ATOM     30  C   UNL A   1      37.184  22.422  24.253  1.00  0.00     0.001 A 
ATOM     31  C   UNL A   1      37.246  23.645  25.040  1.00  0.00     0.002 A 
ENDBRANCH  12  17
ENDBRANCH   8   9
ENDBRANCH   7   8
ENDBRANCH   4   7
ENDBRANCH   2   3
ENDBRANCH   1   2
BRANCH   1  32
ATOM     32  C   UNL A   1      31.405  32.002  26.875  1.00  0.00     0.023 C 
BRANCH  32  33
ATOM     33  C   UNL A   1      32.655  32.789  27.252  1.00  0.00     0.116 C 
BRANCH  33  34
ATOM     34  N   UNL A   1      32.379  34.164  27.630  1.00  0.00    -0.352 N 
ATOM     35  C   UNL A   1      32.977  34.941  28.590  1.00  0.00     0.251 C 
ATOM     36  H   UNL A   1      31.657  34.602  27.124  1.00  0.00     0.163 HD
ATOM     37  O   UNL A   1      32.528  36.057  28.846  1.00  0.00    -0.269 OA
BRANCH  35  38
ATOM     38  C   UNL A   1      34.138  34.427  29.350  1.00  0.00     0.039 A 
ATOM     39  C   UNL A   1      33.908  33.768  30.561  1.00  0.00     0.014 A 
ATOM     40  C   UNL A   1      35.444  34.583  28.877  1.00  0.00     0.014 A 
ATOM     41  C   UNL A   1      34.978  33.203  31.258  1.00  0.00     0.010 A 
ATOM     42  C   UNL A   1      36.499  33.950  29.531  1.00  0.00     0.010 A 
ATOM     43  C   UNL A   1      36.278  33.253  30.729  1.00  0.00    -0.014 A 
BRANCH  43  44
ATOM     44  C   UNL A   1      37.413  32.581  31.415  1.00  0.00     0.031 A 
ATOM     45  C   UNL A   1      38.114  31.420  30.766  1.00  0.00     0.074 A 
ATOM     46  C   UNL A   1      37.778  32.982  32.650  1.00  0.00     0.049 A 
ATOM     47  N   UNL A   1      39.089  30.677  31.225  1.00  0.00    -0.248 NA
ATOM     48  C   UNL A   1      37.638  31.026  29.432  1.00  0.00     0.031 C 
ATOM     49  C   UNL A   1      37.152  34.068  33.405  1.00  0.00     0.029 A 
ATOM     50  N   UNL A   1      38.762  32.519  33.488  1.00  0.00    -0.354 N 
ATOM     51  C   UNL A   1      39.336  29.727  30.243  1.00  0.00     0.074 A 
ATOM     52  C   UNL A   1      38.366  29.946  29.192  1.00  0.00     0.031 C 
ATOM     53  C   UNL A   1      37.786  34.209  34.580  1.00  0.00     0.029 A 
ATOM     54  C   UNL A   1      38.833  33.197  34.681  1.00  0.00     0.049 A 
ATOM     55  H   UNL A   1      39.360  31.772  33.256  1.00  0.00     0.167 HD
ATOM     56  C   UNL A   1      40.302  28.777  30.206  1.00  0.00     0.037 A 
ATOM     57  C   UNL A   1      39.648  33.018  35.739  1.00  0.00     0.037 A 
ATOM     58  C   UNL A   1      41.270  28.567  31.250  1.00  0.00     0.049 A 
ATOM     59  C   UNL A   1      40.688  31.930  35.689  1.00  0.00     0.074 A 
ATOM     60  C   UNL A   1      42.315  27.660  31.290  1.00  0.00     0.029 A 
ATOM     61  N   UNL A   1      41.307  29.271  32.446  1.00  0.00    -0.354 N 
ATOM     62  N   UNL A   1      40.958  31.084  34.724  1.00  0.00    -0.248 NA
ATOM     63  C   UNL A   1      41.540  31.777  36.876  1.00  0.00     0.031 C 
ATOM     64  C   UNL A   1      42.948  27.775  32.533  1.00  0.00     0.029 A 
ATOM     65  C   UNL A   1      42.341  28.799  33.242  1.00  0.00     0.049 A 
ATOM     66  H   UNL A   1      40.691  29.998  32.694  1.00  0.00     0.167 HD
ATOM     67  C   UNL A   1      42.030  30.325  35.172  1.00  0.00     0.074 A 
ATOM     68  C   UNL A   1      42.372  30.821  36.489  1.00  0.00     0.031 C 
ATOM     69  C   UNL A   1      42.676  29.309  34.548  1.00  0.00     0.037 A 
BRANCH  56  70
ATOM     70  C   UNL A   1      40.353  27.889  28.994  1.00  0.00     0.064 A 
ATOM     71  C   UNL A   1      41.120  28.224  27.866  1.00  0.00     0.173 A 
ATOM     72  C   UNL A   1      39.646  26.678  28.964  1.00  0.00     0.173 A 
ATOM     73  F   UNL A   1      41.809  29.375  27.836  1.00  0.00    -0.203 F 
ATOM     74  C   UNL A   1      41.144  27.402  26.742  1.00  0.00     0.198 A 
ATOM     75  C   UNL A   1      39.700  25.840  27.853  1.00  0.00     0.198 A 
ATOM     76  F   UNL A   1      38.902  26.302  30.017  1.00  0.00    -0.203 F 
ATOM     77  F   UNL A   1      41.833  27.776  25.656  1.00  0.00    -0.200 F 
ATOM     78  C   UNL A   1      40.440  26.208  26.740  1.00  0.00     0.200 A 
ATOM     79  F   UNL A   1      39.034  24.678  27.859  1.00  0.00    -0.200 F 
ATOM     80  F   UNL A   1      40.467  25.415  25.659  1.00  0.00    -0.200 F 
ENDBRANCH  56  70
BRANCH  57  81
ATOM     81  C   UNL A   1      39.536  33.909  36.925  1.00  0.00     0.064 A 
ATOM     82  C   UNL A   1      38.775  33.527  38.040  1.00  0.00     0.173 A 
ATOM     83  C   UNL A   1      40.169  35.159  36.966  1.00  0.00     0.173 A 
ATOM     84  F   UNL A   1      38.133  32.350  38.041  1.00  0.00    -0.203 F 
ATOM     85  C   UNL A   1      38.632  34.372  39.139  1.00  0.00     0.198 A 
ATOM     86  C   UNL A   1      40.053  35.990  38.080  1.00  0.00     0.198 A 
ATOM     87  F   UNL A   1      40.913  35.571  35.929  1.00  0.00    -0.203 F 
ATOM     88  F   UNL A   1      37.858  34.003  40.168  1.00  0.00    -0.200 F 
ATOM     89  C   UNL A   1      39.276  35.600  39.160  1.00  0.00     0.200 A 
ATOM     90  F   UNL A   1      40.691  37.167  38.104  1.00  0.00    -0.200 F 
ATOM     91  F   UNL A   1      39.143  36.410  40.219  1.00  0.00    -0.200 F 
ENDBRANCH  57  81
BRANCH  69  92
ATOM     92  C   UNL A   1      43.849  28.695  35.260  1.00  0.00     0.064 A 
ATOM     93  C   UNL A   1      43.702  27.598  36.122  1.00  0.00     0.173 A 
ATOM     94  C   UNL A   1      45.144  29.194  35.049  1.00  0.00     0.173 A 
ATOM     95  F   UNL A   1      42.485  27.092  36.370  1.00  0.00    -0.203 F 
ATOM     96  C   UNL A   1      44.804  27.044  36.770  1.00  0.00     0.198 A 
ATOM     97  C   UNL A   1      46.247  28.614  35.671  1.00  0.00     0.198 A 
ATOM     98  F   UNL A   1      45.343  30.237  34.229  1.00  0.00    -0.203 F 
ATOM     99  F   UNL A   1      44.631  26.033  37.634  1.00  0.00    -0.200 F 
ATOM    100  C   UNL A   1      46.075  27.547  36.539  1.00  0.00     0.200 A 
ATOM    101  F   UNL A   1      47.476  29.092  35.432  1.00  0.00    -0.200 F 
ATOM    102  F   UNL A   1      47.134  27.007  37.157  1.00  0.00    -0.200 F 
ENDBRANCH  69  92
ENDBRANCH  43  44
ENDBRANCH  35  38
ENDBRANCH  33  34
ENDBRANCH  32  33
ENDBRANCH   1  32
TORSDOF 15
ENDMDL
MODEL 2
REMARK VINA RESULT:     -13.2      5.402     11.112
REMARK SMILES COc1cc([C@H]2[NH2+]CCC3=c4ccccc4=N[C@H]32)ccc1OCC(=O)NCCCCNC(=O)c1ccc(-c2c3nc(c(-c4c(F)c(F)c(F)c(F)c4F)c4ccc([nH]4)c(-c4c(F)c(F)c(F)c(F)c4F)c4nc(c(-c5c(F)c(F)c(F)c(F)c5F)c5ccc2[nH]5)C=C4)C=C3)cc1
REMARK SMILES IDX 28 1 27 2 26 3 24 4 25 5 23 7 22 8 21 9 3 10 4 11 5 12 20 13
REMARK SMILES IDX 19 14 2 15 1 16 6 17 7 18 18 19 8 20 10 23 17 24 9 25 11 26
REMARK SMILES IDX 16 27 12 28 15 29 13 30 14 31 29 32 30 33 31 34 32 35 33 37
REMARK SMILES IDX 34 38 35 39 96 40 36 41 95 42 37 43 38 44 39 45 89 46 40 47
REMARK SMILES IDX 94 48 88 49 90 50 41 51 93 52 87 53 86 54 42 56 74 57 54 58
REMARK SMILES IDX 73 59 55 60 58 61 72 62 91 63 56 64 57 65 71 67 92 68 59 69
REMARK SMILES IDX 43 70 44 71 52 72 45 73 46 74 50 75 53 76 47 77 48 78 51 79
REMARK SMILES IDX 49 80 75 81 76 82 84 83 77 84 78 85 82 86 85 87 79 88 80 89
REMARK SMILES IDX 83 90 81 91 60 92 61 93 69 94 62 95 63 96 67 97 70 98 64 99
REMARK SMILES IDX 65 100 68 101 66 102
REMARK H PARENT 26 6 7 21 7 22 31 36 90 55 58 66
REMARK Flexibility Score: inf
ROOT
ATOM      1  C   UNL A   1      37.178  21.095  24.621  1.00  0.00     0.023 C 
ENDROOT
BRANCH   1   2
ATOM      2  C   UNL A   1      35.826  21.145  25.335  1.00  0.00     0.116 C 
BRANCH   2   3
ATOM      3  N   UNL A   1      35.115  19.886  25.283  1.00  0.00    -0.353 N 
ATOM      4  C   UNL A   1      33.920  19.584  24.709  1.00  0.00     0.257 C 
ATOM      5  O   UNL A   1      33.658  18.387  24.562  1.00  0.00    -0.271 OA
ATOM      6  H   UNL A   1      35.565  19.133  25.731  1.00  0.00     0.163 HD
BRANCH   4   7
ATOM      7  C   UNL A   1      32.979  20.675  24.183  1.00  0.00     0.329 C 
BRANCH   7   8
ATOM      8  O   UNL A   1      32.493  21.707  24.997  1.00  0.00    -0.480 OA
BRANCH   8   9
ATOM      9  C   UNL A   1      32.522  23.020  24.655  1.00  0.00     0.161 A 
ATOM     10  C   UNL A   1      31.877  24.143  25.174  1.00  0.00     0.161 A 
ATOM     11  C   UNL A   1      31.971  25.409  24.504  1.00  0.00     0.060 A 
ATOM     12  C   UNL A   1      32.651  25.573  23.270  1.00  0.00     0.016 A 
ATOM     13  C   UNL A   1      33.175  23.170  23.442  1.00  0.00     0.051 A 
ATOM     14  C   UNL A   1      33.180  24.384  22.758  1.00  0.00     0.014 A 
BRANCH  10  15
ATOM     15  O   UNL A   1      30.861  24.025  26.093  1.00  0.00    -0.493 OA
ATOM     16  C   UNL A   1      29.960  25.125  26.126  1.00  0.00     0.278 C 
ENDBRANCH  10  15
BRANCH  12  17
ATOM     17  C   UNL A   1      32.553  26.846  22.362  1.00  0.00     0.243 C 
ATOM     18  N   UNL A   1      31.221  27.049  21.702  1.00  0.00    -0.338 N 
ATOM     19  C   UNL A   1      33.143  28.267  22.847  1.00  0.00     0.196 C 
ATOM     20  C   UNL A   1      30.281  27.959  22.375  1.00  0.00     0.265 C 
ATOM     21  H   UNL A   1      30.770  26.137  21.630  1.00  0.00     0.346 HD
ATOM     22  H   UNL A   1      31.430  27.493  20.809  1.00  0.00     0.346 HD
ATOM     23  C   UNL A   1      32.079  29.063  23.543  1.00  0.00    -0.025 C 
ATOM     24  N   UNL A   1      34.244  28.201  23.844  1.00  0.00    -0.270 NA
ATOM     25  C   UNL A   1      30.865  29.327  22.744  1.00  0.00     0.095 C 
ATOM     26  C   UNL A   1      32.350  29.235  24.829  1.00  0.00     0.001 A 
ATOM     27  C   UNL A   1      33.676  28.615  24.937  1.00  0.00     0.066 A 
ATOM     28  C   UNL A   1      31.651  29.734  25.964  1.00  0.00     0.010 A 
ATOM     29  C   UNL A   1      34.210  28.441  26.307  1.00  0.00     0.028 A 
ATOM     30  C   UNL A   1      32.183  29.524  27.181  1.00  0.00     0.001 A 
ATOM     31  C   UNL A   1      33.453  28.832  27.347  1.00  0.00     0.002 A 
ENDBRANCH  12  17
ENDBRANCH   8   9
ENDBRANCH   7   8
ENDBRANCH   4   7
ENDBRANCH   2   3
ENDBRANCH   1   2
BRANCH   1  32
ATOM     32  C   UNL A   1      38.077  19.906  24.969  1.00  0.00     0.023 C 
BRANCH  32  33
ATOM     33  C   UNL A   1      39.198  20.177  25.967  1.00  0.00     0.116 C 
BRANCH  33  34
ATOM     34  N   UNL A   1      40.223  19.147  25.978  1.00  0.00    -0.352 N 
ATOM     35  C   UNL A   1      41.581  19.271  26.126  1.00  0.00     0.251 C 
ATOM     36  H   UNL A   1      39.894  18.226  25.862  1.00  0.00     0.163 HD
ATOM     37  O   UNL A   1      42.306  18.286  25.994  1.00  0.00    -0.269 OA
BRANCH  35  38
ATOM     38  C   UNL A   1      42.185  20.593  26.404  1.00  0.00     0.039 A 
ATOM     39  C   UNL A   1      42.579  21.390  25.326  1.00  0.00     0.014 A 
ATOM     40  C   UNL A   1      42.357  21.053  27.712  1.00  0.00     0.014 A 
ATOM     41  C   UNL A   1      43.077  22.674  25.557  1.00  0.00     0.010 A 
ATOM     42  C   UNL A   1      42.777  22.362  27.938  1.00  0.00     0.010 A 
ATOM     43  C   UNL A   1      43.143  23.187  26.863  1.00  0.00    -0.014 A 
BRANCH  43  44
ATOM     44  C   UNL A   1      43.588  24.583  27.118  1.00  0.00     0.031 A 
ATOM     45  C   UNL A   1      42.614  25.609  27.629  1.00  0.00     0.074 A 
ATOM     46  C   UNL A   1      44.857  24.941  26.838  1.00  0.00     0.049 A 
ATOM     47  N   UNL A   1      42.800  26.884  27.866  1.00  0.00    -0.248 NA
ATOM     48  C   UNL A   1      41.242  25.147  27.883  1.00  0.00     0.031 C 
ATOM     49  C   UNL A   1      45.886  24.050  26.301  1.00  0.00     0.029 A 
ATOM     50  N   UNL A   1      45.496  26.149  26.963  1.00  0.00    -0.354 N 
ATOM     51  C   UNL A   1      41.571  27.374  28.288  1.00  0.00     0.074 A 
ATOM     52  C   UNL A   1      40.632  26.276  28.212  1.00  0.00     0.031 C 
ATOM     53  C   UNL A   1      47.035  24.733  26.172  1.00  0.00     0.029 A 
ATOM     54  C   UNL A   1      46.813  26.118  26.575  1.00  0.00     0.049 A 
ATOM     55  H   UNL A   1      45.053  26.961  27.299  1.00  0.00     0.167 HD
ATOM     56  C   UNL A   1      41.261  28.617  28.728  1.00  0.00     0.037 A 
ATOM     57  C   UNL A   1      47.737  27.099  26.543  1.00  0.00     0.037 A 
ATOM     58  C   UNL A   1      42.200  29.705  28.810  1.00  0.00     0.049 A 
ATOM     59  C   UNL A   1      47.355  28.482  26.999  1.00  0.00     0.074 A 
ATOM     60  C   UNL A   1      41.995  30.990  29.280  1.00  0.00     0.029 A 
ATOM     61  N   UNL A   1      43.525  29.636  28.402  1.00  0.00    -0.354 N 
ATOM     62  N   UNL A   1      46.208  28.915  27.463  1.00  0.00    -0.248 NA
ATOM     63  C   UNL A   1      48.402  29.511  26.932  1.00  0.00     0.031 C 
ATOM     64  C   UNL A   1      43.178  31.716  29.104  1.00  0.00     0.029 A 
ATOM     65  C   UNL A   1      44.142  30.865  28.585  1.00  0.00     0.049 A 
ATOM     66  H   UNL A   1      43.963  28.834  28.037  1.00  0.00     0.167 HD
ATOM     67  C   UNL A   1      46.404  30.254  27.776  1.00  0.00     0.074 A 
ATOM     68  C   UNL A   1      47.785  30.556  27.463  1.00  0.00     0.031 C 
ATOM     69  C   UNL A   1      45.521  31.151  28.278  1.00  0.00     0.037 A 
BRANCH  56  70
ATOM     70  C   UNL A   1      39.839  28.866  29.150  1.00  0.00     0.064 A 
ATOM     71  C   UNL A   1      39.414  28.653  30.471  1.00  0.00     0.173 A 
ATOM     72  C   UNL A   1      38.894  29.344  28.231  1.00  0.00     0.173 A 
ATOM     73  F   UNL A   1      40.274  28.187  31.390  1.00  0.00    -0.203 F 
ATOM     74  C   UNL A   1      38.090  28.870  30.845  1.00  0.00     0.198 A 
ATOM     75  C   UNL A   1      37.579  29.595  28.616  1.00  0.00     0.198 A 
ATOM     76  F   UNL A   1      39.244  29.574  26.955  1.00  0.00    -0.203 F 
ATOM     77  F   UNL A   1      37.697  28.598  32.097  1.00  0.00    -0.200 F 
ATOM     78  C   UNL A   1      37.176  29.347  29.919  1.00  0.00     0.200 A 
ATOM     79  F   UNL A   1      36.700  30.073  27.724  1.00  0.00    -0.200 F 
ATOM     80  F   UNL A   1      35.903  29.559  30.281  1.00  0.00    -0.200 F 
ENDBRANCH  56  70
BRANCH  57  81
ATOM     81  C   UNL A   1      49.123  26.803  26.089  1.00  0.00     0.064 A 
ATOM     82  C   UNL A   1      49.499  27.000  24.753  1.00  0.00     0.173 A 
ATOM     83  C   UNL A   1      50.093  26.306  26.972  1.00  0.00     0.173 A 
ATOM     84  F   UNL A   1      48.601  27.454  23.866  1.00  0.00    -0.203 F 
ATOM     85  C   UNL A   1      50.783  26.689  24.310  1.00  0.00     0.198 A 
ATOM     86  C   UNL A   1      51.387  26.026  26.536  1.00  0.00     0.198 A 
ATOM     87  F   UNL A   1      49.789  26.104  28.262  1.00  0.00    -0.203 F 
ATOM     88  F   UNL A   1      51.098  26.838  23.017  1.00  0.00    -0.200 F 
ATOM     89  C   UNL A   1      51.727  26.207  25.204  1.00  0.00     0.200 A 
ATOM     90  F   UNL A   1      52.302  25.578  27.406  1.00  0.00    -0.200 F 
ATOM     91  F   UNL A   1      52.964  25.912  24.780  1.00  0.00    -0.200 F 
ENDBRANCH  57  81
BRANCH  69  92
ATOM     92  C   UNL A   1      46.030  32.535  28.567  1.00  0.00     0.064 A 
ATOM     93  C   UNL A   1      45.953  33.567  27.620  1.00  0.00     0.173 A 
ATOM     94  C   UNL A   1      46.576  32.840  29.825  1.00  0.00     0.173 A 
ATOM     95  F   UNL A   1      45.455  33.326  26.398  1.00  0.00    -0.203 F 
ATOM     96  C   UNL A   1      46.430  34.843  27.910  1.00  0.00     0.198 A 
ATOM     97  C   UNL A   1      47.019  34.126  30.123  1.00  0.00     0.198 A 
ATOM     98  F   UNL A   1      46.668  31.893  30.770  1.00  0.00    -0.203 F 
ATOM     99  F   UNL A   1      46.398  35.797  26.970  1.00  0.00    -0.200 F 
ATOM    100  C   UNL A   1      46.956  35.123  29.163  1.00  0.00     0.200 A 
ATOM    101  F   UNL A   1      47.510  34.397  31.340  1.00  0.00    -0.200 F 
ATOM    102  F   UNL A   1      47.407  36.353  29.442  1.00  0.00    -0.200 F 
ENDBRANCH  69  92
ENDBRANCH  43  44
ENDBRANCH  35  38
ENDBRANCH  33  34
ENDBRANCH  32  33
ENDBRANCH   1  32
TORSDOF 15
ENDMDL
MODEL 3
REMARK VINA RESULT:     -13.1      6.330     10.986
REMARK SMILES COc1cc([C@H]2[NH2+]CCC3=c4ccccc4=N[C@H]32)ccc1OCC(=O)NCCCCNC(=O)c1ccc(-c2c3nc(c(-c4c(F)c(F)c(F)c(F)c4F)c4ccc([nH]4)c(-c4c(F)c(F)c(F)c(F)c4F)c4nc(c(-c5c(F)c(F)c(F)c(F)c5F)c5ccc2[nH]5)C=C4)C=C3)cc1
REMARK SMILES IDX 28 1 27 2 26 3 24 4 25 5 23 7 22 8 21 9 3 10 4 11 5 12 20 13
REMARK SMILES IDX 19 14 2 15 1 16 6 17 7 18 18 19 8 20 10 23 17 24 9 25 11 26
REMARK SMILES IDX 16 27 12 28 15 29 13 30 14 31 29 32 30 33 31 34 32 35 33 37
REMARK SMILES IDX 34 38 35 39 96 40 36 41 95 42 37 43 38 44 39 45 89 46 40 47
REMARK SMILES IDX 94 48 88 49 90 50 41 51 93 52 87 53 86 54 42 56 74 57 54 58
REMARK SMILES IDX 73 59 55 60 58 61 72 62 91 63 56 64 57 65 71 67 92 68 59 69
REMARK SMILES IDX 43 70 44 71 52 72 45 73 46 74 50 75 53 76 47 77 48 78 51 79
REMARK SMILES IDX 49 80 75 81 76 82 84 83 77 84 78 85 82 86 85 87 79 88 80 89
REMARK SMILES IDX 83 90 81 91 60 92 61 93 69 94 62 95 63 96 67 97 70 98 64 99
REMARK SMILES IDX 65 100 68 101 66 102
REMARK H PARENT 26 6 7 21 7 22 31 36 90 55 58 66
REMARK Flexibility Score: inf
ROOT
ATOM      1  C   UNL A   1      41.916  21.205  26.618  1.00  0.00     0.023 C 
ENDROOT
BRANCH   1   2
ATOM      2  C   UNL A   1      40.822  21.549  27.630  1.00  0.00     0.116 C 
BRANCH   2   3
ATOM      3  N   UNL A   1      40.202  22.831  27.373  1.00  0.00    -0.353 N 
ATOM      4  C   UNL A   1      39.087  23.130  26.653  1.00  0.00     0.257 C 
ATOM      5  O   UNL A   1      38.609  24.258  26.808  1.00  0.00    -0.271 OA
ATOM      6  H   UNL A   1      40.655  23.605  27.780  1.00  0.00     0.163 HD
BRANCH   4   7
ATOM      7  C   UNL A   1      38.400  22.090  25.759  1.00  0.00     0.329 C 
BRANCH   7   8
ATOM      8  O   UNL A   1      37.021  21.848  25.808  1.00  0.00    -0.480 OA
BRANCH   8   9
ATOM      9  C   UNL A   1      36.082  22.725  25.371  1.00  0.00     0.161 A 
ATOM     10  C   UNL A   1      35.007  23.348  26.006  1.00  0.00     0.161 A 
ATOM     11  C   UNL A   1      34.064  24.121  25.248  1.00  0.00     0.060 A 
ATOM     12  C   UNL A   1      34.131  24.239  23.836  1.00  0.00     0.016 A 
ATOM     13  C   UNL A   1      36.144  22.823  23.990  1.00  0.00     0.051 A 
ATOM     14  C   UNL A   1      35.171  23.501  23.259  1.00  0.00     0.014 A 
BRANCH  10  15
ATOM     15  O   UNL A   1      34.596  22.964  27.260  1.00  0.00    -0.493 OA
ATOM     16  C   UNL A   1      33.874  21.740  27.300  1.00  0.00     0.278 C 
ENDBRANCH  10  15
BRANCH  12  17
ATOM     17  C   UNL A   1      32.990  24.826  22.937  1.00  0.00     0.243 C 
ATOM     18  N   UNL A   1      31.793  23.936  22.776  1.00  0.00    -0.338 N 
ATOM     19  C   UNL A   1      32.514  26.360  23.086  1.00  0.00     0.196 C 
ATOM     20  C   UNL A   1      30.654  24.191  23.674  1.00  0.00     0.265 C 
ATOM     21  H   UNL A   1      32.099  22.976  22.929  1.00  0.00     0.346 HD
ATOM     22  H   UNL A   1      31.442  24.128  21.838  1.00  0.00     0.346 HD
ATOM     23  C   UNL A   1      31.375  26.460  24.056  1.00  0.00    -0.025 C 
ATOM     24  N   UNL A   1      33.528  27.299  23.633  1.00  0.00    -0.270 NA
ATOM     25  C   UNL A   1      30.187  25.649  23.720  1.00  0.00     0.095 C 
ATOM     26  C   UNL A   1      31.712  27.128  25.150  1.00  0.00     0.001 A 
ATOM     27  C   UNL A   1      33.079  27.554  24.827  1.00  0.00     0.066 A 
ATOM     28  C   UNL A   1      31.123  27.374  26.422  1.00  0.00     0.010 A 
ATOM     29  C   UNL A   1      33.856  28.165  25.929  1.00  0.00     0.028 A 
ATOM     30  C   UNL A   1      31.891  27.913  27.385  1.00  0.00     0.001 A 
ATOM     31  C   UNL A   1      33.281  28.269  27.140  1.00  0.00     0.002 A 
ENDBRANCH  12  17
ENDBRANCH   8   9
ENDBRANCH   7   8
ENDBRANCH   4   7
ENDBRANCH   2   3
ENDBRANCH   1   2
BRANCH   1  32
ATOM     32  C   UNL A   1      41.901  19.773  26.074  1.00  0.00     0.023 C 
BRANCH  32  33
ATOM     33  C   UNL A   1      43.190  18.976  26.236  1.00  0.00     0.116 C 
BRANCH  33  34
ATOM     34  N   UNL A   1      43.842  18.669  24.974  1.00  0.00    -0.352 N 
ATOM     35  C   UNL A   1      44.587  19.483  24.158  1.00  0.00     0.251 C 
ATOM     36  H   UNL A   1      43.732  17.743  24.659  1.00  0.00     0.163 HD
ATOM     37  O   UNL A   1      44.966  19.072  23.063  1.00  0.00    -0.269 OA
BRANCH  35  38
ATOM     38  C   UNL A   1      44.904  20.868  24.571  1.00  0.00     0.039 A 
ATOM     39  C   UNL A   1      44.430  21.925  23.789  1.00  0.00     0.014 A 
ATOM     40  C   UNL A   1      45.652  21.130  25.721  1.00  0.00     0.014 A 
ATOM     41  C   UNL A   1      44.646  23.242  24.198  1.00  0.00     0.010 A 
ATOM     42  C   UNL A   1      45.796  22.442  26.171  1.00  0.00     0.010 A 
ATOM     43  C   UNL A   1      45.295  23.512  25.414  1.00  0.00    -0.014 A 
BRANCH  43  44
ATOM     44  C   UNL A   1      45.455  24.906  25.907  1.00  0.00     0.031 A 
ATOM     45  C   UNL A   1      46.802  25.574  25.874  1.00  0.00     0.074 A 
ATOM     46  C   UNL A   1      44.396  25.553  26.434  1.00  0.00     0.049 A 
ATOM     47  N   UNL A   1      47.150  26.762  26.301  1.00  0.00    -0.248 NA
ATOM     48  C   UNL A   1      47.912  24.792  25.310  1.00  0.00     0.031 C 
ATOM     49  C   UNL A   1      43.047  25.001  26.561  1.00  0.00     0.029 A 
ATOM     50  N   UNL A   1      44.290  26.814  26.967  1.00  0.00    -0.354 N 
ATOM     51  C   UNL A   1      48.514  26.865  26.063  1.00  0.00     0.074 A 
ATOM     52  C   UNL A   1      48.943  25.596  25.516  1.00  0.00     0.031 C 
ATOM     53  C   UNL A   1      42.242  25.928  27.104  1.00  0.00     0.029 A 
ATOM     54  C   UNL A   1      43.025  27.122  27.404  1.00  0.00     0.049 A 
ATOM     55  H   UNL A   1      45.049  27.437  27.029  1.00  0.00     0.167 HD
ATOM     56  C   UNL A   1      49.329  27.931  26.256  1.00  0.00     0.037 A 
ATOM     57  C   UNL A   1      42.552  28.241  27.988  1.00  0.00     0.037 A 
ATOM     58  C   UNL A   1      48.897  29.194  26.793  1.00  0.00     0.049 A 
ATOM     59  C   UNL A   1      43.488  29.396  28.227  1.00  0.00     0.074 A 
ATOM     60  C   UNL A   1      49.635  30.348  26.988  1.00  0.00     0.029 A 
ATOM     61  N   UNL A   1      47.608  29.466  27.230  1.00  0.00    -0.354 N 
ATOM     62  N   UNL A   1      44.761  29.507  27.932  1.00  0.00    -0.248 NA
ATOM     63  C   UNL A   1      42.917  30.585  28.875  1.00  0.00     0.031 C 
ATOM     64  C   UNL A   1      48.809  31.300  27.596  1.00  0.00     0.029 A 
ATOM     65  C   UNL A   1      47.537  30.763  27.720  1.00  0.00     0.049 A 
ATOM     66  H   UNL A   1      46.855  28.834  27.198  1.00  0.00     0.167 HD
ATOM     67  C   UNL A   1      45.133  30.786  28.326  1.00  0.00     0.074 A 
ATOM     68  C   UNL A   1      43.947  31.417  28.865  1.00  0.00     0.031 C 
ATOM     69  C   UNL A   1      46.347  31.383  28.245  1.00  0.00     0.037 A 
BRANCH  56  70
ATOM     70  C   UNL A   1      50.777  27.768  25.885  1.00  0.00     0.064 A 
ATOM     71  C   UNL A   1      51.226  27.956  24.568  1.00  0.00     0.173 A 
ATOM     72  C   UNL A   1      51.733  27.444  26.859  1.00  0.00     0.173 A 
ATOM     73  F   UNL A   1      50.354  28.258  23.594  1.00  0.00    -0.203 F 
ATOM     74  C   UNL A   1      52.567  27.785  24.233  1.00  0.00     0.198 A 
ATOM     75  C   UNL A   1      53.080  27.310  26.529  1.00  0.00     0.198 A 
ATOM     76  F   UNL A   1      51.363  27.262  28.136  1.00  0.00    -0.203 F 
ATOM     77  F   UNL A   1      52.958  27.907  22.958  1.00  0.00    -0.200 F 
ATOM     78  C   UNL A   1      53.493  27.469  25.215  1.00  0.00     0.200 A 
ATOM     79  F   UNL A   1      53.976  27.022  27.482  1.00  0.00    -0.200 F 
ATOM     80  F   UNL A   1      54.784  27.308  24.893  1.00  0.00    -0.200 F 
ENDBRANCH  56  70
BRANCH  57  81
ATOM     81  C   UNL A   1      41.115  28.337  28.361  1.00  0.00     0.064 A 
ATOM     82  C   UNL A   1      40.180  28.901  27.480  1.00  0.00     0.173 A 
ATOM     83  C   UNL A   1      40.648  27.885  29.603  1.00  0.00     0.173 A 
ATOM     84  F   UNL A   1      40.581  29.367  26.288  1.00  0.00    -0.203 F 
ATOM     85  C   UNL A   1      38.840  29.031  27.837  1.00  0.00     0.198 A 
ATOM     86  C   UNL A   1      39.301  27.985  29.946  1.00  0.00     0.198 A 
ATOM     87  F   UNL A   1      41.498  27.333  30.481  1.00  0.00    -0.203 F 
ATOM     88  F   UNL A   1      37.980  29.620  26.996  1.00  0.00    -0.200 F 
ATOM     89  C   UNL A   1      38.401  28.567  29.068  1.00  0.00     0.200 A 
ATOM     90  F   UNL A   1      38.877  27.520  31.129  1.00  0.00    -0.200 F 
ATOM     91  F   UNL A   1      37.111  28.688  29.409  1.00  0.00    -0.200 F 
ENDBRANCH  57  81
BRANCH  69  92
ATOM     92  C   UNL A   1      46.447  32.809  28.709  1.00  0.00     0.064 A 
ATOM     93  C   UNL A   1      46.224  33.889  27.842  1.00  0.00     0.173 A 
ATOM     94  C   UNL A   1      46.741  33.098  30.051  1.00  0.00     0.173 A 
ATOM     95  F   UNL A   1      45.955  33.670  26.546  1.00  0.00    -0.203 F 
ATOM     96  C   UNL A   1      46.320  35.203  28.293  1.00  0.00     0.198 A 
ATOM     97  C   UNL A   1      46.802  34.412  30.507  1.00  0.00     0.198 A 
ATOM     98  F   UNL A   1      46.958  32.104  30.926  1.00  0.00    -0.203 F 
ATOM     99  F   UNL A   1      46.159  36.218  27.433  1.00  0.00    -0.200 F 
ATOM    100  C   UNL A   1      46.601  35.463  29.626  1.00  0.00     0.200 A 
ATOM    101  F   UNL A   1      47.056  34.660  31.799  1.00  0.00    -0.200 F 
ATOM    102  F   UNL A   1      46.686  36.728  30.060  1.00  0.00    -0.200 F 
ENDBRANCH  69  92
ENDBRANCH  43  44
ENDBRANCH  35  38
ENDBRANCH  33  34
ENDBRANCH  32  33
ENDBRANCH   1  32
TORSDOF 15
ENDMDL
