MODEL 1
REMARK VINA RESULT:     -10.1      0.000      0.000
REMARK SMILES C[C@@H](CCCO)[NH2+][C@@H](C)CC(=O)NCCCCNC(=O)c1ccc(-c2c3nc(c(-c4c(F)c(F)c(F)c(F)c4F)c4ccc([nH]4)c(-c4c(F)c(F)c(F)c(F)c4F)c4nc(c(-c5c(F)c(F)c(F)c(F)c5F)c5ccc2[nH]5)C=C4)C=C3)cc1
REMARK SMILES IDX 11 1 12 2 13 3 10 5 8 6 9 7 7 8 2 11 1 12 3 13 4 14 5 15
REMARK SMILES IDX 6 16 14 18 15 19 16 20 17 21 18 22 19 23 20 25 21 26 22 27
REMARK SMILES IDX 83 28 23 29 82 30 24 31 25 32 26 33 76 34 27 35 81 36 75 37
REMARK SMILES IDX 77 38 28 39 80 40 74 41 73 42 29 44 61 45 41 46 60 47 42 48
REMARK SMILES IDX 45 49 59 50 78 51 43 52 44 53 58 55 79 56 46 57 30 58 31 59
REMARK SMILES IDX 39 60 32 61 33 62 37 63 40 64 34 65 35 66 38 67 36 68 62 69
REMARK SMILES IDX 63 70 71 71 64 72 65 73 69 74 72 75 66 76 67 77 70 78 68 79
REMARK SMILES IDX 47 80 48 81 56 82 49 83 50 84 54 85 57 86 51 87 52 88 55 89
REMARK SMILES IDX 53 90
REMARK H PARENT 13 4 7 9 7 10 6 17 18 24 77 43 45 54
REMARK Flexibility Score: inf
ROOT
ATOM      1  C   UNL A   1      33.445  27.725  26.330  1.00  0.00     0.225 C 
ATOM      2  O   UNL A   1      33.256  26.527  26.546  1.00  0.00    -0.275 OA
ATOM      3  N   UNL A   1      33.160  28.617  27.321  1.00  0.00    -0.356 N 
ATOM      4  H   UNL A   1      32.953  28.227  28.201  1.00  0.00     0.163 HD
ENDROOT
BRANCH   1   5
ATOM      5  C   UNL A   1      34.023  28.198  25.010  1.00  0.00     0.164 C 
BRANCH   5   6
ATOM      6  C   UNL A   1      33.081  27.993  23.803  1.00  0.00     0.188 C 
ATOM      7  C   UNL A   1      33.490  28.967  22.690  1.00  0.00     0.075 C 
BRANCH   6   8
ATOM      8  N   UNL A   1      31.688  28.182  24.236  1.00  0.00    -0.341 N 
ATOM      9  H   UNL A   1      31.663  28.049  25.246  1.00  0.00     0.346 HD
ATOM     10  H   UNL A   1      31.443  29.116  23.907  1.00  0.00     0.346 HD
BRANCH   8  11
ATOM     11  C   UNL A   1      30.666  27.312  23.657  1.00  0.00     0.179 C 
ATOM     12  C   UNL A   1      30.103  26.407  24.760  1.00  0.00     0.075 C 
BRANCH  11  13
ATOM     13  C   UNL A   1      29.531  28.098  22.960  1.00  0.00     0.067 C 
BRANCH  13  14
ATOM     14  C   UNL A   1      29.869  29.433  22.274  1.00  0.00     0.034 C 
BRANCH  14  15
ATOM     15  C   UNL A   1      29.137  30.685  22.746  1.00  0.00     0.156 C 
BRANCH  15  16
ATOM     16  O   UNL A   1      29.537  31.837  22.020  1.00  0.00    -0.396 OA
ATOM     17  H   UNL A   1      29.382  31.694  21.074  1.00  0.00     0.210 HD
ENDBRANCH  15  16
ENDBRANCH  14  15
ENDBRANCH  13  14
ENDBRANCH  11  13
ENDBRANCH   8  11
ENDBRANCH   6   8
ENDBRANCH   5   6
ENDBRANCH   1   5
BRANCH   3  18
ATOM     18  C   UNL A   1      33.122  30.063  27.249  1.00  0.00     0.116 C 
BRANCH  18  19
ATOM     19  C   UNL A   1      31.758  30.547  26.762  1.00  0.00     0.023 C 
BRANCH  19  20
ATOM     20  C   UNL A   1      31.548  32.053  26.799  1.00  0.00     0.023 C 
BRANCH  20  21
ATOM     21  C   UNL A   1      32.743  32.842  27.306  1.00  0.00     0.116 C 
BRANCH  21  22
ATOM     22  N   UNL A   1      32.427  34.216  27.676  1.00  0.00    -0.352 N 
ATOM     23  C   UNL A   1      33.025  34.999  28.636  1.00  0.00     0.251 C 
ATOM     24  H   UNL A   1      31.691  34.637  27.175  1.00  0.00     0.163 HD
ATOM     25  O   UNL A   1      32.596  36.118  28.890  1.00  0.00    -0.269 OA
BRANCH  23  26
ATOM     26  C   UNL A   1      34.164  34.446  29.396  1.00  0.00     0.039 A 
ATOM     27  C   UNL A   1      33.911  33.698  30.547  1.00  0.00     0.014 A 
ATOM     28  C   UNL A   1      35.469  34.596  28.921  1.00  0.00     0.014 A 
ATOM     29  C   UNL A   1      34.962  33.027  31.176  1.00  0.00     0.010 A 
ATOM     30  C   UNL A   1      36.496  33.855  29.491  1.00  0.00     0.010 A 
ATOM     31  C   UNL A   1      36.252  33.063  30.625  1.00  0.00    -0.014 A 
BRANCH  31  32
ATOM     32  C   UNL A   1      37.377  32.297  31.217  1.00  0.00     0.031 A 
ATOM     33  C   UNL A   1      37.882  32.663  32.585  1.00  0.00     0.074 A 
ATOM     34  C   UNL A   1      37.998  31.344  30.495  1.00  0.00     0.049 A 
ATOM     35  N   UNL A   1      38.932  32.221  33.227  1.00  0.00    -0.248 NA
ATOM     36  C   UNL A   1      37.124  33.696  33.311  1.00  0.00     0.031 C 
ATOM     37  C   UNL A   1      37.636  30.936  29.136  1.00  0.00     0.029 A 
ATOM     38  N   UNL A   1      39.079  30.556  30.801  1.00  0.00    -0.354 N 
ATOM     39  C   UNL A   1      38.976  32.940  34.413  1.00  0.00     0.074 A 
ATOM     40  C   UNL A   1      37.880  33.884  34.382  1.00  0.00     0.031 C 
ATOM     41  C   UNL A   1      38.464  29.957  28.736  1.00  0.00     0.029 A 
ATOM     42  C   UNL A   1      39.438  29.696  29.792  1.00  0.00     0.049 A 
ATOM     43  H   UNL A   1      39.553  30.603  31.663  1.00  0.00     0.167 HD
ATOM     44  C   UNL A   1      39.835  32.806  35.449  1.00  0.00     0.037 A 
ATOM     45  C   UNL A   1      40.443  28.802  29.728  1.00  0.00     0.037 A 
ATOM     46  C   UNL A   1      40.893  31.833  35.500  1.00  0.00     0.049 A 
ATOM     47  C   UNL A   1      41.368  28.654  30.906  1.00  0.00     0.074 A 
ATOM     48  C   UNL A   1      41.784  31.578  36.527  1.00  0.00     0.029 A 
ATOM     49  N   UNL A   1      41.192  30.944  34.479  1.00  0.00    -0.354 N 
ATOM     50  N   UNL A   1      41.369  29.304  32.043  1.00  0.00    -0.248 NA
ATOM     51  C   UNL A   1      42.429  27.643  30.792  1.00  0.00     0.031 C 
ATOM     52  C   UNL A   1      42.640  30.550  36.117  1.00  0.00     0.029 A 
ATOM     53  C   UNL A   1      42.257  30.141  34.849  1.00  0.00     0.049 A 
ATOM     54  H   UNL A   1      40.717  30.892  33.618  1.00  0.00     0.167 HD
ATOM     55  C   UNL A   1      42.404  28.762  32.791  1.00  0.00     0.074 A 
ATOM     56  C   UNL A   1      43.004  27.722  31.983  1.00  0.00     0.031 C 
ATOM     57  C   UNL A   1      42.821  29.095  34.037  1.00  0.00     0.037 A 
BRANCH  44  58
ATOM     58  C   UNL A   1      39.654  33.725  36.621  1.00  0.00     0.064 A 
ATOM     59  C   UNL A   1      40.281  34.979  36.671  1.00  0.00     0.173 A 
ATOM     60  C   UNL A   1      38.824  33.361  37.692  1.00  0.00     0.173 A 
ATOM     61  F   UNL A   1      41.096  35.367  35.679  1.00  0.00    -0.203 F 
ATOM     62  C   UNL A   1      40.107  35.823  37.765  1.00  0.00     0.198 A 
ATOM     63  C   UNL A   1      38.630  34.220  38.771  1.00  0.00     0.198 A 
ATOM     64  F   UNL A   1      38.200  32.174  37.692  1.00  0.00    -0.203 F 
ATOM     65  F   UNL A   1      40.757  36.995  37.814  1.00  0.00    -0.200 F 
ATOM     66  C   UNL A   1      39.277  35.447  38.809  1.00  0.00     0.200 A 
ATOM     67  F   UNL A   1      37.820  33.860  39.775  1.00  0.00    -0.200 F 
ATOM     68  F   UNL A   1      39.107  36.263  39.859  1.00  0.00    -0.200 F 
ENDBRANCH  44  58
BRANCH  45  69
ATOM     69  C   UNL A   1      40.611  27.953  28.520  1.00  0.00     0.064 A 
ATOM     70  C   UNL A   1      41.373  28.400  27.432  1.00  0.00     0.173 A 
ATOM     71  C   UNL A   1      40.005  26.692  28.419  1.00  0.00     0.173 A 
ATOM     72  F   UNL A   1      41.954  29.608  27.474  1.00  0.00    -0.203 F 
ATOM     73  C   UNL A   1      41.504  27.629  26.279  1.00  0.00     0.198 A 
ATOM     74  C   UNL A   1      40.158  25.911  27.275  1.00  0.00     0.198 A 
ATOM     75  F   UNL A   1      39.269  26.217  29.435  1.00  0.00    -0.203 F 
ATOM     76  F   UNL A   1      42.200  28.103  25.235  1.00  0.00    -0.200 F 
ATOM     77  C   UNL A   1      40.900  26.384  26.203  1.00  0.00     0.200 A 
ATOM     78  F   UNL A   1      39.582  24.703  27.209  1.00  0.00    -0.200 F 
ATOM     79  F   UNL A   1      41.025  25.644  25.093  1.00  0.00    -0.200 F 
ENDBRANCH  45  69
BRANCH  57  80
ATOM     80  C   UNL A   1      43.948  28.298  34.620  1.00  0.00     0.064 A 
ATOM     81  C   UNL A   1      45.284  28.700  34.479  1.00  0.00     0.173 A 
ATOM     82  C   UNL A   1      43.682  27.143  35.372  1.00  0.00     0.173 A 
ATOM     83  F   UNL A   1      45.588  29.789  33.757  1.00  0.00    -0.203 F 
ATOM     84  C   UNL A   1      46.315  27.962  35.052  1.00  0.00     0.198 A 
ATOM     85  C   UNL A   1      44.714  26.423  35.965  1.00  0.00     0.198 A 
ATOM     86  F   UNL A   1      42.420  26.723  35.540  1.00  0.00    -0.203 F 
ATOM     87  F   UNL A   1      47.589  28.342  34.873  1.00  0.00    -0.200 F 
ATOM     88  C   UNL A   1      46.029  26.830  35.801  1.00  0.00     0.200 A 
ATOM     89  F   UNL A   1      44.435  25.336  36.698  1.00  0.00    -0.200 F 
ATOM     90  F   UNL A   1      47.024  26.126  36.360  1.00  0.00    -0.200 F 
ENDBRANCH  57  80
ENDBRANCH  31  32
ENDBRANCH  23  26
ENDBRANCH  21  22
ENDBRANCH  20  21
ENDBRANCH  19  20
ENDBRANCH  18  19
ENDBRANCH   3  18
TORSDOF 18
ENDMDL
MODEL 2
REMARK VINA RESULT:     -10.0      0.873      7.652
REMARK SMILES C[C@@H](CCCO)[NH2+][C@@H](C)CC(=O)NCCCCNC(=O)c1ccc(-c2c3nc(c(-c4c(F)c(F)c(F)c(F)c4F)c4ccc([nH]4)c(-c4c(F)c(F)c(F)c(F)c4F)c4nc(c(-c5c(F)c(F)c(F)c(F)c5F)c5ccc2[nH]5)C=C4)C=C3)cc1
REMARK SMILES IDX 11 1 12 2 13 3 10 5 8 6 9 7 7 8 2 11 1 12 3 13 4 14 5 15
REMARK SMILES IDX 6 16 14 18 15 19 16 20 17 21 18 22 19 23 20 25 21 26 22 27
REMARK SMILES IDX 83 28 23 29 82 30 24 31 25 32 26 33 76 34 27 35 81 36 75 37
REMARK SMILES IDX 77 38 28 39 80 40 74 41 73 42 29 44 61 45 41 46 60 47 42 48
REMARK SMILES IDX 45 49 59 50 78 51 43 52 44 53 58 55 79 56 46 57 30 58 31 59
REMARK SMILES IDX 39 60 32 61 33 62 37 63 40 64 34 65 35 66 38 67 36 68 62 69
REMARK SMILES IDX 63 70 71 71 64 72 65 73 69 74 72 75 66 76 67 77 70 78 68 79
REMARK SMILES IDX 47 80 48 81 56 82 49 83 50 84 54 85 57 86 51 87 52 88 55 89
REMARK SMILES IDX 53 90
REMARK H PARENT 13 4 7 9 7 10 6 17 18 24 77 43 45 54
REMARK Flexibility Score: inf
ROOT
ATOM      1  C   UNL A   1      33.614  27.583  25.327  1.00  0.00     0.225 C 
ATOM      2  O   UNL A   1      34.053  26.942  24.372  1.00  0.00    -0.275 OA
ATOM      3  N   UNL A   1      33.728  28.942  25.307  1.00  0.00    -0.356 N 
ATOM      4  H   UNL A   1      34.032  29.332  24.456  1.00  0.00     0.163 HD
ENDROOT
BRANCH   1   5
ATOM      5  C   UNL A   1      32.921  26.886  26.482  1.00  0.00     0.164 C 
BRANCH   5   6
ATOM      6  C   UNL A   1      31.527  26.321  26.128  1.00  0.00     0.188 C 
ATOM      7  C   UNL A   1      31.686  24.857  25.696  1.00  0.00     0.075 C 
BRANCH   6   8
ATOM      8  N   UNL A   1      30.915  27.156  25.082  1.00  0.00    -0.341 N 
ATOM      9  H   UNL A   1      30.153  27.676  25.517  1.00  0.00     0.346 HD
ATOM     10  H   UNL A   1      31.685  27.718  24.722  1.00  0.00     0.346 HD
BRANCH   8  11
ATOM     11  C   UNL A   1      30.367  26.488  23.903  1.00  0.00     0.179 C 
ATOM     12  C   UNL A   1      28.844  26.666  23.896  1.00  0.00     0.075 C 
BRANCH  11  13
ATOM     13  C   UNL A   1      30.986  26.997  22.581  1.00  0.00     0.067 C 
BRANCH  13  14
ATOM     14  C   UNL A   1      31.342  28.488  22.457  1.00  0.00     0.034 C 
BRANCH  14  15
ATOM     15  C   UNL A   1      30.197  29.495  22.391  1.00  0.00     0.156 C 
BRANCH  15  16
ATOM     16  O   UNL A   1      30.122  30.128  21.124  1.00  0.00    -0.396 OA
ATOM     17  H   UNL A   1      30.693  30.912  21.119  1.00  0.00     0.210 HD
ENDBRANCH  15  16
ENDBRANCH  14  15
ENDBRANCH  13  14
ENDBRANCH  11  13
ENDBRANCH   8  11
ENDBRANCH   6   8
ENDBRANCH   5   6
ENDBRANCH   1   5
BRANCH   3  18
ATOM     18  C   UNL A   1      33.464  29.885  26.373  1.00  0.00     0.116 C 
BRANCH  18  19
ATOM     19  C   UNL A   1      32.134  30.601  26.148  1.00  0.00     0.023 C 
BRANCH  19  20
ATOM     20  C   UNL A   1      31.822  31.723  27.127  1.00  0.00     0.023 C 
BRANCH  20  21
ATOM     21  C   UNL A   1      32.956  32.713  27.330  1.00  0.00     0.116 C 
BRANCH  21  22
ATOM     22  N   UNL A   1      32.508  34.070  27.615  1.00  0.00    -0.352 N 
ATOM     23  C   UNL A   1      33.007  34.955  28.542  1.00  0.00     0.251 C 
ATOM     24  H   UNL A   1      31.750  34.394  27.077  1.00  0.00     0.163 HD
ATOM     25  O   UNL A   1      32.473  36.043  28.725  1.00  0.00    -0.269 OA
BRANCH  23  26
ATOM     26  C   UNL A   1      34.171  34.552  29.357  1.00  0.00     0.039 A 
ATOM     27  C   UNL A   1      33.954  33.966  30.605  1.00  0.00     0.014 A 
ATOM     28  C   UNL A   1      35.466  34.674  28.847  1.00  0.00     0.014 A 
ATOM     29  C   UNL A   1      35.033  33.423  31.307  1.00  0.00     0.010 A 
ATOM     30  C   UNL A   1      36.522  34.053  29.501  1.00  0.00     0.010 A 
ATOM     31  C   UNL A   1      36.315  33.421  30.737  1.00  0.00    -0.014 A 
BRANCH  31  32
ATOM     32  C   UNL A   1      37.470  32.782  31.415  1.00  0.00     0.031 A 
ATOM     33  C   UNL A   1      38.180  31.637  30.747  1.00  0.00     0.074 A 
ATOM     34  C   UNL A   1      37.820  33.167  32.658  1.00  0.00     0.049 A 
ATOM     35  N   UNL A   1      39.115  30.853  31.217  1.00  0.00    -0.248 NA
ATOM     36  C   UNL A   1      37.749  31.306  29.378  1.00  0.00     0.031 C 
ATOM     37  C   UNL A   1      37.174  34.228  33.432  1.00  0.00     0.029 A 
ATOM     38  N   UNL A   1      38.799  32.693  33.496  1.00  0.00    -0.354 N 
ATOM     39  C   UNL A   1      39.361  29.922  30.217  1.00  0.00     0.074 A 
ATOM     40  C   UNL A   1      38.443  30.204  29.136  1.00  0.00     0.031 C 
ATOM     41  C   UNL A   1      37.789  34.341  34.621  1.00  0.00     0.029 A 
ATOM     42  C   UNL A   1      38.845  33.337  34.708  1.00  0.00     0.049 A 
ATOM     43  H   UNL A   1      39.410  31.961  33.251  1.00  0.00     0.167 HD
ATOM     44  C   UNL A   1      40.289  28.938  30.191  1.00  0.00     0.037 A 
ATOM     45  C   UNL A   1      39.648  33.133  35.770  1.00  0.00     0.037 A 
ATOM     46  C   UNL A   1      41.235  28.692  31.246  1.00  0.00     0.049 A 
ATOM     47  C   UNL A   1      40.691  32.050  35.704  1.00  0.00     0.074 A 
ATOM     48  C   UNL A   1      42.252  27.755  31.294  1.00  0.00     0.029 A 
ATOM     49  N   UNL A   1      41.284  29.400  32.438  1.00  0.00    -0.354 N 
ATOM     50  N   UNL A   1      40.948  31.209  34.733  1.00  0.00    -0.248 NA
ATOM     51  C   UNL A   1      41.558  31.891  36.880  1.00  0.00     0.031 C 
ATOM     52  C   UNL A   1      42.902  27.880  32.526  1.00  0.00     0.029 A 
ATOM     53  C   UNL A   1      42.312  28.918  33.230  1.00  0.00     0.049 A 
ATOM     54  H   UNL A   1      40.677  30.135  32.683  1.00  0.00     0.167 HD
ATOM     55  C   UNL A   1      42.023  30.445  35.165  1.00  0.00     0.074 A 
ATOM     56  C   UNL A   1      42.377  30.929  36.482  1.00  0.00     0.031 C 
ATOM     57  C   UNL A   1      42.661  29.433  34.528  1.00  0.00     0.037 A 
BRANCH  44  58
ATOM     58  C   UNL A   1      40.337  28.066  28.971  1.00  0.00     0.064 A 
ATOM     59  C   UNL A   1      41.115  28.410  27.856  1.00  0.00     0.173 A 
ATOM     60  C   UNL A   1      39.620  26.861  28.927  1.00  0.00     0.173 A 
ATOM     61  F   UNL A   1      41.806  29.559  27.842  1.00  0.00    -0.203 F 
ATOM     62  C   UNL A   1      41.149  27.593  26.728  1.00  0.00     0.198 A 
ATOM     63  C   UNL A   1      39.681  26.033  27.809  1.00  0.00     0.198 A 
ATOM     64  F   UNL A   1      38.863  26.485  29.969  1.00  0.00    -0.203 F 
ATOM     65  F   UNL A   1      41.859  27.968  25.654  1.00  0.00    -0.200 F 
ATOM     66  C   UNL A   1      40.439  26.403  26.708  1.00  0.00     0.200 A 
ATOM     67  F   UNL A   1      39.002  24.878  27.795  1.00  0.00    -0.200 F 
ATOM     68  F   UNL A   1      40.479  25.616  25.624  1.00  0.00    -0.200 F 
ENDBRANCH  44  58
BRANCH  45  69
ATOM     69  C   UNL A   1      39.523  33.992  36.976  1.00  0.00     0.064 A 
ATOM     70  C   UNL A   1      38.761  33.573  38.076  1.00  0.00     0.173 A 
ATOM     71  C   UNL A   1      40.142  35.248  37.051  1.00  0.00     0.173 A 
ATOM     72  F   UNL A   1      38.133  32.390  38.042  1.00  0.00    -0.203 F 
ATOM     73  C   UNL A   1      38.605  34.388  39.195  1.00  0.00     0.198 A 
ATOM     74  C   UNL A   1      40.006  36.050  38.182  1.00  0.00     0.198 A 
ATOM     75  F   UNL A   1      40.886  35.692  36.027  1.00  0.00    -0.203 F 
ATOM     76  F   UNL A   1      37.831  33.983  40.213  1.00  0.00    -0.200 F 
ATOM     77  C   UNL A   1      39.230  35.624  39.249  1.00  0.00     0.200 A 
ATOM     78  F   UNL A   1      40.621  37.240  38.235  1.00  0.00    -0.200 F 
ATOM     79  F   UNL A   1      39.077  36.408  40.325  1.00  0.00    -0.200 F 
ENDBRANCH  45  69
BRANCH  57  80
ATOM     80  C   UNL A   1      43.835  28.814  35.225  1.00  0.00     0.064 A 
ATOM     81  C   UNL A   1      45.139  29.296  35.041  1.00  0.00     0.173 A 
ATOM     82  C   UNL A   1      43.643  27.756  36.126  1.00  0.00     0.173 A 
ATOM     83  F   UNL A   1      45.372  30.296  34.178  1.00  0.00    -0.203 F 
ATOM     84  C   UNL A   1      46.212  28.727  35.719  1.00  0.00     0.198 A 
ATOM     85  C   UNL A   1      44.716  27.207  36.822  1.00  0.00     0.198 A 
ATOM     86  F   UNL A   1      42.414  27.264  36.340  1.00  0.00    -0.203 F 
ATOM     87  F   UNL A   1      47.455  29.177  35.500  1.00  0.00    -0.200 F 
ATOM     88  C   UNL A   1      45.999  27.689  36.614  1.00  0.00     0.200 A 
ATOM     89  F   UNL A   1      44.507  26.211  37.695  1.00  0.00    -0.200 F 
ATOM     90  F   UNL A   1      47.033  27.149  37.273  1.00  0.00    -0.200 F 
ENDBRANCH  57  80
ENDBRANCH  31  32
ENDBRANCH  23  26
ENDBRANCH  21  22
ENDBRANCH  20  21
ENDBRANCH  19  20
ENDBRANCH  18  19
ENDBRANCH   3  18
TORSDOF 18
ENDMDL
MODEL 3
REMARK VINA RESULT:      -9.9      7.062     12.315
REMARK SMILES C[C@@H](CCCO)[NH2+][C@@H](C)CC(=O)NCCCCNC(=O)c1ccc(-c2c3nc(c(-c4c(F)c(F)c(F)c(F)c4F)c4ccc([nH]4)c(-c4c(F)c(F)c(F)c(F)c4F)c4nc(c(-c5c(F)c(F)c(F)c(F)c5F)c5ccc2[nH]5)C=C4)C=C3)cc1
REMARK SMILES IDX 11 1 12 2 13 3 10 5 8 6 9 7 7 8 2 11 1 12 3 13 4 14 5 15
REMARK SMILES IDX 6 16 14 18 15 19 16 20 17 21 18 22 19 23 20 25 21 26 22 27
REMARK SMILES IDX 83 28 23 29 82 30 24 31 25 32 26 33 76 34 27 35 81 36 75 37
REMARK SMILES IDX 77 38 28 39 80 40 74 41 73 42 29 44 61 45 41 46 60 47 42 48
REMARK SMILES IDX 45 49 59 50 78 51 43 52 44 53 58 55 79 56 46 57 30 58 31 59
REMARK SMILES IDX 39 60 32 61 33 62 37 63 40 64 34 65 35 66 38 67 36 68 62 69
REMARK SMILES IDX 63 70 71 71 64 72 65 73 69 74 72 75 66 76 67 77 70 78 68 79
REMARK SMILES IDX 47 80 48 81 56 82 49 83 50 84 54 85 57 86 51 87 52 88 55 89
REMARK SMILES IDX 53 90
REMARK H PARENT 13 4 7 9 7 10 6 17 18 24 77 43 45 54
REMARK Flexibility Score: inf
ROOT
ATOM      1  C   UNL A   1      37.456  21.948  24.748  1.00  0.00     0.225 C 
ATOM      2  O   UNL A   1      37.063  22.506  23.722  1.00  0.00    -0.275 OA
ATOM      3  N   UNL A   1      38.595  22.407  25.342  1.00  0.00    -0.356 N 
ATOM      4  H   UNL A   1      38.953  23.251  24.985  1.00  0.00     0.163 HD
ENDROOT
BRANCH   1   5
ATOM      5  C   UNL A   1      36.671  20.807  25.365  1.00  0.00     0.164 C 
BRANCH   5   6
ATOM      6  C   UNL A   1      35.139  21.007  25.327  1.00  0.00     0.188 C 
ATOM      7  C   UNL A   1      34.696  21.661  26.642  1.00  0.00     0.075 C 
BRANCH   6   8
ATOM      8  N   UNL A   1      34.485  19.710  25.091  1.00  0.00    -0.341 N 
ATOM      9  H   UNL A   1      34.799  19.373  24.182  1.00  0.00     0.346 HD
ATOM     10  H   UNL A   1      34.756  19.139  25.892  1.00  0.00     0.346 HD
BRANCH   8  11
ATOM     11  C   UNL A   1      33.025  19.668  25.091  1.00  0.00     0.179 C 
ATOM     12  C   UNL A   1      32.512  20.280  23.781  1.00  0.00     0.075 C 
BRANCH  11  13
ATOM     13  C   UNL A   1      32.463  18.241  25.287  1.00  0.00     0.067 C 
BRANCH  13  14
ATOM     14  C   UNL A   1      33.403  17.041  25.080  1.00  0.00     0.034 C 
BRANCH  14  15
ATOM     15  C   UNL A   1      33.048  15.726  25.767  1.00  0.00     0.156 C 
BRANCH  15  16
ATOM     16  O   UNL A   1      33.809  14.641  25.260  1.00  0.00    -0.396 OA
ATOM     17  H   UNL A   1      34.514  14.419  25.887  1.00  0.00     0.210 HD
ENDBRANCH  15  16
ENDBRANCH  14  15
ENDBRANCH  13  14
ENDBRANCH  11  13
ENDBRANCH   8  11
ENDBRANCH   6   8
ENDBRANCH   5   6
ENDBRANCH   1   5
BRANCH   3  18
ATOM     18  C   UNL A   1      39.347  21.813  26.428  1.00  0.00     0.116 C 
BRANCH  18  19
ATOM     19  C   UNL A   1      40.756  21.441  25.974  1.00  0.00     0.023 C 
BRANCH  19  20
ATOM     20  C   UNL A   1      41.058  19.951  25.939  1.00  0.00     0.023 C 
BRANCH  20  21
ATOM     21  C   UNL A   1      42.459  19.582  26.396  1.00  0.00     0.116 C 
BRANCH  21  22
ATOM     22  N   UNL A   1      43.276  18.971  25.355  1.00  0.00    -0.352 N 
ATOM     23  C   UNL A   1      44.280  19.546  24.612  1.00  0.00     0.251 C 
ATOM     24  H   UNL A   1      43.083  18.026  25.158  1.00  0.00     0.163 HD
ATOM     25  O   UNL A   1      44.831  18.924  23.710  1.00  0.00    -0.269 OA
BRANCH  23  26
ATOM     26  C   UNL A   1      44.652  20.949  24.883  1.00  0.00     0.039 A 
ATOM     27  C   UNL A   1      44.193  21.949  24.024  1.00  0.00     0.014 A 
ATOM     28  C   UNL A   1      45.377  21.279  26.031  1.00  0.00     0.014 A 
ATOM     29  C   UNL A   1      44.389  23.290  24.364  1.00  0.00     0.010 A 
ATOM     30  C   UNL A   1      45.489  22.609  26.413  1.00  0.00     0.010 A 
ATOM     31  C   UNL A   1      44.996  23.628  25.583  1.00  0.00    -0.014 A 
BRANCH  31  32
ATOM     32  C   UNL A   1      45.148  25.039  26.015  1.00  0.00     0.031 A 
ATOM     33  C   UNL A   1      46.499  25.694  25.939  1.00  0.00     0.074 A 
ATOM     34  C   UNL A   1      44.104  25.695  26.557  1.00  0.00     0.049 A 
ATOM     35  N   UNL A   1      46.882  26.862  26.389  1.00  0.00    -0.248 NA
ATOM     36  C   UNL A   1      47.575  24.913  25.306  1.00  0.00     0.031 C 
ATOM     37  C   UNL A   1      42.757  25.149  26.736  1.00  0.00     0.029 A 
ATOM     38  N   UNL A   1      44.019  26.963  27.075  1.00  0.00    -0.354 N 
ATOM     39  C   UNL A   1      48.241  26.939  26.120  1.00  0.00     0.074 A 
ATOM     40  C   UNL A   1      48.630  25.684  25.517  1.00  0.00     0.031 C 
ATOM     41  C   UNL A   1      41.975  26.084  27.298  1.00  0.00     0.029 A 
ATOM     42  C   UNL A   1      42.772  27.279  27.556  1.00  0.00     0.049 A 
ATOM     43  H   UNL A   1      44.780  27.587  27.099  1.00  0.00     0.167 HD
ATOM     44  C   UNL A   1      49.085  27.976  26.332  1.00  0.00     0.037 A 
ATOM     45  C   UNL A   1      42.327  28.407  28.143  1.00  0.00     0.037 A 
ATOM     46  C   UNL A   1      48.685  29.241  26.885  1.00  0.00     0.049 A 
ATOM     47  C   UNL A   1      43.279  29.555  28.340  1.00  0.00     0.074 A 
ATOM     48  C   UNL A   1      49.451  30.376  27.089  1.00  0.00     0.029 A 
ATOM     49  N   UNL A   1      47.401  29.541  27.313  1.00  0.00    -0.354 N 
ATOM     50  N   UNL A   1      44.551  29.637  28.036  1.00  0.00    -0.248 NA
ATOM     51  C   UNL A   1      42.732  30.771  28.959  1.00  0.00     0.031 C 
ATOM     52  C   UNL A   1      48.634  31.355  27.664  1.00  0.00     0.029 A 
ATOM     53  C   UNL A   1      47.352  30.842  27.784  1.00  0.00     0.049 A 
ATOM     54  H   UNL A   1      46.637  28.921  27.286  1.00  0.00     0.167 HD
ATOM     55  C   UNL A   1      44.948  30.917  28.394  1.00  0.00     0.074 A 
ATOM     56  C   UNL A   1      43.780  31.582  28.930  1.00  0.00     0.031 C 
ATOM     57  C   UNL A   1      46.171  31.491  28.289  1.00  0.00     0.037 A 
BRANCH  44  58
ATOM     58  C   UNL A   1      50.522  27.788  25.944  1.00  0.00     0.064 A 
ATOM     59  C   UNL A   1      50.946  27.929  24.614  1.00  0.00     0.173 A 
ATOM     60  C   UNL A   1      51.490  27.489  26.915  1.00  0.00     0.173 A 
ATOM     61  F   UNL A   1      50.057  28.198  23.647  1.00  0.00    -0.203 F 
ATOM     62  C   UNL A   1      52.282  27.750  24.266  1.00  0.00     0.198 A 
ATOM     63  C   UNL A   1      52.829  27.339  26.567  1.00  0.00     0.198 A 
ATOM     64  F   UNL A   1      51.137  27.346  28.201  1.00  0.00    -0.203 F 
ATOM     65  F   UNL A   1      52.655  27.840  22.981  1.00  0.00    -0.200 F 
ATOM     66  C   UNL A   1      53.223  27.462  25.242  1.00  0.00     0.200 A 
ATOM     67  F   UNL A   1      53.740  27.072  27.512  1.00  0.00    -0.200 F 
ATOM     68  F   UNL A   1      54.509  27.296  24.905  1.00  0.00    -0.200 F 
ENDBRANCH  44  58
BRANCH  45  69
ATOM     69  C   UNL A   1      40.904  28.522  28.557  1.00  0.00     0.064 A 
ATOM     70  C   UNL A   1      39.936  28.996  27.660  1.00  0.00     0.173 A 
ATOM     71  C   UNL A   1      40.485  28.182  29.851  1.00  0.00     0.173 A 
ATOM     72  F   UNL A   1      40.293  29.354  26.419  1.00  0.00    -0.203 F 
ATOM     73  C   UNL A   1      38.607  29.146  28.049  1.00  0.00     0.198 A 
ATOM     74  C   UNL A   1      39.150  28.309  30.231  1.00  0.00     0.198 A 
ATOM     75  F   UNL A   1      41.373  27.719  30.744  1.00  0.00    -0.203 F 
ATOM     76  F   UNL A   1      37.711  29.647  27.186  1.00  0.00    -0.200 F 
ATOM     77  C   UNL A   1      38.214  28.799  29.333  1.00  0.00     0.200 A 
ATOM     78  F   UNL A   1      38.773  27.962  31.469  1.00  0.00    -0.200 F 
ATOM     79  F   UNL A   1      36.936  28.946  29.707  1.00  0.00    -0.200 F 
ENDBRANCH  45  69
BRANCH  57  80
ATOM     80  C   UNL A   1      46.297  32.922  28.718  1.00  0.00     0.064 A 
ATOM     81  C   UNL A   1      46.083  33.980  27.823  1.00  0.00     0.173 A 
ATOM     82  C   UNL A   1      46.589  33.236  30.054  1.00  0.00     0.173 A 
ATOM     83  F   UNL A   1      45.816  33.728  26.533  1.00  0.00    -0.203 F 
ATOM     84  C   UNL A   1      46.176  35.302  28.246  1.00  0.00     0.198 A 
ATOM     85  C   UNL A   1      46.656  34.559  30.479  1.00  0.00     0.198 A 
ATOM     86  F   UNL A   1      46.796  32.258  30.948  1.00  0.00    -0.203 F 
ATOM     87  F   UNL A   1      46.005  36.299  27.367  1.00  0.00    -0.200 F 
ATOM     88  C   UNL A   1      46.454  35.591  29.575  1.00  0.00     0.200 A 
ATOM     89  F   UNL A   1      46.913  34.836  31.765  1.00  0.00    -0.200 F 
ATOM     90  F   UNL A   1      46.534  36.865  29.982  1.00  0.00    -0.200 F 
ENDBRANCH  57  80
ENDBRANCH  31  32
ENDBRANCH  23  26
ENDBRANCH  21  22
ENDBRANCH  20  21
ENDBRANCH  19  20
ENDBRANCH  18  19
ENDBRANCH   3  18
TORSDOF 18
ENDMDL
