MODEL 1
REMARK VINA RESULT:     -11.7      0.000      0.000
REMARK SMILES CC[C@H](C)[C@@H](Nc1nc(C(F)(F)F)nc2ccccc12)C(=O)NCCCCNC(=O)c1ccc(-c2c3nc(c(-c4c(F)c(F)c(F)c(F)c4F)c4ccc([nH]4)c(-c4c(F)c(F)c(F)c(F)c4F)c4nc(c(-c5c(F)c(F)c(F)c(F)c5F)c5ccc2[nH]5)C=C4)C=C3)cc1
REMARK SMILES IDX 25 1 24 2 23 3 21 4 22 5 5 7 3 8 4 9 2 10 1 11 6 12 7 14
REMARK SMILES IDX 8 15 20 16 9 17 15 18 19 19 14 20 16 21 18 22 17 23 10 24
REMARK SMILES IDX 11 25 12 26 13 27 26 28 27 29 28 30 29 31 30 33 31 34 32 35
REMARK SMILES IDX 93 36 33 37 92 38 34 39 35 40 36 41 86 42 37 43 91 44 85 45
REMARK SMILES IDX 87 46 38 47 90 48 84 49 83 50 39 52 71 53 51 54 70 55 52 56
REMARK SMILES IDX 55 57 69 58 88 59 53 60 54 61 68 63 89 64 56 65 40 66 41 67
REMARK SMILES IDX 49 68 42 69 43 70 47 71 50 72 44 73 45 74 48 75 46 76 72 77
REMARK SMILES IDX 73 78 81 79 74 80 75 81 79 82 82 83 76 84 77 85 80 86 78 87
REMARK SMILES IDX 57 88 58 89 66 90 59 91 60 92 64 93 67 94 61 95 62 96 65 97
REMARK SMILES IDX 63 98
REMARK H PARENT 23 6 6 13 28 32 87 51 55 62
REMARK Flexibility Score: inf
ROOT
ATOM      1  C   UNL A   1      31.394  30.492  25.640  1.00  0.00     0.023 C 
ENDROOT
BRANCH   1   2
ATOM      2  C   UNL A   1      32.485  29.454  25.867  1.00  0.00     0.116 C 
BRANCH   2   3
ATOM      3  N   UNL A   1      33.399  29.435  24.744  1.00  0.00    -0.354 N 
ATOM      4  C   UNL A   1      33.607  28.459  23.816  1.00  0.00     0.242 C 
ATOM      5  O   UNL A   1      34.549  28.607  23.031  1.00  0.00    -0.273 OA
ATOM      6  H   UNL A   1      33.951  30.244  24.635  1.00  0.00     0.163 HD
BRANCH   4   7
ATOM      7  C   UNL A   1      32.713  27.193  23.761  1.00  0.00     0.173 C 
BRANCH   7   8
ATOM      8  C   UNL A   1      31.510  27.436  22.786  1.00  0.00     0.018 C 
ATOM      9  C   UNL A   1      31.393  26.328  21.733  1.00  0.00     0.010 C 
BRANCH   8  10
ATOM     10  C   UNL A   1      30.200  27.617  23.599  1.00  0.00     0.002 C 
ATOM     11  C   UNL A   1      29.262  28.701  23.088  1.00  0.00     0.004 C 
ENDBRANCH   8  10
ENDBRANCH   7   8
BRANCH   7  12
ATOM     12  N   UNL A   1      33.462  25.948  23.454  1.00  0.00    -0.358 N 
ATOM     13  H   UNL A   1      33.832  25.858  22.546  1.00  0.00     0.162 HD
BRANCH  12  14
ATOM     14  C   UNL A   1      33.683  24.907  24.333  1.00  0.00     0.138 A 
ATOM     15  N   UNL A   1      34.996  24.635  24.460  1.00  0.00    -0.207 NA
ATOM     16  C   UNL A   1      32.717  24.269  25.126  1.00  0.00     0.043 A 
ATOM     17  C   UNL A   1      35.387  23.814  25.461  1.00  0.00     0.237 A 
ATOM     18  C   UNL A   1      33.225  23.495  26.177  1.00  0.00     0.076 A 
ATOM     19  C   UNL A   1      31.310  24.368  24.973  1.00  0.00     0.014 A 
ATOM     20  N   UNL A   1      34.530  23.278  26.355  1.00  0.00    -0.224 NA
ATOM     21  C   UNL A   1      32.343  22.952  27.102  1.00  0.00     0.029 A 
ATOM     22  C   UNL A   1      30.442  23.816  25.912  1.00  0.00     0.001 A 
ATOM     23  C   UNL A   1      30.962  23.122  26.994  1.00  0.00     0.002 A 
BRANCH  17  24
ATOM     24  C   UNL A   1      36.890  23.581  25.656  1.00  0.00     0.451 C 
ATOM     25  F   UNL A   1      37.189  22.336  26.129  1.00  0.00    -0.163 F 
ATOM     26  F   UNL A   1      37.592  23.712  24.488  1.00  0.00    -0.163 F 
ATOM     27  F   UNL A   1      37.480  24.454  26.527  1.00  0.00    -0.163 F 
ENDBRANCH  17  24
ENDBRANCH  12  14
ENDBRANCH   7  12
ENDBRANCH   4   7
ENDBRANCH   2   3
ENDBRANCH   1   2
BRANCH   1  28
ATOM     28  C   UNL A   1      31.385  31.598  26.693  1.00  0.00     0.023 C 
BRANCH  28  29
ATOM     29  C   UNL A   1      32.720  32.310  26.863  1.00  0.00     0.116 C 
BRANCH  29  30
ATOM     30  N   UNL A   1      32.564  33.671  27.353  1.00  0.00    -0.352 N 
ATOM     31  C   UNL A   1      33.235  34.287  28.377  1.00  0.00     0.251 C 
ATOM     32  H   UNL A   1      31.891  34.220  26.890  1.00  0.00     0.163 HD
ATOM     33  O   UNL A   1      32.861  35.375  28.806  1.00  0.00    -0.269 OA
BRANCH  31  34
ATOM     34  C   UNL A   1      34.404  33.614  28.975  1.00  0.00     0.039 A 
ATOM     35  C   UNL A   1      35.683  34.094  28.691  1.00  0.00     0.014 A 
ATOM     36  C   UNL A   1      34.229  32.519  29.826  1.00  0.00     0.014 A 
ATOM     37  C   UNL A   1      36.788  33.491  29.289  1.00  0.00     0.010 A 
ATOM     38  C   UNL A   1      35.321  31.984  30.494  1.00  0.00     0.010 A 
ATOM     39  C   UNL A   1      36.615  32.443  30.209  1.00  0.00    -0.014 A 
BRANCH  39  40
ATOM     40  C   UNL A   1      37.782  31.773  30.830  1.00  0.00     0.031 A 
ATOM     41  C   UNL A   1      38.190  32.136  32.233  1.00  0.00     0.074 A 
ATOM     42  C   UNL A   1      38.492  30.870  30.129  1.00  0.00     0.049 A 
ATOM     43  N   UNL A   1      39.184  31.680  32.953  1.00  0.00    -0.248 NA
ATOM     44  C   UNL A   1      37.395  33.176  32.905  1.00  0.00     0.031 C 
ATOM     45  C   UNL A   1      38.224  30.471  28.746  1.00  0.00     0.029 A 
ATOM     46  N   UNL A   1      39.586  30.123  30.485  1.00  0.00    -0.354 N 
ATOM     47  C   UNL A   1      39.142  32.389  34.146  1.00  0.00     0.074 A 
ATOM     48  C   UNL A   1      38.072  33.354  34.029  1.00  0.00     0.031 C 
ATOM     49  C   UNL A   1      39.101  29.520  28.386  1.00  0.00     0.029 A 
ATOM     50  C   UNL A   1      40.015  29.271  29.497  1.00  0.00     0.049 A 
ATOM     51  H   UNL A   1      40.022  30.190  31.366  1.00  0.00     0.167 HD
ATOM     52  C   UNL A   1      39.907  32.233  35.252  1.00  0.00     0.037 A 
ATOM     53  C   UNL A   1      41.028  28.384  29.495  1.00  0.00     0.037 A 
ATOM     54  C   UNL A   1      40.952  31.250  35.371  1.00  0.00     0.049 A 
ATOM     55  C   UNL A   1      41.864  28.227  30.738  1.00  0.00     0.074 A 
ATOM     56  C   UNL A   1      41.745  30.963  36.467  1.00  0.00     0.029 A 
ATOM     57  N   UNL A   1      41.352  30.398  34.352  1.00  0.00    -0.354 N 
ATOM     58  N   UNL A   1      41.766  28.847  31.889  1.00  0.00    -0.248 NA
ATOM     59  C   UNL A   1      42.945  27.234  30.682  1.00  0.00     0.031 C 
ATOM     60  C   UNL A   1      42.666  29.978  36.093  1.00  0.00     0.029 A 
ATOM     61  C   UNL A   1      42.398  29.600  34.788  1.00  0.00     0.049 A 
ATOM     62  H   UNL A   1      40.951  30.364  33.453  1.00  0.00     0.167 HD
ATOM     63  C   UNL A   1      42.739  28.288  32.708  1.00  0.00     0.074 A 
ATOM     64  C   UNL A   1      43.410  27.273  31.922  1.00  0.00     0.031 C 
ATOM     65  C   UNL A   1      43.045  28.583  33.997  1.00  0.00     0.037 A 
BRANCH  52  66
ATOM     66  C   UNL A   1      39.645  33.151  36.412  1.00  0.00     0.064 A 
ATOM     67  C   UNL A   1      38.720  32.833  37.419  1.00  0.00     0.173 A 
ATOM     68  C   UNL A   1      40.337  34.368  36.523  1.00  0.00     0.173 A 
ATOM     69  F   UNL A   1      38.022  31.689  37.359  1.00  0.00    -0.203 F 
ATOM     70  C   UNL A   1      38.468  33.715  38.468  1.00  0.00     0.198 A 
ATOM     71  C   UNL A   1      40.110  35.228  37.593  1.00  0.00     0.198 A 
ATOM     72  F   UNL A   1      41.236  34.723  35.593  1.00  0.00    -0.203 F 
ATOM     73  F   UNL A   1      37.531  33.417  39.379  1.00  0.00    -0.200 F 
ATOM     74  C   UNL A   1      39.167  34.908  38.558  1.00  0.00     0.200 A 
ATOM     75  F   UNL A   1      40.799  36.375  37.687  1.00  0.00    -0.200 F 
ATOM     76  F   UNL A   1      38.925  35.754  39.568  1.00  0.00    -0.200 F 
ENDBRANCH  52  66
BRANCH  53  77
ATOM     77  C   UNL A   1      41.275  27.537  28.298  1.00  0.00     0.064 A 
ATOM     78  C   UNL A   1      40.632  26.299  28.151  1.00  0.00     0.173 A 
ATOM     79  C   UNL A   1      42.158  27.937  27.286  1.00  0.00     0.173 A 
ATOM     80  F   UNL A   1      39.791  25.864  29.101  1.00  0.00    -0.203 F 
ATOM     81  C   UNL A   1      40.884  25.483  27.050  1.00  0.00     0.198 A 
ATOM     82  C   UNL A   1      42.386  27.134  26.171  1.00  0.00     0.198 A 
ATOM     83  F   UNL A   1      42.793  29.115  27.375  1.00  0.00    -0.203 F 
ATOM     84  F   UNL A   1      40.295  24.282  26.962  1.00  0.00    -0.200 F 
ATOM     85  C   UNL A   1      41.756  25.903  26.059  1.00  0.00     0.200 A 
ATOM     86  F   UNL A   1      43.217  27.550  25.206  1.00  0.00    -0.200 F 
ATOM     87  F   UNL A   1      41.997  25.119  24.999  1.00  0.00    -0.200 F 
ENDBRANCH  53  77
BRANCH  65  88
ATOM     88  C   UNL A   1      44.106  27.751  34.660  1.00  0.00     0.064 A 
ATOM     89  C   UNL A   1      43.812  26.539  35.302  1.00  0.00     0.173 A 
ATOM     90  C   UNL A   1      45.447  28.167  34.629  1.00  0.00     0.173 A 
ATOM     91  F   UNL A   1      42.546  26.100  35.372  1.00  0.00    -0.203 F 
ATOM     92  C   UNL A   1      44.814  25.796  35.923  1.00  0.00     0.198 A 
ATOM     93  C   UNL A   1      46.450  27.402  35.214  1.00  0.00     0.198 A 
ATOM     94  F   UNL A   1      45.786  29.313  34.018  1.00  0.00    -0.203 F 
ATOM     95  F   UNL A   1      44.499  24.675  36.586  1.00  0.00    -0.200 F 
ATOM     96  C   UNL A   1      46.133  26.224  35.872  1.00  0.00     0.200 A 
ATOM     97  F   UNL A   1      47.726  27.809  35.149  1.00  0.00    -0.200 F 
ATOM     98  F   UNL A   1      47.095  25.506  36.467  1.00  0.00    -0.200 F 
ENDBRANCH  65  88
ENDBRANCH  39  40
ENDBRANCH  31  34
ENDBRANCH  29  30
ENDBRANCH  28  29
ENDBRANCH   1  28
TORSDOF 16
ENDMDL
MODEL 2
REMARK VINA RESULT:     -11.7      2.059      3.325
REMARK SMILES CC[C@H](C)[C@@H](Nc1nc(C(F)(F)F)nc2ccccc12)C(=O)NCCCCNC(=O)c1ccc(-c2c3nc(c(-c4c(F)c(F)c(F)c(F)c4F)c4ccc([nH]4)c(-c4c(F)c(F)c(F)c(F)c4F)c4nc(c(-c5c(F)c(F)c(F)c(F)c5F)c5ccc2[nH]5)C=C4)C=C3)cc1
REMARK SMILES IDX 25 1 24 2 23 3 21 4 22 5 5 7 3 8 4 9 2 10 1 11 6 12 7 14
REMARK SMILES IDX 8 15 20 16 9 17 15 18 19 19 14 20 16 21 18 22 17 23 10 24
REMARK SMILES IDX 11 25 12 26 13 27 26 28 27 29 28 30 29 31 30 33 31 34 32 35
REMARK SMILES IDX 93 36 33 37 92 38 34 39 35 40 36 41 86 42 37 43 91 44 85 45
REMARK SMILES IDX 87 46 38 47 90 48 84 49 83 50 39 52 71 53 51 54 70 55 52 56
REMARK SMILES IDX 55 57 69 58 88 59 53 60 54 61 68 63 89 64 56 65 40 66 41 67
REMARK SMILES IDX 49 68 42 69 43 70 47 71 50 72 44 73 45 74 48 75 46 76 72 77
REMARK SMILES IDX 73 78 81 79 74 80 75 81 79 82 82 83 76 84 77 85 80 86 78 87
REMARK SMILES IDX 57 88 58 89 66 90 59 91 60 92 64 93 67 94 61 95 62 96 65 97
REMARK SMILES IDX 63 98
REMARK H PARENT 23 6 6 13 28 32 87 51 55 62
REMARK Flexibility Score: inf
ROOT
ATOM      1  C   UNL A   1      32.278  28.320  23.838  1.00  0.00     0.023 C 
ENDROOT
BRANCH   1   2
ATOM      2  C   UNL A   1      33.584  27.703  23.355  1.00  0.00     0.116 C 
BRANCH   2   3
ATOM      3  N   UNL A   1      33.358  26.931  22.151  1.00  0.00    -0.354 N 
ATOM      4  C   UNL A   1      33.213  25.584  22.003  1.00  0.00     0.242 C 
ATOM      5  O   UNL A   1      33.175  25.135  20.853  1.00  0.00    -0.273 OA
ATOM      6  H   UNL A   1      33.301  27.454  21.318  1.00  0.00     0.163 HD
BRANCH   4   7
ATOM      7  C   UNL A   1      33.126  24.641  23.232  1.00  0.00     0.173 C 
BRANCH   7   8
ATOM      8  C   UNL A   1      31.715  24.769  23.899  1.00  0.00     0.018 C 
ATOM      9  C   UNL A   1      30.687  23.835  23.251  1.00  0.00     0.010 C 
BRANCH   8  10
ATOM     10  C   UNL A   1      31.832  24.542  25.431  1.00  0.00     0.002 C 
ATOM     11  C   UNL A   1      33.001  25.248  26.104  1.00  0.00     0.004 C 
ENDBRANCH   8  10
ENDBRANCH   7   8
BRANCH   7  12
ATOM     12  N   UNL A   1      33.496  23.235  22.930  1.00  0.00    -0.358 N 
ATOM     13  H   UNL A   1      33.321  22.910  22.017  1.00  0.00     0.162 HD
BRANCH  12  14
ATOM     14  C   UNL A   1      34.064  22.345  23.820  1.00  0.00     0.138 A 
ATOM     15  N   UNL A   1      33.373  21.191  23.877  1.00  0.00    -0.207 NA
ATOM     16  C   UNL A   1      35.279  22.513  24.501  1.00  0.00     0.043 A 
ATOM     17  C   UNL A   1      33.936  20.138  24.511  1.00  0.00     0.237 A 
ATOM     18  C   UNL A   1      35.811  21.347  25.067  1.00  0.00     0.076 A 
ATOM     19  C   UNL A   1      36.006  23.725  24.631  1.00  0.00     0.014 A 
ATOM     20  N   UNL A   1      35.166  20.179  25.065  1.00  0.00    -0.224 NA
ATOM     21  C   UNL A   1      37.081  21.388  25.627  1.00  0.00     0.029 A 
ATOM     22  C   UNL A   1      37.279  23.744  25.197  1.00  0.00     0.001 A 
ATOM     23  C   UNL A   1      37.828  22.566  25.678  1.00  0.00     0.002 A 
BRANCH  17  24
ATOM     24  C   UNL A   1      33.185  18.802  24.494  1.00  0.00     0.451 C 
ATOM     25  F   UNL A   1      33.810  17.837  23.757  1.00  0.00    -0.163 F 
ATOM     26  F   UNL A   1      33.036  18.272  25.747  1.00  0.00    -0.163 F 
ATOM     27  F   UNL A   1      31.916  18.883  23.988  1.00  0.00    -0.163 F 
ENDBRANCH  17  24
ENDBRANCH  12  14
ENDBRANCH   7  12
ENDBRANCH   4   7
ENDBRANCH   2   3
ENDBRANCH   1   2
BRANCH   1  28
ATOM     28  C   UNL A   1      32.294  28.677  25.323  1.00  0.00     0.023 C 
BRANCH  28  29
ATOM     29  C   UNL A   1      33.474  29.540  25.747  1.00  0.00     0.116 C 
BRANCH  29  30
ATOM     30  N   UNL A   1      33.065  30.868  26.176  1.00  0.00    -0.352 N 
ATOM     31  C   UNL A   1      33.572  31.624  27.201  1.00  0.00     0.251 C 
ATOM     32  H   UNL A   1      32.330  31.277  25.665  1.00  0.00     0.163 HD
ATOM     33  O   UNL A   1      32.997  32.644  27.572  1.00  0.00    -0.269 OA
BRANCH  31  34
ATOM     34  C   UNL A   1      34.809  31.183  27.871  1.00  0.00     0.039 A 
ATOM     35  C   UNL A   1      35.892  32.060  27.943  1.00  0.00     0.014 A 
ATOM     36  C   UNL A   1      34.888  29.908  28.440  1.00  0.00     0.014 A 
ATOM     37  C   UNL A   1      37.048  31.666  28.616  1.00  0.00     0.010 A 
ATOM     38  C   UNL A   1      36.002  29.556  29.191  1.00  0.00     0.010 A 
ATOM     39  C   UNL A   1      37.105  30.418  29.259  1.00  0.00    -0.014 A 
BRANCH  39  40
ATOM     40  C   UNL A   1      38.338  29.973  29.953  1.00  0.00     0.031 A 
ATOM     41  C   UNL A   1      38.628  30.466  31.345  1.00  0.00     0.074 A 
ATOM     42  C   UNL A   1      39.209  29.161  29.325  1.00  0.00     0.049 A 
ATOM     43  N   UNL A   1      39.653  30.210  32.120  1.00  0.00    -0.248 NA
ATOM     44  C   UNL A   1      37.654  31.398  31.934  1.00  0.00     0.031 C 
ATOM     45  C   UNL A   1      39.061  28.657  27.958  1.00  0.00     0.029 A 
ATOM     46  N   UNL A   1      40.391  28.616  29.755  1.00  0.00    -0.354 N 
ATOM     47  C   UNL A   1      39.452  30.962  33.270  1.00  0.00     0.074 A 
ATOM     48  C   UNL A   1      38.249  31.737  33.066  1.00  0.00     0.031 C 
ATOM     49  C   UNL A   1      40.090  27.840  27.679  1.00  0.00     0.029 A 
ATOM     50  C   UNL A   1      40.987  27.795  28.829  1.00  0.00     0.049 A 
ATOM     51  H   UNL A   1      40.776  28.796  30.644  1.00  0.00     0.167 HD
ATOM     52  C   UNL A   1      40.189  30.984  34.406  1.00  0.00     0.037 A 
ATOM     53  C   UNL A   1      42.126  27.082  28.908  1.00  0.00     0.037 A 
ATOM     54  C   UNL A   1      41.369  30.187  34.612  1.00  0.00     0.049 A 
ATOM     55  C   UNL A   1      42.927  27.122  30.183  1.00  0.00     0.074 A 
ATOM     56  C   UNL A   1      42.153  30.084  35.746  1.00  0.00     0.029 A 
ATOM     57  N   UNL A   1      41.938  29.359  33.654  1.00  0.00    -0.354 N 
ATOM     58  N   UNL A   1      42.688  27.774  31.295  1.00  0.00    -0.248 NA
ATOM     59  C   UNL A   1      44.152  26.311  30.216  1.00  0.00     0.031 C 
ATOM     60  C   UNL A   1      43.231  29.241  35.456  1.00  0.00     0.029 A 
ATOM     61  C   UNL A   1      43.078  28.761  34.165  1.00  0.00     0.049 A 
ATOM     62  H   UNL A   1      41.583  29.218  32.746  1.00  0.00     0.167 HD
ATOM     63  C   UNL A   1      43.703  27.418  32.173  1.00  0.00     0.074 A 
ATOM     64  C   UNL A   1      44.556  26.485  31.465  1.00  0.00     0.031 C 
ATOM     65  C   UNL A   1      43.907  27.821  33.452  1.00  0.00     0.037 A 
BRANCH  52  66
ATOM     66  C   UNL A   1      39.740  31.906  35.505  1.00  0.00     0.064 A 
ATOM     67  C   UNL A   1      40.289  33.187  35.672  1.00  0.00     0.173 A 
ATOM     68  C   UNL A   1      38.738  31.504  36.402  1.00  0.00     0.173 A 
ATOM     69  F   UNL A   1      41.258  33.620  34.850  1.00  0.00    -0.203 F 
ATOM     70  C   UNL A   1      39.882  34.013  36.718  1.00  0.00     0.198 A 
ATOM     71  C   UNL A   1      38.307  32.347  37.423  1.00  0.00     0.198 A 
ATOM     72  F   UNL A   1      38.174  30.292  36.289  1.00  0.00    -0.203 F 
ATOM     73  F   UNL A   1      40.470  35.204  36.895  1.00  0.00    -0.200 F 
ATOM     74  C   UNL A   1      38.888  33.595  37.588  1.00  0.00     0.200 A 
ATOM     75  F   UNL A   1      37.335  31.947  38.254  1.00  0.00    -0.200 F 
ATOM     76  F   UNL A   1      38.497  34.390  38.592  1.00  0.00    -0.200 F 
ENDBRANCH  52  66
BRANCH  53  77
ATOM     77  C   UNL A   1      42.550  26.227  27.768  1.00  0.00     0.064 A 
ATOM     78  C   UNL A   1      43.497  26.685  26.840  1.00  0.00     0.173 A 
ATOM     79  C   UNL A   1      42.018  24.944  27.576  1.00  0.00     0.173 A 
ATOM     80  F   UNL A   1      44.022  27.912  26.970  1.00  0.00    -0.203 F 
ATOM     81  C   UNL A   1      43.873  25.904  25.749  1.00  0.00     0.198 A 
ATOM     82  C   UNL A   1      42.418  24.152  26.502  1.00  0.00     0.198 A 
ATOM     83  F   UNL A   1      41.115  24.455  28.439  1.00  0.00    -0.203 F 
ATOM     84  F   UNL A   1      44.740  26.389  24.849  1.00  0.00    -0.200 F 
ATOM     85  C   UNL A   1      43.338  24.637  25.584  1.00  0.00     0.200 A 
ATOM     86  F   UNL A   1      41.911  22.921  26.354  1.00  0.00    -0.200 F 
ATOM     87  F   UNL A   1      43.702  23.885  24.536  1.00  0.00    -0.200 F 
ENDBRANCH  53  77
BRANCH  65  88
ATOM     88  C   UNL A   1      45.059  27.203  34.193  1.00  0.00     0.064 A 
ATOM     89  C   UNL A   1      44.927  26.006  34.914  1.00  0.00     0.173 A 
ATOM     90  C   UNL A   1      46.325  27.810  34.158  1.00  0.00     0.173 A 
ATOM     91  F   UNL A   1      43.738  25.390  34.990  1.00  0.00    -0.203 F 
ATOM     92  C   UNL A   1      46.008  25.464  35.605  1.00  0.00     0.198 A 
ATOM     93  C   UNL A   1      47.412  27.243  34.816  1.00  0.00     0.198 A 
ATOM     94  F   UNL A   1      46.511  28.950  33.475  1.00  0.00    -0.203 F 
ATOM     95  F   UNL A   1      45.843  24.355  36.340  1.00  0.00    -0.200 F 
ATOM     96  C   UNL A   1      47.251  26.078  35.549  1.00  0.00     0.200 A 
ATOM     97  F   UNL A   1      48.616  27.830  34.747  1.00  0.00    -0.200 F 
ATOM     98  F   UNL A   1      48.291  25.552  36.212  1.00  0.00    -0.200 F 
ENDBRANCH  65  88
ENDBRANCH  39  40
ENDBRANCH  31  34
ENDBRANCH  29  30
ENDBRANCH  28  29
ENDBRANCH   1  28
TORSDOF 16
ENDMDL
MODEL 3
REMARK VINA RESULT:     -11.6      1.780      2.695
REMARK SMILES CC[C@H](C)[C@@H](Nc1nc(C(F)(F)F)nc2ccccc12)C(=O)NCCCCNC(=O)c1ccc(-c2c3nc(c(-c4c(F)c(F)c(F)c(F)c4F)c4ccc([nH]4)c(-c4c(F)c(F)c(F)c(F)c4F)c4nc(c(-c5c(F)c(F)c(F)c(F)c5F)c5ccc2[nH]5)C=C4)C=C3)cc1
REMARK SMILES IDX 25 1 24 2 23 3 21 4 22 5 5 7 3 8 4 9 2 10 1 11 6 12 7 14
REMARK SMILES IDX 8 15 20 16 9 17 15 18 19 19 14 20 16 21 18 22 17 23 10 24
REMARK SMILES IDX 11 25 12 26 13 27 26 28 27 29 28 30 29 31 30 33 31 34 32 35
REMARK SMILES IDX 93 36 33 37 92 38 34 39 35 40 36 41 86 42 37 43 91 44 85 45
REMARK SMILES IDX 87 46 38 47 90 48 84 49 83 50 39 52 71 53 51 54 70 55 52 56
REMARK SMILES IDX 55 57 69 58 88 59 53 60 54 61 68 63 89 64 56 65 40 66 41 67
REMARK SMILES IDX 49 68 42 69 43 70 47 71 50 72 44 73 45 74 48 75 46 76 72 77
REMARK SMILES IDX 73 78 81 79 74 80 75 81 79 82 82 83 76 84 77 85 80 86 78 87
REMARK SMILES IDX 57 88 58 89 66 90 59 91 60 92 64 93 67 94 61 95 62 96 65 97
REMARK SMILES IDX 63 98
REMARK H PARENT 23 6 6 13 28 32 87 51 55 62
REMARK Flexibility Score: inf
ROOT
ATOM      1  C   UNL A   1      32.242  28.917  23.606  1.00  0.00     0.023 C 
ENDROOT
BRANCH   1   2
ATOM      2  C   UNL A   1      33.510  28.152  23.246  1.00  0.00     0.116 C 
BRANCH   2   3
ATOM      3  N   UNL A   1      33.321  27.426  22.007  1.00  0.00    -0.354 N 
ATOM      4  C   UNL A   1      33.175  26.086  21.806  1.00  0.00     0.242 C 
ATOM      5  O   UNL A   1      33.175  25.680  20.639  1.00  0.00    -0.273 OA
ATOM      6  H   UNL A   1      33.296  27.979  21.193  1.00  0.00     0.163 HD
BRANCH   4   7
ATOM      7  C   UNL A   1      33.041  25.100  22.995  1.00  0.00     0.173 C 
BRANCH   7   8
ATOM      8  C   UNL A   1      31.685  25.349  23.740  1.00  0.00     0.018 C 
ATOM      9  C   UNL A   1      30.588  24.387  23.270  1.00  0.00     0.010 C 
BRANCH   8  10
ATOM     10  C   UNL A   1      31.906  25.286  25.275  1.00  0.00     0.002 C 
ATOM     11  C   UNL A   1      33.326  25.576  25.739  1.00  0.00     0.004 C 
ENDBRANCH   8  10
ENDBRANCH   7   8
BRANCH   7  12
ATOM     12  N   UNL A   1      33.237  23.678  22.614  1.00  0.00    -0.358 N 
ATOM     13  H   UNL A   1      32.831  23.378  21.769  1.00  0.00     0.162 HD
BRANCH  12  14
ATOM     14  C   UNL A   1      33.939  22.740  23.345  1.00  0.00     0.138 A 
ATOM     15  N   UNL A   1      35.057  23.265  23.882  1.00  0.00    -0.207 NA
ATOM     16  C   UNL A   1      33.521  21.433  23.640  1.00  0.00     0.043 A 
ATOM     17  C   UNL A   1      35.716  22.547  24.820  1.00  0.00     0.237 A 
ATOM     18  C   UNL A   1      34.227  20.801  24.671  1.00  0.00     0.076 A 
ATOM     19  C   UNL A   1      32.454  20.736  23.018  1.00  0.00     0.014 A 
ATOM     20  N   UNL A   1      35.294  21.344  25.262  1.00  0.00    -0.224 NA
ATOM     21  C   UNL A   1      33.786  19.567  25.132  1.00  0.00     0.029 A 
ATOM     22  C   UNL A   1      32.026  19.499  23.496  1.00  0.00     0.001 A 
ATOM     23  C   UNL A   1      32.682  18.921  24.572  1.00  0.00     0.002 A 
BRANCH  17  24
ATOM     24  C   UNL A   1      36.935  23.188  25.492  1.00  0.00     0.451 C 
ATOM     25  F   UNL A   1      37.808  22.277  26.015  1.00  0.00    -0.163 F 
ATOM     26  F   UNL A   1      37.670  23.947  24.622  1.00  0.00    -0.163 F 
ATOM     27  F   UNL A   1      36.623  24.029  26.525  1.00  0.00    -0.163 F 
ENDBRANCH  17  24
ENDBRANCH  12  14
ENDBRANCH   7  12
ENDBRANCH   4   7
ENDBRANCH   2   3
ENDBRANCH   1   2
BRANCH   1  28
ATOM     28  C   UNL A   1      32.016  29.031  25.112  1.00  0.00     0.023 C 
BRANCH  28  29
ATOM     29  C   UNL A   1      33.143  29.726  25.863  1.00  0.00     0.116 C 
BRANCH  29  30
ATOM     30  N   UNL A   1      32.808  31.093  26.229  1.00  0.00    -0.352 N 
ATOM     31  C   UNL A   1      33.375  31.876  27.200  1.00  0.00     0.251 C 
ATOM     32  H   UNL A   1      32.080  31.509  25.713  1.00  0.00     0.163 HD
ATOM     33  O   UNL A   1      32.858  32.941  27.528  1.00  0.00    -0.269 OA
BRANCH  31  34
ATOM     34  C   UNL A   1      34.606  31.412  27.866  1.00  0.00     0.039 A 
ATOM     35  C   UNL A   1      35.685  32.289  27.986  1.00  0.00     0.014 A 
ATOM     36  C   UNL A   1      34.684  30.115  28.382  1.00  0.00     0.014 A 
ATOM     37  C   UNL A   1      36.835  31.872  28.655  1.00  0.00     0.010 A 
ATOM     38  C   UNL A   1      35.790  29.737  29.130  1.00  0.00     0.010 A 
ATOM     39  C   UNL A   1      36.890  30.599  29.247  1.00  0.00    -0.014 A 
BRANCH  39  40
ATOM     40  C   UNL A   1      38.116  30.130  29.936  1.00  0.00     0.031 A 
ATOM     41  C   UNL A   1      38.410  30.599  31.335  1.00  0.00     0.074 A 
ATOM     42  C   UNL A   1      38.978  29.317  29.297  1.00  0.00     0.049 A 
ATOM     43  N   UNL A   1      39.430  30.320  32.108  1.00  0.00    -0.248 NA
ATOM     44  C   UNL A   1      37.445  31.533  31.937  1.00  0.00     0.031 C 
ATOM     45  C   UNL A   1      38.827  28.834  27.923  1.00  0.00     0.029 A 
ATOM     46  N   UNL A   1      40.154  28.753  29.721  1.00  0.00    -0.354 N 
ATOM     47  C   UNL A   1      39.236  31.057  33.269  1.00  0.00     0.074 A 
ATOM     48  C   UNL A   1      38.043  31.848  33.075  1.00  0.00     0.031 C 
ATOM     49  C   UNL A   1      39.847  28.011  27.633  1.00  0.00     0.029 A 
ATOM     50  C   UNL A   1      40.742  27.939  28.784  1.00  0.00     0.049 A 
ATOM     51  H   UNL A   1      40.539  28.915  30.613  1.00  0.00     0.167 HD
ATOM     52  C   UNL A   1      39.971  31.054  34.406  1.00  0.00     0.037 A 
ATOM     53  C   UNL A   1      41.873  27.212  28.854  1.00  0.00     0.037 A 
ATOM     54  C   UNL A   1      41.142  30.241  34.602  1.00  0.00     0.049 A 
ATOM     55  C   UNL A   1      42.672  27.223  30.130  1.00  0.00     0.074 A 
ATOM     56  C   UNL A   1      41.923  30.112  35.736  1.00  0.00     0.029 A 
ATOM     57  N   UNL A   1      41.703  29.421  33.633  1.00  0.00    -0.354 N 
ATOM     58  N   UNL A   1      42.438  27.862  31.251  1.00  0.00    -0.248 NA
ATOM     59  C   UNL A   1      43.888  26.399  30.153  1.00  0.00     0.031 C 
ATOM     60  C   UNL A   1      42.992  29.262  35.434  1.00  0.00     0.029 A 
ATOM     61  C   UNL A   1      42.836  28.802  34.137  1.00  0.00     0.049 A 
ATOM     62  H   UNL A   1      41.348  29.297  32.722  1.00  0.00     0.167 HD
ATOM     63  C   UNL A   1      43.448  27.482  32.126  1.00  0.00     0.074 A 
ATOM     64  C   UNL A   1      44.292  26.550  31.405  1.00  0.00     0.031 C 
ATOM     65  C   UNL A   1      43.655  27.864  33.411  1.00  0.00     0.037 A 
BRANCH  52  66
ATOM     66  C   UNL A   1      39.531  31.965  35.518  1.00  0.00     0.064 A 
ATOM     67  C   UNL A   1      40.025  33.273  35.648  1.00  0.00     0.173 A 
ATOM     68  C   UNL A   1      38.593  31.525  36.465  1.00  0.00     0.173 A 
ATOM     69  F   UNL A   1      40.932  33.742  34.778  1.00  0.00    -0.203 F 
ATOM     70  C   UNL A   1      39.630  34.089  36.705  1.00  0.00     0.198 A 
ATOM     71  C   UNL A   1      38.171  32.357  37.498  1.00  0.00     0.198 A 
ATOM     72  F   UNL A   1      38.084  30.287  36.389  1.00  0.00    -0.203 F 
ATOM     73  F   UNL A   1      40.167  35.308  36.845  1.00  0.00    -0.200 F 
ATOM     74  C   UNL A   1      38.699  33.633  37.625  1.00  0.00     0.200 A 
ATOM     75  F   UNL A   1      37.259  31.920  38.378  1.00  0.00    -0.200 F 
ATOM     76  F   UNL A   1      38.317  34.419  38.640  1.00  0.00    -0.200 F 
ENDBRANCH  52  66
BRANCH  53  77
ATOM     77  C   UNL A   1      42.289  26.368  27.702  1.00  0.00     0.064 A 
ATOM     78  C   UNL A   1      41.720  25.103  27.497  1.00  0.00     0.173 A 
ATOM     79  C   UNL A   1      43.263  26.799  26.791  1.00  0.00     0.173 A 
ATOM     80  F   UNL A   1      40.797  24.637  28.352  1.00  0.00    -0.203 F 
ATOM     81  C   UNL A   1      42.129  24.291  26.441  1.00  0.00     0.198 A 
ATOM     82  C   UNL A   1      43.649  26.000  25.718  1.00  0.00     0.198 A 
ATOM     83  F   UNL A   1      43.833  28.004  26.937  1.00  0.00    -0.203 F 
ATOM     84  F   UNL A   1      41.605  23.066  26.301  1.00  0.00    -0.200 F 
ATOM     85  C   UNL A   1      43.089  24.742  25.550  1.00  0.00     0.200 A 
ATOM     86  F   UNL A   1      44.566  26.445  24.848  1.00  0.00    -0.200 F 
ATOM     87  F   UNL A   1      43.480  23.963  24.532  1.00  0.00    -0.200 F 
ENDBRANCH  53  77
BRANCH  65  88
ATOM     88  C   UNL A   1      44.799  27.222  34.145  1.00  0.00     0.064 A 
ATOM     89  C   UNL A   1      46.078  27.798  34.185  1.00  0.00     0.173 A 
ATOM     90  C   UNL A   1      44.600  26.019  34.842  1.00  0.00     0.173 A 
ATOM     91  F   UNL A   1      46.326  28.941  33.528  1.00  0.00    -0.203 F 
ATOM     92  C   UNL A   1      47.123  27.172  34.860  1.00  0.00     0.198 A 
ATOM     93  C   UNL A   1      45.637  25.418  35.548  1.00  0.00     0.198 A 
ATOM     94  F   UNL A   1      43.394  25.430  34.846  1.00  0.00    -0.203 F 
ATOM     95  F   UNL A   1      48.352  27.707  34.830  1.00  0.00    -0.200 F 
ATOM     96  C   UNL A   1      46.901  25.987  35.547  1.00  0.00     0.200 A 
ATOM     97  F   UNL A   1      45.415  24.283  36.226  1.00  0.00    -0.200 F 
ATOM     98  F   UNL A   1      47.907  25.389  36.199  1.00  0.00    -0.200 F 
ENDBRANCH  65  88
ENDBRANCH  39  40
ENDBRANCH  31  34
ENDBRANCH  29  30
ENDBRANCH  28  29
ENDBRANCH   1  28
TORSDOF 16
ENDMDL
