MODEL 1
REMARK VINA RESULT:     -14.4      0.000      0.000
REMARK SMILES Cc1ccc(C(=O)NCCCCNC(=O)c2ccc(-c3c4nc(c(-c5c(F)c(F)c(F)c(F)c5F)c5ccc([nH]5)c(-c5c(F)c(F)c(F)c(F)c5F)c5nc(c(-c6c(F)c(F)c(F)c(F)c6F)c6ccc3[nH]6)C=C5)C=C4)cc2)c(NC(=O)C[C@@H]2SC(=O)N(c3cccc(C)c3C)C2=O)c1
REMARK SMILES IDX 9 1 8 2 6 3 7 4 5 6 1 7 2 8 3 9 99 10 4 11 79 12 80 13 81 14
REMARK SMILES IDX 82 16 83 17 84 18 85 19 97 20 86 21 88 22 98 23 87 24 89 25
REMARK SMILES IDX 90 26 95 27 91 28 93 29 96 30 92 31 94 32 10 33 11 34 12 35
REMARK SMILES IDX 13 36 14 37 15 39 16 40 17 41 78 42 18 43 77 44 19 45 20 46
REMARK SMILES IDX 21 47 71 48 22 49 76 50 70 51 72 52 23 53 75 54 69 55 68 56
REMARK SMILES IDX 24 58 56 59 36 60 55 61 37 62 40 63 54 64 73 65 38 66 39 67
REMARK SMILES IDX 53 69 74 70 41 71 25 72 26 73 34 74 27 75 28 76 32 77 35 78
REMARK SMILES IDX 29 79 30 80 33 81 31 82 57 83 58 84 66 85 59 86 60 87 64 88
REMARK SMILES IDX 67 89 61 90 62 91 65 92 63 93 42 94 43 95 51 96 44 97 45 98
REMARK SMILES IDX 49 99 52 100 46 101 47 102 50 103 48 104
REMARK H PARENT 8 5 80 15 13 38 72 57 40 68
REMARK Flexibility Score: inf
ROOT
ATOM      1  C   UNL A   1      32.913  27.245  25.486  1.00  0.00     0.116 C 
ENDROOT
BRANCH   1   2
ATOM      2  N   UNL A   1      33.650  27.486  24.264  1.00  0.00    -0.352 N 
ATOM      3  C   UNL A   1      33.186  28.241  23.233  1.00  0.00     0.253 C 
ATOM      4  O   UNL A   1      33.793  28.819  22.363  1.00  0.00    -0.269 OA
ATOM      5  H   UNL A   1      34.541  27.078  24.174  1.00  0.00     0.163 HD
BRANCH   3   6
ATOM      6  C   UNL A   1      31.910  28.777  23.160  1.00  0.00     0.063 A 
ATOM      7  C   UNL A   1      28.050  30.340  23.206  1.00  0.00     0.044 C 
ATOM      8  C   UNL A   1      29.378  29.648  23.259  1.00  0.00    -0.049 A 
ATOM      9  C   UNL A   1      30.294  30.146  24.194  1.00  0.00     0.004 A 
ATOM     10  C   UNL A   1      29.724  28.548  22.411  1.00  0.00     0.030 A 
ATOM     11  C   UNL A   1      31.594  29.736  24.115  1.00  0.00     0.016 A 
ATOM     12  C   UNL A   1      31.008  27.998  22.466  1.00  0.00     0.054 A 
BRANCH  12  13
ATOM     13  N   UNL A   1      31.388  26.766  21.827  1.00  0.00    -0.325 N 
ATOM     14  C   UNL A   1      31.821  25.497  22.184  1.00  0.00     0.226 C 
ATOM     15  H   UNL A   1      31.321  26.847  20.848  1.00  0.00     0.169 HD
ATOM     16  O   UNL A   1      32.477  25.001  21.230  1.00  0.00    -0.275 OA
BRANCH  14  17
ATOM     17  C   UNL A   1      31.549  24.392  23.395  1.00  0.00     0.125 C 
BRANCH  17  18
ATOM     18  C   UNL A   1      31.459  22.836  23.878  1.00  0.00     0.156 C 
ATOM     19  S   UNL A   1      30.914  22.796  25.664  1.00  0.00    -0.050 SA
ATOM     20  C   UNL A   1      32.544  21.696  23.995  1.00  0.00     0.248 C 
ATOM     21  C   UNL A   1      32.498  22.212  26.214  1.00  0.00     0.293 C 
ATOM     22  N   UNL A   1      33.282  21.879  25.154  1.00  0.00    -0.240 N 
ATOM     23  O   UNL A   1      32.680  20.816  23.146  1.00  0.00    -0.273 OA
ATOM     24  O   UNL A   1      32.749  22.090  27.405  1.00  0.00    -0.261 OA
BRANCH  22  25
ATOM     25  C   UNL A   1      34.706  21.703  25.247  1.00  0.00     0.056 A 
ATOM     26  C   UNL A   1      35.292  20.459  24.969  1.00  0.00     0.027 A 
ATOM     27  C   UNL A   1      35.573  22.821  25.482  1.00  0.00    -0.024 A 
ATOM     28  C   UNL A   1      36.682  20.290  24.999  1.00  0.00     0.002 A 
ATOM     29  C   UNL A   1      36.989  22.650  25.434  1.00  0.00    -0.046 A 
ATOM     30  C   UNL A   1      35.043  24.235  25.583  1.00  0.00     0.047 C 
ATOM     31  C   UNL A   1      37.524  21.374  25.231  1.00  0.00     0.004 A 
ATOM     32  C   UNL A   1      37.947  23.816  25.535  1.00  0.00     0.044 C 
ENDBRANCH  22  25
ENDBRANCH  17  18
ENDBRANCH  14  17
ENDBRANCH  12  13
ENDBRANCH   3   6
ENDBRANCH   1   2
BRANCH   1  33
ATOM     33  C   UNL A   1      33.685  27.689  26.715  1.00  0.00     0.023 C 
BRANCH  33  34
ATOM     34  C   UNL A   1      34.398  29.029  26.576  1.00  0.00     0.023 C 
BRANCH  34  35
ATOM     35  C   UNL A   1      34.052  30.066  27.629  1.00  0.00     0.116 C 
BRANCH  35  36
ATOM     36  N   UNL A   1      34.997  31.166  27.677  1.00  0.00    -0.352 N 
ATOM     37  C   UNL A   1      36.294  31.233  28.130  1.00  0.00     0.251 C 
ATOM     38  H   UNL A   1      34.648  32.014  27.320  1.00  0.00     0.163 HD
ATOM     39  O   UNL A   1      36.803  32.344  28.267  1.00  0.00    -0.269 OA
BRANCH  37  40
ATOM     40  C   UNL A   1      37.141  30.021  28.263  1.00  0.00     0.039 A 
ATOM     41  C   UNL A   1      37.080  29.331  29.489  1.00  0.00     0.014 A 
ATOM     42  C   UNL A   1      38.152  29.720  27.362  1.00  0.00     0.014 A 
ATOM     43  C   UNL A   1      38.157  28.558  29.904  1.00  0.00     0.010 A 
ATOM     44  C   UNL A   1      39.265  29.065  27.807  1.00  0.00     0.010 A 
ATOM     45  C   UNL A   1      39.285  28.554  29.102  1.00  0.00    -0.014 A 
BRANCH  45  46
ATOM     46  C   UNL A   1      40.569  27.997  29.447  1.00  0.00     0.031 A 
ATOM     47  C   UNL A   1      40.854  26.636  28.977  1.00  0.00     0.074 A 
ATOM     48  C   UNL A   1      41.510  28.889  29.823  1.00  0.00     0.049 A 
ATOM     49  N   UNL A   1      41.923  25.986  29.257  1.00  0.00    -0.248 NA
ATOM     50  C   UNL A   1      39.913  25.867  28.158  1.00  0.00     0.031 C 
ATOM     51  C   UNL A   1      42.960  28.783  29.742  1.00  0.00     0.029 A 
ATOM     52  N   UNL A   1      41.296  30.083  30.538  1.00  0.00    -0.354 N 
ATOM     53  C   UNL A   1      41.974  24.909  28.403  1.00  0.00     0.074 A 
ATOM     54  C   UNL A   1      40.644  24.786  27.872  1.00  0.00     0.031 C 
ATOM     55  C   UNL A   1      43.505  29.636  30.630  1.00  0.00     0.029 A 
ATOM     56  C   UNL A   1      42.404  30.174  31.414  1.00  0.00     0.049 A 
ATOM     57  H   UNL A   1      40.544  30.712  30.449  1.00  0.00     0.167 HD
ATOM     58  C   UNL A   1      43.199  24.378  28.136  1.00  0.00     0.037 A 
ATOM     59  C   UNL A   1      42.228  29.943  32.753  1.00  0.00     0.037 A 
ATOM     60  C   UNL A   1      44.182  24.928  29.072  1.00  0.00     0.049 A 
ATOM     61  C   UNL A   1      42.999  28.732  33.229  1.00  0.00     0.074 A 
ATOM     62  C   UNL A   1      45.152  25.908  28.949  1.00  0.00     0.029 A 
ATOM     63  N   UNL A   1      43.988  24.728  30.437  1.00  0.00    -0.354 N 
ATOM     64  N   UNL A   1      43.293  27.708  32.472  1.00  0.00    -0.248 NA
ATOM     65  C   UNL A   1      43.544  28.613  34.576  1.00  0.00     0.031 C 
ATOM     66  C   UNL A   1      45.438  26.390  30.259  1.00  0.00     0.029 A 
ATOM     67  C   UNL A   1      44.681  25.670  31.171  1.00  0.00     0.049 A 
ATOM     68  H   UNL A   1      43.434  24.013  30.826  1.00  0.00     0.167 HD
ATOM     69  C   UNL A   1      44.080  26.836  33.175  1.00  0.00     0.074 A 
ATOM     70  C   UNL A   1      44.200  27.443  34.490  1.00  0.00     0.031 C 
ATOM     71  C   UNL A   1      44.594  25.695  32.626  1.00  0.00     0.037 A 
BRANCH  58  72
ATOM     72  C   UNL A   1      43.576  23.554  26.922  1.00  0.00     0.064 A 
ATOM     73  C   UNL A   1      43.156  22.206  26.840  1.00  0.00     0.173 A 
ATOM     74  C   UNL A   1      44.431  23.960  25.874  1.00  0.00     0.173 A 
ATOM     75  F   UNL A   1      42.339  21.677  27.763  1.00  0.00    -0.203 F 
ATOM     76  C   UNL A   1      43.574  21.344  25.819  1.00  0.00     0.198 A 
ATOM     77  C   UNL A   1      44.814  23.109  24.832  1.00  0.00     0.198 A 
ATOM     78  F   UNL A   1      44.981  25.175  25.825  1.00  0.00    -0.203 F 
ATOM     79  F   UNL A   1      43.184  20.062  25.830  1.00  0.00    -0.200 F 
ATOM     80  C   UNL A   1      44.398  21.798  24.810  1.00  0.00     0.200 A 
ATOM     81  F   UNL A   1      45.615  23.572  23.860  1.00  0.00    -0.200 F 
ATOM     82  F   UNL A   1      44.799  20.975  23.832  1.00  0.00    -0.200 F 
ENDBRANCH  58  72
BRANCH  59  83
ATOM     83  C   UNL A   1      40.863  30.353  33.208  1.00  0.00     0.064 A 
ATOM     84  C   UNL A   1      40.558  31.730  33.154  1.00  0.00     0.173 A 
ATOM     85  C   UNL A   1      39.788  29.456  33.201  1.00  0.00     0.173 A 
ATOM     86  F   UNL A   1      41.550  32.637  33.189  1.00  0.00    -0.203 F 
ATOM     87  C   UNL A   1      39.264  32.176  32.893  1.00  0.00     0.198 A 
ATOM     88  C   UNL A   1      38.484  29.912  32.982  1.00  0.00     0.198 A 
ATOM     89  F   UNL A   1      40.002  28.135  33.275  1.00  0.00    -0.203 F 
ATOM     90  F   UNL A   1      39.038  33.479  32.667  1.00  0.00    -0.200 F 
ATOM     91  C   UNL A   1      38.233  31.261  32.768  1.00  0.00     0.200 A 
ATOM     92  F   UNL A   1      37.478  29.031  32.872  1.00  0.00    -0.200 F 
ATOM     93  F   UNL A   1      37.011  31.672  32.404  1.00  0.00    -0.200 F 
ENDBRANCH  59  83
BRANCH  71  94
ATOM     94  C   UNL A   1      45.162  24.533  33.410  1.00  0.00     0.064 A 
ATOM     95  C   UNL A   1      44.437  23.369  33.716  1.00  0.00     0.173 A 
ATOM     96  C   UNL A   1      46.538  24.494  33.748  1.00  0.00     0.173 A 
ATOM     97  F   UNL A   1      43.168  23.209  33.318  1.00  0.00    -0.203 F 
ATOM     98  C   UNL A   1      45.015  22.293  34.392  1.00  0.00     0.198 A 
ATOM     99  C   UNL A   1      47.128  23.388  34.355  1.00  0.00     0.198 A 
ATOM    100  F   UNL A   1      47.363  25.515  33.469  1.00  0.00    -0.203 F 
ATOM    101  F   UNL A   1      44.260  21.234  34.716  1.00  0.00    -0.200 F 
ATOM    102  C   UNL A   1      46.360  22.297  34.702  1.00  0.00     0.200 A 
ATOM    103  F   UNL A   1      48.449  23.379  34.583  1.00  0.00    -0.200 F 
ATOM    104  F   UNL A   1      46.920  21.244  35.310  1.00  0.00    -0.200 F 
ENDBRANCH  71  94
ENDBRANCH  45  46
ENDBRANCH  37  40
ENDBRANCH  35  36
ENDBRANCH  34  35
ENDBRANCH  33  34
ENDBRANCH   1  33
TORSDOF 15
ENDMDL
MODEL 2
REMARK VINA RESULT:     -13.9      3.602      9.942
REMARK SMILES Cc1ccc(C(=O)NCCCCNC(=O)c2ccc(-c3c4nc(c(-c5c(F)c(F)c(F)c(F)c5F)c5ccc([nH]5)c(-c5c(F)c(F)c(F)c(F)c5F)c5nc(c(-c6c(F)c(F)c(F)c(F)c6F)c6ccc3[nH]6)C=C5)C=C4)cc2)c(NC(=O)C[C@@H]2SC(=O)N(c3cccc(C)c3C)C2=O)c1
REMARK SMILES IDX 9 1 8 2 6 3 7 4 5 6 1 7 2 8 3 9 99 10 4 11 79 12 80 13 81 14
REMARK SMILES IDX 82 16 83 17 84 18 85 19 97 20 86 21 88 22 98 23 87 24 89 25
REMARK SMILES IDX 90 26 95 27 91 28 93 29 96 30 92 31 94 32 10 33 11 34 12 35
REMARK SMILES IDX 13 36 14 37 15 39 16 40 17 41 78 42 18 43 77 44 19 45 20 46
REMARK SMILES IDX 21 47 71 48 22 49 76 50 70 51 72 52 23 53 75 54 69 55 68 56
REMARK SMILES IDX 24 58 56 59 36 60 55 61 37 62 40 63 54 64 73 65 38 66 39 67
REMARK SMILES IDX 53 69 74 70 41 71 25 72 26 73 34 74 27 75 28 76 32 77 35 78
REMARK SMILES IDX 29 79 30 80 33 81 31 82 57 83 58 84 66 85 59 86 60 87 64 88
REMARK SMILES IDX 67 89 61 90 62 91 65 92 63 93 42 94 43 95 51 96 44 97 45 98
REMARK SMILES IDX 49 99 52 100 46 101 47 102 50 103 48 104
REMARK H PARENT 8 5 80 15 13 38 72 57 40 68
REMARK Flexibility Score: inf
ROOT
ATOM      1  C   UNL A   1      35.246  21.466  26.419  1.00  0.00     0.116 C 
ENDROOT
BRANCH   1   2
ATOM      2  N   UNL A   1      34.127  22.380  26.504  1.00  0.00    -0.352 N 
ATOM      3  C   UNL A   1      32.934  22.181  25.883  1.00  0.00     0.253 C 
ATOM      4  O   UNL A   1      31.841  22.624  26.147  1.00  0.00    -0.269 OA
ATOM      5  H   UNL A   1      34.237  23.195  27.044  1.00  0.00     0.163 HD
BRANCH   3   6
ATOM      6  C   UNL A   1      32.669  21.149  24.996  1.00  0.00     0.063 A 
ATOM      7  C   UNL A   1      32.112  17.942  22.398  1.00  0.00     0.044 C 
ATOM      8  C   UNL A   1      32.453  19.119  23.261  1.00  0.00    -0.049 A 
ATOM      9  C   UNL A   1      32.783  18.830  24.591  1.00  0.00     0.004 A 
ATOM     10  C   UNL A   1      32.440  20.469  22.787  1.00  0.00     0.030 A 
ATOM     11  C   UNL A   1      32.849  19.861  25.484  1.00  0.00     0.016 A 
ATOM     12  C   UNL A   1      32.699  21.523  23.669  1.00  0.00     0.054 A 
BRANCH  12  13
ATOM     13  N   UNL A   1      32.928  22.883  23.258  1.00  0.00    -0.325 N 
ATOM     14  C   UNL A   1      32.191  24.013  22.936  1.00  0.00     0.226 C 
ATOM     15  H   UNL A   1      33.893  23.065  23.181  1.00  0.00     0.169 HD
ATOM     16  O   UNL A   1      32.872  24.748  22.174  1.00  0.00    -0.275 OA
BRANCH  14  17
ATOM     17  C   UNL A   1      30.786  24.755  23.426  1.00  0.00     0.125 C 
BRANCH  17  18
ATOM     18  C   UNL A   1      30.033  25.829  24.395  1.00  0.00     0.156 C 
ATOM     19  S   UNL A   1      29.517  27.301  23.368  1.00  0.00    -0.050 SA
ATOM     20  C   UNL A   1      30.521  26.649  25.652  1.00  0.00     0.248 C 
ATOM     21  C   UNL A   1      30.693  28.366  24.165  1.00  0.00     0.293 C 
ATOM     22  N   UNL A   1      31.261  27.742  25.231  1.00  0.00    -0.240 N 
ATOM     23  O   UNL A   1      30.268  26.310  26.808  1.00  0.00    -0.273 OA
ATOM     24  O   UNL A   1      30.862  29.517  23.787  1.00  0.00    -0.261 OA
BRANCH  22  25
ATOM     25  C   UNL A   1      32.470  28.197  25.863  1.00  0.00     0.056 A 
ATOM     26  C   UNL A   1      33.685  27.529  25.646  1.00  0.00     0.027 A 
ATOM     27  C   UNL A   1      32.497  29.423  26.606  1.00  0.00    -0.024 A 
ATOM     28  C   UNL A   1      34.880  27.998  26.208  1.00  0.00     0.002 A 
ATOM     29  C   UNL A   1      33.734  29.929  27.108  1.00  0.00    -0.046 A 
ATOM     30  C   UNL A   1      31.282  30.319  26.713  1.00  0.00     0.047 C 
ATOM     31  C   UNL A   1      34.905  29.185  26.934  1.00  0.00     0.004 A 
ATOM     32  C   UNL A   1      33.842  31.281  27.776  1.00  0.00     0.044 C 
ENDBRANCH  22  25
ENDBRANCH  17  18
ENDBRANCH  14  17
ENDBRANCH  12  13
ENDBRANCH   3   6
ENDBRANCH   1   2
BRANCH   1  33
ATOM     33  C   UNL A   1      36.058  21.673  25.154  1.00  0.00     0.023 C 
BRANCH  33  34
ATOM     34  C   UNL A   1      37.558  21.826  25.372  1.00  0.00     0.023 C 
BRANCH  34  35
ATOM     35  C   UNL A   1      37.989  23.096  26.082  1.00  0.00     0.116 C 
BRANCH  35  36
ATOM     36  N   UNL A   1      39.219  22.937  26.837  1.00  0.00    -0.352 N 
ATOM     37  C   UNL A   1      40.115  23.860  27.322  1.00  0.00     0.251 C 
ATOM     38  H   UNL A   1      39.451  22.001  27.038  1.00  0.00     0.163 HD
ATOM     39  O   UNL A   1      41.198  23.453  27.737  1.00  0.00    -0.269 OA
BRANCH  37  40
ATOM     40  C   UNL A   1      39.738  25.279  27.540  1.00  0.00     0.039 A 
ATOM     41  C   UNL A   1      40.230  26.219  26.613  1.00  0.00     0.014 A 
ATOM     42  C   UNL A   1      39.175  25.725  28.726  1.00  0.00     0.014 A 
ATOM     43  C   UNL A   1      40.392  27.546  26.990  1.00  0.00     0.010 A 
ATOM     44  C   UNL A   1      39.439  26.995  29.151  1.00  0.00     0.010 A 
ATOM     45  C   UNL A   1      40.113  27.873  28.306  1.00  0.00    -0.014 A 
BRANCH  45  46
ATOM     46  C   UNL A   1      40.410  29.127  28.950  1.00  0.00     0.031 A 
ATOM     47  C   UNL A   1      39.341  30.132  28.981  1.00  0.00     0.074 A 
ATOM     48  C   UNL A   1      41.477  29.120  29.778  1.00  0.00     0.049 A 
ATOM     49  N   UNL A   1      39.475  31.313  29.460  1.00  0.00    -0.248 NA
ATOM     50  C   UNL A   1      38.007  29.886  28.428  1.00  0.00     0.031 C 
ATOM     51  C   UNL A   1      41.756  29.975  30.923  1.00  0.00     0.029 A 
ATOM     52  N   UNL A   1      42.657  28.369  29.618  1.00  0.00    -0.354 N 
ATOM     53  C   UNL A   1      38.210  31.836  29.603  1.00  0.00     0.074 A 
ATOM     54  C   UNL A   1      37.364  30.995  28.801  1.00  0.00     0.031 C 
ATOM     55  C   UNL A   1      43.081  29.963  31.158  1.00  0.00     0.029 A 
ATOM     56  C   UNL A   1      43.689  29.236  30.054  1.00  0.00     0.049 A 
ATOM     57  H   UNL A   1      42.745  27.450  29.281  1.00  0.00     0.167 HD
ATOM     58  C   UNL A   1      38.038  32.815  30.532  1.00  0.00     0.037 A 
ATOM     59  C   UNL A   1      44.532  29.799  29.132  1.00  0.00     0.037 A 
ATOM     60  C   UNL A   1      39.347  33.290  30.987  1.00  0.00     0.049 A 
ATOM     61  C   UNL A   1      44.408  31.306  29.093  1.00  0.00     0.074 A 
ATOM     62  C   UNL A   1      40.090  33.052  32.130  1.00  0.00     0.029 A 
ATOM     63  N   UNL A   1      40.223  33.831  30.048  1.00  0.00    -0.354 N 
ATOM     64  N   UNL A   1      43.317  31.958  29.392  1.00  0.00    -0.248 NA
ATOM     65  C   UNL A   1      45.523  32.189  28.769  1.00  0.00     0.031 C 
ATOM     66  C   UNL A   1      41.452  33.327  31.818  1.00  0.00     0.029 A 
ATOM     67  C   UNL A   1      41.524  33.778  30.508  1.00  0.00     0.049 A 
ATOM     68  H   UNL A   1      39.953  34.200  29.175  1.00  0.00     0.167 HD
ATOM     69  C   UNL A   1      43.569  33.304  29.355  1.00  0.00     0.074 A 
ATOM     70  C   UNL A   1      44.961  33.396  28.950  1.00  0.00     0.031 C 
ATOM     71  C   UNL A   1      42.628  34.242  29.678  1.00  0.00     0.037 A 
BRANCH  58  72
ATOM     72  C   UNL A   1      36.735  33.198  31.204  1.00  0.00     0.064 A 
ATOM     73  C   UNL A   1      35.756  33.904  30.467  1.00  0.00     0.173 A 
ATOM     74  C   UNL A   1      36.420  33.023  32.569  1.00  0.00     0.173 A 
ATOM     75  F   UNL A   1      35.914  34.144  29.158  1.00  0.00    -0.203 F 
ATOM     76  C   UNL A   1      34.587  34.408  31.051  1.00  0.00     0.198 A 
ATOM     77  C   UNL A   1      35.232  33.491  33.142  1.00  0.00     0.198 A 
ATOM     78  F   UNL A   1      37.257  32.443  33.432  1.00  0.00    -0.203 F 
ATOM     79  F   UNL A   1      33.726  35.117  30.308  1.00  0.00    -0.200 F 
ATOM     80  C   UNL A   1      34.321  34.195  32.387  1.00  0.00     0.200 A 
ATOM     81  F   UNL A   1      34.994  33.272  34.444  1.00  0.00    -0.200 F 
ATOM     82  F   UNL A   1      33.204  34.676  32.948  1.00  0.00    -0.200 F 
ENDBRANCH  58  72
BRANCH  59  83
ATOM     83  C   UNL A   1      44.740  28.901  27.954  1.00  0.00     0.064 A 
ATOM     84  C   UNL A   1      45.427  27.690  28.187  1.00  0.00     0.173 A 
ATOM     85  C   UNL A   1      43.906  28.961  26.831  1.00  0.00     0.173 A 
ATOM     86  F   UNL A   1      46.263  27.586  29.233  1.00  0.00    -0.203 F 
ATOM     87  C   UNL A   1      45.132  26.539  27.459  1.00  0.00     0.198 A 
ATOM     88  C   UNL A   1      43.647  27.813  26.076  1.00  0.00     0.198 A 
ATOM     89  F   UNL A   1      43.242  30.088  26.535  1.00  0.00    -0.203 F 
ATOM     90  F   UNL A   1      45.668  25.363  27.822  1.00  0.00    -0.200 F 
ATOM     91  C   UNL A   1      44.211  26.594  26.428  1.00  0.00     0.200 A 
ATOM     92  F   UNL A   1      42.764  27.862  25.067  1.00  0.00    -0.200 F 
ATOM     93  F   UNL A   1      43.839  25.470  25.800  1.00  0.00    -0.200 F 
ENDBRANCH  59  83
BRANCH  71  94
ATOM     94  C   UNL A   1      42.713  35.712  29.332  1.00  0.00     0.064 A 
ATOM     95  C   UNL A   1      43.514  36.633  30.029  1.00  0.00     0.173 A 
ATOM     96  C   UNL A   1      42.094  36.214  28.160  1.00  0.00     0.173 A 
ATOM     97  F   UNL A   1      44.275  36.257  31.065  1.00  0.00    -0.203 F 
ATOM     98  C   UNL A   1      43.610  37.970  29.642  1.00  0.00     0.198 A 
ATOM     99  C   UNL A   1      42.254  37.531  27.736  1.00  0.00     0.198 A 
ATOM    100  F   UNL A   1      41.341  35.435  27.369  1.00  0.00    -0.203 F 
ATOM    101  F   UNL A   1      44.337  38.821  30.380  1.00  0.00    -0.200 F 
ATOM    102  C   UNL A   1      42.990  38.418  28.492  1.00  0.00     0.200 A 
ATOM    103  F   UNL A   1      41.705  37.929  26.580  1.00  0.00    -0.200 F 
ATOM    104  F   UNL A   1      43.123  39.691  28.101  1.00  0.00    -0.200 F 
ENDBRANCH  71  94
ENDBRANCH  45  46
ENDBRANCH  37  40
ENDBRANCH  35  36
ENDBRANCH  34  35
ENDBRANCH  33  34
ENDBRANCH   1  33
TORSDOF 15
ENDMDL
MODEL 3
REMARK VINA RESULT:     -13.9      3.560      9.473
REMARK SMILES Cc1ccc(C(=O)NCCCCNC(=O)c2ccc(-c3c4nc(c(-c5c(F)c(F)c(F)c(F)c5F)c5ccc([nH]5)c(-c5c(F)c(F)c(F)c(F)c5F)c5nc(c(-c6c(F)c(F)c(F)c(F)c6F)c6ccc3[nH]6)C=C5)C=C4)cc2)c(NC(=O)C[C@@H]2SC(=O)N(c3cccc(C)c3C)C2=O)c1
REMARK SMILES IDX 9 1 8 2 6 3 7 4 5 6 1 7 2 8 3 9 99 10 4 11 79 12 80 13 81 14
REMARK SMILES IDX 82 16 83 17 84 18 85 19 97 20 86 21 88 22 98 23 87 24 89 25
REMARK SMILES IDX 90 26 95 27 91 28 93 29 96 30 92 31 94 32 10 33 11 34 12 35
REMARK SMILES IDX 13 36 14 37 15 39 16 40 17 41 78 42 18 43 77 44 19 45 20 46
REMARK SMILES IDX 21 47 71 48 22 49 76 50 70 51 72 52 23 53 75 54 69 55 68 56
REMARK SMILES IDX 24 58 56 59 36 60 55 61 37 62 40 63 54 64 73 65 38 66 39 67
REMARK SMILES IDX 53 69 74 70 41 71 25 72 26 73 34 74 27 75 28 76 32 77 35 78
REMARK SMILES IDX 29 79 30 80 33 81 31 82 57 83 58 84 66 85 59 86 60 87 64 88
REMARK SMILES IDX 67 89 61 90 62 91 65 92 63 93 42 94 43 95 51 96 44 97 45 98
REMARK SMILES IDX 49 99 52 100 46 101 47 102 50 103 48 104
REMARK H PARENT 8 5 80 15 13 38 72 57 40 68
REMARK Flexibility Score: inf
ROOT
ATOM      1  C   UNL A   1      37.304  23.852  26.127  1.00  0.00     0.116 C 
ENDROOT
BRANCH   1   2
ATOM      2  N   UNL A   1      37.560  23.617  24.723  1.00  0.00    -0.352 N 
ATOM      3  C   UNL A   1      36.721  22.932  23.901  1.00  0.00     0.253 C 
ATOM      4  O   UNL A   1      36.608  22.976  22.698  1.00  0.00    -0.269 OA
ATOM      5  H   UNL A   1      38.393  23.975  24.339  1.00  0.00     0.163 HD
BRANCH   3   6
ATOM      6  C   UNL A   1      35.577  22.268  24.317  1.00  0.00     0.063 A 
ATOM      7  C   UNL A   1      32.190  20.089  25.376  1.00  0.00     0.044 C 
ATOM      8  C   UNL A   1      33.354  20.871  24.845  1.00  0.00    -0.049 A 
ATOM      9  C   UNL A   1      34.571  20.185  24.770  1.00  0.00     0.004 A 
ATOM     10  C   UNL A   1      33.259  22.241  24.443  1.00  0.00     0.030 A 
ATOM     11  C   UNL A   1      35.711  20.903  24.545  1.00  0.00     0.016 A 
ATOM     12  C   UNL A   1      34.403  22.928  24.026  1.00  0.00     0.054 A 
BRANCH  12  13
ATOM     13  N   UNL A   1      34.384  24.223  23.397  1.00  0.00    -0.325 N 
ATOM     14  C   UNL A   1      33.463  25.097  22.839  1.00  0.00     0.226 C 
ATOM     15  H   UNL A   1      35.293  24.599  23.347  1.00  0.00     0.169 HD
ATOM     16  O   UNL A   1      34.047  25.834  22.001  1.00  0.00    -0.275 OA
BRANCH  14  17
ATOM     17  C   UNL A   1      31.895  25.578  23.106  1.00  0.00     0.125 C 
BRANCH  17  18
ATOM     18  C   UNL A   1      30.782  26.241  24.098  1.00  0.00     0.156 C 
ATOM     19  S   UNL A   1      29.810  27.515  23.139  1.00  0.00    -0.050 SA
ATOM     20  C   UNL A   1      30.911  27.078  25.430  1.00  0.00     0.248 C 
ATOM     21  C   UNL A   1      30.510  28.858  24.066  1.00  0.00     0.293 C 
ATOM     22  N   UNL A   1      31.230  28.390  25.121  1.00  0.00    -0.240 N 
ATOM     23  O   UNL A   1      30.760  26.581  26.546  1.00  0.00    -0.273 OA
ATOM     24  O   UNL A   1      30.273  30.022  23.772  1.00  0.00    -0.261 OA
BRANCH  22  25
ATOM     25  C   UNL A   1      32.180  29.189  25.846  1.00  0.00     0.056 A 
ATOM     26  C   UNL A   1      31.778  30.368  26.492  1.00  0.00     0.027 A 
ATOM     27  C   UNL A   1      33.523  28.730  26.052  1.00  0.00    -0.024 A 
ATOM     28  C   UNL A   1      32.682  31.123  27.251  1.00  0.00     0.002 A 
ATOM     29  C   UNL A   1      34.411  29.469  26.890  1.00  0.00    -0.046 A 
ATOM     30  C   UNL A   1      33.985  27.371  25.572  1.00  0.00     0.047 C 
ATOM     31  C   UNL A   1      33.987  30.680  27.447  1.00  0.00     0.004 A 
ATOM     32  C   UNL A   1      35.789  28.963  27.253  1.00  0.00     0.044 C 
ENDBRANCH  22  25
ENDBRANCH  17  18
ENDBRANCH  14  17
ENDBRANCH  12  13
ENDBRANCH   3   6
ENDBRANCH   1   2
BRANCH   1  33
ATOM     33  C   UNL A   1      38.583  24.087  26.910  1.00  0.00     0.023 C 
BRANCH  33  34
ATOM     34  C   UNL A   1      39.791  23.299  26.417  1.00  0.00     0.023 C 
BRANCH  34  35
ATOM     35  C   UNL A   1      40.028  21.968  27.106  1.00  0.00     0.116 C 
BRANCH  35  36
ATOM     36  N   UNL A   1      41.048  21.165  26.457  1.00  0.00    -0.352 N 
ATOM     37  C   UNL A   1      42.353  21.445  26.126  1.00  0.00     0.251 C 
ATOM     38  H   UNL A   1      40.753  20.258  26.212  1.00  0.00     0.163 HD
ATOM     39  O   UNL A   1      42.940  20.667  25.376  1.00  0.00    -0.269 OA
BRANCH  37  40
ATOM     40  C   UNL A   1      43.116  22.528  26.795  1.00  0.00     0.039 A 
ATOM     41  C   UNL A   1      43.030  22.595  28.199  1.00  0.00     0.014 A 
ATOM     42  C   UNL A   1      43.661  23.594  26.095  1.00  0.00     0.014 A 
ATOM     43  C   UNL A   1      43.238  23.805  28.850  1.00  0.00     0.010 A 
ATOM     44  C   UNL A   1      43.750  24.813  26.704  1.00  0.00     0.010 A 
ATOM     45  C   UNL A   1      43.464  24.921  28.063  1.00  0.00    -0.014 A 
BRANCH  45  46
ATOM     46  C   UNL A   1      43.495  26.288  28.518  1.00  0.00     0.031 A 
ATOM     47  C   UNL A   1      42.242  27.048  28.435  1.00  0.00     0.074 A 
ATOM     48  C   UNL A   1      44.537  26.614  29.313  1.00  0.00     0.049 A 
ATOM     49  N   UNL A   1      42.129  28.287  28.742  1.00  0.00    -0.248 NA
ATOM     50  C   UNL A   1      40.990  26.460  27.954  1.00  0.00     0.031 C 
ATOM     51  C   UNL A   1      44.629  27.661  30.321  1.00  0.00     0.029 A 
ATOM     52  N   UNL A   1      45.846  26.105  29.231  1.00  0.00    -0.354 N 
ATOM     53  C   UNL A   1      40.784  28.556  28.842  1.00  0.00     0.074 A 
ATOM     54  C   UNL A   1      40.131  27.456  28.185  1.00  0.00     0.031 C 
ATOM     55  C   UNL A   1      45.928  27.953  30.523  1.00  0.00     0.029 A 
ATOM     56  C   UNL A   1      46.677  27.216  29.516  1.00  0.00     0.049 A 
ATOM     57  H   UNL A   1      46.122  25.184  29.022  1.00  0.00     0.167 HD
ATOM     58  C   UNL A   1      40.410  29.601  29.630  1.00  0.00     0.037 A 
ATOM     59  C   UNL A   1      47.390  27.803  28.505  1.00  0.00     0.037 A 
ATOM     60  C   UNL A   1      41.592  30.392  29.982  1.00  0.00     0.049 A 
ATOM     61  C   UNL A   1      46.961  29.232  28.259  1.00  0.00     0.074 A 
ATOM     62  C   UNL A   1      42.362  30.473  31.128  1.00  0.00     0.029 A 
ATOM     63  N   UNL A   1      42.343  30.961  28.955  1.00  0.00    -0.354 N 
ATOM     64  N   UNL A   1      45.758  29.684  28.491  1.00  0.00    -0.248 NA
ATOM     65  C   UNL A   1      47.873  30.268  27.788  1.00  0.00     0.031 C 
ATOM     66  C   UNL A   1      43.641  30.973  30.748  1.00  0.00     0.029 A 
ATOM     67  C   UNL A   1      43.625  31.240  29.387  1.00  0.00     0.049 A 
ATOM     68  H   UNL A   1      42.007  31.141  28.047  1.00  0.00     0.167 HD
ATOM     69  C   UNL A   1      45.729  31.034  28.261  1.00  0.00     0.074 A 
ATOM     70  C   UNL A   1      47.075  31.349  27.813  1.00  0.00     0.031 C 
ATOM     71  C   UNL A   1      44.615  31.797  28.474  1.00  0.00     0.037 A 
BRANCH  58  72
ATOM     72  C   UNL A   1      39.053  29.801  30.273  1.00  0.00     0.064 A 
ATOM     73  C   UNL A   1      38.133  30.701  29.687  1.00  0.00     0.173 A 
ATOM     74  C   UNL A   1      38.628  29.256  31.505  1.00  0.00     0.173 A 
ATOM     75  F   UNL A   1      38.397  31.297  28.515  1.00  0.00    -0.203 F 
ATOM     76  C   UNL A   1      36.917  31.041  30.292  1.00  0.00     0.198 A 
ATOM     77  C   UNL A   1      37.393  29.564  32.086  1.00  0.00     0.198 A 
ATOM     78  F   UNL A   1      39.394  28.444  32.235  1.00  0.00    -0.203 F 
ATOM     79  F   UNL A   1      36.114  31.943  29.711  1.00  0.00    -0.200 F 
ATOM     80  C   UNL A   1      36.543  30.466  31.488  1.00  0.00     0.200 A 
ATOM     81  F   UNL A   1      37.050  28.992  33.251  1.00  0.00    -0.200 F 
ATOM     82  F   UNL A   1      35.379  30.789  32.069  1.00  0.00    -0.200 F 
ENDBRANCH  58  72
BRANCH  59  83
ATOM     83  C   UNL A   1      47.784  26.809  27.458  1.00  0.00     0.064 A 
ATOM     84  C   UNL A   1      47.070  26.847  26.240  1.00  0.00     0.173 A 
ATOM     85  C   UNL A   1      49.060  26.234  27.437  1.00  0.00     0.173 A 
ATOM     86  F   UNL A   1      45.829  27.360  26.208  1.00  0.00    -0.203 F 
ATOM     87  C   UNL A   1      47.682  26.521  25.032  1.00  0.00     0.198 A 
ATOM     88  C   UNL A   1      49.654  25.867  26.225  1.00  0.00     0.198 A 
ATOM     89  F   UNL A   1      49.784  26.142  28.561  1.00  0.00    -0.203 F 
ATOM     90  F   UNL A   1      47.037  26.739  23.876  1.00  0.00    -0.200 F 
ATOM     91  C   UNL A   1      48.990  26.068  25.023  1.00  0.00     0.200 A 
ATOM     92  F   UNL A   1      50.917  25.415  26.210  1.00  0.00    -0.200 F 
ATOM     93  F   UNL A   1      49.621  25.862  23.859  1.00  0.00    -0.200 F 
ENDBRANCH  59  83
BRANCH  71  94
ATOM     94  C   UNL A   1      44.398  33.190  27.925  1.00  0.00     0.064 A 
ATOM     95  C   UNL A   1      44.001  33.454  26.603  1.00  0.00     0.173 A 
ATOM     96  C   UNL A   1      44.435  34.318  28.782  1.00  0.00     0.173 A 
ATOM     97  F   UNL A   1      43.778  32.466  25.727  1.00  0.00    -0.203 F 
ATOM     98  C   UNL A   1      43.754  34.752  26.150  1.00  0.00     0.198 A 
ATOM     99  C   UNL A   1      44.115  35.601  28.344  1.00  0.00     0.198 A 
ATOM    100  F   UNL A   1      44.749  34.207  30.082  1.00  0.00    -0.203 F 
ATOM    101  F   UNL A   1      43.441  34.953  24.863  1.00  0.00    -0.200 F 
ATOM    102  C   UNL A   1      43.802  35.823  27.021  1.00  0.00     0.200 A 
ATOM    103  F   UNL A   1      44.095  36.616  29.219  1.00  0.00    -0.200 F 
ATOM    104  F   UNL A   1      43.520  37.059  26.592  1.00  0.00    -0.200 F 
ENDBRANCH  71  94
ENDBRANCH  45  46
ENDBRANCH  37  40
ENDBRANCH  35  36
ENDBRANCH  34  35
ENDBRANCH  33  34
ENDBRANCH   1  33
TORSDOF 15
ENDMDL
