MODEL 1
REMARK VINA RESULT:     -11.2      0.000      0.000
REMARK SMILES CCN(CC)C(=O)N[C@@H](C)c1cccc(/C=C/C(=O)NCCCCNC(=O)c2ccc(-c3c4nc(c(-c5c(F)c(F)c(F)c(F)c5F)c5ccc([nH]5)c(-c5c(F)c(F)c(F)c(F)c5F)c5nc(c(-c6c(F)c(F)c(F)c(F)c6F)c6ccc3[nH]6)C=C5)C=C4)cc2)c1
REMARK SMILES IDX 21 1 20 2 18 3 19 4 17 6 16 7 15 8 11 9 12 10 91 11 13 12
REMARK SMILES IDX 14 13 9 14 10 15 8 16 3 17 6 18 7 19 2 21 1 22 4 23 5 24
REMARK SMILES IDX 22 25 23 26 24 27 25 28 26 29 27 31 28 32 29 33 90 34 30 35
REMARK SMILES IDX 89 36 31 37 32 38 33 39 83 40 34 41 88 42 82 43 84 44 35 45
REMARK SMILES IDX 87 46 81 47 80 48 36 50 68 51 48 52 67 53 49 54 52 55 66 56
REMARK SMILES IDX 85 57 50 58 51 59 65 61 86 62 53 63 37 64 38 65 46 66 39 67
REMARK SMILES IDX 40 68 44 69 47 70 41 71 42 72 45 73 43 74 69 75 70 76 78 77
REMARK SMILES IDX 71 78 72 79 76 80 79 81 73 82 74 83 77 84 75 85 54 86 55 87
REMARK SMILES IDX 63 88 56 89 57 90 61 91 64 92 58 93 59 94 62 95 60 96
REMARK H PARENT 20 5 8 20 25 30 84 49 52 60
REMARK Flexibility Score: inf
ROOT
ATOM      1  C   UNL A   1      34.371  32.087  27.967  1.00  0.00     0.116 C 
ENDROOT
BRANCH   1   2
ATOM      2  N   UNL A   1      35.499  31.202  28.191  1.00  0.00    -0.353 N 
ATOM      3  C   UNL A   1      35.737  29.946  27.731  1.00  0.00     0.243 C 
ATOM      4  O   UNL A   1      36.814  29.404  27.970  1.00  0.00    -0.270 OA
ATOM      5  H   UNL A   1      36.205  31.572  28.770  1.00  0.00     0.163 HD
BRANCH   3   6
ATOM      6  C   UNL A   1      34.753  29.253  26.869  1.00  0.00     0.072 C 
ATOM      7  C   UNL A   1      33.592  28.742  27.303  1.00  0.00     0.014 C 
BRANCH   7   8
ATOM      8  C   UNL A   1      32.633  28.041  26.440  1.00  0.00    -0.025 A 
ATOM      9  C   UNL A   1      31.690  25.901  25.665  1.00  0.00    -0.025 A 
ATOM     10  C   UNL A   1      30.913  26.618  24.744  1.00  0.00     0.006 A 
ATOM     11  C   UNL A   1      32.559  26.639  26.499  1.00  0.00     0.014 A 
ATOM     12  C   UNL A   1      30.987  28.011  24.668  1.00  0.00     0.001 A 
ATOM     13  C   UNL A   1      31.845  28.719  25.508  1.00  0.00     0.008 A 
BRANCH   9  14
ATOM     14  C   UNL A   1      31.704  24.375  25.707  1.00  0.00     0.111 C 
ATOM     15  C   UNL A   1      30.550  23.729  26.484  1.00  0.00     0.036 C 
BRANCH  14  16
ATOM     16  N   UNL A   1      32.955  23.879  26.276  1.00  0.00    -0.331 N 
ATOM     17  N   UNL A   1      34.379  23.054  24.538  1.00  0.00    -0.325 N 
ATOM     18  C   UNL A   1      34.060  23.247  25.855  1.00  0.00     0.317 C 
ATOM     19  O   UNL A   1      34.806  22.857  26.760  1.00  0.00    -0.249 OA
ATOM     20  H   UNL A   1      32.998  24.059  27.243  1.00  0.00     0.165 HD
BRANCH  17  21
ATOM     21  C   UNL A   1      35.605  22.294  24.261  1.00  0.00     0.118 C 
ATOM     22  C   UNL A   1      36.519  23.017  23.280  1.00  0.00     0.027 C 
ENDBRANCH  17  21
BRANCH  17  23
ATOM     23  C   UNL A   1      33.673  23.541  23.357  1.00  0.00     0.118 C 
ATOM     24  C   UNL A   1      32.788  22.460  22.750  1.00  0.00     0.027 C 
ENDBRANCH  17  23
ENDBRANCH  14  16
ENDBRANCH   9  14
ENDBRANCH   7   8
ENDBRANCH   3   6
ENDBRANCH   1   2
BRANCH   1  25
ATOM     25  C   UNL A   1      34.307  33.176  29.038  1.00  0.00     0.023 C 
BRANCH  25  26
ATOM     26  C   UNL A   1      33.234  34.242  28.793  1.00  0.00     0.023 C 
BRANCH  26  27
ATOM     27  C   UNL A   1      33.543  35.615  29.381  1.00  0.00     0.116 C 
BRANCH  27  28
ATOM     28  N   UNL A   1      32.616  36.017  30.428  1.00  0.00    -0.352 N 
ATOM     29  C   UNL A   1      32.693  35.769  31.779  1.00  0.00     0.251 C 
ATOM     30  H   UNL A   1      31.832  36.532  30.130  1.00  0.00     0.163 HD
ATOM     31  O   UNL A   1      31.772  36.077  32.522  1.00  0.00    -0.269 OA
BRANCH  29  32
ATOM     32  C   UNL A   1      33.884  35.081  32.319  1.00  0.00     0.039 A 
ATOM     33  C   UNL A   1      33.739  33.788  32.826  1.00  0.00     0.014 A 
ATOM     34  C   UNL A   1      35.138  35.697  32.299  1.00  0.00     0.014 A 
ATOM     35  C   UNL A   1      34.867  33.082  33.247  1.00  0.00     0.010 A 
ATOM     36  C   UNL A   1      36.268  34.969  32.657  1.00  0.00     0.010 A 
ATOM     37  C   UNL A   1      36.144  33.654  33.132  1.00  0.00    -0.014 A 
BRANCH  37  38
ATOM     38  C   UNL A   1      37.362  32.891  33.497  1.00  0.00     0.031 A 
ATOM     39  C   UNL A   1      38.076  33.184  34.785  1.00  0.00     0.074 A 
ATOM     40  C   UNL A   1      37.864  31.988  32.634  1.00  0.00     0.049 A 
ATOM     41  N   UNL A   1      39.194  32.682  35.245  1.00  0.00    -0.248 NA
ATOM     42  C   UNL A   1      37.468  34.198  35.661  1.00  0.00     0.031 C 
ATOM     43  C   UNL A   1      37.291  31.655  31.328  1.00  0.00     0.029 A 
ATOM     44  N   UNL A   1      38.981  31.194  32.718  1.00  0.00    -0.354 N 
ATOM     45  C   UNL A   1      39.430  33.329  36.451  1.00  0.00     0.074 A 
ATOM     46  C   UNL A   1      38.368  34.296  36.628  1.00  0.00     0.031 C 
ATOM     47  C   UNL A   1      38.047  30.713  30.743  1.00  0.00     0.029 A 
ATOM     48  C   UNL A   1      39.175  30.400  31.615  1.00  0.00     0.049 A 
ATOM     49  H   UNL A   1      39.584  31.194  33.495  1.00  0.00     0.167 HD
ATOM     50  C   UNL A   1      40.430  33.119  37.340  1.00  0.00     0.037 A 
ATOM     51  C   UNL A   1      40.157  29.520  31.338  1.00  0.00     0.037 A 
ATOM     52  C   UNL A   1      41.467  32.136  37.174  1.00  0.00     0.049 A 
ATOM     53  C   UNL A   1      41.249  29.297  32.348  1.00  0.00     0.074 A 
ATOM     54  C   UNL A   1      42.487  31.801  38.046  1.00  0.00     0.029 A 
ATOM     55  N   UNL A   1      41.614  31.326  36.057  1.00  0.00    -0.354 N 
ATOM     56  N   UNL A   1      41.423  29.864  33.517  1.00  0.00    -0.248 NA
ATOM     57  C   UNL A   1      42.278  28.306  32.003  1.00  0.00     0.031 C 
ATOM     58  C   UNL A   1      43.275  30.817  37.441  1.00  0.00     0.029 A 
ATOM     59  C   UNL A   1      42.719  30.505  36.211  1.00  0.00     0.049 A 
ATOM     60  H   UNL A   1      41.020  31.335  35.271  1.00  0.00     0.167 HD
ATOM     61  C   UNL A   1      42.560  29.282  34.059  1.00  0.00     0.074 A 
ATOM     62  C   UNL A   1      43.028  28.306  33.096  1.00  0.00     0.031 C 
ATOM     63  C   UNL A   1      43.163  29.531  35.246  1.00  0.00     0.037 A 
BRANCH  50  64
ATOM     64  C   UNL A   1      40.445  33.968  38.577  1.00  0.00     0.064 A 
ATOM     65  C   UNL A   1      39.755  33.587  39.738  1.00  0.00     0.173 A 
ATOM     66  C   UNL A   1      41.183  35.161  38.615  1.00  0.00     0.173 A 
ATOM     67  F   UNL A   1      39.024  32.461  39.750  1.00  0.00    -0.203 F 
ATOM     68  C   UNL A   1      39.779  34.382  40.880  1.00  0.00     0.198 A 
ATOM     69  C   UNL A   1      41.229  35.939  39.769  1.00  0.00     0.198 A 
ATOM     70  F   UNL A   1      41.865  35.569  37.535  1.00  0.00    -0.203 F 
ATOM     71  F   UNL A   1      39.071  34.022  41.960  1.00  0.00    -0.200 F 
ATOM     72  C   UNL A   1      40.521  35.553  40.898  1.00  0.00     0.200 A 
ATOM     73  F   UNL A   1      41.957  37.064  39.789  1.00  0.00    -0.200 F 
ATOM     74  F   UNL A   1      40.548  36.315  42.000  1.00  0.00    -0.200 F 
ENDBRANCH  50  64
BRANCH  51  75
ATOM     75  C   UNL A   1      40.134  28.760  30.061  1.00  0.00     0.064 A 
ATOM     76  C   UNL A   1      39.496  27.514  29.979  1.00  0.00     0.173 A 
ATOM     77  C   UNL A   1      40.747  29.258  28.903  1.00  0.00     0.173 A 
ATOM     78  F   UNL A   1      38.912  26.989  31.066  1.00  0.00    -0.203 F 
ATOM     79  C   UNL A   1      39.490  26.786  28.792  1.00  0.00     0.198 A 
ATOM     80  C   UNL A   1      40.717  28.541  27.709  1.00  0.00     0.198 A 
ATOM     81  F   UNL A   1      41.365  30.447  28.928  1.00  0.00    -0.203 F 
ATOM     82  F   UNL A   1      38.911  25.578  28.753  1.00  0.00    -0.200 F 
ATOM     83  C   UNL A   1      40.096  27.302  27.656  1.00  0.00     0.200 A 
ATOM     84  F   UNL A   1      41.293  29.048  26.611  1.00  0.00    -0.200 F 
ATOM     85  F   UNL A   1      40.087  26.601  26.513  1.00  0.00    -0.200 F 
ENDBRANCH  51  75
BRANCH  63  86
ATOM     86  C   UNL A   1      44.372  28.714  35.590  1.00  0.00     0.064 A 
ATOM     87  C   UNL A   1      45.666  29.131  35.245  1.00  0.00     0.173 A 
ATOM     88  C   UNL A   1      44.237  27.516  36.309  1.00  0.00     0.173 A 
ATOM     89  F   UNL A   1      45.845  30.261  34.543  1.00  0.00    -0.203 F 
ATOM     90  C   UNL A   1      46.779  28.370  35.590  1.00  0.00     0.198 A 
ATOM     91  C   UNL A   1      45.355  26.772  36.676  1.00  0.00     0.198 A 
ATOM     92  F   UNL A   1      43.022  27.076  36.667  1.00  0.00    -0.203 F 
ATOM     93  F   UNL A   1      48.002  28.766  35.213  1.00  0.00    -0.200 F 
ATOM     94  C   UNL A   1      46.623  27.196  36.311  1.00  0.00     0.200 A 
ATOM     95  F   UNL A   1      45.203  25.644  37.384  1.00  0.00    -0.200 F 
ATOM     96  F   UNL A   1      47.697  26.468  36.649  1.00  0.00    -0.200 F 
ENDBRANCH  63  86
ENDBRANCH  37  38
ENDBRANCH  29  32
ENDBRANCH  27  28
ENDBRANCH  26  27
ENDBRANCH  25  26
ENDBRANCH   1  25
TORSDOF 16
ENDMDL
MODEL 2
REMARK VINA RESULT:     -11.2      6.376     11.055
REMARK SMILES CCN(CC)C(=O)N[C@@H](C)c1cccc(/C=C/C(=O)NCCCCNC(=O)c2ccc(-c3c4nc(c(-c5c(F)c(F)c(F)c(F)c5F)c5ccc([nH]5)c(-c5c(F)c(F)c(F)c(F)c5F)c5nc(c(-c6c(F)c(F)c(F)c(F)c6F)c6ccc3[nH]6)C=C5)C=C4)cc2)c1
REMARK SMILES IDX 21 1 20 2 18 3 19 4 17 6 16 7 15 8 11 9 12 10 91 11 13 12
REMARK SMILES IDX 14 13 9 14 10 15 8 16 3 17 6 18 7 19 2 21 1 22 4 23 5 24
REMARK SMILES IDX 22 25 23 26 24 27 25 28 26 29 27 31 28 32 29 33 90 34 30 35
REMARK SMILES IDX 89 36 31 37 32 38 33 39 83 40 34 41 88 42 82 43 84 44 35 45
REMARK SMILES IDX 87 46 81 47 80 48 36 50 68 51 48 52 67 53 49 54 52 55 66 56
REMARK SMILES IDX 85 57 50 58 51 59 65 61 86 62 53 63 37 64 38 65 46 66 39 67
REMARK SMILES IDX 40 68 44 69 47 70 41 71 42 72 45 73 43 74 69 75 70 76 78 77
REMARK SMILES IDX 71 78 72 79 76 80 79 81 73 82 74 83 77 84 75 85 54 86 55 87
REMARK SMILES IDX 63 88 56 89 57 90 61 91 64 92 58 93 59 94 62 95 60 96
REMARK H PARENT 20 5 8 20 25 30 84 49 52 60
REMARK Flexibility Score: inf
ROOT
ATOM      1  C   UNL A   1      36.766  22.087  25.759  1.00  0.00     0.116 C 
ENDROOT
BRANCH   1   2
ATOM      2  N   UNL A   1      35.528  21.463  26.185  1.00  0.00    -0.353 N 
ATOM      3  C   UNL A   1      34.244  21.900  26.091  1.00  0.00     0.243 C 
ATOM      4  O   UNL A   1      33.323  21.163  26.435  1.00  0.00    -0.270 OA
ATOM      5  H   UNL A   1      35.634  20.581  26.611  1.00  0.00     0.163 HD
BRANCH   3   6
ATOM      6  C   UNL A   1      33.932  23.218  25.493  1.00  0.00     0.072 C 
ATOM      7  C   UNL A   1      33.649  24.323  26.200  1.00  0.00     0.014 C 
BRANCH   7   8
ATOM      8  C   UNL A   1      33.324  25.620  25.594  1.00  0.00    -0.025 A 
ATOM      9  C   UNL A   1      32.132  26.867  23.835  1.00  0.00    -0.025 A 
ATOM     10  C   UNL A   1      32.740  28.040  24.305  1.00  0.00     0.006 A 
ATOM     11  C   UNL A   1      32.452  25.659  24.492  1.00  0.00     0.014 A 
ATOM     12  C   UNL A   1      33.618  28.012  25.392  1.00  0.00     0.001 A 
ATOM     13  C   UNL A   1      33.911  26.808  26.030  1.00  0.00     0.008 A 
BRANCH   9  14
ATOM     14  C   UNL A   1      31.246  26.850  22.592  1.00  0.00     0.111 C 
ATOM     15  C   UNL A   1      31.792  26.043  21.408  1.00  0.00     0.036 C 
BRANCH  14  16
ATOM     16  N   UNL A   1      30.984  28.208  22.119  1.00  0.00    -0.331 N 
ATOM     17  N   UNL A   1      28.756  28.863  22.697  1.00  0.00    -0.325 N 
ATOM     18  C   UNL A   1      29.949  29.060  22.058  1.00  0.00     0.317 C 
ATOM     19  O   UNL A   1      30.159  30.075  21.386  1.00  0.00    -0.249 OA
ATOM     20  H   UNL A   1      31.796  28.611  21.735  1.00  0.00     0.165 HD
BRANCH  17  21
ATOM     21  C   UNL A   1      27.716  29.877  22.478  1.00  0.00     0.118 C 
ATOM     22  C   UNL A   1      27.763  30.985  23.522  1.00  0.00     0.027 C 
ENDBRANCH  17  21
BRANCH  17  23
ATOM     23  C   UNL A   1      28.386  27.785  23.610  1.00  0.00     0.118 C 
ATOM     24  C   UNL A   1      26.873  27.634  23.711  1.00  0.00     0.027 C 
ENDBRANCH  17  23
ENDBRANCH  14  16
ENDBRANCH   9  14
ENDBRANCH   7   8
ENDBRANCH   3   6
ENDBRANCH   1   2
BRANCH   1  25
ATOM     25  C   UNL A   1      37.383  21.332  24.581  1.00  0.00     0.023 C 
BRANCH  25  26
ATOM     26  C   UNL A   1      38.115  20.043  24.969  1.00  0.00     0.023 C 
BRANCH  26  27
ATOM     27  C   UNL A   1      39.265  20.225  25.954  1.00  0.00     0.116 C 
BRANCH  27  28
ATOM     28  N   UNL A   1      40.231  19.138  25.920  1.00  0.00    -0.352 N 
ATOM     29  C   UNL A   1      41.597  19.205  26.071  1.00  0.00     0.251 C 
ATOM     30  H   UNL A   1      39.860  18.240  25.768  1.00  0.00     0.163 HD
ATOM     31  O   UNL A   1      42.291  18.212  25.904  1.00  0.00    -0.269 OA
BRANCH  29  32
ATOM     32  C   UNL A   1      42.225  20.503  26.394  1.00  0.00     0.039 A 
ATOM     33  C   UNL A   1      42.744  21.274  25.351  1.00  0.00     0.014 A 
ATOM     34  C   UNL A   1      42.274  20.969  27.710  1.00  0.00     0.014 A 
ATOM     35  C   UNL A   1      43.250  22.546  25.619  1.00  0.00     0.010 A 
ATOM     36  C   UNL A   1      42.717  22.263  27.967  1.00  0.00     0.010 A 
ATOM     37  C   UNL A   1      43.206  23.064  26.924  1.00  0.00    -0.014 A 
BRANCH  37  38
ATOM     38  C   UNL A   1      43.662  24.445  27.216  1.00  0.00     0.031 A 
ATOM     39  C   UNL A   1      42.694  25.459  27.752  1.00  0.00     0.074 A 
ATOM     40  C   UNL A   1      44.928  24.802  26.929  1.00  0.00     0.049 A 
ATOM     41  N   UNL A   1      42.879  26.732  27.999  1.00  0.00    -0.248 NA
ATOM     42  C   UNL A   1      41.326  24.989  28.021  1.00  0.00     0.031 C 
ATOM     43  C   UNL A   1      45.947  23.921  26.355  1.00  0.00     0.029 A 
ATOM     44  N   UNL A   1      45.573  26.006  27.068  1.00  0.00    -0.354 N 
ATOM     45  C   UNL A   1      41.651  27.214  28.432  1.00  0.00     0.074 A 
ATOM     46  C   UNL A   1      40.716  26.113  28.368  1.00  0.00     0.031 C 
ATOM     47  C   UNL A   1      47.092  24.606  26.210  1.00  0.00     0.029 A 
ATOM     48  C   UNL A   1      46.879  25.983  26.647  1.00  0.00     0.049 A 
ATOM     49  H   UNL A   1      45.139  26.810  27.434  1.00  0.00     0.167 HD
ATOM     50  C   UNL A   1      41.340  28.459  28.866  1.00  0.00     0.037 A 
ATOM     51  C   UNL A   1      47.801  26.965  26.615  1.00  0.00     0.037 A 
ATOM     52  C   UNL A   1      42.280  29.544  28.958  1.00  0.00     0.049 A 
ATOM     53  C   UNL A   1      47.431  28.335  27.114  1.00  0.00     0.074 A 
ATOM     54  C   UNL A   1      42.079  30.823  29.445  1.00  0.00     0.029 A 
ATOM     55  N   UNL A   1      43.605  29.474  28.551  1.00  0.00    -0.354 N 
ATOM     56  N   UNL A   1      46.286  28.761  27.588  1.00  0.00    -0.248 NA
ATOM     57  C   UNL A   1      48.485  29.358  27.080  1.00  0.00     0.031 C 
ATOM     58  C   UNL A   1      43.271  31.540  29.297  1.00  0.00     0.029 A 
ATOM     59  C   UNL A   1      44.228  30.694  28.761  1.00  0.00     0.049 A 
ATOM     60  H   UNL A   1      44.038  28.676  28.170  1.00  0.00     0.167 HD
ATOM     61  C   UNL A   1      46.488  30.090  27.935  1.00  0.00     0.074 A 
ATOM     62  C   UNL A   1      47.870  30.396  27.629  1.00  0.00     0.031 C 
ATOM     63  C   UNL A   1      45.608  30.976  28.461  1.00  0.00     0.037 A 
BRANCH  50  64
ATOM     64  C   UNL A   1      39.920  28.710  29.283  1.00  0.00     0.064 A 
ATOM     65  C   UNL A   1      38.954  29.158  28.369  1.00  0.00     0.173 A 
ATOM     66  C   UNL A   1      39.512  28.471  30.604  1.00  0.00     0.173 A 
ATOM     67  F   UNL A   1      39.296  29.413  27.096  1.00  0.00    -0.203 F 
ATOM     68  C   UNL A   1      37.640  29.384  28.768  1.00  0.00     0.198 A 
ATOM     69  C   UNL A   1      38.189  28.671  30.992  1.00  0.00     0.198 A 
ATOM     70  F   UNL A   1      40.393  28.037  31.517  1.00  0.00    -0.203 F 
ATOM     71  F   UNL A   1      36.747  29.860  27.888  1.00  0.00    -0.200 F 
ATOM     72  C   UNL A   1      37.257  29.134  30.076  1.00  0.00     0.200 A 
ATOM     73  F   UNL A   1      37.817  28.416  32.255  1.00  0.00    -0.200 F 
ATOM     74  F   UNL A   1      35.989  29.347  30.458  1.00  0.00    -0.200 F 
ENDBRANCH  50  64
BRANCH  51  75
ATOM     75  C   UNL A   1      49.173  26.679  26.120  1.00  0.00     0.064 A 
ATOM     76  C   UNL A   1      49.537  26.979  24.800  1.00  0.00     0.173 A 
ATOM     77  C   UNL A   1      50.144  26.101  26.951  1.00  0.00     0.173 A 
ATOM     78  F   UNL A   1      48.636  27.514  23.963  1.00  0.00    -0.203 F 
ATOM     79  C   UNL A   1      50.814  26.692  24.323  1.00  0.00     0.198 A 
ATOM     80  C   UNL A   1      51.428  25.840  26.480  1.00  0.00     0.198 A 
ATOM     81  F   UNL A   1      49.846  25.801  28.223  1.00  0.00    -0.203 F 
ATOM     82  F   UNL A   1      51.121  26.948  23.044  1.00  0.00    -0.200 F 
ATOM     83  C   UNL A   1      51.760  26.128  25.165  1.00  0.00     0.200 A 
ATOM     84  F   UNL A   1      52.344  25.307  27.300  1.00  0.00    -0.200 F 
ATOM     85  F   UNL A   1      52.990  25.856  24.706  1.00  0.00    -0.200 F 
ENDBRANCH  51  75
BRANCH  63  86
ATOM     86  C   UNL A   1      46.120  32.351  28.772  1.00  0.00     0.064 A 
ATOM     87  C   UNL A   1      46.052  33.392  27.835  1.00  0.00     0.173 A 
ATOM     88  C   UNL A   1      46.649  32.641  30.039  1.00  0.00     0.173 A 
ATOM     89  F   UNL A   1      45.569  33.162  26.604  1.00  0.00    -0.203 F 
ATOM     90  C   UNL A   1      46.513  34.668  28.148  1.00  0.00     0.198 A 
ATOM     91  C   UNL A   1      47.084  33.924  30.358  1.00  0.00     0.198 A 
ATOM     92  F   UNL A   1      46.731  31.680  30.972  1.00  0.00    -0.203 F 
ATOM     93  F   UNL A   1      46.478  35.637  27.224  1.00  0.00    -0.200 F 
ATOM     94  C   UNL A   1      47.021  34.934  29.411  1.00  0.00     0.200 A 
ATOM     95  F   UNL A   1      47.562  34.182  31.583  1.00  0.00    -0.200 F 
ATOM     96  F   UNL A   1      47.458  36.165  29.713  1.00  0.00    -0.200 F 
ENDBRANCH  63  86
ENDBRANCH  37  38
ENDBRANCH  29  32
ENDBRANCH  27  28
ENDBRANCH  26  27
ENDBRANCH  25  26
ENDBRANCH   1  25
TORSDOF 16
ENDMDL
MODEL 3
REMARK VINA RESULT:     -11.2      6.160     10.985
REMARK SMILES CCN(CC)C(=O)N[C@@H](C)c1cccc(/C=C/C(=O)NCCCCNC(=O)c2ccc(-c3c4nc(c(-c5c(F)c(F)c(F)c(F)c5F)c5ccc([nH]5)c(-c5c(F)c(F)c(F)c(F)c5F)c5nc(c(-c6c(F)c(F)c(F)c(F)c6F)c6ccc3[nH]6)C=C5)C=C4)cc2)c1
REMARK SMILES IDX 21 1 20 2 18 3 19 4 17 6 16 7 15 8 11 9 12 10 91 11 13 12
REMARK SMILES IDX 14 13 9 14 10 15 8 16 3 17 6 18 7 19 2 21 1 22 4 23 5 24
REMARK SMILES IDX 22 25 23 26 24 27 25 28 26 29 27 31 28 32 29 33 90 34 30 35
REMARK SMILES IDX 89 36 31 37 32 38 33 39 83 40 34 41 88 42 82 43 84 44 35 45
REMARK SMILES IDX 87 46 81 47 80 48 36 50 68 51 48 52 67 53 49 54 52 55 66 56
REMARK SMILES IDX 85 57 50 58 51 59 65 61 86 62 53 63 37 64 38 65 46 66 39 67
REMARK SMILES IDX 40 68 44 69 47 70 41 71 42 72 45 73 43 74 69 75 70 76 78 77
REMARK SMILES IDX 71 78 72 79 76 80 79 81 73 82 74 83 77 84 75 85 54 86 55 87
REMARK SMILES IDX 63 88 56 89 57 90 61 91 64 92 58 93 59 94 62 95 60 96
REMARK H PARENT 20 5 8 20 25 30 84 49 52 60
REMARK Flexibility Score: inf
ROOT
ATOM      1  C   UNL A   1      36.033  21.322  25.620  1.00  0.00     0.116 C 
ENDROOT
BRANCH   1   2
ATOM      2  N   UNL A   1      34.932  20.421  25.341  1.00  0.00    -0.353 N 
ATOM      3  C   UNL A   1      33.714  20.664  24.787  1.00  0.00     0.243 C 
ATOM      4  O   UNL A   1      32.955  19.727  24.552  1.00  0.00    -0.270 OA
ATOM      5  H   UNL A   1      35.091  19.482  25.594  1.00  0.00     0.163 HD
BRANCH   3   6
ATOM      6  C   UNL A   1      33.325  22.033  24.379  1.00  0.00     0.072 C 
ATOM      7  C   UNL A   1      32.896  22.365  23.152  1.00  0.00     0.014 C 
BRANCH   7   8
ATOM      8  C   UNL A   1      32.530  23.731  22.756  1.00  0.00    -0.025 A 
ATOM      9  C   UNL A   1      31.225  25.766  23.226  1.00  0.00    -0.025 A 
ATOM     10  C   UNL A   1      31.690  26.301  22.017  1.00  0.00     0.006 A 
ATOM     11  C   UNL A   1      31.651  24.465  23.571  1.00  0.00     0.014 A 
ATOM     12  C   UNL A   1      32.555  25.576  21.193  1.00  0.00     0.001 A 
ATOM     13  C   UNL A   1      32.969  24.296  21.559  1.00  0.00     0.008 A 
BRANCH   9  14
ATOM     14  C   UNL A   1      30.205  26.493  24.100  1.00  0.00     0.111 C 
ATOM     15  C   UNL A   1      28.750  26.038  23.927  1.00  0.00     0.036 C 
BRANCH  14  16
ATOM     16  N   UNL A   1      30.249  27.935  23.866  1.00  0.00    -0.331 N 
ATOM     17  N   UNL A   1      31.887  28.948  25.286  1.00  0.00    -0.325 N 
ATOM     18  C   UNL A   1      30.861  29.010  24.383  1.00  0.00     0.317 C 
ATOM     19  O   UNL A   1      30.441  30.093  23.960  1.00  0.00    -0.249 OA
ATOM     20  H   UNL A   1      29.662  28.189  23.117  1.00  0.00     0.165 HD
BRANCH  17  21
ATOM     21  C   UNL A   1      32.405  30.229  25.785  1.00  0.00     0.118 C 
ATOM     22  C   UNL A   1      32.635  30.210  27.291  1.00  0.00     0.027 C 
ENDBRANCH  17  21
BRANCH  17  23
ATOM     23  C   UNL A   1      32.569  27.764  25.800  1.00  0.00     0.118 C 
ATOM     24  C   UNL A   1      33.841  27.468  25.014  1.00  0.00     0.027 C 
ENDBRANCH  17  23
ENDBRANCH  14  16
ENDBRANCH   9  14
ENDBRANCH   7   8
ENDBRANCH   3   6
ENDBRANCH   1   2
BRANCH   1  25
ATOM     25  C   UNL A   1      37.178  21.112  24.629  1.00  0.00     0.023 C 
BRANCH  25  26
ATOM     26  C   UNL A   1      38.073  19.908  24.941  1.00  0.00     0.023 C 
BRANCH  26  27
ATOM     27  C   UNL A   1      39.293  20.217  25.803  1.00  0.00     0.116 C 
BRANCH  27  28
ATOM     28  N   UNL A   1      40.249  19.122  25.864  1.00  0.00    -0.352 N 
ATOM     29  C   UNL A   1      41.603  19.183  26.100  1.00  0.00     0.251 C 
ATOM     30  H   UNL A   1      39.880  18.223  25.716  1.00  0.00     0.163 HD
ATOM     31  O   UNL A   1      42.297  18.181  26.008  1.00  0.00    -0.269 OA
BRANCH  29  32
ATOM     32  C   UNL A   1      42.221  20.486  26.422  1.00  0.00     0.039 A 
ATOM     33  C   UNL A   1      42.742  21.257  25.381  1.00  0.00     0.014 A 
ATOM     34  C   UNL A   1      42.260  20.955  27.738  1.00  0.00     0.014 A 
ATOM     35  C   UNL A   1      43.238  22.534  25.648  1.00  0.00     0.010 A 
ATOM     36  C   UNL A   1      42.694  22.253  27.994  1.00  0.00     0.010 A 
ATOM     37  C   UNL A   1      43.184  23.054  26.951  1.00  0.00    -0.014 A 
BRANCH  37  38
ATOM     38  C   UNL A   1      43.630  24.439  27.243  1.00  0.00     0.031 A 
ATOM     39  C   UNL A   1      42.652  25.449  27.769  1.00  0.00     0.074 A 
ATOM     40  C   UNL A   1      44.897  24.802  26.964  1.00  0.00     0.049 A 
ATOM     41  N   UNL A   1      42.829  26.724  28.012  1.00  0.00    -0.248 NA
ATOM     42  C   UNL A   1      41.286  24.972  28.028  1.00  0.00     0.031 C 
ATOM     43  C   UNL A   1      45.924  23.924  26.401  1.00  0.00     0.029 A 
ATOM     44  N   UNL A   1      45.533  26.010  27.104  1.00  0.00    -0.354 N 
ATOM     45  C   UNL A   1      41.595  27.201  28.435  1.00  0.00     0.074 A 
ATOM     46  C   UNL A   1      40.667  26.093  28.368  1.00  0.00     0.031 C 
ATOM     47  C   UNL A   1      47.066  24.616  26.261  1.00  0.00     0.029 A 
ATOM     48  C   UNL A   1      46.843  25.992  26.693  1.00  0.00     0.049 A 
ATOM     49  H   UNL A   1      45.092  26.812  27.464  1.00  0.00     0.167 HD
ATOM     50  C   UNL A   1      41.273  28.445  28.863  1.00  0.00     0.037 A 
ATOM     51  C   UNL A   1      47.759  26.980  26.664  1.00  0.00     0.037 A 
ATOM     52  C   UNL A   1      42.207  29.535  28.958  1.00  0.00     0.049 A 
ATOM     53  C   UNL A   1      47.378  28.349  27.156  1.00  0.00     0.074 A 
ATOM     54  C   UNL A   1      41.995  30.814  29.440  1.00  0.00     0.029 A 
ATOM     55  N   UNL A   1      43.535  29.471  28.562  1.00  0.00    -0.354 N 
ATOM     56  N   UNL A   1      46.228  28.771  27.621  1.00  0.00    -0.248 NA
ATOM     57  C   UNL A   1      48.427  29.378  27.126  1.00  0.00     0.031 C 
ATOM     58  C   UNL A   1      43.184  31.538  29.299  1.00  0.00     0.029 A 
ATOM     59  C   UNL A   1      44.149  30.695  28.772  1.00  0.00     0.049 A 
ATOM     60  H   UNL A   1      43.975  28.674  28.186  1.00  0.00     0.167 HD
ATOM     61  C   UNL A   1      46.419  30.102  27.965  1.00  0.00     0.074 A 
ATOM     62  C   UNL A   1      47.801  30.415  27.668  1.00  0.00     0.031 C 
ATOM     63  C   UNL A   1      45.531  30.985  28.481  1.00  0.00     0.037 A 
BRANCH  50  64
ATOM     64  C   UNL A   1      39.849  28.689  29.269  1.00  0.00     0.064 A 
ATOM     65  C   UNL A   1      39.414  28.480  30.586  1.00  0.00     0.173 A 
ATOM     66  C   UNL A   1      38.916  29.169  28.338  1.00  0.00     0.173 A 
ATOM     67  F   UNL A   1      40.265  28.010  31.511  1.00  0.00    -0.203 F 
ATOM     68  C   UNL A   1      38.091  28.713  30.950  1.00  0.00     0.198 A 
ATOM     69  C   UNL A   1      37.600  29.430  28.713  1.00  0.00     0.198 A 
ATOM     70  F   UNL A   1      39.280  29.392  27.067  1.00  0.00    -0.203 F 
ATOM     71  F   UNL A   1      37.687  28.458  32.203  1.00  0.00    -0.200 F 
ATOM     72  C   UNL A   1      37.187  29.194  30.016  1.00  0.00     0.200 A 
ATOM     73  F   UNL A   1      36.729  29.907  27.812  1.00  0.00    -0.200 F 
ATOM     74  F   UNL A   1      35.914  29.424  30.369  1.00  0.00    -0.200 F 
ENDBRANCH  50  64
BRANCH  51  75
ATOM     75  C   UNL A   1      49.136  26.700  26.180  1.00  0.00     0.064 A 
ATOM     76  C   UNL A   1      50.108  26.176  27.045  1.00  0.00     0.173 A 
ATOM     77  C   UNL A   1      49.510  26.950  24.852  1.00  0.00     0.173 A 
ATOM     78  F   UNL A   1      49.802  25.938  28.329  1.00  0.00    -0.203 F 
ATOM     79  C   UNL A   1      51.406  25.932  26.605  1.00  0.00     0.198 A 
ATOM     80  C   UNL A   1      50.802  26.682  24.407  1.00  0.00     0.198 A 
ATOM     81  F   UNL A   1      48.616  27.446  23.985  1.00  0.00    -0.203 F 
ATOM     82  F   UNL A   1      52.327  25.473  27.463  1.00  0.00    -0.200 F 
ATOM     83  C   UNL A   1      51.751  26.181  25.284  1.00  0.00     0.200 A 
ATOM     84  F   UNL A   1      51.128  26.910  23.128  1.00  0.00    -0.200 F 
ATOM     85  F   UNL A   1      53.001  25.943  24.861  1.00  0.00    -0.200 F 
ENDBRANCH  51  75
BRANCH  63  86
ATOM     86  C   UNL A   1      46.033  32.364  28.792  1.00  0.00     0.064 A 
ATOM     87  C   UNL A   1      45.961  33.402  27.853  1.00  0.00     0.173 A 
ATOM     88  C   UNL A   1      46.555  32.658  30.060  1.00  0.00     0.173 A 
ATOM     89  F   UNL A   1      45.484  33.167  26.621  1.00  0.00    -0.203 F 
ATOM     90  C   UNL A   1      46.412  34.681  28.166  1.00  0.00     0.198 A 
ATOM     91  C   UNL A   1      46.981  33.945  30.378  1.00  0.00     0.198 A 
ATOM     92  F   UNL A   1      46.641  31.700  30.995  1.00  0.00    -0.203 F 
ATOM     93  F   UNL A   1      46.374  35.649  27.239  1.00  0.00    -0.200 F 
ATOM     94  C   UNL A   1      46.915  34.953  29.430  1.00  0.00     0.200 A 
ATOM     95  F   UNL A   1      47.453  34.208  31.604  1.00  0.00    -0.200 F 
ATOM     96  F   UNL A   1      47.343  36.187  29.731  1.00  0.00    -0.200 F 
ENDBRANCH  63  86
ENDBRANCH  37  38
ENDBRANCH  29  32
ENDBRANCH  27  28
ENDBRANCH  26  27
ENDBRANCH  25  26
ENDBRANCH   1  25
TORSDOF 16
ENDMDL
