MODEL 1
REMARK VINA RESULT:     -13.8      0.000      0.000
REMARK SMILES C[C@H](Oc1cc2oc(=O)cc(-c3ccccc3)c2cc1Cl)C(=O)NCCCCNC(=O)c1ccc(-c2c3nc(c(-c4c(F)c(F)c(F)c(F)c4F)c4ccc([nH]4)c(-c4c(F)c(F)c(F)c(F)c4F)c4nc(c(-c5c(F)c(F)c(F)c(F)c5F)c5ccc2[nH]5)C=C4)C=C3)cc1
REMARK SMILES IDX 26 1 25 2 24 3 22 4 23 5 2 7 1 8 3 9 4 10 5 11 20 12 6 13
REMARK SMILES IDX 19 14 21 15 7 16 18 17 8 18 11 19 9 20 10 21 12 22 13 23
REMARK SMILES IDX 17 24 14 25 16 26 15 27 27 28 28 29 29 30 30 31 31 33 32 34
REMARK SMILES IDX 33 35 94 36 34 37 93 38 35 39 36 40 37 41 87 42 38 43 92 44
REMARK SMILES IDX 86 45 88 46 39 47 91 48 85 49 84 50 40 52 72 53 52 54 71 55
REMARK SMILES IDX 53 56 56 57 70 58 89 59 54 60 55 61 69 63 90 64 57 65 41 66
REMARK SMILES IDX 42 67 50 68 43 69 44 70 48 71 51 72 45 73 46 74 49 75 47 76
REMARK SMILES IDX 73 77 74 78 82 79 75 80 76 81 80 82 83 83 77 84 78 85 81 86
REMARK SMILES IDX 79 87 58 88 59 89 67 90 60 91 61 92 65 93 68 94 62 95 63 96
REMARK SMILES IDX 66 97 64 98
REMARK H PARENT 24 6 29 32 88 51 56 62
REMARK Flexibility Score: inf
ROOT
ATOM      1  C   UNL A   1      31.710  30.528  26.584  1.00  0.00     0.023 C 
ENDROOT
BRANCH   1   2
ATOM      2  C   UNL A   1      31.450  29.959  25.193  1.00  0.00     0.116 C 
BRANCH   2   3
ATOM      3  N   UNL A   1      32.674  29.528  24.542  1.00  0.00    -0.353 N 
ATOM      4  C   UNL A   1      33.170  28.260  24.379  1.00  0.00     0.260 C 
ATOM      5  O   UNL A   1      34.252  28.131  23.803  1.00  0.00    -0.271 OA
ATOM      6  H   UNL A   1      33.228  30.249  24.164  1.00  0.00     0.163 HD
BRANCH   4   7
ATOM      7  C   UNL A   1      32.343  27.041  24.825  1.00  0.00     0.258 C 
ATOM      8  C   UNL A   1      32.494  26.934  26.344  1.00  0.00     0.064 C 
BRANCH   7   9
ATOM      9  O   UNL A   1      32.751  25.977  23.963  1.00  0.00    -0.479 OA
BRANCH   9  10
ATOM     10  C   UNL A   1      33.319  24.797  24.325  1.00  0.00     0.142 A 
ATOM     11  C   UNL A   1      34.595  24.631  24.839  1.00  0.00     0.096 A 
ATOM     12  C   UNL A   1      32.538  23.644  24.106  1.00  0.00     0.084 A 
ATOM     13  C   UNL A   1      35.119  23.342  24.993  1.00  0.00     0.142 A 
ATOM     14  C   UNL A   1      33.055  22.359  24.323  1.00  0.00     0.037 A 
ATOM     15  Cl  UNL A   1      30.908  23.758  23.531  1.00  0.00    -0.080 Cl
ATOM     16  O   UNL A   1      36.467  23.270  25.388  1.00  0.00    -0.423 OA
ATOM     17  C   UNL A   1      34.378  22.193  24.734  1.00  0.00     0.027 A 
ATOM     18  C   UNL A   1      37.125  22.055  25.441  1.00  0.00     0.336 A 
ATOM     19  C   UNL A   1      35.011  20.875  24.902  1.00  0.00    -0.000 A 
ATOM     20  O   UNL A   1      38.323  21.973  25.685  1.00  0.00    -0.246 OA
ATOM     21  C   UNL A   1      36.317  20.849  25.214  1.00  0.00     0.103 A 
BRANCH  19  22
ATOM     22  C   UNL A   1      34.350  19.562  24.743  1.00  0.00    -0.017 A 
ATOM     23  C   UNL A   1      35.105  18.431  24.399  1.00  0.00     0.009 A 
ATOM     24  C   UNL A   1      32.970  19.424  24.944  1.00  0.00     0.009 A 
ATOM     25  C   UNL A   1      34.492  17.186  24.261  1.00  0.00     0.001 A 
ATOM     26  C   UNL A   1      32.360  18.175  24.815  1.00  0.00     0.001 A 
ATOM     27  C   UNL A   1      33.121  17.057  24.473  1.00  0.00     0.000 A 
ENDBRANCH  19  22
ENDBRANCH   9  10
ENDBRANCH   7   9
ENDBRANCH   4   7
ENDBRANCH   2   3
ENDBRANCH   1   2
BRANCH   1  28
ATOM     28  C   UNL A   1      31.541  32.042  26.691  1.00  0.00     0.023 C 
BRANCH  28  29
ATOM     29  C   UNL A   1      32.710  32.780  27.332  1.00  0.00     0.116 C 
BRANCH  29  30
ATOM     30  N   UNL A   1      32.404  34.167  27.648  1.00  0.00    -0.352 N 
ATOM     31  C   UNL A   1      32.981  34.988  28.591  1.00  0.00     0.251 C 
ATOM     32  H   UNL A   1      31.685  34.574  27.114  1.00  0.00     0.163 HD
ATOM     33  O   UNL A   1      32.510  36.091  28.823  1.00  0.00    -0.269 OA
BRANCH  31  34
ATOM     34  C   UNL A   1      34.158  34.507  29.347  1.00  0.00     0.039 A 
ATOM     35  C   UNL A   1      33.961  33.935  30.606  1.00  0.00     0.014 A 
ATOM     36  C   UNL A   1      35.443  34.594  28.805  1.00  0.00     0.014 A 
ATOM     37  C   UNL A   1      35.046  33.383  31.289  1.00  0.00     0.010 A 
ATOM     38  C   UNL A   1      36.508  33.973  29.450  1.00  0.00     0.010 A 
ATOM     39  C   UNL A   1      36.320  33.360  30.698  1.00  0.00    -0.014 A 
BRANCH  39  40
ATOM     40  C   UNL A   1      37.467  32.695  31.366  1.00  0.00     0.031 A 
ATOM     41  C   UNL A   1      38.162  31.539  30.703  1.00  0.00     0.074 A 
ATOM     42  C   UNL A   1      37.838  33.085  32.602  1.00  0.00     0.049 A 
ATOM     43  N   UNL A   1      39.135  30.786  31.153  1.00  0.00    -0.248 NA
ATOM     44  C   UNL A   1      37.682  31.160  29.365  1.00  0.00     0.031 C 
ATOM     45  C   UNL A   1      37.211  34.160  33.373  1.00  0.00     0.029 A 
ATOM     46  N   UNL A   1      38.826  32.615  33.431  1.00  0.00    -0.354 N 
ATOM     47  C   UNL A   1      39.369  29.840  30.164  1.00  0.00     0.074 A 
ATOM     48  C   UNL A   1      38.402  30.077  29.115  1.00  0.00     0.031 C 
ATOM     49  C   UNL A   1      37.844  34.283  34.550  1.00  0.00     0.029 A 
ATOM     50  C   UNL A   1      38.894  33.273  34.635  1.00  0.00     0.049 A 
ATOM     51  H   UNL A   1      39.430  31.877  33.186  1.00  0.00     0.167 HD
ATOM     52  C   UNL A   1      40.321  28.877  30.125  1.00  0.00     0.037 A 
ATOM     53  C   UNL A   1      39.705  33.075  35.693  1.00  0.00     0.037 A 
ATOM     54  C   UNL A   1      41.296  28.660  31.161  1.00  0.00     0.049 A 
ATOM     55  C   UNL A   1      40.747  31.991  35.628  1.00  0.00     0.074 A 
ATOM     56  C   UNL A   1      42.341  27.753  31.186  1.00  0.00     0.029 A 
ATOM     57  N   UNL A   1      41.341  29.354  32.361  1.00  0.00    -0.354 N 
ATOM     58  N   UNL A   1      41.009  31.152  34.655  1.00  0.00    -0.248 NA
ATOM     59  C   UNL A   1      41.608  31.831  36.807  1.00  0.00     0.031 C 
ATOM     60  C   UNL A   1      42.986  27.862  32.422  1.00  0.00     0.029 A 
ATOM     61  C   UNL A   1      42.380  28.878  33.145  1.00  0.00     0.049 A 
ATOM     62  H   UNL A   1      40.726  30.079  32.619  1.00  0.00     0.167 HD
ATOM     63  C   UNL A   1      42.083  30.387  35.091  1.00  0.00     0.074 A 
ATOM     64  C   UNL A   1      42.433  30.872  36.409  1.00  0.00     0.031 C 
ATOM     65  C   UNL A   1      42.722  29.375  34.454  1.00  0.00     0.037 A 
BRANCH  52  66
ATOM     66  C   UNL A   1      40.353  27.983  28.918  1.00  0.00     0.064 A 
ATOM     67  C   UNL A   1      41.087  28.319  27.771  1.00  0.00     0.173 A 
ATOM     68  C   UNL A   1      39.668  26.758  28.922  1.00  0.00     0.173 A 
ATOM     69  F   UNL A   1      41.752  29.483  27.710  1.00  0.00    -0.203 F 
ATOM     70  C   UNL A   1      41.107  27.479  26.659  1.00  0.00     0.198 A 
ATOM     71  C   UNL A   1      39.718  25.905  27.823  1.00  0.00     0.198 A 
ATOM     72  F   UNL A   1      38.956  26.383  29.995  1.00  0.00    -0.203 F 
ATOM     73  F   UNL A   1      41.770  27.848  25.555  1.00  0.00    -0.200 F 
ATOM     74  C   UNL A   1      40.429  26.270  26.689  1.00  0.00     0.200 A 
ATOM     75  F   UNL A   1      39.074  24.730  27.858  1.00  0.00    -0.200 F 
ATOM     76  F   UNL A   1      40.455  25.460  25.622  1.00  0.00    -0.200 F 
ENDBRANCH  52  66
BRANCH  53  77
ATOM     77  C   UNL A   1      39.582  33.942  36.894  1.00  0.00     0.064 A 
ATOM     78  C   UNL A   1      38.809  33.544  37.994  1.00  0.00     0.173 A 
ATOM     79  C   UNL A   1      40.226  35.186  36.968  1.00  0.00     0.173 A 
ATOM     80  F   UNL A   1      38.157  32.372  37.962  1.00  0.00    -0.203 F 
ATOM     81  C   UNL A   1      38.668  34.363  39.111  1.00  0.00     0.198 A 
ATOM     82  C   UNL A   1      40.108  35.992  38.098  1.00  0.00     0.198 A 
ATOM     83  F   UNL A   1      40.982  35.614  35.946  1.00  0.00    -0.203 F 
ATOM     84  F   UNL A   1      37.884  33.977  40.127  1.00  0.00    -0.200 F 
ATOM     85  C   UNL A   1      39.323  35.584  39.165  1.00  0.00     0.200 A 
ATOM     86  F   UNL A   1      40.755  37.165  38.153  1.00  0.00    -0.200 F 
ATOM     87  F   UNL A   1      39.189  36.371  40.242  1.00  0.00    -0.200 F 
ENDBRANCH  53  77
BRANCH  65  88
ATOM     88  C   UNL A   1      43.891  28.747  35.157  1.00  0.00     0.064 A 
ATOM     89  C   UNL A   1      43.734  27.646  36.012  1.00  0.00     0.173 A 
ATOM     90  C   UNL A   1      45.191  29.229  34.939  1.00  0.00     0.173 A 
ATOM     91  F   UNL A   1      42.512  27.156  36.266  1.00  0.00    -0.203 F 
ATOM     92  C   UNL A   1      44.833  27.068  36.644  1.00  0.00     0.198 A 
ATOM     93  C   UNL A   1      46.290  28.629  35.547  1.00  0.00     0.198 A 
ATOM     94  F   UNL A   1      45.396  30.275  34.125  1.00  0.00    -0.203 F 
ATOM     95  F   UNL A   1      44.654  26.050  37.496  1.00  0.00    -0.200 F 
ATOM     96  C   UNL A   1      46.110  27.555  36.405  1.00  0.00     0.200 A 
ATOM     97  F   UNL A   1      47.524  29.090  35.302  1.00  0.00    -0.200 F 
ATOM     98  F   UNL A   1      47.167  26.992  37.007  1.00  0.00    -0.200 F 
ENDBRANCH  65  88
ENDBRANCH  39  40
ENDBRANCH  31  34
ENDBRANCH  29  30
ENDBRANCH  28  29
ENDBRANCH   1  28
TORSDOF 14
ENDMDL
MODEL 2
REMARK VINA RESULT:     -13.8      4.193      8.667
REMARK SMILES C[C@H](Oc1cc2oc(=O)cc(-c3ccccc3)c2cc1Cl)C(=O)NCCCCNC(=O)c1ccc(-c2c3nc(c(-c4c(F)c(F)c(F)c(F)c4F)c4ccc([nH]4)c(-c4c(F)c(F)c(F)c(F)c4F)c4nc(c(-c5c(F)c(F)c(F)c(F)c5F)c5ccc2[nH]5)C=C4)C=C3)cc1
REMARK SMILES IDX 26 1 25 2 24 3 22 4 23 5 2 7 1 8 3 9 4 10 5 11 20 12 6 13
REMARK SMILES IDX 19 14 21 15 7 16 18 17 8 18 11 19 9 20 10 21 12 22 13 23
REMARK SMILES IDX 17 24 14 25 16 26 15 27 27 28 28 29 29 30 30 31 31 33 32 34
REMARK SMILES IDX 33 35 94 36 34 37 93 38 35 39 36 40 37 41 87 42 38 43 92 44
REMARK SMILES IDX 86 45 88 46 39 47 91 48 85 49 84 50 40 52 72 53 52 54 71 55
REMARK SMILES IDX 53 56 56 57 70 58 89 59 54 60 55 61 69 63 90 64 57 65 41 66
REMARK SMILES IDX 42 67 50 68 43 69 44 70 48 71 51 72 45 73 46 74 49 75 47 76
REMARK SMILES IDX 73 77 74 78 82 79 75 80 76 81 80 82 83 83 77 84 78 85 81 86
REMARK SMILES IDX 79 87 58 88 59 89 67 90 60 91 61 92 65 93 68 94 62 95 63 96
REMARK SMILES IDX 66 97 64 98
REMARK H PARENT 24 6 29 32 88 51 56 62
REMARK Flexibility Score: inf
ROOT
ATOM      1  C   UNL A   1      35.546  22.819  23.687  1.00  0.00     0.023 C 
ENDROOT
BRANCH   1   2
ATOM      2  C   UNL A   1      34.393  23.643  23.125  1.00  0.00     0.116 C 
BRANCH   2   3
ATOM      3  N   UNL A   1      33.429  22.820  22.416  1.00  0.00    -0.353 N 
ATOM      4  C   UNL A   1      32.531  21.912  22.915  1.00  0.00     0.260 C 
ATOM      5  O   UNL A   1      31.815  21.306  22.115  1.00  0.00    -0.271 OA
ATOM      6  H   UNL A   1      33.420  22.928  21.438  1.00  0.00     0.163 HD
BRANCH   4   7
ATOM      7  C   UNL A   1      32.369  21.736  24.436  1.00  0.00     0.258 C 
ATOM      8  C   UNL A   1      32.345  20.230  24.708  1.00  0.00     0.064 C 
BRANCH   7   9
ATOM      9  O   UNL A   1      31.267  22.572  24.794  1.00  0.00    -0.479 OA
BRANCH   9  10
ATOM     10  C   UNL A   1      31.242  23.929  24.828  1.00  0.00     0.142 A 
ATOM     11  C   UNL A   1      30.511  24.752  23.985  1.00  0.00     0.096 A 
ATOM     12  C   UNL A   1      32.079  24.539  25.785  1.00  0.00     0.084 A 
ATOM     13  C   UNL A   1      30.723  26.135  24.010  1.00  0.00     0.142 A 
ATOM     14  C   UNL A   1      32.237  25.930  25.839  1.00  0.00     0.037 A 
ATOM     15  Cl  UNL A   1      32.978  23.593  26.924  1.00  0.00    -0.080 Cl
ATOM     16  O   UNL A   1      30.043  26.879  23.028  1.00  0.00    -0.423 OA
ATOM     17  C   UNL A   1      31.585  26.749  24.916  1.00  0.00     0.027 A 
ATOM     18  C   UNL A   1      30.282  28.233  22.873  1.00  0.00     0.336 A 
ATOM     19  C   UNL A   1      31.766  28.208  24.861  1.00  0.00    -0.000 A 
ATOM     20  O   UNL A   1      29.779  28.883  21.965  1.00  0.00    -0.246 OA
ATOM     21  C   UNL A   1      31.153  28.873  23.868  1.00  0.00     0.103 A 
BRANCH  19  22
ATOM     22  C   UNL A   1      32.579  29.023  25.790  1.00  0.00    -0.017 A 
ATOM     23  C   UNL A   1      33.886  28.629  26.111  1.00  0.00     0.009 A 
ATOM     24  C   UNL A   1      32.064  30.199  26.351  1.00  0.00     0.009 A 
ATOM     25  C   UNL A   1      34.664  29.400  26.975  1.00  0.00     0.001 A 
ATOM     26  C   UNL A   1      32.848  30.973  27.208  1.00  0.00     0.001 A 
ATOM     27  C   UNL A   1      34.147  30.573  27.520  1.00  0.00     0.000 A 
ENDBRANCH  19  22
ENDBRANCH   9  10
ENDBRANCH   7   9
ENDBRANCH   4   7
ENDBRANCH   2   3
ENDBRANCH   1   2
BRANCH   1  28
ATOM     28  C   UNL A   1      36.573  23.625  24.480  1.00  0.00     0.023 C 
BRANCH  28  29
ATOM     29  C   UNL A   1      36.777  23.173  25.921  1.00  0.00     0.116 C 
BRANCH  29  30
ATOM     30  N   UNL A   1      37.948  22.327  26.093  1.00  0.00    -0.352 N 
ATOM     31  C   UNL A   1      39.215  22.675  26.504  1.00  0.00     0.251 C 
ATOM     32  H   UNL A   1      37.816  21.374  25.885  1.00  0.00     0.163 HD
ATOM     33  O   UNL A   1      40.125  21.862  26.462  1.00  0.00    -0.269 OA
BRANCH  31  34
ATOM     34  C   UNL A   1      39.473  24.057  26.966  1.00  0.00     0.039 A 
ATOM     35  C   UNL A   1      39.186  24.388  28.292  1.00  0.00     0.014 A 
ATOM     36  C   UNL A   1      40.024  25.009  26.105  1.00  0.00     0.014 A 
ATOM     37  C   UNL A   1      39.519  25.655  28.774  1.00  0.00     0.010 A 
ATOM     38  C   UNL A   1      40.428  26.242  26.607  1.00  0.00     0.010 A 
ATOM     39  C   UNL A   1      40.181  26.577  27.947  1.00  0.00    -0.014 A 
BRANCH  39  40
ATOM     40  C   UNL A   1      40.628  27.894  28.467  1.00  0.00     0.031 A 
ATOM     41  C   UNL A   1      42.077  28.126  28.793  1.00  0.00     0.074 A 
ATOM     42  C   UNL A   1      39.719  28.859  28.712  1.00  0.00     0.049 A 
ATOM     43  N   UNL A   1      42.651  29.180  29.318  1.00  0.00    -0.248 NA
ATOM     44  C   UNL A   1      43.001  27.015  28.518  1.00  0.00     0.031 C 
ATOM     45  C   UNL A   1      38.278  28.740  28.484  1.00  0.00     0.029 A 
ATOM     46  N   UNL A   1      39.872  30.127  29.216  1.00  0.00    -0.354 N 
ATOM     47  C   UNL A   1      43.994  28.852  29.450  1.00  0.00     0.074 A 
ATOM     48  C   UNL A   1      44.141  27.484  29.003  1.00  0.00     0.031 C 
ATOM     49  C   UNL A   1      37.683  29.894  28.824  1.00  0.00     0.029 A 
ATOM     50  C   UNL A   1      38.692  30.820  29.330  1.00  0.00     0.049 A 
ATOM     51  H   UNL A   1      40.745  30.504  29.470  1.00  0.00     0.167 HD
ATOM     52  C   UNL A   1      45.015  29.631  29.882  1.00  0.00     0.037 A 
ATOM     53  C   UNL A   1      38.450  32.060  29.799  1.00  0.00     0.037 A 
ATOM     54  C   UNL A   1      44.867  30.998  30.304  1.00  0.00     0.049 A 
ATOM     55  C   UNL A   1      39.601  32.900  30.283  1.00  0.00     0.074 A 
ATOM     56  C   UNL A   1      45.849  31.890  30.698  1.00  0.00     0.029 A 
ATOM     57  N   UNL A   1      43.657  31.671  30.395  1.00  0.00    -0.354 N 
ATOM     58  N   UNL A   1      40.877  32.606  30.332  1.00  0.00    -0.248 NA
ATOM     59  C   UNL A   1      39.276  34.246  30.774  1.00  0.00     0.031 C 
ATOM     60  C   UNL A   1      45.229  33.086  31.076  1.00  0.00     0.029 A 
ATOM     61  C   UNL A   1      43.865  32.959  30.863  1.00  0.00     0.049 A 
ATOM     62  H   UNL A   1      42.780  31.291  30.160  1.00  0.00     0.167 HD
ATOM     63  C   UNL A   1      41.511  33.738  30.827  1.00  0.00     0.074 A 
ATOM     64  C   UNL A   1      40.479  34.729  31.049  1.00  0.00     0.031 C 
ATOM     65  C   UNL A   1      42.829  33.938  31.073  1.00  0.00     0.037 A 
BRANCH  52  66
ATOM     66  C   UNL A   1      46.386  29.018  29.920  1.00  0.00     0.064 A 
ATOM     67  C   UNL A   1      47.245  29.064  28.811  1.00  0.00     0.173 A 
ATOM     68  C   UNL A   1      46.860  28.405  31.090  1.00  0.00     0.173 A 
ATOM     69  F   UNL A   1      46.839  29.629  27.664  1.00  0.00    -0.203 F 
ATOM     70  C   UNL A   1      48.514  28.492  28.862  1.00  0.00     0.198 A 
ATOM     71  C   UNL A   1      48.141  27.863  31.148  1.00  0.00     0.198 A 
ATOM     72  F   UNL A   1      46.083  28.338  32.182  1.00  0.00    -0.203 F 
ATOM     73  F   UNL A   1      49.295  28.501  27.773  1.00  0.00    -0.200 F 
ATOM     74  C   UNL A   1      48.963  27.899  30.032  1.00  0.00     0.200 A 
ATOM     75  F   UNL A   1      48.579  27.303  32.283  1.00  0.00    -0.200 F 
ATOM     76  F   UNL A   1      50.187  27.354  30.081  1.00  0.00    -0.200 F 
ENDBRANCH  52  66
BRANCH  53  77
ATOM     77  C   UNL A   1      37.062  32.592  29.808  1.00  0.00     0.064 A 
ATOM     78  C   UNL A   1      36.548  33.280  28.700  1.00  0.00     0.173 A 
ATOM     79  C   UNL A   1      36.224  32.432  30.921  1.00  0.00     0.173 A 
ATOM     80  F   UNL A   1      37.318  33.477  27.619  1.00  0.00    -0.203 F 
ATOM     81  C   UNL A   1      35.258  33.806  28.713  1.00  0.00     0.198 A 
ATOM     82  C   UNL A   1      34.924  32.932  30.921  1.00  0.00     0.198 A 
ATOM     83  F   UNL A   1      36.664  31.778  32.006  1.00  0.00    -0.203 F 
ATOM     84  F   UNL A   1      34.810  34.501  27.658  1.00  0.00    -0.200 F 
ATOM     85  C   UNL A   1      34.444  33.626  29.821  1.00  0.00     0.200 A 
ATOM     86  F   UNL A   1      34.135  32.744  31.989  1.00  0.00    -0.200 F 
ATOM     87  F   UNL A   1      33.202  34.129  29.830  1.00  0.00    -0.200 F 
ENDBRANCH  53  77
BRANCH  65  88
ATOM     88  C   UNL A   1      43.239  35.293  31.575  1.00  0.00     0.064 A 
ATOM     89  C   UNL A   1      43.678  36.302  30.704  1.00  0.00     0.173 A 
ATOM     90  C   UNL A   1      43.153  35.598  32.942  1.00  0.00     0.173 A 
ATOM     91  F   UNL A   1      43.793  36.057  29.391  1.00  0.00    -0.203 F 
ATOM     92  C   UNL A   1      44.041  37.557  31.187  1.00  0.00     0.198 A 
ATOM     93  C   UNL A   1      43.485  36.863  33.418  1.00  0.00     0.198 A 
ATOM     94  F   UNL A   1      42.734  34.671  33.817  1.00  0.00    -0.203 F 
ATOM     95  F   UNL A   1      44.504  38.489  30.344  1.00  0.00    -0.200 F 
ATOM     96  C   UNL A   1      43.937  37.839  32.542  1.00  0.00     0.200 A 
ATOM     97  F   UNL A   1      43.369  37.138  34.724  1.00  0.00    -0.200 F 
ATOM     98  F   UNL A   1      44.277  39.050  33.003  1.00  0.00    -0.200 F 
ENDBRANCH  65  88
ENDBRANCH  39  40
ENDBRANCH  31  34
ENDBRANCH  29  30
ENDBRANCH  28  29
ENDBRANCH   1  28
TORSDOF 14
ENDMDL
MODEL 3
REMARK VINA RESULT:     -13.8      0.126      1.555
REMARK SMILES C[C@H](Oc1cc2oc(=O)cc(-c3ccccc3)c2cc1Cl)C(=O)NCCCCNC(=O)c1ccc(-c2c3nc(c(-c4c(F)c(F)c(F)c(F)c4F)c4ccc([nH]4)c(-c4c(F)c(F)c(F)c(F)c4F)c4nc(c(-c5c(F)c(F)c(F)c(F)c5F)c5ccc2[nH]5)C=C4)C=C3)cc1
REMARK SMILES IDX 26 1 25 2 24 3 22 4 23 5 2 7 1 8 3 9 4 10 5 11 20 12 6 13
REMARK SMILES IDX 19 14 21 15 7 16 18 17 8 18 11 19 9 20 10 21 12 22 13 23
REMARK SMILES IDX 17 24 14 25 16 26 15 27 27 28 28 29 29 30 30 31 31 33 32 34
REMARK SMILES IDX 33 35 94 36 34 37 93 38 35 39 36 40 37 41 87 42 38 43 92 44
REMARK SMILES IDX 86 45 88 46 39 47 91 48 85 49 84 50 40 52 72 53 52 54 71 55
REMARK SMILES IDX 53 56 56 57 70 58 89 59 54 60 55 61 69 63 90 64 57 65 41 66
REMARK SMILES IDX 42 67 50 68 43 69 44 70 48 71 51 72 45 73 46 74 49 75 47 76
REMARK SMILES IDX 73 77 74 78 82 79 75 80 76 81 80 82 83 83 77 84 78 85 81 86
REMARK SMILES IDX 79 87 58 88 59 89 67 90 60 91 61 92 65 93 68 94 62 95 63 96
REMARK SMILES IDX 66 97 64 98
REMARK H PARENT 24 6 29 32 88 51 56 62
REMARK Flexibility Score: inf
ROOT
ATOM      1  C   UNL A   1      31.727  30.451  26.492  1.00  0.00     0.023 C 
ENDROOT
BRANCH   1   2
ATOM      2  C   UNL A   1      31.459  29.880  25.104  1.00  0.00     0.116 C 
BRANCH   2   3
ATOM      3  N   UNL A   1      32.686  29.501  24.424  1.00  0.00    -0.353 N 
ATOM      4  C   UNL A   1      33.243  28.258  24.269  1.00  0.00     0.260 C 
ATOM      5  O   UNL A   1      34.313  28.175  23.663  1.00  0.00    -0.271 OA
ATOM      6  H   UNL A   1      33.189  30.243  24.017  1.00  0.00     0.163 HD
BRANCH   4   7
ATOM      7  C   UNL A   1      32.495  27.006  24.761  1.00  0.00     0.258 C 
ATOM      8  C   UNL A   1      32.704  26.930  26.275  1.00  0.00     0.064 C 
BRANCH   7   9
ATOM      9  O   UNL A   1      32.925  25.950  23.899  1.00  0.00    -0.479 OA
BRANCH   9  10
ATOM     10  C   UNL A   1      33.472  24.762  24.264  1.00  0.00     0.142 A 
ATOM     11  C   UNL A   1      34.762  24.568  24.732  1.00  0.00     0.096 A 
ATOM     12  C   UNL A   1      32.650  23.629  24.102  1.00  0.00     0.084 A 
ATOM     13  C   UNL A   1      35.253  23.268  24.894  1.00  0.00     0.142 A 
ATOM     14  C   UNL A   1      33.136  22.333  24.326  1.00  0.00     0.037 A 
ATOM     15  Cl  UNL A   1      31.002  23.780  23.587  1.00  0.00    -0.080 Cl
ATOM     16  O   UNL A   1      36.613  23.163  25.238  1.00  0.00    -0.423 OA
ATOM     17  C   UNL A   1      34.469  22.136  24.689  1.00  0.00     0.027 A 
ATOM     18  C   UNL A   1      37.237  21.930  25.292  1.00  0.00     0.336 A 
ATOM     19  C   UNL A   1      35.069  20.804  24.862  1.00  0.00    -0.000 A 
ATOM     20  O   UNL A   1      38.441  21.816  25.492  1.00  0.00    -0.246 OA
ATOM     21  C   UNL A   1      36.385  20.745  25.124  1.00  0.00     0.103 A 
BRANCH  19  22
ATOM     22  C   UNL A   1      34.364  19.507  24.758  1.00  0.00    -0.017 A 
ATOM     23  C   UNL A   1      35.051  18.367  24.318  1.00  0.00     0.009 A 
ATOM     24  C   UNL A   1      33.011  19.397  25.106  1.00  0.00     0.009 A 
ATOM     25  C   UNL A   1      34.397  17.138  24.230  1.00  0.00     0.001 A 
ATOM     26  C   UNL A   1      32.362  18.164  25.026  1.00  0.00     0.001 A 
ATOM     27  C   UNL A   1      33.054  17.035  24.588  1.00  0.00     0.000 A 
ENDBRANCH  19  22
ENDBRANCH   9  10
ENDBRANCH   7   9
ENDBRANCH   4   7
ENDBRANCH   2   3
ENDBRANCH   1   2
BRANCH   1  28
ATOM     28  C   UNL A   1      31.561  31.966  26.597  1.00  0.00     0.023 C 
BRANCH  28  29
ATOM     29  C   UNL A   1      32.694  32.692  27.313  1.00  0.00     0.116 C 
BRANCH  29  30
ATOM     30  N   UNL A   1      32.380  34.080  27.614  1.00  0.00    -0.352 N 
ATOM     31  C   UNL A   1      32.950  34.914  28.549  1.00  0.00     0.251 C 
ATOM     32  H   UNL A   1      31.659  34.478  27.074  1.00  0.00     0.163 HD
ATOM     33  O   UNL A   1      32.473  36.018  28.768  1.00  0.00    -0.269 OA
BRANCH  31  34
ATOM     34  C   UNL A   1      34.129  34.449  29.312  1.00  0.00     0.039 A 
ATOM     35  C   UNL A   1      33.929  33.846  30.556  1.00  0.00     0.014 A 
ATOM     36  C   UNL A   1      35.418  34.579  28.790  1.00  0.00     0.014 A 
ATOM     37  C   UNL A   1      35.019  33.308  31.244  1.00  0.00     0.010 A 
ATOM     38  C   UNL A   1      36.490  33.972  29.437  1.00  0.00     0.010 A 
ATOM     39  C   UNL A   1      36.301  33.329  30.671  1.00  0.00    -0.014 A 
BRANCH  39  40
ATOM     40  C   UNL A   1      37.455  32.679  31.341  1.00  0.00     0.031 A 
ATOM     41  C   UNL A   1      38.171  31.538  30.677  1.00  0.00     0.074 A 
ATOM     42  C   UNL A   1      37.815  33.071  32.580  1.00  0.00     0.049 A 
ATOM     43  N   UNL A   1      39.153  30.798  31.129  1.00  0.00    -0.248 NA
ATOM     44  C   UNL A   1      37.703  31.156  29.335  1.00  0.00     0.031 C 
ATOM     45  C   UNL A   1      37.167  34.134  33.351  1.00  0.00     0.029 A 
ATOM     46  N   UNL A   1      38.806  32.614  33.412  1.00  0.00    -0.354 N 
ATOM     47  C   UNL A   1      39.407  29.860  30.138  1.00  0.00     0.074 A 
ATOM     48  C   UNL A   1      38.441  30.085  29.085  1.00  0.00     0.031 C 
ATOM     49  C   UNL A   1      37.793  34.262  34.532  1.00  0.00     0.029 A 
ATOM     50  C   UNL A   1      38.858  33.268  34.618  1.00  0.00     0.049 A 
ATOM     51  H   UNL A   1      39.422  31.886  33.167  1.00  0.00     0.167 HD
ATOM     52  C   UNL A   1      40.375  28.912  30.099  1.00  0.00     0.037 A 
ATOM     53  C   UNL A   1      39.667  33.080  35.679  1.00  0.00     0.037 A 
ATOM     54  C   UNL A   1      41.348  28.706  31.139  1.00  0.00     0.049 A 
ATOM     55  C   UNL A   1      40.726  32.013  35.615  1.00  0.00     0.074 A 
ATOM     56  C   UNL A   1      42.407  27.816  31.165  1.00  0.00     0.029 A 
ATOM     57  N   UNL A   1      41.377  29.397  32.342  1.00  0.00    -0.354 N 
ATOM     58  N   UNL A   1      41.006  31.181  34.641  1.00  0.00    -0.248 NA
ATOM     59  C   UNL A   1      41.585  31.862  36.797  1.00  0.00     0.031 C 
ATOM     60  C   UNL A   1      43.045  27.930  32.405  1.00  0.00     0.029 A 
ATOM     61  C   UNL A   1      42.419  28.934  33.129  1.00  0.00     0.049 A 
ATOM     62  H   UNL A   1      40.750  30.111  32.599  1.00  0.00     0.167 HD
ATOM     63  C   UNL A   1      42.090  30.431  35.078  1.00  0.00     0.074 A 
ATOM     64  C   UNL A   1      42.426  30.917  36.400  1.00  0.00     0.031 C 
ATOM     65  C   UNL A   1      42.748  29.431  34.441  1.00  0.00     0.037 A 
BRANCH  52  66
ATOM     66  C   UNL A   1      40.426  28.022  28.890  1.00  0.00     0.064 A 
ATOM     67  C   UNL A   1      39.722  26.810  28.836  1.00  0.00     0.173 A 
ATOM     68  C   UNL A   1      41.163  28.403  27.758  1.00  0.00     0.173 A 
ATOM     69  F   UNL A   1      39.009  26.394  29.894  1.00  0.00    -0.203 F 
ATOM     70  C   UNL A   1      39.779  25.996  27.707  1.00  0.00     0.198 A 
ATOM     71  C   UNL A   1      41.191  27.603  26.618  1.00  0.00     0.198 A 
ATOM     72  F   UNL A   1      41.851  29.555  27.752  1.00  0.00    -0.203 F 
ATOM     73  F   UNL A   1      39.142  24.818  27.699  1.00  0.00    -0.200 F 
ATOM     74  C   UNL A   1      40.507  26.397  26.597  1.00  0.00     0.200 A 
ATOM     75  F   UNL A   1      41.884  27.998  25.541  1.00  0.00    -0.200 F 
ATOM     76  F   UNL A   1      40.556  25.616  25.509  1.00  0.00    -0.200 F 
ENDBRANCH  52  66
BRANCH  53  77
ATOM     77  C   UNL A   1      39.526  33.940  36.883  1.00  0.00     0.064 A 
ATOM     78  C   UNL A   1      38.763  33.521  37.982  1.00  0.00     0.173 A 
ATOM     79  C   UNL A   1      40.141  35.198  36.960  1.00  0.00     0.173 A 
ATOM     80  F   UNL A   1      38.138  32.334  37.948  1.00  0.00    -0.203 F 
ATOM     81  C   UNL A   1      38.604  34.334  39.101  1.00  0.00     0.198 A 
ATOM     82  C   UNL A   1      40.005  35.998  38.092  1.00  0.00     0.198 A 
ATOM     83  F   UNL A   1      40.886  35.646  35.938  1.00  0.00    -0.203 F 
ATOM     84  F   UNL A   1      37.829  33.928  40.117  1.00  0.00    -0.200 F 
ATOM     85  C   UNL A   1      39.230  35.570  39.159  1.00  0.00     0.200 A 
ATOM     86  F   UNL A   1      40.625  37.186  38.150  1.00  0.00    -0.200 F 
ATOM     87  F   UNL A   1      39.079  36.350  40.238  1.00  0.00    -0.200 F 
ENDBRANCH  53  77
BRANCH  65  88
ATOM     88  C   UNL A   1      43.923  28.820  35.147  1.00  0.00     0.064 A 
ATOM     89  C   UNL A   1      45.216  29.352  35.026  1.00  0.00     0.173 A 
ATOM     90  C   UNL A   1      43.746  27.710  35.987  1.00  0.00     0.173 A 
ATOM     91  F   UNL A   1      45.442  30.402  34.224  1.00  0.00    -0.203 F 
ATOM     92  C   UNL A   1      46.292  28.779  35.700  1.00  0.00     0.198 A 
ATOM     93  C   UNL A   1      44.818  27.160  36.685  1.00  0.00     0.198 A 
ATOM     94  F   UNL A   1      42.529  27.166  36.143  1.00  0.00    -0.203 F 
ATOM     95  F   UNL A   1      47.526  29.272  35.531  1.00  0.00    -0.200 F 
ATOM     96  C   UNL A   1      46.091  27.689  36.534  1.00  0.00     0.200 A 
ATOM     97  F   UNL A   1      44.618  26.117  37.503  1.00  0.00    -0.200 F 
ATOM     98  F   UNL A   1      47.125  27.144  37.190  1.00  0.00    -0.200 F 
ENDBRANCH  65  88
ENDBRANCH  39  40
ENDBRANCH  31  34
ENDBRANCH  29  30
ENDBRANCH  28  29
ENDBRANCH   1  28
TORSDOF 14
ENDMDL
