MODEL 1
REMARK VINA RESULT:     -11.1      0.000      0.000
REMARK SMILES O=C(C[C@H]1C[N@@H+](Cc2ccncc2)CCO1)NCCCCNC(=O)c1ccc(-c2c3nc(c(-c4c(F)c(F)c(F)c(F)c4F)c4ccc([nH]4)c(-c4c(F)c(F)c(F)c(F)c4F)c4nc(c(-c5c(F)c(F)c(F)c(F)c5F)c5ccc2[nH]5)C=C4)C=C3)cc1
REMARK SMILES IDX 19 1 18 2 17 3 1 4 2 5 3 7 4 8 5 9 16 10 6 11 15 12 14 13
REMARK SMILES IDX 7 15 8 16 9 17 13 18 10 19 12 20 11 21 20 22 21 23 22 24
REMARK SMILES IDX 23 25 24 27 25 28 26 29 87 30 27 31 86 32 28 33 29 34 30 35
REMARK SMILES IDX 80 36 31 37 85 38 79 39 81 40 32 41 84 42 78 43 77 44 33 46
REMARK SMILES IDX 65 47 45 48 64 49 46 50 49 51 63 52 82 53 47 54 48 55 62 57
REMARK SMILES IDX 83 58 50 59 34 60 35 61 43 62 36 63 37 64 41 65 44 66 38 67
REMARK SMILES IDX 39 68 42 69 40 70 66 71 67 72 75 73 68 74 69 75 73 76 76 77
REMARK SMILES IDX 70 78 71 79 74 80 72 81 51 82 52 83 60 84 53 85 54 86 58 87
REMARK SMILES IDX 61 88 55 89 56 90 59 91 57 92
REMARK H PARENT 17 6 6 14 22 26 81 45 49 56
REMARK Flexibility Score: inf
ROOT
ATOM      1  C   UNL A   1      34.532  33.930  28.574  1.00  0.00     0.023 C 
ENDROOT
BRANCH   1   2
ATOM      2  C   UNL A   1      34.634  32.607  29.344  1.00  0.00     0.116 C 
BRANCH   2   3
ATOM      3  N   UNL A   1      34.282  31.448  28.546  1.00  0.00    -0.356 N 
ATOM      4  O   UNL A   1      36.366  31.023  27.727  1.00  0.00    -0.275 OA
ATOM      5  C   UNL A   1      35.192  30.681  27.855  1.00  0.00     0.222 C 
ATOM      6  H   UNL A   1      33.332  31.193  28.496  1.00  0.00     0.163 HD
BRANCH   5   7
ATOM      7  C   UNL A   1      34.651  29.412  27.197  1.00  0.00     0.138 C 
BRANCH   7   8
ATOM      8  C   UNL A   1      33.363  29.582  26.387  1.00  0.00     0.182 C 
ATOM      9  C   UNL A   1      33.097  28.605  25.219  1.00  0.00     0.295 C 
ATOM     10  O   UNL A   1      32.200  29.616  27.252  1.00  0.00    -0.366 OA
ATOM     11  N   UNL A   1      32.651  27.258  25.583  1.00  0.00    -0.327 N 
ATOM     12  C   UNL A   1      31.717  28.320  27.643  1.00  0.00     0.222 C 
ATOM     13  C   UNL A   1      31.479  27.377  26.449  1.00  0.00     0.291 C 
ATOM     14  H   UNL A   1      32.420  26.833  24.685  1.00  0.00     0.348 HD
BRANCH  11  15
ATOM     15  C   UNL A   1      33.579  26.156  25.851  1.00  0.00     0.299 C 
BRANCH  15  16
ATOM     16  C   UNL A   1      33.979  25.189  24.756  1.00  0.00     0.009 A 
ATOM     17  C   UNL A   1      33.227  25.089  23.581  1.00  0.00     0.029 A 
ATOM     18  C   UNL A   1      35.141  24.407  24.831  1.00  0.00     0.029 A 
ATOM     19  C   UNL A   1      33.578  24.148  22.623  1.00  0.00     0.111 A 
ATOM     20  C   UNL A   1      35.408  23.484  23.827  1.00  0.00     0.111 A 
ATOM     21  N   UNL A   1      34.640  23.328  22.733  1.00  0.00    -0.265 NA
ENDBRANCH  15  16
ENDBRANCH  11  15
ENDBRANCH   7   8
ENDBRANCH   5   7
ENDBRANCH   2   3
ENDBRANCH   1   2
BRANCH   1  22
ATOM     22  C   UNL A   1      33.244  34.753  28.721  1.00  0.00     0.023 C 
BRANCH  22  23
ATOM     23  C   UNL A   1      33.341  36.092  29.442  1.00  0.00     0.116 C 
BRANCH  23  24
ATOM     24  N   UNL A   1      32.473  36.162  30.603  1.00  0.00    -0.352 N 
ATOM     25  C   UNL A   1      32.607  35.591  31.844  1.00  0.00     0.251 C 
ATOM     26  H   UNL A   1      31.660  36.702  30.481  1.00  0.00     0.163 HD
ATOM     27  O   UNL A   1      31.649  35.634  32.627  1.00  0.00    -0.269 OA
BRANCH  25  28
ATOM     28  C   UNL A   1      33.852  34.905  32.270  1.00  0.00     0.039 A 
ATOM     29  C   UNL A   1      33.753  33.627  32.832  1.00  0.00     0.014 A 
ATOM     30  C   UNL A   1      35.106  35.515  32.183  1.00  0.00     0.014 A 
ATOM     31  C   UNL A   1      34.902  32.944  33.249  1.00  0.00     0.010 A 
ATOM     32  C   UNL A   1      36.260  34.806  32.532  1.00  0.00     0.010 A 
ATOM     33  C   UNL A   1      36.172  33.513  33.072  1.00  0.00    -0.014 A 
BRANCH  33  34
ATOM     34  C   UNL A   1      37.410  32.768  33.440  1.00  0.00     0.031 A 
ATOM     35  C   UNL A   1      38.140  33.075  34.721  1.00  0.00     0.074 A 
ATOM     36  C   UNL A   1      37.914  31.847  32.594  1.00  0.00     0.049 A 
ATOM     37  N   UNL A   1      39.266  32.580  35.174  1.00  0.00    -0.248 NA
ATOM     38  C   UNL A   1      37.536  34.089  35.598  1.00  0.00     0.031 C 
ATOM     39  C   UNL A   1      37.329  31.475  31.305  1.00  0.00     0.029 A 
ATOM     40  N   UNL A   1      39.039  31.063  32.685  1.00  0.00    -0.354 N 
ATOM     41  C   UNL A   1      39.510  33.229  36.378  1.00  0.00     0.074 A 
ATOM     42  C   UNL A   1      38.442  34.189  36.561  1.00  0.00     0.031 C 
ATOM     43  C   UNL A   1      38.087  30.524  30.735  1.00  0.00     0.029 A 
ATOM     44  C   UNL A   1      39.234  30.248  31.596  1.00  0.00     0.049 A 
ATOM     45  H   UNL A   1      39.649  31.083  33.458  1.00  0.00     0.167 HD
ATOM     46  C   UNL A   1      40.520  33.030  37.261  1.00  0.00     0.037 A 
ATOM     47  C   UNL A   1      40.228  29.384  31.314  1.00  0.00     0.037 A 
ATOM     48  C   UNL A   1      41.571  32.060  37.092  1.00  0.00     0.049 A 
ATOM     49  C   UNL A   1      41.350  29.197  32.301  1.00  0.00     0.074 A 
ATOM     50  C   UNL A   1      42.605  31.748  37.959  1.00  0.00     0.029 A 
ATOM     51  N   UNL A   1      41.729  31.249  35.978  1.00  0.00    -0.354 N 
ATOM     52  N   UNL A   1      41.533  29.771  33.465  1.00  0.00    -0.248 NA
ATOM     53  C   UNL A   1      42.400  28.236  31.937  1.00  0.00     0.031 C 
ATOM     54  C   UNL A   1      43.417  30.788  37.348  1.00  0.00     0.029 A 
ATOM     55  C   UNL A   1      42.858  30.457  36.124  1.00  0.00     0.049 A 
ATOM     56  H   UNL A   1      41.128  31.238  35.198  1.00  0.00     0.167 HD
ATOM     57  C   UNL A   1      42.698  29.221  33.983  1.00  0.00     0.074 A 
ATOM     58  C   UNL A   1      43.171  28.255  33.015  1.00  0.00     0.031 C 
ATOM     59  C   UNL A   1      43.317  29.492  35.158  1.00  0.00     0.037 A 
BRANCH  46  60
ATOM     60  C   UNL A   1      40.540  33.882  38.500  1.00  0.00     0.064 A 
ATOM     61  C   UNL A   1      41.257  35.087  38.554  1.00  0.00     0.173 A 
ATOM     62  C   UNL A   1      39.796  33.511  39.630  1.00  0.00     0.173 A 
ATOM     63  F   UNL A   1      41.990  35.484  37.504  1.00  0.00    -0.203 F 
ATOM     64  C   UNL A   1      41.253  35.873  39.705  1.00  0.00     0.198 A 
ATOM     65  C   UNL A   1      39.768  34.316  40.768  1.00  0.00     0.198 A 
ATOM     66  F   UNL A   1      39.084  32.374  39.630  1.00  0.00    -0.203 F 
ATOM     67  F   UNL A   1      41.985  36.994  39.750  1.00  0.00    -0.200 F 
ATOM     68  C   UNL A   1      40.504  35.490  40.807  1.00  0.00     0.200 A 
ATOM     69  F   UNL A   1      39.030  33.953  41.825  1.00  0.00    -0.200 F 
ATOM     70  F   UNL A   1      40.495  36.251  41.910  1.00  0.00    -0.200 F 
ENDBRANCH  46  60
BRANCH  47  71
ATOM     71  C   UNL A   1      40.204  28.613  30.042  1.00  0.00     0.064 A 
ATOM     72  C   UNL A   1      40.811  29.116  28.883  1.00  0.00     0.173 A 
ATOM     73  C   UNL A   1      39.564  27.367  29.955  1.00  0.00     0.173 A 
ATOM     74  F   UNL A   1      41.414  30.313  28.908  1.00  0.00    -0.203 F 
ATOM     75  C   UNL A   1      40.759  28.413  27.680  1.00  0.00     0.198 A 
ATOM     76  C   UNL A   1      39.541  26.651  28.760  1.00  0.00     0.198 A 
ATOM     77  F   UNL A   1      38.971  26.840  31.036  1.00  0.00    -0.203 F 
ATOM     78  F   UNL A   1      41.303  28.942  26.575  1.00  0.00    -0.200 F 
ATOM     79  C   UNL A   1      40.131  27.180  27.621  1.00  0.00     0.200 A 
ATOM     80  F   UNL A   1      38.945  25.452  28.712  1.00  0.00    -0.200 F 
ATOM     81  F   UNL A   1      40.084  26.504  26.465  1.00  0.00    -0.200 F 
ENDBRANCH  47  71
BRANCH  59  82
ATOM     82  C   UNL A   1      44.556  28.706  35.485  1.00  0.00     0.064 A 
ATOM     83  C   UNL A   1      45.834  29.156  35.121  1.00  0.00     0.173 A 
ATOM     84  C   UNL A   1      44.465  27.504  36.204  1.00  0.00     0.173 A 
ATOM     85  F   UNL A   1      45.977  30.291  34.419  1.00  0.00    -0.203 F 
ATOM     86  C   UNL A   1      46.971  28.419  35.442  1.00  0.00     0.198 A 
ATOM     87  C   UNL A   1      45.606  26.787  36.552  1.00  0.00     0.198 A 
ATOM     88  F   UNL A   1      43.267  27.032  36.582  1.00  0.00    -0.203 F 
ATOM     89  F   UNL A   1      48.178  28.843  35.040  1.00  0.00    -0.200 F 
ATOM     90  C   UNL A   1      46.857  27.239  36.163  1.00  0.00     0.200 A 
ATOM     91  F   UNL A   1      45.494  25.655  37.261  1.00  0.00    -0.200 F 
ATOM     92  F   UNL A   1      47.954  26.536  36.478  1.00  0.00    -0.200 F 
ENDBRANCH  59  82
ENDBRANCH  33  34
ENDBRANCH  25  28
ENDBRANCH  23  24
ENDBRANCH  22  23
ENDBRANCH   1  22
TORSDOF 14
ENDMDL
MODEL 2
REMARK VINA RESULT:     -11.1      6.659     11.144
REMARK SMILES O=C(C[C@H]1C[N@@H+](Cc2ccncc2)CCO1)NCCCCNC(=O)c1ccc(-c2c3nc(c(-c4c(F)c(F)c(F)c(F)c4F)c4ccc([nH]4)c(-c4c(F)c(F)c(F)c(F)c4F)c4nc(c(-c5c(F)c(F)c(F)c(F)c5F)c5ccc2[nH]5)C=C4)C=C3)cc1
REMARK SMILES IDX 19 1 18 2 17 3 1 4 2 5 3 7 4 8 5 9 16 10 6 11 15 12 14 13
REMARK SMILES IDX 7 15 8 16 9 17 13 18 10 19 12 20 11 21 20 22 21 23 22 24
REMARK SMILES IDX 23 25 24 27 25 28 26 29 87 30 27 31 86 32 28 33 29 34 30 35
REMARK SMILES IDX 80 36 31 37 85 38 79 39 81 40 32 41 84 42 78 43 77 44 33 46
REMARK SMILES IDX 65 47 45 48 64 49 46 50 49 51 63 52 82 53 47 54 48 55 62 57
REMARK SMILES IDX 83 58 50 59 34 60 35 61 43 62 36 63 37 64 41 65 44 66 38 67
REMARK SMILES IDX 39 68 42 69 40 70 66 71 67 72 75 73 68 74 69 75 73 76 76 77
REMARK SMILES IDX 70 78 71 79 74 80 72 81 51 82 52 83 60 84 53 85 54 86 58 87
REMARK SMILES IDX 61 88 55 89 56 90 59 91 57 92
REMARK H PARENT 17 6 6 14 22 26 81 45 49 56
REMARK Flexibility Score: inf
ROOT
ATOM      1  C   UNL A   1      37.374  20.600  24.642  1.00  0.00     0.023 C 
ENDROOT
BRANCH   1   2
ATOM      2  C   UNL A   1      37.488  21.911  25.431  1.00  0.00     0.116 C 
BRANCH   2   3
ATOM      3  N   UNL A   1      36.255  22.297  26.089  1.00  0.00    -0.356 N 
ATOM      4  O   UNL A   1      36.077  24.373  25.167  1.00  0.00    -0.275 OA
ATOM      5  C   UNL A   1      35.585  23.475  25.847  1.00  0.00     0.222 C 
ATOM      6  H   UNL A   1      35.872  21.677  26.751  1.00  0.00     0.163 HD
BRANCH   5   7
ATOM      7  C   UNL A   1      34.224  23.635  26.524  1.00  0.00     0.138 C 
BRANCH   7   8
ATOM      8  C   UNL A   1      33.048  23.927  25.588  1.00  0.00     0.182 C 
ATOM      9  C   UNL A   1      32.706  22.887  24.496  1.00  0.00     0.295 C 
ATOM     10  O   UNL A   1      31.848  24.243  26.336  1.00  0.00    -0.366 OA
ATOM     11  N   UNL A   1      32.009  21.678  24.941  1.00  0.00    -0.327 N 
ATOM     12  C   UNL A   1      31.121  23.093  26.800  1.00  0.00     0.222 C 
ATOM     13  C   UNL A   1      30.813  22.080  25.681  1.00  0.00     0.291 C 
ATOM     14  H   UNL A   1      31.775  21.203  24.069  1.00  0.00     0.348 HD
BRANCH  11  15
ATOM     15  C   UNL A   1      32.710  20.474  25.394  1.00  0.00     0.299 C 
BRANCH  15  16
ATOM     16  C   UNL A   1      33.011  19.339  24.436  1.00  0.00     0.009 A 
ATOM     17  C   UNL A   1      32.211  19.124  23.309  1.00  0.00     0.029 A 
ATOM     18  C   UNL A   1      34.127  18.504  24.587  1.00  0.00     0.029 A 
ATOM     19  C   UNL A   1      32.470  18.039  22.485  1.00  0.00     0.111 A 
ATOM     20  C   UNL A   1      34.302  17.434  23.717  1.00  0.00     0.111 A 
ATOM     21  N   UNL A   1      33.485  17.176  22.679  1.00  0.00    -0.265 NA
ENDBRANCH  15  16
ENDBRANCH  11  15
ENDBRANCH   7   8
ENDBRANCH   5   7
ENDBRANCH   2   3
ENDBRANCH   1   2
BRANCH   1  22
ATOM     22  C   UNL A   1      38.363  19.473  24.970  1.00  0.00     0.023 C 
BRANCH  22  23
ATOM     23  C   UNL A   1      39.379  19.725  26.078  1.00  0.00     0.116 C 
BRANCH  23  24
ATOM     24  N   UNL A   1      40.533  18.850  25.983  1.00  0.00    -0.352 N 
ATOM     25  C   UNL A   1      41.873  19.145  26.019  1.00  0.00     0.251 C 
ATOM     26  H   UNL A   1      40.321  17.895  25.876  1.00  0.00     0.163 HD
ATOM     27  O   UNL A   1      42.687  18.257  25.735  1.00  0.00    -0.269 OA
BRANCH  25  28
ATOM     28  C   UNL A   1      42.377  20.497  26.364  1.00  0.00     0.039 A 
ATOM     29  C   UNL A   1      42.763  21.353  25.326  1.00  0.00     0.014 A 
ATOM     30  C   UNL A   1      42.534  20.919  27.688  1.00  0.00     0.014 A 
ATOM     31  C   UNL A   1      43.246  22.637  25.606  1.00  0.00     0.010 A 
ATOM     32  C   UNL A   1      42.949  22.225  27.966  1.00  0.00     0.010 A 
ATOM     33  C   UNL A   1      43.312  23.099  26.929  1.00  0.00    -0.014 A 
BRANCH  33  34
ATOM     34  C   UNL A   1      43.751  24.490  27.240  1.00  0.00     0.031 A 
ATOM     35  C   UNL A   1      42.766  25.513  27.741  1.00  0.00     0.074 A 
ATOM     36  C   UNL A   1      45.031  24.852  27.021  1.00  0.00     0.049 A 
ATOM     37  N   UNL A   1      42.950  26.785  27.999  1.00  0.00    -0.248 NA
ATOM     38  C   UNL A   1      41.388  25.052  27.959  1.00  0.00     0.031 C 
ATOM     39  C   UNL A   1      46.082  23.972  26.507  1.00  0.00     0.029 A 
ATOM     40  N   UNL A   1      45.666  26.059  27.194  1.00  0.00    -0.354 N 
ATOM     41  C   UNL A   1      41.713  27.277  28.396  1.00  0.00     0.074 A 
ATOM     42  C   UNL A   1      40.775  26.178  28.296  1.00  0.00     0.031 C 
ATOM     43  C   UNL A   1      47.231  24.662  26.423  1.00  0.00     0.029 A 
ATOM     44  C   UNL A   1      46.992  26.042  26.836  1.00  0.00     0.049 A 
ATOM     45  H   UNL A   1      45.212  26.862  27.540  1.00  0.00     0.167 HD
ATOM     46  C   UNL A   1      41.390  28.522  28.823  1.00  0.00     0.037 A 
ATOM     47  C   UNL A   1      47.912  27.026  26.829  1.00  0.00     0.037 A 
ATOM     48  C   UNL A   1      42.326  29.611  28.943  1.00  0.00     0.049 A 
ATOM     49  C   UNL A   1      47.523  28.407  27.288  1.00  0.00     0.074 A 
ATOM     50  C   UNL A   1      42.103  30.891  29.420  1.00  0.00     0.029 A 
ATOM     51  N   UNL A   1      43.663  29.550  28.577  1.00  0.00    -0.354 N 
ATOM     52  N   UNL A   1      46.364  28.840  27.721  1.00  0.00    -0.248 NA
ATOM     53  C   UNL A   1      48.573  29.435  27.262  1.00  0.00     0.031 C 
ATOM     54  C   UNL A   1      43.290  31.620  29.294  1.00  0.00     0.029 A 
ATOM     55  C   UNL A   1      44.269  30.778  28.793  1.00  0.00     0.049 A 
ATOM     56  H   UNL A   1      44.114  28.752  28.218  1.00  0.00     0.167 HD
ATOM     57  C   UNL A   1      46.553  30.176  28.047  1.00  0.00     0.074 A 
ATOM     58  C   UNL A   1      47.942  30.480  27.776  1.00  0.00     0.031 C 
ATOM     59  C   UNL A   1      45.655  31.070  28.529  1.00  0.00     0.037 A 
BRANCH  46  60
ATOM     60  C   UNL A   1      39.956  28.781  29.195  1.00  0.00     0.064 A 
ATOM     61  C   UNL A   1      39.018  29.228  28.252  1.00  0.00     0.173 A 
ATOM     62  C   UNL A   1      39.506  28.536  30.501  1.00  0.00     0.173 A 
ATOM     63  F   UNL A   1      39.399  29.485  26.992  1.00  0.00    -0.203 F 
ATOM     64  C   UNL A   1      37.690  29.450  28.610  1.00  0.00     0.198 A 
ATOM     65  C   UNL A   1      38.169  28.726  30.848  1.00  0.00     0.198 A 
ATOM     66  F   UNL A   1      40.357  28.098  31.441  1.00  0.00    -0.203 F 
ATOM     67  F   UNL A   1      36.825  29.924  27.704  1.00  0.00    -0.200 F 
ATOM     68  C   UNL A   1      37.266  29.192  29.905  1.00  0.00     0.200 A 
ATOM     69  F   UNL A   1      37.757  28.461  32.095  1.00  0.00    -0.200 F 
ATOM     70  F   UNL A   1      35.986  29.397  30.245  1.00  0.00    -0.200 F 
ENDBRANCH  46  60
BRANCH  47  71
ATOM     71  C   UNL A   1      49.302  26.741  26.385  1.00  0.00     0.064 A 
ATOM     72  C   UNL A   1      50.265  26.270  27.289  1.00  0.00     0.173 A 
ATOM     73  C   UNL A   1      49.701  26.946  25.055  1.00  0.00     0.173 A 
ATOM     74  F   UNL A   1      49.939  26.081  28.576  1.00  0.00    -0.203 F 
ATOM     75  C   UNL A   1      51.578  26.036  26.885  1.00  0.00     0.198 A 
ATOM     76  C   UNL A   1      51.007  26.681  24.647  1.00  0.00     0.198 A 
ATOM     77  F   UNL A   1      48.819  27.393  24.151  1.00  0.00    -0.203 F 
ATOM     78  F   UNL A   1      52.491  25.635  27.782  1.00  0.00    -0.200 F 
ATOM     79  C   UNL A   1      51.947  26.235  25.564  1.00  0.00     0.200 A 
ATOM     80  F   UNL A   1      51.354  26.861  23.365  1.00  0.00    -0.200 F 
ATOM     81  F   UNL A   1      53.208  26.007  25.176  1.00  0.00    -0.200 F 
ENDBRANCH  47  71
BRANCH  59  82
ATOM     82  C   UNL A   1      46.152  32.455  28.834  1.00  0.00     0.064 A 
ATOM     83  C   UNL A   1      46.744  32.773  30.066  1.00  0.00     0.173 A 
ATOM     84  C   UNL A   1      46.066  33.469  27.868  1.00  0.00     0.173 A 
ATOM     85  F   UNL A   1      46.836  31.845  31.031  1.00  0.00    -0.203 F 
ATOM     86  C   UNL A   1      47.207  34.060  30.326  1.00  0.00     0.198 A 
ATOM     87  C   UNL A   1      46.560  34.745  28.120  1.00  0.00     0.198 A 
ATOM     88  F   UNL A   1      45.514  33.216  26.671  1.00  0.00    -0.203 F 
ATOM     89  F   UNL A   1      47.723  34.354  31.529  1.00  0.00    -0.200 F 
ATOM     90  C   UNL A   1      47.122  35.043  29.351  1.00  0.00     0.200 A 
ATOM     91  F   UNL A   1      46.489  35.689  27.171  1.00  0.00    -0.200 F 
ATOM     92  F   UNL A   1      47.576  36.279  29.602  1.00  0.00    -0.200 F 
ENDBRANCH  59  82
ENDBRANCH  33  34
ENDBRANCH  25  28
ENDBRANCH  23  24
ENDBRANCH  22  23
ENDBRANCH   1  22
TORSDOF 14
ENDMDL
MODEL 3
REMARK VINA RESULT:     -11.0      2.210      8.028
REMARK SMILES O=C(C[C@H]1C[N@@H+](Cc2ccncc2)CCO1)NCCCCNC(=O)c1ccc(-c2c3nc(c(-c4c(F)c(F)c(F)c(F)c4F)c4ccc([nH]4)c(-c4c(F)c(F)c(F)c(F)c4F)c4nc(c(-c5c(F)c(F)c(F)c(F)c5F)c5ccc2[nH]5)C=C4)C=C3)cc1
REMARK SMILES IDX 19 1 18 2 17 3 1 4 2 5 3 7 4 8 5 9 16 10 6 11 15 12 14 13
REMARK SMILES IDX 7 15 8 16 9 17 13 18 10 19 12 20 11 21 20 22 21 23 22 24
REMARK SMILES IDX 23 25 24 27 25 28 26 29 87 30 27 31 86 32 28 33 29 34 30 35
REMARK SMILES IDX 80 36 31 37 85 38 79 39 81 40 32 41 84 42 78 43 77 44 33 46
REMARK SMILES IDX 65 47 45 48 64 49 46 50 49 51 63 52 82 53 47 54 48 55 62 57
REMARK SMILES IDX 83 58 50 59 34 60 35 61 43 62 36 63 37 64 41 65 44 66 38 67
REMARK SMILES IDX 39 68 42 69 40 70 66 71 67 72 75 73 68 74 69 75 73 76 76 77
REMARK SMILES IDX 70 78 71 79 74 80 72 81 51 82 52 83 60 84 53 85 54 86 58 87
REMARK SMILES IDX 61 88 55 89 56 90 59 91 57 92
REMARK H PARENT 17 6 6 14 22 26 81 45 49 56
REMARK Flexibility Score: inf
ROOT
ATOM      1  C   UNL A   1      31.290  31.001  26.498  1.00  0.00     0.023 C 
ENDROOT
BRANCH   1   2
ATOM      2  C   UNL A   1      32.601  30.225  26.684  1.00  0.00     0.116 C 
BRANCH   2   3
ATOM      3  N   UNL A   1      33.003  29.484  25.505  1.00  0.00    -0.356 N 
ATOM      4  O   UNL A   1      34.325  27.959  26.564  1.00  0.00    -0.275 OA
ATOM      5  C   UNL A   1      33.775  28.344  25.535  1.00  0.00     0.222 C 
ATOM      6  H   UNL A   1      32.705  29.815  24.627  1.00  0.00     0.163 HD
BRANCH   5   7
ATOM      7  C   UNL A   1      33.967  27.618  24.203  1.00  0.00     0.138 C 
BRANCH   7   8
ATOM      8  C   UNL A   1      33.125  26.354  24.010  1.00  0.00     0.182 C 
ATOM      9  C   UNL A   1      31.587  26.499  23.965  1.00  0.00     0.295 C 
ATOM     10  O   UNL A   1      33.566  25.602  22.852  1.00  0.00    -0.366 OA
ATOM     11  N   UNL A   1      31.016  27.029  22.724  1.00  0.00    -0.327 N 
ATOM     12  C   UNL A   1      33.037  26.078  21.603  1.00  0.00     0.222 C 
ATOM     13  C   UNL A   1      31.503  26.218  21.608  1.00  0.00     0.291 C 
ATOM     14  H   UNL A   1      30.011  26.924  22.860  1.00  0.00     0.348 HD
BRANCH  11  15
ATOM     15  C   UNL A   1      30.822  28.461  22.483  1.00  0.00     0.299 C 
BRANCH  15  16
ATOM     16  C   UNL A   1      29.526  29.147  22.864  1.00  0.00     0.009 A 
ATOM     17  C   UNL A   1      28.314  28.450  22.840  1.00  0.00     0.029 A 
ATOM     18  C   UNL A   1      29.483  30.473  23.319  1.00  0.00     0.029 A 
ATOM     19  C   UNL A   1      27.134  29.120  23.130  1.00  0.00     0.111 A 
ATOM     20  C   UNL A   1      28.252  31.066  23.577  1.00  0.00     0.111 A 
ATOM     21  N   UNL A   1      27.076  30.420  23.475  1.00  0.00    -0.265 NA
ENDBRANCH  15  16
ENDBRANCH  11  15
ENDBRANCH   7   8
ENDBRANCH   5   7
ENDBRANCH   2   3
ENDBRANCH   1   2
BRANCH   1  22
ATOM     22  C   UNL A   1      31.323  32.526  26.681  1.00  0.00     0.023 C 
BRANCH  22  23
ATOM     23  C   UNL A   1      32.620  33.149  27.181  1.00  0.00     0.116 C 
BRANCH  23  24
ATOM     24  N   UNL A   1      32.421  34.474  27.738  1.00  0.00    -0.352 N 
ATOM     25  C   UNL A   1      33.038  35.091  28.798  1.00  0.00     0.251 C 
ATOM     26  H   UNL A   1      31.736  35.015  27.286  1.00  0.00     0.163 HD
ATOM     27  O   UNL A   1      32.579  36.162  29.214  1.00  0.00    -0.269 OA
BRANCH  25  28
ATOM     28  C   UNL A   1      34.221  34.506  29.476  1.00  0.00     0.039 A 
ATOM     29  C   UNL A   1      34.034  33.839  30.693  1.00  0.00     0.014 A 
ATOM     30  C   UNL A   1      35.516  34.650  28.970  1.00  0.00     0.014 A 
ATOM     31  C   UNL A   1      35.123  33.273  31.366  1.00  0.00     0.010 A 
ATOM     32  C   UNL A   1      36.594  34.023  29.606  1.00  0.00     0.010 A 
ATOM     33  C   UNL A   1      36.411  33.330  30.812  1.00  0.00    -0.014 A 
BRANCH  33  34
ATOM     34  C   UNL A   1      37.568  32.667  31.479  1.00  0.00     0.031 A 
ATOM     35  C   UNL A   1      38.263  31.498  30.830  1.00  0.00     0.074 A 
ATOM     36  C   UNL A   1      37.965  33.080  32.699  1.00  0.00     0.049 A 
ATOM     37  N   UNL A   1      39.241  30.755  31.288  1.00  0.00    -0.248 NA
ATOM     38  C   UNL A   1      37.781  31.100  29.499  1.00  0.00     0.031 C 
ATOM     39  C   UNL A   1      37.361  34.176  33.457  1.00  0.00     0.029 A 
ATOM     40  N   UNL A   1      38.966  32.621  33.522  1.00  0.00    -0.354 N 
ATOM     41  C   UNL A   1      39.480  29.796  30.312  1.00  0.00     0.074 A 
ATOM     42  C   UNL A   1      38.513  30.021  29.258  1.00  0.00     0.031 C 
ATOM     43  C   UNL A   1      38.012  34.317  34.623  1.00  0.00     0.029 A 
ATOM     44  C   UNL A   1      39.052  33.296  34.716  1.00  0.00     0.049 A 
ATOM     45  H   UNL A   1      39.564  31.877  33.280  1.00  0.00     0.167 HD
ATOM     46  C   UNL A   1      40.430  28.830  30.285  1.00  0.00     0.037 A 
ATOM     47  C   UNL A   1      39.867  33.109  35.773  1.00  0.00     0.037 A 
ATOM     48  C   UNL A   1      41.407  28.618  31.322  1.00  0.00     0.049 A 
ATOM     49  C   UNL A   1      40.900  32.015  35.727  1.00  0.00     0.074 A 
ATOM     50  C   UNL A   1      42.444  27.700  31.357  1.00  0.00     0.029 A 
ATOM     51  N   UNL A   1      41.465  29.328  32.512  1.00  0.00    -0.354 N 
ATOM     52  N   UNL A   1      41.156  31.157  34.769  1.00  0.00    -0.248 NA
ATOM     53  C   UNL A   1      41.761  31.867  36.908  1.00  0.00     0.031 C 
ATOM     54  C   UNL A   1      43.096  27.820  32.589  1.00  0.00     0.029 A 
ATOM     55  C   UNL A   1      42.503  28.851  33.299  1.00  0.00     0.049 A 
ATOM     56  H   UNL A   1      40.859  30.063  32.762  1.00  0.00     0.167 HD
ATOM     57  C   UNL A   1      42.225  30.392  35.218  1.00  0.00     0.074 A 
ATOM     58  C   UNL A   1      42.579  30.895  36.528  1.00  0.00     0.031 C 
ATOM     59  C   UNL A   1      42.854  29.364  34.599  1.00  0.00     0.037 A 
BRANCH  46  60
ATOM     60  C   UNL A   1      40.464  27.918  29.090  1.00  0.00     0.064 A 
ATOM     61  C   UNL A   1      41.277  28.189  27.978  1.00  0.00     0.173 A 
ATOM     62  C   UNL A   1      39.709  26.735  29.076  1.00  0.00     0.173 A 
ATOM     63  F   UNL A   1      42.013  29.309  27.938  1.00  0.00    -0.203 F 
ATOM     64  C   UNL A   1      41.308  27.326  26.885  1.00  0.00     0.198 A 
ATOM     65  C   UNL A   1      39.767  25.858  27.994  1.00  0.00     0.198 A 
ATOM     66  F   UNL A   1      38.921  26.421  30.116  1.00  0.00    -0.203 F 
ATOM     67  F   UNL A   1      42.054  27.632  25.815  1.00  0.00    -0.200 F 
ATOM     68  C   UNL A   1      40.560  26.159  26.897  1.00  0.00     0.200 A 
ATOM     69  F   UNL A   1      39.057  24.722  28.015  1.00  0.00    -0.200 F 
ATOM     70  F   UNL A   1      40.598  25.326  25.848  1.00  0.00    -0.200 F 
ENDBRANCH  46  60
BRANCH  47  71
ATOM     71  C   UNL A   1      39.751  33.991  36.965  1.00  0.00     0.064 A 
ATOM     72  C   UNL A   1      38.935  33.634  38.048  1.00  0.00     0.173 A 
ATOM     73  C   UNL A   1      40.440  35.210  37.042  1.00  0.00     0.173 A 
ATOM     74  F   UNL A   1      38.237  32.490  38.012  1.00  0.00    -0.203 F 
ATOM     75  C   UNL A   1      38.796  34.474  39.152  1.00  0.00     0.198 A 
ATOM     76  C   UNL A   1      40.324  36.034  38.160  1.00  0.00     0.198 A 
ATOM     77  F   UNL A   1      41.236  35.597  36.034  1.00  0.00    -0.203 F 
ATOM     78  F   UNL A   1      37.969  34.132  40.150  1.00  0.00    -0.200 F 
ATOM     79  C   UNL A   1      39.495  35.669  39.210  1.00  0.00     0.200 A 
ATOM     80  F   UNL A   1      41.014  37.181  38.217  1.00  0.00    -0.200 F 
ATOM     81  F   UNL A   1      39.363  36.475  40.272  1.00  0.00    -0.200 F 
ENDBRANCH  47  71
BRANCH  59  82
ATOM     82  C   UNL A   1      44.021  28.737  35.309  1.00  0.00     0.064 A 
ATOM     83  C   UNL A   1      45.331  29.210  35.140  1.00  0.00     0.173 A 
ATOM     84  C   UNL A   1      43.819  27.671  36.199  1.00  0.00     0.173 A 
ATOM     85  F   UNL A   1      45.581  30.216  34.289  1.00  0.00    -0.203 F 
ATOM     86  C   UNL A   1      46.397  28.621  35.815  1.00  0.00     0.198 A 
ATOM     87  C   UNL A   1      44.882  27.107  36.898  1.00  0.00     0.198 A 
ATOM     88  F   UNL A   1      42.585  27.185  36.403  1.00  0.00    -0.203 F 
ATOM     89  F   UNL A   1      47.647  29.057  35.599  1.00  0.00    -0.200 F 
ATOM     90  C   UNL A   1      46.171  27.576  36.699  1.00  0.00     0.200 A 
ATOM     91  F   UNL A   1      44.660  26.106  37.761  1.00  0.00    -0.200 F 
ATOM     92  F   UNL A   1      47.199  27.017  37.353  1.00  0.00    -0.200 F 
ENDBRANCH  59  82
ENDBRANCH  33  34
ENDBRANCH  25  28
ENDBRANCH  23  24
ENDBRANCH  22  23
ENDBRANCH   1  22
TORSDOF 14
ENDMDL
