MODEL 1
REMARK VINA RESULT:     -14.7      0.000      0.000
REMARK SMILES CC[C@@H](C)[C@@H](NC(=O)CCn1ccc2ccc(Br)cc21)C(=O)NCCCCNC(=O)c1ccc(-c2c3nc(c(-c4c(F)c(F)c(F)c(F)c4F)c4ccc([nH]4)c(-c4c(F)c(F)c(F)c(F)c4F)c4nc(c(-c5c(F)c(F)c(F)c(F)c5F)c5ccc2[nH]5)C=C4)C=C3)cc1
REMARK SMILES IDX 24 1 23 2 21 3 22 4 5 6 3 7 4 8 2 9 1 10 6 11 7 12 8 14 9 15
REMARK SMILES IDX 10 16 11 17 12 18 20 19 13 20 14 21 19 22 15 23 17 24 16 25
REMARK SMILES IDX 18 26 25 27 26 28 27 29 28 30 29 31 30 33 31 34 32 35 93 36
REMARK SMILES IDX 33 37 92 38 34 39 35 40 36 41 86 42 37 43 91 44 85 45 87 46
REMARK SMILES IDX 38 47 90 48 84 49 83 50 39 52 71 53 51 54 70 55 52 56 55 57
REMARK SMILES IDX 69 58 88 59 53 60 54 61 68 63 89 64 56 65 40 66 41 67 49 68
REMARK SMILES IDX 42 69 43 70 47 71 50 72 44 73 45 74 48 75 46 76 72 77 73 78
REMARK SMILES IDX 81 79 74 80 75 81 79 82 82 83 76 84 77 85 80 86 78 87 57 88
REMARK SMILES IDX 58 89 66 90 59 91 60 92 64 93 67 94 61 95 62 96 65 97 63 98
REMARK H PARENT 23 5 6 13 28 32 87 51 55 62
REMARK Flexibility Score: inf
ROOT
ATOM      1  C   UNL A   1      37.451  21.955  25.479  1.00  0.00     0.116 C 
ENDROOT
BRANCH   1   2
ATOM      2  N   UNL A   1      35.919  21.814  26.236  1.00  0.00    -0.354 N 
ATOM      3  C   UNL A   1      34.558  21.362  26.432  1.00  0.00     0.242 C 
ATOM      4  O   UNL A   1      34.300  21.511  27.658  1.00  0.00    -0.273 OA
ATOM      5  H   UNL A   1      36.040  22.399  27.018  1.00  0.00     0.163 HD
BRANCH   3   6
ATOM      6  C   UNL A   1      33.073  20.538  25.467  1.00  0.00     0.174 C 
BRANCH   6   7
ATOM      7  C   UNL A   1      32.823  18.470  24.742  1.00  0.00     0.018 C 
ATOM      8  C   UNL A   1      33.131  16.903  25.614  1.00  0.00     0.010 C 
BRANCH   7   9
ATOM      9  C   UNL A   1      32.774  17.665  23.129  1.00  0.00     0.002 C 
ATOM     10  C   UNL A   1      32.349  18.616  21.970  1.00  0.00     0.004 C 
ENDBRANCH   7   9
ENDBRANCH   6   7
BRANCH   6  11
ATOM     11  N   UNL A   1      32.000  21.577  26.049  1.00  0.00    -0.344 N 
ATOM     12  C   UNL A   1      31.337  22.606  25.475  1.00  0.00     0.222 C 
ATOM     13  H   UNL A   1      31.785  21.442  27.001  1.00  0.00     0.164 HD
ATOM     14  O   UNL A   1      30.764  23.411  26.212  1.00  0.00    -0.275 OA
BRANCH  12  15
ATOM     15  C   UNL A   1      31.191  22.669  23.970  1.00  0.00     0.122 C 
BRANCH  15  16
ATOM     16  C   UNL A   1      31.948  23.786  23.115  1.00  0.00     0.132 C 
BRANCH  16  17
ATOM     17  N   UNL A   1      33.067  24.605  23.666  1.00  0.00    -0.347 N 
ATOM     18  C   UNL A   1      34.186  24.567  24.506  1.00  0.00     0.087 A 
ATOM     19  C   UNL A   1      32.788  25.899  23.640  1.00  0.00     0.049 A 
ATOM     20  C   UNL A   1      34.424  25.553  25.458  1.00  0.00     0.028 A 
ATOM     21  C   UNL A   1      33.417  26.439  25.245  1.00  0.00    -0.000 A 
ATOM     22  C   UNL A   1      31.595  26.865  22.777  1.00  0.00     0.042 A 
ATOM     23  C   UNL A   1      32.661  27.900  25.996  1.00  0.00     0.011 A 
ATOM     24  C   UNL A   1      30.961  28.313  23.529  1.00  0.00     0.020 A 
ATOM     25  C   UNL A   1      31.489  28.847  25.062  1.00  0.00     0.016 A 
ATOM     26  Br  UNL A   1      29.635  29.275  22.574  1.00  0.00    -0.051 Br
ENDBRANCH  16  17
ENDBRANCH  15  16
ENDBRANCH  12  15
ENDBRANCH   6  11
ENDBRANCH   3   6
ENDBRANCH   1   2
BRANCH   1  27
ATOM     27  C   UNL A   1      38.973  21.966  26.093  1.00  0.00     0.023 C 
BRANCH  27  28
ATOM     28  C   UNL A   1      39.892  20.753  26.036  1.00  0.00     0.023 C 
BRANCH  28  29
ATOM     29  C   UNL A   1      41.327  21.079  26.389  1.00  0.00     0.116 C 
BRANCH  29  30
ATOM     30  N   UNL A   1      41.969  21.992  25.459  1.00  0.00    -0.352 N 
ATOM     31  C   UNL A   1      42.423  23.281  25.601  1.00  0.00     0.251 C 
ATOM     32  H   UNL A   1      42.102  21.618  24.558  1.00  0.00     0.163 HD
ATOM     33  O   UNL A   1      43.230  23.700  24.771  1.00  0.00    -0.269 OA
BRANCH  31  34
ATOM     34  C   UNL A   1      41.836  24.233  26.578  1.00  0.00     0.039 A 
ATOM     35  C   UNL A   1      40.915  25.203  26.215  1.00  0.00     0.014 A 
ATOM     36  C   UNL A   1      42.463  24.327  27.833  1.00  0.00     0.014 A 
ATOM     37  C   UNL A   1      40.944  26.418  26.845  1.00  0.00     0.010 A 
ATOM     38  C   UNL A   1      42.324  25.476  28.592  1.00  0.00     0.010 A 
ATOM     39  C   UNL A   1      41.681  26.563  28.021  1.00  0.00    -0.014 A 
BRANCH  39  40
ATOM     40  C   UNL A   1      41.539  27.836  28.705  1.00  0.00     0.031 A 
ATOM     41  C   UNL A   1      42.677  28.745  28.378  1.00  0.00     0.074 A 
ATOM     42  C   UNL A   1      40.491  28.127  29.500  1.00  0.00     0.049 A 
ATOM     43  N   UNL A   1      43.588  29.183  29.185  1.00  0.00    -0.248 NA
ATOM     44  C   UNL A   1      43.005  28.942  26.950  1.00  0.00     0.031 C 
ATOM     45  C   UNL A   1      39.278  27.344  29.742  1.00  0.00     0.029 A 
ATOM     46  N   UNL A   1      40.259  29.268  30.210  1.00  0.00    -0.354 N 
ATOM     47  C   UNL A   1      44.484  29.891  28.389  1.00  0.00     0.074 A 
ATOM     48  C   UNL A   1      44.193  29.542  27.027  1.00  0.00     0.031 C 
ATOM     49  C   UNL A   1      38.336  28.134  30.311  1.00  0.00     0.029 A 
ATOM     50  C   UNL A   1      38.930  29.420  30.613  1.00  0.00     0.049 A 
ATOM     51  H   UNL A   1      40.963  29.923  30.419  1.00  0.00     0.167 HD
ATOM     52  C   UNL A   1      45.198  30.922  28.912  1.00  0.00     0.037 A 
ATOM     53  C   UNL A   1      38.390  30.579  31.074  1.00  0.00     0.037 A 
ATOM     54  C   UNL A   1      45.304  30.794  30.341  1.00  0.00     0.049 A 
ATOM     55  C   UNL A   1      39.528  31.416  31.545  1.00  0.00     0.074 A 
ATOM     56  C   UNL A   1      45.922  29.901  31.194  1.00  0.00     0.029 A 
ATOM     57  N   UNL A   1      44.366  31.452  31.096  1.00  0.00    -0.354 N 
ATOM     58  N   UNL A   1      40.272  31.092  32.568  1.00  0.00    -0.248 NA
ATOM     59  C   UNL A   1      40.145  32.302  30.568  1.00  0.00     0.031 C 
ATOM     60  C   UNL A   1      45.019  29.745  32.287  1.00  0.00     0.029 A 
ATOM     61  C   UNL A   1      43.944  30.612  32.092  1.00  0.00     0.049 A 
ATOM     62  H   UNL A   1      44.049  32.372  30.946  1.00  0.00     0.167 HD
ATOM     63  C   UNL A   1      41.568  31.366  32.156  1.00  0.00     0.074 A 
ATOM     64  C   UNL A   1      41.423  32.143  30.924  1.00  0.00     0.031 C 
ATOM     65  C   UNL A   1      42.628  30.684  32.680  1.00  0.00     0.037 A 
BRANCH  52  66
ATOM     66  C   UNL A   1      45.364  32.242  28.195  1.00  0.00     0.064 A 
ATOM     67  C   UNL A   1      44.220  33.010  27.909  1.00  0.00     0.173 A 
ATOM     68  C   UNL A   1      46.539  32.627  27.508  1.00  0.00     0.173 A 
ATOM     69  F   UNL A   1      43.042  32.720  28.482  1.00  0.00    -0.203 F 
ATOM     70  C   UNL A   1      44.237  34.030  26.953  1.00  0.00     0.198 A 
ATOM     71  C   UNL A   1      46.564  33.676  26.594  1.00  0.00     0.198 A 
ATOM     72  F   UNL A   1      47.684  31.942  27.598  1.00  0.00    -0.203 F 
ATOM     73  F   UNL A   1      43.096  34.650  26.623  1.00  0.00    -0.200 F 
ATOM     74  C   UNL A   1      45.407  34.358  26.293  1.00  0.00     0.200 A 
ATOM     75  F   UNL A   1      47.704  33.956  25.948  1.00  0.00    -0.200 F 
ATOM     76  F   UNL A   1      45.413  35.293  25.335  1.00  0.00    -0.200 F 
ENDBRANCH  52  66
BRANCH  53  77
ATOM     77  C   UNL A   1      37.076  31.181  30.725  1.00  0.00     0.064 A 
ATOM     78  C   UNL A   1      36.151  31.521  31.729  1.00  0.00     0.173 A 
ATOM     79  C   UNL A   1      36.834  31.722  29.448  1.00  0.00     0.173 A 
ATOM     80  F   UNL A   1      36.333  31.088  32.986  1.00  0.00    -0.203 F 
ATOM     81  C   UNL A   1      35.072  32.378  31.479  1.00  0.00     0.198 A 
ATOM     82  C   UNL A   1      35.755  32.575  29.199  1.00  0.00     0.198 A 
ATOM     83  F   UNL A   1      37.693  31.518  28.439  1.00  0.00    -0.203 F 
ATOM     84  F   UNL A   1      34.251  32.732  32.477  1.00  0.00    -0.200 F 
ATOM     85  C   UNL A   1      34.884  32.916  30.217  1.00  0.00     0.200 A 
ATOM     86  F   UNL A   1      35.607  33.122  27.983  1.00  0.00    -0.200 F 
ATOM     87  F   UNL A   1      33.895  33.792  29.992  1.00  0.00    -0.200 F 
ENDBRANCH  53  77
BRANCH  65  88
ATOM     88  C   UNL A   1      42.370  29.791  33.862  1.00  0.00     0.064 A 
ATOM     89  C   UNL A   1      41.960  28.449  33.767  1.00  0.00     0.173 A 
ATOM     90  C   UNL A   1      42.720  30.269  35.131  1.00  0.00     0.173 A 
ATOM     91  F   UNL A   1      41.695  27.892  32.578  1.00  0.00    -0.203 F 
ATOM     92  C   UNL A   1      41.883  27.635  34.899  1.00  0.00     0.198 A 
ATOM     93  C   UNL A   1      42.677  29.446  36.251  1.00  0.00     0.198 A 
ATOM     94  F   UNL A   1      43.169  31.526  35.270  1.00  0.00    -0.203 F 
ATOM     95  F   UNL A   1      41.497  26.355  34.785  1.00  0.00    -0.200 F 
ATOM     96  C   UNL A   1      42.253  28.132  36.138  1.00  0.00     0.200 A 
ATOM     97  F   UNL A   1      43.086  29.918  37.437  1.00  0.00    -0.200 F 
ATOM     98  F   UNL A   1      42.232  27.338  37.218  1.00  0.00    -0.200 F 
ENDBRANCH  65  88
ENDBRANCH  39  40
ENDBRANCH  31  34
ENDBRANCH  29  30
ENDBRANCH  28  29
ENDBRANCH  27  28
ENDBRANCH   1  27
TORSDOF 17
ENDMDL
MODEL 2
REMARK VINA RESULT:     -14.6      1.518      2.541
REMARK SMILES CC[C@@H](C)[C@@H](NC(=O)CCn1ccc2ccc(Br)cc21)C(=O)NCCCCNC(=O)c1ccc(-c2c3nc(c(-c4c(F)c(F)c(F)c(F)c4F)c4ccc([nH]4)c(-c4c(F)c(F)c(F)c(F)c4F)c4nc(c(-c5c(F)c(F)c(F)c(F)c5F)c5ccc2[nH]5)C=C4)C=C3)cc1
REMARK SMILES IDX 24 1 23 2 21 3 22 4 5 6 3 7 4 8 2 9 1 10 6 11 7 12 8 14 9 15
REMARK SMILES IDX 10 16 11 17 12 18 20 19 13 20 14 21 19 22 15 23 17 24 16 25
REMARK SMILES IDX 18 26 25 27 26 28 27 29 28 30 29 31 30 33 31 34 32 35 93 36
REMARK SMILES IDX 33 37 92 38 34 39 35 40 36 41 86 42 37 43 91 44 85 45 87 46
REMARK SMILES IDX 38 47 90 48 84 49 83 50 39 52 71 53 51 54 70 55 52 56 55 57
REMARK SMILES IDX 69 58 88 59 53 60 54 61 68 63 89 64 56 65 40 66 41 67 49 68
REMARK SMILES IDX 42 69 43 70 47 71 50 72 44 73 45 74 48 75 46 76 72 77 73 78
REMARK SMILES IDX 81 79 74 80 75 81 79 82 82 83 76 84 77 85 80 86 78 87 57 88
REMARK SMILES IDX 58 89 66 90 59 91 60 92 64 93 67 94 61 95 62 96 65 97 63 98
REMARK H PARENT 23 5 6 13 28 32 87 51 55 62
REMARK Flexibility Score: inf
ROOT
ATOM      1  C   UNL A   1      38.458  22.331  25.682  1.00  0.00     0.116 C 
ENDROOT
BRANCH   1   2
ATOM      2  N   UNL A   1      37.423  22.561  24.335  1.00  0.00    -0.354 N 
ATOM      3  C   UNL A   1      36.306  23.085  23.577  1.00  0.00     0.242 C 
ATOM      4  O   UNL A   1      36.609  22.967  22.358  1.00  0.00    -0.273 OA
ATOM      5  H   UNL A   1      37.852  21.981  23.665  1.00  0.00     0.163 HD
BRANCH   3   6
ATOM      6  C   UNL A   1      34.582  23.971  23.821  1.00  0.00     0.174 C 
BRANCH   6   7
ATOM      7  C   UNL A   1      33.658  25.619  22.683  1.00  0.00     0.018 C 
ATOM      8  C   UNL A   1      32.639  25.543  21.177  1.00  0.00     0.010 C 
BRANCH   7   9
ATOM      9  C   UNL A   1      33.960  27.387  22.496  1.00  0.00     0.002 C 
ATOM     10  C   UNL A   1      34.095  28.143  23.853  1.00  0.00     0.004 C 
ENDBRANCH   7   9
ENDBRANCH   6   7
BRANCH   6  11
ATOM     11  N   UNL A   1      33.923  22.691  24.526  1.00  0.00    -0.344 N 
ATOM     12  C   UNL A   1      33.602  22.437  25.815  1.00  0.00     0.222 C 
ATOM     13  H   UNL A   1      33.716  21.954  23.908  1.00  0.00     0.164 HD
ATOM     14  O   UNL A   1      33.348  21.273  26.131  1.00  0.00    -0.275 OA
BRANCH  12  15
ATOM     15  C   UNL A   1      33.421  23.579  26.791  1.00  0.00     0.122 C 
BRANCH  15  16
ATOM     16  C   UNL A   1      32.872  24.999  26.306  1.00  0.00     0.132 C 
BRANCH  16  17
ATOM     17  N   UNL A   1      31.521  25.177  25.698  1.00  0.00    -0.347 N 
ATOM     18  C   UNL A   1      30.602  24.614  24.806  1.00  0.00     0.087 A 
ATOM     19  C   UNL A   1      31.130  26.442  25.731  1.00  0.00     0.049 A 
ATOM     20  C   UNL A   1      29.954  25.376  23.839  1.00  0.00     0.028 A 
ATOM     21  C   UNL A   1      30.388  26.636  24.096  1.00  0.00    -0.000 A 
ATOM     22  C   UNL A   1      31.660  27.851  26.646  1.00  0.00     0.042 A 
ATOM     23  C   UNL A   1      30.366  28.295  23.375  1.00  0.00     0.011 A 
ATOM     24  C   UNL A   1      31.537  29.438  25.917  1.00  0.00     0.020 A 
ATOM     25  C   UNL A   1      30.883  29.675  24.359  1.00  0.00     0.016 A 
ATOM     26  Br  UNL A   1      32.180  30.907  26.930  1.00  0.00    -0.051 Br
ENDBRANCH  16  17
ENDBRANCH  15  16
ENDBRANCH  12  15
ENDBRANCH   6  11
ENDBRANCH   3   6
ENDBRANCH   1   2
BRANCH   1  27
ATOM     27  C   UNL A   1      39.418  21.072  26.116  1.00  0.00     0.023 C 
BRANCH  27  28
ATOM     28  C   UNL A   1      40.499  21.192  27.182  1.00  0.00     0.023 C 
BRANCH  28  29
ATOM     29  C   UNL A   1      41.886  20.894  26.656  1.00  0.00     0.116 C 
BRANCH  29  30
ATOM     30  N   UNL A   1      42.319  21.790  25.598  1.00  0.00    -0.352 N 
ATOM     31  C   UNL A   1      42.612  23.133  25.591  1.00  0.00     0.251 C 
ATOM     32  H   UNL A   1      42.420  21.355  24.720  1.00  0.00     0.163 HD
ATOM     33  O   UNL A   1      43.281  23.570  24.655  1.00  0.00    -0.269 OA
BRANCH  31  34
ATOM     34  C   UNL A   1      41.994  24.092  26.542  1.00  0.00     0.039 A 
ATOM     35  C   UNL A   1      41.070  25.046  26.147  1.00  0.00     0.014 A 
ATOM     36  C   UNL A   1      42.593  24.209  27.808  1.00  0.00     0.014 A 
ATOM     37  C   UNL A   1      41.072  26.270  26.761  1.00  0.00     0.010 A 
ATOM     38  C   UNL A   1      42.426  25.367  28.549  1.00  0.00     0.010 A 
ATOM     39  C   UNL A   1      41.783  26.439  27.949  1.00  0.00    -0.014 A 
BRANCH  39  40
ATOM     40  C   UNL A   1      41.612  27.719  28.613  1.00  0.00     0.031 A 
ATOM     41  C   UNL A   1      42.745  28.637  28.297  1.00  0.00     0.074 A 
ATOM     42  C   UNL A   1      40.544  28.008  29.383  1.00  0.00     0.049 A 
ATOM     43  N   UNL A   1      43.635  29.097  29.115  1.00  0.00    -0.248 NA
ATOM     44  C   UNL A   1      43.100  28.819  26.873  1.00  0.00     0.031 C 
ATOM     45  C   UNL A   1      39.336  27.214  29.612  1.00  0.00     0.029 A 
ATOM     46  N   UNL A   1      40.285  29.156  30.072  1.00  0.00    -0.354 N 
ATOM     47  C   UNL A   1      44.538  29.805  28.328  1.00  0.00     0.074 A 
ATOM     48  C   UNL A   1      44.279  29.433  26.965  1.00  0.00     0.031 C 
ATOM     49  C   UNL A   1      38.374  28.000  30.150  1.00  0.00     0.029 A 
ATOM     50  C   UNL A   1      38.946  29.298  30.446  1.00  0.00     0.049 A 
ATOM     51  H   UNL A   1      40.977  29.823  30.286  1.00  0.00     0.167 HD
ATOM     52  C   UNL A   1      45.230  30.851  28.850  1.00  0.00     0.037 A 
ATOM     53  C   UNL A   1      38.384  30.457  30.880  1.00  0.00     0.037 A 
ATOM     54  C   UNL A   1      45.309  30.744  30.283  1.00  0.00     0.049 A 
ATOM     55  C   UNL A   1      39.503  31.314  31.362  1.00  0.00     0.074 A 
ATOM     56  C   UNL A   1      45.920  29.870  31.160  1.00  0.00     0.029 A 
ATOM     57  N   UNL A   1      44.347  31.401  31.010  1.00  0.00    -0.354 N 
ATOM     58  N   UNL A   1      40.229  31.012  32.404  1.00  0.00    -0.248 NA
ATOM     59  C   UNL A   1      40.129  32.193  30.385  1.00  0.00     0.031 C 
ATOM     60  C   UNL A   1      44.996  29.718  32.237  1.00  0.00     0.029 A 
ATOM     61  C   UNL A   1      43.916  30.570  32.008  1.00  0.00     0.049 A 
ATOM     62  H   UNL A   1      44.023  32.315  30.841  1.00  0.00     0.167 HD
ATOM     63  C   UNL A   1      41.530  31.296  32.014  1.00  0.00     0.074 A 
ATOM     64  C   UNL A   1      41.401  32.055  30.769  1.00  0.00     0.031 C 
ATOM     65  C   UNL A   1      42.587  30.634  32.569  1.00  0.00     0.037 A 
BRANCH  52  66
ATOM     66  C   UNL A   1      45.395  32.163  28.119  1.00  0.00     0.064 A 
ATOM     67  C   UNL A   1      44.247  32.911  27.794  1.00  0.00     0.173 A 
ATOM     68  C   UNL A   1      46.580  32.555  27.454  1.00  0.00     0.173 A 
ATOM     69  F   UNL A   1      43.060  32.613  28.344  1.00  0.00    -0.203 F 
ATOM     70  C   UNL A   1      44.273  33.918  26.825  1.00  0.00     0.198 A 
ATOM     71  C   UNL A   1      46.613  33.591  26.526  1.00  0.00     0.198 A 
ATOM     72  F   UNL A   1      47.733  31.888  27.580  1.00  0.00    -0.203 F 
ATOM     73  F   UNL A   1      43.132  34.517  26.459  1.00  0.00    -0.200 F 
ATOM     74  C   UNL A   1      45.454  34.253  26.188  1.00  0.00     0.200 A 
ATOM     75  F   UNL A   1      47.764  33.878  25.903  1.00  0.00    -0.200 F 
ATOM     76  F   UNL A   1      45.470  35.174  25.216  1.00  0.00    -0.200 F 
ENDBRANCH  52  66
BRANCH  53  77
ATOM     77  C   UNL A   1      37.070  31.038  30.497  1.00  0.00     0.064 A 
ATOM     78  C   UNL A   1      36.150  31.448  31.479  1.00  0.00     0.173 A 
ATOM     79  C   UNL A   1      36.824  31.493  29.187  1.00  0.00     0.173 A 
ATOM     80  F   UNL A   1      36.336  31.100  32.761  1.00  0.00    -0.203 F 
ATOM     81  C   UNL A   1      35.073  32.289  31.176  1.00  0.00     0.198 A 
ATOM     82  C   UNL A   1      35.747  32.331  28.885  1.00  0.00     0.198 A 
ATOM     83  F   UNL A   1      37.679  31.219  28.191  1.00  0.00    -0.203 F 
ATOM     84  F   UNL A   1      34.257  32.713  32.152  1.00  0.00    -0.200 F 
ATOM     85  C   UNL A   1      34.881  32.742  29.881  1.00  0.00     0.200 A 
ATOM     86  F   UNL A   1      35.596  32.795  27.637  1.00  0.00    -0.200 F 
ATOM     87  F   UNL A   1      33.894  33.604  29.602  1.00  0.00    -0.200 F 
ENDBRANCH  53  77
BRANCH  65  88
ATOM     88  C   UNL A   1      42.316  29.754  33.758  1.00  0.00     0.064 A 
ATOM     89  C   UNL A   1      41.921  28.407  33.674  1.00  0.00     0.173 A 
ATOM     90  C   UNL A   1      42.636  30.253  35.027  1.00  0.00     0.173 A 
ATOM     91  F   UNL A   1      41.685  27.831  32.488  1.00  0.00    -0.203 F 
ATOM     92  C   UNL A   1      41.832  27.607  34.814  1.00  0.00     0.198 A 
ATOM     93  C   UNL A   1      42.581  29.445  36.157  1.00  0.00     0.198 A 
ATOM     94  F   UNL A   1      43.070  31.516  35.157  1.00  0.00    -0.203 F 
ATOM     95  F   UNL A   1      41.460  26.322  34.711  1.00  0.00    -0.200 F 
ATOM     96  C   UNL A   1      42.172  28.125  36.054  1.00  0.00     0.200 A 
ATOM     97  F   UNL A   1      42.962  29.936  37.344  1.00  0.00    -0.200 F 
ATOM     98  F   UNL A   1      42.139  27.345  37.143  1.00  0.00    -0.200 F 
ENDBRANCH  65  88
ENDBRANCH  39  40
ENDBRANCH  31  34
ENDBRANCH  29  30
ENDBRANCH  28  29
ENDBRANCH  27  28
ENDBRANCH   1  27
TORSDOF 17
ENDMDL
MODEL 3
REMARK VINA RESULT:     -14.5      1.361      1.858
REMARK SMILES CC[C@@H](C)[C@@H](NC(=O)CCn1ccc2ccc(Br)cc21)C(=O)NCCCCNC(=O)c1ccc(-c2c3nc(c(-c4c(F)c(F)c(F)c(F)c4F)c4ccc([nH]4)c(-c4c(F)c(F)c(F)c(F)c4F)c4nc(c(-c5c(F)c(F)c(F)c(F)c5F)c5ccc2[nH]5)C=C4)C=C3)cc1
REMARK SMILES IDX 24 1 23 2 21 3 22 4 5 6 3 7 4 8 2 9 1 10 6 11 7 12 8 14 9 15
REMARK SMILES IDX 10 16 11 17 12 18 20 19 13 20 14 21 19 22 15 23 17 24 16 25
REMARK SMILES IDX 18 26 25 27 26 28 27 29 28 30 29 31 30 33 31 34 32 35 93 36
REMARK SMILES IDX 33 37 92 38 34 39 35 40 36 41 86 42 37 43 91 44 85 45 87 46
REMARK SMILES IDX 38 47 90 48 84 49 83 50 39 52 71 53 51 54 70 55 52 56 55 57
REMARK SMILES IDX 69 58 88 59 53 60 54 61 68 63 89 64 56 65 40 66 41 67 49 68
REMARK SMILES IDX 42 69 43 70 47 71 50 72 44 73 45 74 48 75 46 76 72 77 73 78
REMARK SMILES IDX 81 79 74 80 75 81 79 82 82 83 76 84 77 85 80 86 78 87 57 88
REMARK SMILES IDX 58 89 66 90 59 91 60 92 64 93 67 94 61 95 62 96 65 97 63 98
REMARK H PARENT 23 5 6 13 28 32 87 51 55 62
REMARK Flexibility Score: inf
ROOT
ATOM      1  C   UNL A   1      37.343  23.545  25.934  1.00  0.00     0.116 C 
ENDROOT
BRANCH   1   2
ATOM      2  N   UNL A   1      37.075  21.877  25.642  1.00  0.00    -0.354 N 
ATOM      3  C   UNL A   1      36.356  20.684  25.247  1.00  0.00     0.242 C 
ATOM      4  O   UNL A   1      37.226  19.813  24.969  1.00  0.00    -0.273 OA
ATOM      5  H   UNL A   1      37.946  21.498  25.902  1.00  0.00     0.163 HD
BRANCH   3   6
ATOM      6  C   UNL A   1      34.541  20.037  24.926  1.00  0.00     0.174 C 
BRANCH   6   7
ATOM      7  C   UNL A   1      33.843  18.236  23.862  1.00  0.00     0.018 C 
ATOM      8  C   UNL A   1      32.501  18.070  22.645  1.00  0.00     0.010 C 
BRANCH   7   9
ATOM      9  C   UNL A   1      33.925  16.457  24.144  1.00  0.00     0.002 C 
ATOM     10  C   UNL A   1      33.378  16.020  25.538  1.00  0.00     0.004 C 
ENDBRANCH   7   9
ENDBRANCH   6   7
BRANCH   6  11
ATOM     11  N   UNL A   1      33.952  20.780  26.218  1.00  0.00    -0.344 N 
ATOM     12  C   UNL A   1      33.341  21.977  26.370  1.00  0.00     0.222 C 
ATOM     13  H   UNL A   1      34.054  20.273  27.056  1.00  0.00     0.164 HD
ATOM     14  O   UNL A   1      33.220  22.427  27.512  1.00  0.00    -0.275 OA
BRANCH  12  15
ATOM     15  C   UNL A   1      32.704  22.660  25.179  1.00  0.00     0.122 C 
BRANCH  15  16
ATOM     16  C   UNL A   1      32.728  24.251  25.031  1.00  0.00     0.132 C 
BRANCH  16  17
ATOM     17  N   UNL A   1      31.496  25.088  25.107  1.00  0.00    -0.347 N 
ATOM     18  C   UNL A   1      30.213  25.259  24.576  1.00  0.00     0.087 A 
ATOM     19  C   UNL A   1      31.749  26.290  25.604  1.00  0.00     0.049 A 
ATOM     20  C   UNL A   1      29.739  26.506  24.184  1.00  0.00     0.028 A 
ATOM     21  C   UNL A   1      30.751  27.344  24.529  1.00  0.00    -0.000 A 
ATOM     22  C   UNL A   1      33.093  26.964  26.520  1.00  0.00     0.042 A 
ATOM     23  C   UNL A   1      31.282  29.059  24.305  1.00  0.00     0.011 A 
ATOM     24  C   UNL A   1      33.504  28.654  26.315  1.00  0.00     0.020 A 
ATOM     25  C   UNL A   1      32.622  29.686  25.281  1.00  0.00     0.016 A 
ATOM     26  Br  UNL A   1      34.999  29.304  27.285  1.00  0.00    -0.051 Br
ENDBRANCH  16  17
ENDBRANCH  15  16
ENDBRANCH  12  15
ENDBRANCH   6  11
ENDBRANCH   3   6
ENDBRANCH   1   2
BRANCH   1  27
ATOM     27  C   UNL A   1      38.694  24.374  26.362  1.00  0.00     0.023 C 
BRANCH  27  28
ATOM     28  C   UNL A   1      39.494  24.050  27.617  1.00  0.00     0.023 C 
BRANCH  28  29
ATOM     29  C   UNL A   1      40.355  22.815  27.470  1.00  0.00     0.116 C 
BRANCH  29  30
ATOM     30  N   UNL A   1      41.146  22.790  26.252  1.00  0.00    -0.352 N 
ATOM     31  C   UNL A   1      42.236  23.522  25.848  1.00  0.00     0.251 C 
ATOM     32  H   UNL A   1      40.844  22.125  25.591  1.00  0.00     0.163 HD
ATOM     33  O   UNL A   1      42.921  23.073  24.929  1.00  0.00    -0.269 OA
BRANCH  31  34
ATOM     34  C   UNL A   1      42.496  24.903  26.329  1.00  0.00     0.039 A 
ATOM     35  C   UNL A   1      43.133  25.167  27.532  1.00  0.00     0.014 A 
ATOM     36  C   UNL A   1      41.812  25.944  25.679  1.00  0.00     0.014 A 
ATOM     37  C   UNL A   1      42.746  26.256  28.265  1.00  0.00     0.010 A 
ATOM     38  C   UNL A   1      41.597  27.146  26.333  1.00  0.00     0.010 A 
ATOM     39  C   UNL A   1      41.944  27.232  27.672  1.00  0.00    -0.014 A 
BRANCH  39  40
ATOM     40  C   UNL A   1      41.703  28.423  28.467  1.00  0.00     0.031 A 
ATOM     41  C   UNL A   1      42.804  29.414  28.287  1.00  0.00     0.074 A 
ATOM     42  C   UNL A   1      40.606  28.582  29.233  1.00  0.00     0.049 A 
ATOM     43  N   UNL A   1      43.653  29.815  29.176  1.00  0.00    -0.248 NA
ATOM     44  C   UNL A   1      43.186  29.767  26.902  1.00  0.00     0.031 C 
ATOM     45  C   UNL A   1      39.427  27.721  29.338  1.00  0.00     0.029 A 
ATOM     46  N   UNL A   1      40.282  29.635  30.036  1.00  0.00    -0.354 N 
ATOM     47  C   UNL A   1      44.544  30.641  28.498  1.00  0.00     0.074 A 
ATOM     48  C   UNL A   1      44.335  30.413  27.096  1.00  0.00     0.031 C 
ATOM     49  C   UNL A   1      38.420  28.404  29.931  1.00  0.00     0.029 A 
ATOM     50  C   UNL A   1      38.929  29.682  30.385  1.00  0.00     0.049 A 
ATOM     51  H   UNL A   1      40.939  30.301  30.342  1.00  0.00     0.167 HD
ATOM     52  C   UNL A   1      45.178  31.650  29.152  1.00  0.00     0.037 A 
ATOM     53  C   UNL A   1      38.307  30.762  30.927  1.00  0.00     0.037 A 
ATOM     54  C   UNL A   1      45.226  31.387  30.566  1.00  0.00     0.049 A 
ATOM     55  C   UNL A   1      39.377  31.604  31.533  1.00  0.00     0.074 A 
ATOM     56  C   UNL A   1      45.852  30.446  31.359  1.00  0.00     0.029 A 
ATOM     57  N   UNL A   1      44.221  31.921  31.332  1.00  0.00    -0.354 N 
ATOM     58  N   UNL A   1      40.090  31.217  32.556  1.00  0.00    -0.248 NA
ATOM     59  C   UNL A   1      39.989  32.610  30.677  1.00  0.00     0.031 C 
ATOM     60  C   UNL A   1      44.910  30.139  32.385  1.00  0.00     0.029 A 
ATOM     61  C   UNL A   1      43.801  30.967  32.221  1.00  0.00     0.049 A 
ATOM     62  H   UNL A   1      43.862  32.834  31.256  1.00  0.00     0.167 HD
ATOM     63  C   UNL A   1      41.387  31.594  32.237  1.00  0.00     0.074 A 
ATOM     64  C   UNL A   1      41.256  32.480  31.080  1.00  0.00     0.031 C 
ATOM     65  C   UNL A   1      42.457  30.916  32.746  1.00  0.00     0.037 A 
BRANCH  52  66
ATOM     66  C   UNL A   1      45.305  33.040  28.575  1.00  0.00     0.064 A 
ATOM     67  C   UNL A   1      44.136  33.744  28.232  1.00  0.00     0.173 A 
ATOM     68  C   UNL A   1      46.508  33.575  28.057  1.00  0.00     0.173 A 
ATOM     69  F   UNL A   1      42.934  33.315  28.645  1.00  0.00    -0.203 F 
ATOM     70  C   UNL A   1      44.165  34.849  27.375  1.00  0.00     0.198 A 
ATOM     71  C   UNL A   1      46.538  34.704  27.244  1.00  0.00     0.198 A 
ATOM     72  F   UNL A   1      47.692  32.972  28.211  1.00  0.00    -0.203 F 
ATOM     73  F   UNL A   1      43.016  35.411  26.977  1.00  0.00    -0.200 F 
ATOM     74  C   UNL A   1      45.365  35.324  26.878  1.00  0.00     0.200 A 
ATOM     75  F   UNL A   1      47.711  35.128  26.754  1.00  0.00    -0.200 F 
ATOM     76  F   UNL A   1      45.390  36.343  26.010  1.00  0.00    -0.200 F 
ENDBRANCH  52  66
BRANCH  53  77
ATOM     77  C   UNL A   1      36.980  31.331  30.573  1.00  0.00     0.064 A 
ATOM     78  C   UNL A   1      36.026  31.607  31.568  1.00  0.00     0.173 A 
ATOM     79  C   UNL A   1      36.743  31.903  29.308  1.00  0.00     0.173 A 
ATOM     80  F   UNL A   1      36.200  31.140  32.814  1.00  0.00    -0.203 F 
ATOM     81  C   UNL A   1      34.923  32.434  31.324  1.00  0.00     0.198 A 
ATOM     82  C   UNL A   1      35.640  32.727  29.065  1.00  0.00     0.198 A 
ATOM     83  F   UNL A   1      37.627  31.760  28.310  1.00  0.00    -0.203 F 
ATOM     84  F   UNL A   1      34.073  32.729  32.318  1.00  0.00    -0.200 F 
ATOM     85  C   UNL A   1      34.739  33.005  30.076  1.00  0.00     0.200 A 
ATOM     86  F   UNL A   1      35.496  33.307  27.865  1.00  0.00    -0.200 F 
ATOM     87  F   UNL A   1      33.726  33.854  29.861  1.00  0.00    -0.200 F 
ENDBRANCH  53  77
BRANCH  65  88
ATOM     88  C   UNL A   1      42.194  29.899  33.823  1.00  0.00     0.064 A 
ATOM     89  C   UNL A   1      41.818  28.567  33.580  1.00  0.00     0.173 A 
ATOM     90  C   UNL A   1      42.505  30.250  35.143  1.00  0.00     0.173 A 
ATOM     91  F   UNL A   1      41.591  28.132  32.334  1.00  0.00    -0.203 F 
ATOM     92  C   UNL A   1      41.735  27.638  34.619  1.00  0.00     0.198 A 
ATOM     93  C   UNL A   1      42.458  29.314  36.170  1.00  0.00     0.198 A 
ATOM     94  F   UNL A   1      42.922  31.495  35.422  1.00  0.00    -0.203 F 
ATOM     95  F   UNL A   1      41.381  26.369  34.364  1.00  0.00    -0.200 F 
ATOM     96  C   UNL A   1      42.066  28.011  35.911  1.00  0.00     0.200 A 
ATOM     97  F   UNL A   1      42.830  29.668  37.408  1.00  0.00    -0.200 F 
ATOM     98  F   UNL A   1      42.041  27.108  36.902  1.00  0.00    -0.200 F 
ENDBRANCH  65  88
ENDBRANCH  39  40
ENDBRANCH  31  34
ENDBRANCH  29  30
ENDBRANCH  28  29
ENDBRANCH  27  28
ENDBRANCH   1  27
TORSDOF 17
ENDMDL
