MODEL 1
REMARK VINA RESULT:     -12.3      0.000      0.000
REMARK SMILES O=C(NCCCCNC(=O)c1ccc(Cl)nc1NC[C@@H]1C[N@@H+]2CCC[C@@H]2CO1)c1ccc(-c2c3nc(c(-c4c(F)c(F)c(F)c(F)c4F)c4ccc([nH]4)c(-c4c(F)c(F)c(F)c(F)c4F)c4nc(c(-c5c(F)c(F)c(F)c(F)c5F)c5ccc2[nH]5)C=C4)C=C3)cc1
REMARK SMILES IDX 6 1 5 2 4 3 3 4 1 5 2 6 29 8 30 9 91 10 31 11 90 12 32 13
REMARK SMILES IDX 33 14 34 15 84 16 35 17 89 18 83 19 85 20 36 21 88 22 82 23
REMARK SMILES IDX 81 24 37 26 69 27 49 28 68 29 50 30 53 31 67 32 86 33 51 34
REMARK SMILES IDX 52 35 66 37 87 38 54 39 38 40 39 41 47 42 40 43 41 44 45 45
REMARK SMILES IDX 48 46 42 47 43 48 46 49 44 50 70 51 71 52 79 53 72 54 73 55
REMARK SMILES IDX 77 56 80 57 74 58 75 59 78 60 76 61 55 62 56 63 64 64 57 65
REMARK SMILES IDX 58 66 62 67 65 68 59 69 60 70 63 71 61 72 7 73 8 74 9 75
REMARK SMILES IDX 10 77 11 78 12 79 17 80 13 81 16 82 14 83 15 84 18 85 19 87
REMARK SMILES IDX 20 88 21 89 28 90 22 91 27 92 23 93 26 94 24 96 25 97
REMARK H PARENT 3 7 85 25 53 36 8 76 18 86 22 95
REMARK Flexibility Score: inf
ROOT
ATOM      1  C   UNL A   1      36.906  20.313  25.026  1.00  0.00     0.023 C 
ENDROOT
BRANCH   1   2
ATOM      2  C   UNL A   1      38.217  19.554  24.836  1.00  0.00     0.023 C 
BRANCH   2   3
ATOM      3  C   UNL A   1      39.330  19.919  25.808  1.00  0.00     0.116 C 
BRANCH   3   4
ATOM      4  N   UNL A   1      40.410  18.944  25.838  1.00  0.00    -0.352 N 
ATOM      5  O   UNL A   1      42.545  18.215  25.953  1.00  0.00    -0.269 OA
ATOM      6  C   UNL A   1      41.749  19.141  26.083  1.00  0.00     0.251 C 
ATOM      7  H   UNL A   1      40.145  18.013  25.658  1.00  0.00     0.163 HD
BRANCH   6   8
ATOM      8  C   UNL A   1      42.232  20.482  26.474  1.00  0.00     0.039 A 
ATOM      9  C   UNL A   1      42.260  20.863  27.817  1.00  0.00     0.014 A 
ATOM     10  C   UNL A   1      42.655  21.372  25.482  1.00  0.00     0.014 A 
ATOM     11  C   UNL A   1      42.558  22.178  28.153  1.00  0.00     0.010 A 
ATOM     12  C   UNL A   1      43.045  22.669  25.833  1.00  0.00     0.010 A 
ATOM     13  C   UNL A   1      42.971  23.091  27.168  1.00  0.00    -0.014 A 
BRANCH  13  14
ATOM     14  C   UNL A   1      43.385  24.455  27.585  1.00  0.00     0.031 A 
ATOM     15  C   UNL A   1      44.827  24.875  27.583  1.00  0.00     0.074 A 
ATOM     16  C   UNL A   1      42.422  25.335  27.923  1.00  0.00     0.049 A 
ATOM     17  N   UNL A   1      45.344  26.043  27.873  1.00  0.00    -0.248 NA
ATOM     18  C   UNL A   1      45.821  23.856  27.216  1.00  0.00     0.031 C 
ATOM     19  C   UNL A   1      40.989  25.033  27.979  1.00  0.00     0.029 A 
ATOM     20  N   UNL A   1      42.493  26.663  28.256  1.00  0.00    -0.354 N 
ATOM     21  C   UNL A   1      46.718  25.898  27.735  1.00  0.00     0.074 A 
ATOM     22  C   UNL A   1      46.960  24.521  27.360  1.00  0.00     0.031 C 
ATOM     23  C   UNL A   1      40.314  26.152  28.271  1.00  0.00     0.029 A 
ATOM     24  C   UNL A   1      41.265  27.237  28.482  1.00  0.00     0.049 A 
ATOM     25  H   UNL A   1      43.342  27.158  28.326  1.00  0.00     0.167 HD
ATOM     26  C   UNL A   1      47.685  26.834  27.899  1.00  0.00     0.037 A 
ATOM     27  C   UNL A   1      40.940  28.493  28.834  1.00  0.00     0.037 A 
ATOM     28  C   UNL A   1      47.435  28.208  28.258  1.00  0.00     0.049 A 
ATOM     29  C   UNL A   1      42.035  29.503  29.016  1.00  0.00     0.074 A 
ATOM     30  C   UNL A   1      48.347  29.238  28.422  1.00  0.00     0.029 A 
ATOM     31  N   UNL A   1      46.181  28.745  28.507  1.00  0.00    -0.354 N 
ATOM     32  N   UNL A   1      43.328  29.357  28.856  1.00  0.00    -0.248 NA
ATOM     33  C   UNL A   1      41.627  30.851  29.432  1.00  0.00     0.031 C 
ATOM     34  C   UNL A   1      47.647  30.386  28.809  1.00  0.00     0.029 A 
ATOM     35  C   UNL A   1      46.297  30.085  28.843  1.00  0.00     0.049 A 
ATOM     36  H   UNL A   1      45.332  28.248  28.455  1.00  0.00     0.167 HD
ATOM     37  C   UNL A   1      43.887  30.593  29.144  1.00  0.00     0.074 A 
ATOM     38  C   UNL A   1      42.789  31.485  29.457  1.00  0.00     0.031 C 
ATOM     39  C   UNL A   1      45.193  30.955  29.159  1.00  0.00     0.037 A 
BRANCH  26  40
ATOM     40  C   UNL A   1      49.112  26.413  27.700  1.00  0.00     0.064 A 
ATOM     41  C   UNL A   1      49.673  26.301  26.419  1.00  0.00     0.173 A 
ATOM     42  C   UNL A   1      49.949  26.193  28.805  1.00  0.00     0.173 A 
ATOM     43  F   UNL A   1      48.912  26.492  25.331  1.00  0.00    -0.203 F 
ATOM     44  C   UNL A   1      51.016  25.972  26.252  1.00  0.00     0.198 A 
ATOM     45  C   UNL A   1      51.297  25.888  28.635  1.00  0.00     0.198 A 
ATOM     46  F   UNL A   1      49.464  26.294  30.052  1.00  0.00    -0.203 F 
ATOM     47  F   UNL A   1      51.524  25.844  25.020  1.00  0.00    -0.200 F 
ATOM     48  C   UNL A   1      51.829  25.775  27.359  1.00  0.00     0.200 A 
ATOM     49  F   UNL A   1      52.084  25.710  29.705  1.00  0.00    -0.200 F 
ATOM     50  F   UNL A   1      53.125  25.475  27.196  1.00  0.00    -0.200 F 
ENDBRANCH  26  40
BRANCH  27  51
ATOM     51  C   UNL A   1      39.517  28.856  29.044  1.00  0.00     0.064 A 
ATOM     52  C   UNL A   1      38.723  29.317  27.985  1.00  0.00     0.173 A 
ATOM     53  C   UNL A   1      38.918  28.743  30.308  1.00  0.00     0.173 A 
ATOM     54  F   UNL A   1      39.256  29.460  26.763  1.00  0.00    -0.203 F 
ATOM     55  C   UNL A   1      37.391  29.669  28.187  1.00  0.00     0.198 A 
ATOM     56  C   UNL A   1      37.578  29.064  30.502  1.00  0.00     0.198 A 
ATOM     57  F   UNL A   1      39.634  28.299  31.353  1.00  0.00    -0.203 F 
ATOM     58  F   UNL A   1      36.665  30.150  27.168  1.00  0.00    -0.200 F 
ATOM     59  C   UNL A   1      36.817  29.536  29.443  1.00  0.00     0.200 A 
ATOM     60  F   UNL A   1      37.024  28.916  31.713  1.00  0.00    -0.200 F 
ATOM     61  F   UNL A   1      35.533  29.867  29.634  1.00  0.00    -0.200 F 
ENDBRANCH  27  51
BRANCH  39  62
ATOM     62  C   UNL A   1      45.495  32.380  29.516  1.00  0.00     0.064 A 
ATOM     63  C   UNL A   1      45.750  32.762  30.842  1.00  0.00     0.173 A 
ATOM     64  C   UNL A   1      45.535  33.370  28.524  1.00  0.00     0.173 A 
ATOM     65  F   UNL A   1      45.704  31.852  31.827  1.00  0.00    -0.203 F 
ATOM     66  C   UNL A   1      46.003  34.092  31.165  1.00  0.00     0.198 A 
ATOM     67  C   UNL A   1      45.816  34.695  28.848  1.00  0.00     0.198 A 
ATOM     68  F   UNL A   1      45.302  33.054  27.242  1.00  0.00    -0.203 F 
ATOM     69  F   UNL A   1      46.189  34.443  32.445  1.00  0.00    -0.200 F 
ATOM     70  C   UNL A   1      46.040  35.055  30.169  1.00  0.00     0.200 A 
ATOM     71  F   UNL A   1      45.860  35.623  27.884  1.00  0.00    -0.200 F 
ATOM     72  F   UNL A   1      46.281  36.336  30.483  1.00  0.00    -0.200 F 
ENDBRANCH  39  62
ENDBRANCH  13  14
ENDBRANCH   6   8
ENDBRANCH   3   4
ENDBRANCH   2   3
ENDBRANCH   1   2
BRANCH   1  73
ATOM     73  C   UNL A   1      37.051  21.806  25.308  1.00  0.00     0.116 C 
BRANCH  73  74
ATOM     74  N   UNL A   1      36.246  22.245  26.435  1.00  0.00    -0.352 N 
ATOM     75  C   UNL A   1      34.891  22.463  26.496  1.00  0.00     0.255 C 
ATOM     76  H   UNL A   1      36.739  22.409  27.271  1.00  0.00     0.163 HD
ATOM     77  O   UNL A   1      34.392  22.970  27.495  1.00  0.00    -0.269 OA
BRANCH  75  78
ATOM     78  C   UNL A   1      34.037  22.080  25.358  1.00  0.00     0.082 A 
ATOM     79  C   UNL A   1      33.460  20.804  25.326  1.00  0.00     0.021 A 
ATOM     80  C   UNL A   1      33.782  22.990  24.325  1.00  0.00     0.140 A 
ATOM     81  C   UNL A   1      32.719  20.424  24.217  1.00  0.00     0.042 A 
ATOM     82  N   UNL A   1      33.063  22.608  23.243  1.00  0.00    -0.219 NA
ATOM     83  C   UNL A   1      32.567  21.355  23.209  1.00  0.00     0.131 A 
ATOM     84  Cl  UNL A   1      31.721  20.964  21.770  1.00  0.00    -0.062 Cl
BRANCH  80  85
ATOM     85  N   UNL A   1      34.338  24.260  24.330  1.00  0.00    -0.367 N 
ATOM     86  H   UNL A   1      35.243  24.401  23.968  1.00  0.00     0.162 HD
BRANCH  85  87
ATOM     87  C   UNL A   1      33.588  25.387  24.867  1.00  0.00     0.152 C 
BRANCH  87  88
ATOM     88  C   UNL A   1      33.650  26.611  23.917  1.00  0.00     0.192 C 
ATOM     89  C   UNL A   1      32.880  27.802  24.560  1.00  0.00     0.296 C 
ATOM     90  O   UNL A   1      33.167  26.216  22.614  1.00  0.00    -0.364 OA
ATOM     91  N   UNL A   1      32.080  28.649  23.669  1.00  0.00    -0.328 N 
ATOM     92  C   UNL A   1      31.760  26.418  22.484  1.00  0.00     0.225 C 
ATOM     93  C   UNL A   1      31.040  29.390  24.399  1.00  0.00     0.262 C 
ATOM     94  C   UNL A   1      31.439  27.913  22.561  1.00  0.00     0.210 C 
ATOM     95  H   UNL A   1      32.755  29.298  23.269  1.00  0.00     0.348 HD
ATOM     96  C   UNL A   1      29.892  29.514  23.415  1.00  0.00     0.068 C 
ATOM     97  C   UNL A   1      29.943  28.188  22.681  1.00  0.00     0.073 C 
ENDBRANCH  87  88
ENDBRANCH  85  87
ENDBRANCH  80  85
ENDBRANCH  75  78
ENDBRANCH  73  74
ENDBRANCH   1  73
TORSDOF 14
ENDMDL
MODEL 2
REMARK VINA RESULT:     -12.2      4.517     10.038
REMARK SMILES O=C(NCCCCNC(=O)c1ccc(Cl)nc1NC[C@@H]1C[N@@H+]2CCC[C@@H]2CO1)c1ccc(-c2c3nc(c(-c4c(F)c(F)c(F)c(F)c4F)c4ccc([nH]4)c(-c4c(F)c(F)c(F)c(F)c4F)c4nc(c(-c5c(F)c(F)c(F)c(F)c5F)c5ccc2[nH]5)C=C4)C=C3)cc1
REMARK SMILES IDX 6 1 5 2 4 3 3 4 1 5 2 6 29 8 30 9 91 10 31 11 90 12 32 13
REMARK SMILES IDX 33 14 34 15 84 16 35 17 89 18 83 19 85 20 36 21 88 22 82 23
REMARK SMILES IDX 81 24 37 26 69 27 49 28 68 29 50 30 53 31 67 32 86 33 51 34
REMARK SMILES IDX 52 35 66 37 87 38 54 39 38 40 39 41 47 42 40 43 41 44 45 45
REMARK SMILES IDX 48 46 42 47 43 48 46 49 44 50 70 51 71 52 79 53 72 54 73 55
REMARK SMILES IDX 77 56 80 57 74 58 75 59 78 60 76 61 55 62 56 63 64 64 57 65
REMARK SMILES IDX 58 66 62 67 65 68 59 69 60 70 63 71 61 72 7 73 8 74 9 75
REMARK SMILES IDX 10 77 11 78 12 79 17 80 13 81 16 82 14 83 15 84 18 85 19 87
REMARK SMILES IDX 20 88 21 89 28 90 22 91 27 92 23 93 26 94 24 96 25 97
REMARK H PARENT 3 7 85 25 53 36 8 76 18 86 22 95
REMARK Flexibility Score: inf
ROOT
ATOM      1  C   UNL A   1      31.681  27.271  26.518  1.00  0.00     0.023 C 
ENDROOT
BRANCH   1   2
ATOM      2  C   UNL A   1      31.859  28.362  25.465  1.00  0.00     0.023 C 
BRANCH   2   3
ATOM      3  C   UNL A   1      33.006  29.330  25.715  1.00  0.00     0.116 C 
BRANCH   3   4
ATOM      4  N   UNL A   1      32.562  30.669  26.072  1.00  0.00    -0.352 N 
ATOM      5  O   UNL A   1      32.526  32.600  27.244  1.00  0.00    -0.269 OA
ATOM      6  C   UNL A   1      33.102  31.547  26.982  1.00  0.00     0.251 C 
ATOM      7  H   UNL A   1      31.762  30.990  25.597  1.00  0.00     0.163 HD
BRANCH   6   8
ATOM      8  C   UNL A   1      34.368  31.207  27.667  1.00  0.00     0.039 A 
ATOM      9  C   UNL A   1      34.606  29.907  28.113  1.00  0.00     0.014 A 
ATOM     10  C   UNL A   1      35.323  32.207  27.872  1.00  0.00     0.014 A 
ATOM     11  C   UNL A   1      35.722  29.642  28.898  1.00  0.00     0.010 A 
ATOM     12  C   UNL A   1      36.492  31.916  28.584  1.00  0.00     0.010 A 
ATOM     13  C   UNL A   1      36.686  30.638  29.128  1.00  0.00    -0.014 A 
BRANCH  13  14
ATOM     14  C   UNL A   1      37.915  30.284  29.881  1.00  0.00     0.031 A 
ATOM     15  C   UNL A   1      38.133  30.744  31.294  1.00  0.00     0.074 A 
ATOM     16  C   UNL A   1      38.822  29.489  29.279  1.00  0.00     0.049 A 
ATOM     17  N   UNL A   1      39.131  30.479  32.101  1.00  0.00    -0.248 NA
ATOM     18  C   UNL A   1      37.107  31.620  31.880  1.00  0.00     0.031 C 
ATOM     19  C   UNL A   1      38.724  28.996  27.902  1.00  0.00     0.029 A 
ATOM     20  N   UNL A   1      39.984  28.933  29.748  1.00  0.00    -0.354 N 
ATOM     21  C   UNL A   1      38.860  31.160  33.281  1.00  0.00     0.074 A 
ATOM     22  C   UNL A   1      37.617  31.874  33.078  1.00  0.00     0.031 C 
ATOM     23  C   UNL A   1      39.750  28.171  27.656  1.00  0.00     0.029 A 
ATOM     24  C   UNL A   1      40.610  28.122  28.832  1.00  0.00     0.049 A 
ATOM     25  H   UNL A   1      40.337  29.099  30.652  1.00  0.00     0.167 HD
ATOM     26  C   UNL A   1      39.582  31.179  34.428  1.00  0.00     0.037 A 
ATOM     27  C   UNL A   1      41.757  27.425  28.923  1.00  0.00     0.037 A 
ATOM     28  C   UNL A   1      40.813  30.453  34.628  1.00  0.00     0.049 A 
ATOM     29  C   UNL A   1      42.536  27.475  30.204  1.00  0.00     0.074 A 
ATOM     30  C   UNL A   1      41.602  30.387  35.763  1.00  0.00     0.029 A 
ATOM     31  N   UNL A   1      41.430  29.665  33.668  1.00  0.00    -0.354 N 
ATOM     32  N   UNL A   1      42.254  28.102  31.320  1.00  0.00    -0.248 NA
ATOM     33  C   UNL A   1      43.797  26.721  30.238  1.00  0.00     0.031 C 
ATOM     34  C   UNL A   1      42.718  29.593  35.477  1.00  0.00     0.029 A 
ATOM     35  C   UNL A   1      42.601  29.126  34.179  1.00  0.00     0.049 A 
ATOM     36  H   UNL A   1      41.089  29.511  32.757  1.00  0.00     0.167 HD
ATOM     37  C   UNL A   1      43.295  27.815  32.190  1.00  0.00     0.074 A 
ATOM     38  C   UNL A   1      44.198  26.931  31.483  1.00  0.00     0.031 C 
ATOM     39  C   UNL A   1      43.491  28.254  33.457  1.00  0.00     0.037 A 
BRANCH  26  40
ATOM     40  C   UNL A   1      39.072  32.014  35.566  1.00  0.00     0.064 A 
ATOM     41  C   UNL A   1      38.297  31.459  36.595  1.00  0.00     0.173 A 
ATOM     42  C   UNL A   1      39.426  33.369  35.667  1.00  0.00     0.173 A 
ATOM     43  F   UNL A   1      37.925  30.172  36.539  1.00  0.00    -0.203 F 
ATOM     44  C   UNL A   1      37.886  32.232  37.678  1.00  0.00     0.198 A 
ATOM     45  C   UNL A   1      39.032  34.132  36.764  1.00  0.00     0.198 A 
ATOM     46  F   UNL A   1      40.171  33.947  34.714  1.00  0.00    -0.203 F 
ATOM     47  F   UNL A   1      37.124  31.688  38.636  1.00  0.00    -0.200 F 
ATOM     48  C   UNL A   1      38.261  33.565  37.766  1.00  0.00     0.200 A 
ATOM     49  F   UNL A   1      39.406  35.416  36.854  1.00  0.00    -0.200 F 
ATOM     50  F   UNL A   1      37.877  34.302  38.817  1.00  0.00    -0.200 F 
ENDBRANCH  26  40
BRANCH  27  51
ATOM     51  C   UNL A   1      42.234  26.634  27.762  1.00  0.00     0.064 A 
ATOM     52  C   UNL A   1      41.785  25.324  27.546  1.00  0.00     0.173 A 
ATOM     53  C   UNL A   1      43.144  27.173  26.841  1.00  0.00     0.173 A 
ATOM     54  F   UNL A   1      40.929  24.759  28.409  1.00  0.00    -0.203 F 
ATOM     55  C   UNL A   1      42.243  24.578  26.462  1.00  0.00     0.198 A 
ATOM     56  C   UNL A   1      43.577  26.438  25.741  1.00  0.00     0.198 A 
ATOM     57  F   UNL A   1      43.598  28.426  27.000  1.00  0.00    -0.203 F 
ATOM     58  F   UNL A   1      41.834  23.312  26.302  1.00  0.00    -0.200 F 
ATOM     59  C   UNL A   1      43.133  25.137  25.557  1.00  0.00     0.200 A 
ATOM     60  F   UNL A   1      44.422  26.990  24.860  1.00  0.00    -0.200 F 
ATOM     61  F   UNL A   1      43.567  24.422  24.511  1.00  0.00    -0.200 F 
ENDBRANCH  27  51
BRANCH  39  62
ATOM     62  C   UNL A   1      44.727  27.770  34.155  1.00  0.00     0.064 A 
ATOM     63  C   UNL A   1      45.911  28.523  34.150  1.00  0.00     0.173 A 
ATOM     64  C   UNL A   1      44.726  26.545  34.839  1.00  0.00     0.173 A 
ATOM     65  F   UNL A   1      45.965  29.692  33.494  1.00  0.00    -0.203 F 
ATOM     66  C   UNL A   1      47.060  28.052  34.780  1.00  0.00     0.198 A 
ATOM     67  C   UNL A   1      45.869  26.090  35.490  1.00  0.00     0.198 A 
ATOM     68  F   UNL A   1      43.618  25.791  34.875  1.00  0.00    -0.203 F 
ATOM     69  F   UNL A   1      48.194  28.761  34.716  1.00  0.00    -0.200 F 
ATOM     70  C   UNL A   1      47.036  26.839  35.452  1.00  0.00     0.200 A 
ATOM     71  F   UNL A   1      45.844  24.923  36.147  1.00  0.00    -0.200 F 
ATOM     72  F   UNL A   1      48.145  26.385  36.054  1.00  0.00    -0.200 F 
ENDBRANCH  39  62
ENDBRANCH  13  14
ENDBRANCH   6   8
ENDBRANCH   3   4
ENDBRANCH   2   3
ENDBRANCH   1   2
BRANCH   1  73
ATOM     73  C   UNL A   1      31.973  25.850  26.043  1.00  0.00     0.116 C 
BRANCH  73  74
ATOM     74  N   UNL A   1      33.379  25.501  26.152  1.00  0.00    -0.352 N 
ATOM     75  C   UNL A   1      34.263  25.156  25.158  1.00  0.00     0.255 C 
ATOM     76  H   UNL A   1      33.751  25.512  27.063  1.00  0.00     0.163 HD
ATOM     77  O   UNL A   1      35.385  24.751  25.444  1.00  0.00    -0.269 OA
BRANCH  75  78
ATOM     78  C   UNL A   1      33.859  25.277  23.747  1.00  0.00     0.082 A 
ATOM     79  C   UNL A   1      33.611  26.545  23.206  1.00  0.00     0.021 A 
ATOM     80  C   UNL A   1      33.746  24.138  22.940  1.00  0.00     0.140 A 
ATOM     81  C   UNL A   1      33.159  26.647  21.899  1.00  0.00     0.042 A 
ATOM     82  N   UNL A   1      33.297  24.247  21.667  1.00  0.00    -0.219 NA
ATOM     83  C   UNL A   1      33.009  25.474  21.188  1.00  0.00     0.131 A 
ATOM     84  Cl  UNL A   1      32.399  25.487  19.586  1.00  0.00    -0.062 Cl
BRANCH  80  85
ATOM     85  N   UNL A   1      33.986  22.870  23.446  1.00  0.00    -0.367 N 
ATOM     86  H   UNL A   1      34.860  22.659  23.846  1.00  0.00     0.162 HD
BRANCH  85  87
ATOM     87  C   UNL A   1      32.948  21.850  23.391  1.00  0.00     0.152 C 
BRANCH  87  88
ATOM     88  C   UNL A   1      32.977  20.945  24.650  1.00  0.00     0.192 C 
ATOM     89  C   UNL A   1      34.345  20.205  24.721  1.00  0.00     0.296 C 
ATOM     90  O   UNL A   1      31.824  20.077  24.628  1.00  0.00    -0.364 OA
ATOM     91  N   UNL A   1      34.336  18.811  25.176  1.00  0.00    -0.328 N 
ATOM     92  C   UNL A   1      32.098  18.844  23.962  1.00  0.00     0.225 C 
ATOM     93  C   UNL A   1      35.537  18.081  24.743  1.00  0.00     0.262 C 
ATOM     94  C   UNL A   1      33.146  18.050  24.746  1.00  0.00     0.210 C 
ATOM     95  H   UNL A   1      34.317  18.880  26.192  1.00  0.00     0.348 HD
ATOM     96  C   UNL A   1      35.067  16.654  24.534  1.00  0.00     0.068 C 
ATOM     97  C   UNL A   1      33.672  16.845  23.972  1.00  0.00     0.073 C 
ENDBRANCH  87  88
ENDBRANCH  85  87
ENDBRANCH  80  85
ENDBRANCH  75  78
ENDBRANCH  73  74
ENDBRANCH   1  73
TORSDOF 14
ENDMDL
MODEL 3
REMARK VINA RESULT:     -12.2      1.463      2.047
REMARK SMILES O=C(NCCCCNC(=O)c1ccc(Cl)nc1NC[C@@H]1C[N@@H+]2CCC[C@@H]2CO1)c1ccc(-c2c3nc(c(-c4c(F)c(F)c(F)c(F)c4F)c4ccc([nH]4)c(-c4c(F)c(F)c(F)c(F)c4F)c4nc(c(-c5c(F)c(F)c(F)c(F)c5F)c5ccc2[nH]5)C=C4)C=C3)cc1
REMARK SMILES IDX 6 1 5 2 4 3 3 4 1 5 2 6 29 8 30 9 91 10 31 11 90 12 32 13
REMARK SMILES IDX 33 14 34 15 84 16 35 17 89 18 83 19 85 20 36 21 88 22 82 23
REMARK SMILES IDX 81 24 37 26 69 27 49 28 68 29 50 30 53 31 67 32 86 33 51 34
REMARK SMILES IDX 52 35 66 37 87 38 54 39 38 40 39 41 47 42 40 43 41 44 45 45
REMARK SMILES IDX 48 46 42 47 43 48 46 49 44 50 70 51 71 52 79 53 72 54 73 55
REMARK SMILES IDX 77 56 80 57 74 58 75 59 78 60 76 61 55 62 56 63 64 64 57 65
REMARK SMILES IDX 58 66 62 67 65 68 59 69 60 70 63 71 61 72 7 73 8 74 9 75
REMARK SMILES IDX 10 77 11 78 12 79 17 80 13 81 16 82 14 83 15 84 18 85 19 87
REMARK SMILES IDX 20 88 21 89 28 90 22 91 27 92 23 93 26 94 24 96 25 97
REMARK H PARENT 3 7 85 25 53 36 8 76 18 86 22 95
REMARK Flexibility Score: inf
ROOT
ATOM      1  C   UNL A   1      38.924  22.391  26.185  1.00  0.00     0.023 C 
ENDROOT
BRANCH   1   2
ATOM      2  C   UNL A   1      39.165  21.033  25.531  1.00  0.00     0.023 C 
BRANCH   2   3
ATOM      3  C   UNL A   1      39.627  19.928  26.471  1.00  0.00     0.116 C 
BRANCH   3   4
ATOM      4  N   UNL A   1      40.787  19.202  25.979  1.00  0.00    -0.352 N 
ATOM      5  O   UNL A   1      42.930  18.911  25.326  1.00  0.00    -0.269 OA
ATOM      6  C   UNL A   1      42.093  19.621  25.877  1.00  0.00     0.251 C 
ATOM      7  H   UNL A   1      40.613  18.282  25.675  1.00  0.00     0.163 HD
BRANCH   6   8
ATOM      8  C   UNL A   1      42.482  20.944  26.409  1.00  0.00     0.039 A 
ATOM      9  C   UNL A   1      42.523  21.172  27.785  1.00  0.00     0.014 A 
ATOM     10  C   UNL A   1      42.799  21.973  25.516  1.00  0.00     0.014 A 
ATOM     11  C   UNL A   1      42.728  22.461  28.264  1.00  0.00     0.010 A 
ATOM     12  C   UNL A   1      43.097  23.249  26.004  1.00  0.00     0.010 A 
ATOM     13  C   UNL A   1      43.034  23.510  27.381  1.00  0.00    -0.014 A 
BRANCH  13  14
ATOM     14  C   UNL A   1      43.352  24.848  27.942  1.00  0.00     0.031 A 
ATOM     15  C   UNL A   1      44.769  25.284  28.181  1.00  0.00     0.074 A 
ATOM     16  C   UNL A   1      42.331  25.692  28.191  1.00  0.00     0.049 A 
ATOM     17  N   UNL A   1      45.212  26.437  28.620  1.00  0.00    -0.248 NA
ATOM     18  C   UNL A   1      45.829  24.304  27.900  1.00  0.00     0.031 C 
ATOM     19  C   UNL A   1      40.912  25.369  28.014  1.00  0.00     0.029 A 
ATOM     20  N   UNL A   1      42.323  26.995  28.615  1.00  0.00    -0.354 N 
ATOM     21  C   UNL A   1      46.595  26.318  28.678  1.00  0.00     0.074 A 
ATOM     22  C   UNL A   1      46.919  24.972  28.254  1.00  0.00     0.031 C 
ATOM     23  C   UNL A   1      40.177  26.457  28.274  1.00  0.00     0.029 A 
ATOM     24  C   UNL A   1      41.063  27.537  28.695  1.00  0.00     0.049 A 
ATOM     25  H   UNL A   1      43.141  27.494  28.842  1.00  0.00     0.167 HD
ATOM     26  C   UNL A   1      47.506  27.252  29.044  1.00  0.00     0.037 A 
ATOM     27  C   UNL A   1      40.662  28.762  29.075  1.00  0.00     0.037 A 
ATOM     28  C   UNL A   1      47.176  28.596  29.450  1.00  0.00     0.049 A 
ATOM     29  C   UNL A   1      41.696  29.771  29.482  1.00  0.00     0.074 A 
ATOM     30  C   UNL A   1      48.031  29.623  29.813  1.00  0.00     0.029 A 
ATOM     31  N   UNL A   1      45.887  29.099  29.545  1.00  0.00    -0.354 N 
ATOM     32  N   UNL A   1      43.001  29.652  29.506  1.00  0.00    -0.248 NA
ATOM     33  C   UNL A   1      41.201  31.083  29.920  1.00  0.00     0.031 C 
ATOM     34  C   UNL A   1      47.257  30.734  30.167  1.00  0.00     0.029 A 
ATOM     35  C   UNL A   1      45.923  30.415  29.981  1.00  0.00     0.049 A 
ATOM     36  H   UNL A   1      45.066  28.597  29.336  1.00  0.00     0.167 HD
ATOM     37  C   UNL A   1      43.484  30.872  29.953  1.00  0.00     0.074 A 
ATOM     38  C   UNL A   1      42.333  31.728  30.157  1.00  0.00     0.031 C 
ATOM     39  C   UNL A   1      44.766  31.248  30.185  1.00  0.00     0.037 A 
BRANCH  26  40
ATOM     40  C   UNL A   1      48.955  26.863  29.031  1.00  0.00     0.064 A 
ATOM     41  C   UNL A   1      49.762  27.070  27.902  1.00  0.00     0.173 A 
ATOM     42  C   UNL A   1      49.563  26.347  30.187  1.00  0.00     0.173 A 
ATOM     43  F   UNL A   1      49.227  27.551  26.770  1.00  0.00    -0.203 F 
ATOM     44  C   UNL A   1      51.120  26.763  27.927  1.00  0.00     0.198 A 
ATOM     45  C   UNL A   1      50.926  26.065  30.215  1.00  0.00     0.198 A 
ATOM     46  F   UNL A   1      48.838  26.137  31.295  1.00  0.00    -0.203 F 
ATOM     47  F   UNL A   1      51.866  26.944  26.829  1.00  0.00    -0.200 F 
ATOM     48  C   UNL A   1      51.703  26.270  29.085  1.00  0.00     0.200 A 
ATOM     49  F   UNL A   1      51.490  25.600  31.338  1.00  0.00    -0.200 F 
ATOM     50  F   UNL A   1      53.014  25.991  29.111  1.00  0.00    -0.200 F 
ENDBRANCH  26  40
BRANCH  27  51
ATOM     51  C   UNL A   1      39.215  29.093  29.095  1.00  0.00     0.064 A 
ATOM     52  C   UNL A   1      38.538  29.449  27.921  1.00  0.00     0.173 A 
ATOM     53  C   UNL A   1      38.479  29.054  30.289  1.00  0.00     0.173 A 
ATOM     54  F   UNL A   1      39.203  29.518  26.759  1.00  0.00    -0.203 F 
ATOM     55  C   UNL A   1      37.183  29.770  27.944  1.00  0.00     0.198 A 
ATOM     56  C   UNL A   1      37.118  29.345  30.305  1.00  0.00     0.198 A 
ATOM     57  F   UNL A   1      39.080  28.712  31.438  1.00  0.00    -0.203 F 
ATOM     58  F   UNL A   1      36.568  30.151  26.816  1.00  0.00    -0.200 F 
ATOM     59  C   UNL A   1      36.472  29.712  29.134  1.00  0.00     0.200 A 
ATOM     60  F   UNL A   1      36.432  29.268  31.454  1.00  0.00    -0.200 F 
ATOM     61  F   UNL A   1      35.167  30.014  29.154  1.00  0.00    -0.200 F 
ENDBRANCH  27  51
BRANCH  39  62
ATOM     62  C   UNL A   1      44.981  32.649  30.675  1.00  0.00     0.064 A 
ATOM     63  C   UNL A   1      45.143  33.718  29.780  1.00  0.00     0.173 A 
ATOM     64  C   UNL A   1      45.020  32.926  32.049  1.00  0.00     0.173 A 
ATOM     65  F   UNL A   1      45.132  33.499  28.456  1.00  0.00    -0.203 F 
ATOM     66  C   UNL A   1      45.368  35.011  30.245  1.00  0.00     0.198 A 
ATOM     67  C   UNL A   1      45.218  34.225  32.510  1.00  0.00     0.198 A 
ATOM     68  F   UNL A   1      44.867  31.939  32.943  1.00  0.00    -0.203 F 
ATOM     69  F   UNL A   1      45.576  36.006  29.373  1.00  0.00    -0.200 F 
ATOM     70  C   UNL A   1      45.401  35.263  31.608  1.00  0.00     0.200 A 
ATOM     71  F   UNL A   1      45.241  34.470  33.826  1.00  0.00    -0.200 F 
ATOM     72  F   UNL A   1      45.622  36.508  32.054  1.00  0.00    -0.200 F 
ENDBRANCH  39  62
ENDBRANCH  13  14
ENDBRANCH   6   8
ENDBRANCH   3   4
ENDBRANCH   2   3
ENDBRANCH   1   2
BRANCH   1  73
ATOM     73  C   UNL A   1      37.637  23.099  25.767  1.00  0.00     0.116 C 
BRANCH  73  74
ATOM     74  N   UNL A   1      37.492  23.193  24.324  1.00  0.00    -0.352 N 
ATOM     75  C   UNL A   1      36.383  22.952  23.550  1.00  0.00     0.255 C 
ATOM     76  H   UNL A   1      38.300  23.466  23.833  1.00  0.00     0.163 HD
ATOM     77  O   UNL A   1      36.475  22.942  22.327  1.00  0.00    -0.269 OA
BRANCH  75  78
ATOM     78  C   UNL A   1      35.081  22.710  24.195  1.00  0.00     0.082 A 
ATOM     79  C   UNL A   1      34.823  21.465  24.783  1.00  0.00     0.021 A 
ATOM     80  C   UNL A   1      34.113  23.720  24.244  1.00  0.00     0.140 A 
ATOM     81  C   UNL A   1      33.569  21.217  25.321  1.00  0.00     0.042 A 
ATOM     82  N   UNL A   1      32.890  23.468  24.765  1.00  0.00    -0.219 NA
ATOM     83  C   UNL A   1      32.647  22.242  25.273  1.00  0.00     0.131 A 
ATOM     84  Cl  UNL A   1      31.050  22.019  25.856  1.00  0.00    -0.062 Cl
BRANCH  80  85
ATOM     85  N   UNL A   1      34.341  24.963  23.672  1.00  0.00    -0.367 N 
ATOM     86  H   UNL A   1      35.108  25.506  23.965  1.00  0.00     0.162 HD
BRANCH  85  87
ATOM     87  C   UNL A   1      33.449  25.467  22.636  1.00  0.00     0.152 C 
BRANCH  87  88
ATOM     88  C   UNL A   1      32.970  26.907  22.955  1.00  0.00     0.192 C 
ATOM     89  C   UNL A   1      33.781  27.465  24.161  1.00  0.00     0.296 C 
ATOM     90  O   UNL A   1      31.539  26.890  23.149  1.00  0.00    -0.364 OA
ATOM     91  N   UNL A   1      33.058  28.279  25.143  1.00  0.00    -0.328 N 
ATOM     92  C   UNL A   1      31.189  26.668  24.515  1.00  0.00     0.225 C 
ATOM     93  C   UNL A   1      33.751  28.327  26.439  1.00  0.00     0.262 C 
ATOM     94  C   UNL A   1      31.666  27.843  25.373  1.00  0.00     0.210 C 
ATOM     95  H   UNL A   1      33.033  29.209  24.726  1.00  0.00     0.348 HD
ATOM     96  C   UNL A   1      32.640  28.434  27.467  1.00  0.00     0.068 C 
ATOM     97  C   UNL A   1      31.553  27.564  26.868  1.00  0.00     0.073 C 
ENDBRANCH  87  88
ENDBRANCH  85  87
ENDBRANCH  80  85
ENDBRANCH  75  78
ENDBRANCH  73  74
ENDBRANCH   1  73
TORSDOF 14
ENDMDL
