MODEL 1
REMARK VINA RESULT:     -13.9      0.000      0.000
REMARK SMILES O=C(Cc1c(C(=O)c2cc3c(cn2)CCCC3)[nH]c2cc(Cl)ccc12)NCCCCNC(=O)c1ccc(-c2c3nc(c(-c4c(F)c(F)c(F)c(F)c4F)c4ccc([nH]4)c(-c4c(F)c(F)c(F)c(F)c4F)c4nc(c(-c5c(F)c(F)c(F)c(F)c5F)c5ccc2[nH]5)C=C4)C=C3)cc1
REMARK SMILES IDX 28 1 27 2 26 3 1 4 2 5 3 7 4 8 5 9 25 10 18 11 19 12 24 13
REMARK SMILES IDX 20 15 23 16 21 17 22 18 6 19 7 20 8 21 9 22 13 23 10 24
REMARK SMILES IDX 12 25 11 26 17 27 14 28 16 29 15 30 29 31 30 32 31 33 32 34
REMARK SMILES IDX 33 36 34 37 35 38 96 39 36 40 95 41 37 42 38 43 39 44 89 45
REMARK SMILES IDX 40 46 94 47 88 48 90 49 41 50 93 51 87 52 86 53 42 55 74 56
REMARK SMILES IDX 54 57 73 58 55 59 58 60 72 61 91 62 56 63 57 64 71 66 92 67
REMARK SMILES IDX 59 68 43 69 44 70 52 71 45 72 46 73 50 74 53 75 47 76 48 77
REMARK SMILES IDX 51 78 49 79 75 80 76 81 84 82 77 83 78 84 82 85 85 86 79 87
REMARK SMILES IDX 80 88 83 89 81 90 60 91 61 92 69 93 62 94 63 95 67 96 70 97
REMARK SMILES IDX 64 98 65 99 68 100 66 101
REMARK H PARENT 26 6 18 14 31 35 90 54 58 65
REMARK Flexibility Score: inf
ROOT
ATOM      1  C   UNL A   1      31.954  30.062  27.080  1.00  0.00     0.023 C 
ENDROOT
BRANCH   1   2
ATOM      2  C   UNL A   1      31.721  29.169  25.865  1.00  0.00     0.116 C 
BRANCH   2   3
ATOM      3  N   UNL A   1      32.780  28.202  25.642  1.00  0.00    -0.356 N 
ATOM      4  O   UNL A   1      31.718  26.510  26.772  1.00  0.00    -0.275 OA
ATOM      5  C   UNL A   1      32.668  26.899  26.097  1.00  0.00     0.224 C 
ATOM      6  H   UNL A   1      33.592  28.477  25.158  1.00  0.00     0.163 HD
BRANCH   5   7
ATOM      7  C   UNL A   1      33.792  25.978  25.662  1.00  0.00     0.138 C 
BRANCH   7   8
ATOM      8  C   UNL A   1      33.369  24.740  24.901  1.00  0.00    -0.002 A 
ATOM      9  C   UNL A   1      32.846  24.769  23.601  1.00  0.00     0.093 A 
ATOM     10  C   UNL A   1      33.394  23.359  25.317  1.00  0.00     0.004 A 
ATOM     11  N   UNL A   1      32.621  23.462  23.233  1.00  0.00    -0.351 N 
ATOM     12  C   UNL A   1      32.860  22.604  24.275  1.00  0.00     0.048 A 
ATOM     13  C   UNL A   1      33.809  22.662  26.475  1.00  0.00     0.012 A 
ATOM     14  H   UNL A   1      32.327  23.179  22.337  1.00  0.00     0.167 HD
ATOM     15  C   UNL A   1      32.665  21.217  24.350  1.00  0.00     0.047 A 
ATOM     16  C   UNL A   1      33.619  21.278  26.576  1.00  0.00     0.021 A 
ATOM     17  C   UNL A   1      33.040  20.573  25.529  1.00  0.00     0.043 A 
ATOM     18  Cl  UNL A   1      32.790  18.877  25.682  1.00  0.00    -0.084 Cl
BRANCH   9  19
ATOM     19  C   UNL A   1      32.604  25.932  22.745  1.00  0.00     0.227 C 
ATOM     20  O   UNL A   1      33.438  26.366  21.953  1.00  0.00    -0.285 OA
BRANCH  19  21
ATOM     21  C   UNL A   1      31.302  26.654  22.858  1.00  0.00     0.113 A 
ATOM     22  C   UNL A   1      31.153  27.918  22.293  1.00  0.00     0.036 A 
ATOM     23  N   UNL A   1      30.319  26.015  23.535  1.00  0.00    -0.252 NA
ATOM     24  C   UNL A   1      29.925  28.574  22.434  1.00  0.00    -0.041 A 
ATOM     25  C   UNL A   1      29.138  26.658  23.639  1.00  0.00     0.115 A 
ATOM     26  C   UNL A   1      28.891  27.932  23.130  1.00  0.00    -0.026 A 
ATOM     27  C   UNL A   1      29.756  29.971  21.891  1.00  0.00     0.036 C 
ATOM     28  C   UNL A   1      27.522  28.543  23.265  1.00  0.00     0.037 C 
ATOM     29  C   UNL A   1      28.293  30.391  21.753  1.00  0.00     0.005 C 
ATOM     30  C   UNL A   1      27.514  30.051  23.020  1.00  0.00     0.005 C 
ENDBRANCH  19  21
ENDBRANCH   9  19
ENDBRANCH   7   8
ENDBRANCH   5   7
ENDBRANCH   2   3
ENDBRANCH   1   2
BRANCH   1  31
ATOM     31  C   UNL A   1      31.731  31.558  26.856  1.00  0.00     0.023 C 
BRANCH  31  32
ATOM     32  C   UNL A   1      32.913  32.461  27.194  1.00  0.00     0.116 C 
BRANCH  32  33
ATOM     33  N   UNL A   1      32.520  33.815  27.560  1.00  0.00    -0.352 N 
ATOM     34  C   UNL A   1      33.047  34.660  28.511  1.00  0.00     0.251 C 
ATOM     35  H   UNL A   1      31.761  34.182  27.051  1.00  0.00     0.163 HD
ATOM     36  O   UNL A   1      32.499  35.730  28.756  1.00  0.00    -0.269 OA
BRANCH  34  37
ATOM     37  C   UNL A   1      34.250  34.262  29.278  1.00  0.00     0.039 A 
ATOM     38  C   UNL A   1      35.532  34.558  28.813  1.00  0.00     0.014 A 
ATOM     39  C   UNL A   1      34.088  33.555  30.474  1.00  0.00     0.014 A 
ATOM     40  C   UNL A   1      36.639  33.981  29.431  1.00  0.00     0.010 A 
ATOM     41  C   UNL A   1      35.208  33.049  31.143  1.00  0.00     0.010 A 
ATOM     42  C   UNL A   1      36.488  33.202  30.590  1.00  0.00    -0.014 A 
BRANCH  42  43
ATOM     43  C   UNL A   1      37.677  32.530  31.179  1.00  0.00     0.031 A 
ATOM     44  C   UNL A   1      38.146  32.874  32.568  1.00  0.00     0.074 A 
ATOM     45  C   UNL A   1      38.298  31.555  30.489  1.00  0.00     0.049 A 
ATOM     46  N   UNL A   1      39.127  32.352  33.263  1.00  0.00    -0.248 NA
ATOM     47  C   UNL A   1      37.424  33.947  33.269  1.00  0.00     0.031 C 
ATOM     48  C   UNL A   1      37.940  31.123  29.139  1.00  0.00     0.029 A 
ATOM     49  N   UNL A   1      39.340  30.732  30.838  1.00  0.00    -0.354 N 
ATOM     50  C   UNL A   1      39.151  33.042  34.468  1.00  0.00     0.074 A 
ATOM     51  C   UNL A   1      38.107  34.042  34.401  1.00  0.00     0.031 C 
ATOM     52  C   UNL A   1      38.709  30.080  28.795  1.00  0.00     0.029 A 
ATOM     53  C   UNL A   1      39.648  29.802  29.877  1.00  0.00     0.049 A 
ATOM     54  H   UNL A   1      39.821  30.803  31.695  1.00  0.00     0.167 HD
ATOM     55  C   UNL A   1      39.958  32.851  35.539  1.00  0.00     0.037 A 
ATOM     56  C   UNL A   1      40.584  28.833  29.865  1.00  0.00     0.037 A 
ATOM     57  C   UNL A   1      40.978  31.837  35.621  1.00  0.00     0.049 A 
ATOM     58  C   UNL A   1      41.488  28.661  31.051  1.00  0.00     0.074 A 
ATOM     59  C   UNL A   1      41.812  31.539  36.684  1.00  0.00     0.029 A 
ATOM     60  N   UNL A   1      41.304  30.960  34.599  1.00  0.00    -0.354 N 
ATOM     61  N   UNL A   1      41.485  29.307  32.191  1.00  0.00    -0.248 NA
ATOM     62  C   UNL A   1      42.531  27.633  30.944  1.00  0.00     0.031 C 
ATOM     63  C   UNL A   1      42.671  30.507  36.291  1.00  0.00     0.029 A 
ATOM     64  C   UNL A   1      42.345  30.136  34.996  1.00  0.00     0.049 A 
ATOM     65  H   UNL A   1      40.861  30.927  33.719  1.00  0.00     0.167 HD
ATOM     66  C   UNL A   1      42.522  28.765  32.938  1.00  0.00     0.074 A 
ATOM     67  C   UNL A   1      43.118  27.721  32.131  1.00  0.00     0.031 C 
ATOM     68  C   UNL A   1      42.941  29.110  34.180  1.00  0.00     0.037 A 
BRANCH  55  69
ATOM     69  C   UNL A   1      39.781  33.766  36.716  1.00  0.00     0.064 A 
ATOM     70  C   UNL A   1      40.417  35.014  36.779  1.00  0.00     0.173 A 
ATOM     71  C   UNL A   1      38.928  33.409  37.770  1.00  0.00     0.173 A 
ATOM     72  F   UNL A   1      41.251  35.397  35.800  1.00  0.00    -0.203 F 
ATOM     73  C   UNL A   1      40.224  35.862  37.867  1.00  0.00     0.198 A 
ATOM     74  C   UNL A   1      38.717  34.270  38.845  1.00  0.00     0.198 A 
ATOM     75  F   UNL A   1      38.289  32.230  37.754  1.00  0.00    -0.203 F 
ATOM     76  F   UNL A   1      40.873  37.033  37.925  1.00  0.00    -0.200 F 
ATOM     77  C   UNL A   1      39.369  35.493  38.895  1.00  0.00     0.200 A 
ATOM     78  F   UNL A   1      37.883  33.917  39.832  1.00  0.00    -0.200 F 
ATOM     79  F   UNL A   1      39.181  36.313  39.938  1.00  0.00    -0.200 F 
ENDBRANCH  55  69
BRANCH  56  80
ATOM     80  C   UNL A   1      40.686  27.946  28.681  1.00  0.00     0.064 A 
ATOM     81  C   UNL A   1      39.959  26.750  28.617  1.00  0.00     0.173 A 
ATOM     82  C   UNL A   1      41.458  28.306  27.567  1.00  0.00     0.173 A 
ATOM     83  F   UNL A   1      39.221  26.359  29.666  1.00  0.00    -0.203 F 
ATOM     84  C   UNL A   1      39.994  25.950  27.477  1.00  0.00     0.198 A 
ATOM     85  C   UNL A   1      41.474  27.517  26.420  1.00  0.00     0.198 A 
ATOM     86  F   UNL A   1      42.168  29.443  27.581  1.00  0.00    -0.203 F 
ATOM     87  F   UNL A   1      39.299  24.805  27.444  1.00  0.00    -0.200 F 
ATOM     88  C   UNL A   1      40.743  26.340  26.376  1.00  0.00     0.200 A 
ATOM     89  F   UNL A   1      42.186  27.904  25.352  1.00  0.00    -0.200 F 
ATOM     90  F   UNL A   1      40.757  25.582  25.271  1.00  0.00    -0.200 F 
ENDBRANCH  56  80
BRANCH  68  91
ATOM     91  C   UNL A   1      44.109  28.360  34.746  1.00  0.00     0.064 A 
ATOM     92  C   UNL A   1      45.417  28.848  34.623  1.00  0.00     0.173 A 
ATOM     93  C   UNL A   1      43.912  27.177  35.475  1.00  0.00     0.173 A 
ATOM     94  F   UNL A   1      45.656  29.966  33.922  1.00  0.00    -0.203 F 
ATOM     95  C   UNL A   1      46.490  28.173  35.198  1.00  0.00     0.198 A 
ATOM     96  C   UNL A   1      44.985  26.517  36.070  1.00  0.00     0.198 A 
ATOM     97  F   UNL A   1      42.678  26.673  35.626  1.00  0.00    -0.203 F 
ATOM     98  F   UNL A   1      47.736  28.641  35.043  1.00  0.00    -0.200 F 
ATOM     99  C   UNL A   1      46.272  27.014  35.929  1.00  0.00     0.200 A 
ATOM    100  F   UNL A   1      44.771  25.403  36.784  1.00  0.00    -0.200 F 
ATOM    101  F   UNL A   1      47.303  26.372  36.494  1.00  0.00    -0.200 F 
ENDBRANCH  68  91
ENDBRANCH  42  43
ENDBRANCH  34  37
ENDBRANCH  32  33
ENDBRANCH  31  32
ENDBRANCH   1  31
TORSDOF 14
ENDMDL
MODEL 2
REMARK VINA RESULT:     -13.9      5.378     10.995
REMARK SMILES O=C(Cc1c(C(=O)c2cc3c(cn2)CCCC3)[nH]c2cc(Cl)ccc12)NCCCCNC(=O)c1ccc(-c2c3nc(c(-c4c(F)c(F)c(F)c(F)c4F)c4ccc([nH]4)c(-c4c(F)c(F)c(F)c(F)c4F)c4nc(c(-c5c(F)c(F)c(F)c(F)c5F)c5ccc2[nH]5)C=C4)C=C3)cc1
REMARK SMILES IDX 28 1 27 2 26 3 1 4 2 5 3 7 4 8 5 9 25 10 18 11 19 12 24 13
REMARK SMILES IDX 20 15 23 16 21 17 22 18 6 19 7 20 8 21 9 22 13 23 10 24
REMARK SMILES IDX 12 25 11 26 17 27 14 28 16 29 15 30 29 31 30 32 31 33 32 34
REMARK SMILES IDX 33 36 34 37 35 38 96 39 36 40 95 41 37 42 38 43 39 44 89 45
REMARK SMILES IDX 40 46 94 47 88 48 90 49 41 50 93 51 87 52 86 53 42 55 74 56
REMARK SMILES IDX 54 57 73 58 55 59 58 60 72 61 91 62 56 63 57 64 71 66 92 67
REMARK SMILES IDX 59 68 43 69 44 70 52 71 45 72 46 73 50 74 53 75 47 76 48 77
REMARK SMILES IDX 51 78 49 79 75 80 76 81 84 82 77 83 78 84 82 85 85 86 79 87
REMARK SMILES IDX 80 88 83 89 81 90 60 91 61 92 69 93 62 94 63 95 67 96 70 97
REMARK SMILES IDX 64 98 65 99 68 100 66 101
REMARK H PARENT 26 6 18 14 31 35 90 54 58 65
REMARK Flexibility Score: inf
ROOT
ATOM      1  C   UNL A   1      36.831  20.863  25.003  1.00  0.00     0.023 C 
ENDROOT
BRANCH   1   2
ATOM      2  C   UNL A   1      36.895  22.209  24.286  1.00  0.00     0.116 C 
BRANCH   2   3
ATOM      3  N   UNL A   1      36.246  23.286  25.010  1.00  0.00    -0.356 N 
ATOM      4  O   UNL A   1      34.931  23.924  23.240  1.00  0.00    -0.275 OA
ATOM      5  C   UNL A   1      35.258  24.054  24.417  1.00  0.00     0.224 C 
ATOM      6  H   UNL A   1      36.513  23.475  25.939  1.00  0.00     0.163 HD
BRANCH   5   7
ATOM      7  C   UNL A   1      34.583  25.044  25.347  1.00  0.00     0.138 C 
BRANCH   7   8
ATOM      8  C   UNL A   1      33.173  25.444  24.968  1.00  0.00    -0.002 A 
ATOM      9  C   UNL A   1      32.043  24.665  25.249  1.00  0.00     0.093 A 
ATOM     10  C   UNL A   1      32.714  26.622  24.273  1.00  0.00     0.004 A 
ATOM     11  N   UNL A   1      30.951  25.368  24.794  1.00  0.00    -0.351 N 
ATOM     12  C   UNL A   1      31.333  26.503  24.128  1.00  0.00     0.048 A 
ATOM     13  C   UNL A   1      33.323  27.781  23.741  1.00  0.00     0.012 A 
ATOM     14  H   UNL A   1      30.015  25.091  24.930  1.00  0.00     0.167 HD
ATOM     15  C   UNL A   1      30.547  27.438  23.438  1.00  0.00     0.047 A 
ATOM     16  C   UNL A   1      32.561  28.725  23.042  1.00  0.00     0.021 A 
ATOM     17  C   UNL A   1      31.194  28.543  22.883  1.00  0.00     0.043 A 
ATOM     18  Cl  UNL A   1      30.279  29.701  21.998  1.00  0.00    -0.084 Cl
BRANCH   9  19
ATOM     19  C   UNL A   1      31.979  23.367  25.926  1.00  0.00     0.227 C 
ATOM     20  O   UNL A   1      31.833  23.253  27.142  1.00  0.00    -0.285 OA
BRANCH  19  21
ATOM     21  C   UNL A   1      32.134  22.121  25.118  1.00  0.00     0.113 A 
ATOM     22  C   UNL A   1      32.396  20.908  25.749  1.00  0.00     0.036 A 
ATOM     23  N   UNL A   1      32.018  22.260  23.776  1.00  0.00    -0.252 NA
ATOM     24  C   UNL A   1      32.554  19.763  24.960  1.00  0.00    -0.041 A 
ATOM     25  C   UNL A   1      32.153  21.139  23.038  1.00  0.00     0.115 A 
ATOM     26  C   UNL A   1      32.436  19.880  23.567  1.00  0.00    -0.026 A 
ATOM     27  C   UNL A   1      32.903  18.448  25.610  1.00  0.00     0.036 C 
ATOM     28  C   UNL A   1      32.526  18.685  22.656  1.00  0.00     0.037 C 
ATOM     29  C   UNL A   1      32.647  17.243  24.706  1.00  0.00     0.005 C 
ATOM     30  C   UNL A   1      33.213  17.487  23.310  1.00  0.00     0.005 C 
ENDBRANCH  19  21
ENDBRANCH   9  19
ENDBRANCH   7   8
ENDBRANCH   5   7
ENDBRANCH   2   3
ENDBRANCH   1   2
BRANCH   1  31
ATOM     31  C   UNL A   1      38.050  19.958  24.825  1.00  0.00     0.023 C 
BRANCH  31  32
ATOM     32  C   UNL A   1      39.228  20.245  25.751  1.00  0.00     0.116 C 
BRANCH  32  33
ATOM     33  N   UNL A   1      40.200  19.161  25.801  1.00  0.00    -0.352 N 
ATOM     34  C   UNL A   1      41.555  19.203  26.043  1.00  0.00     0.251 C 
ATOM     35  H   UNL A   1      39.833  18.262  25.637  1.00  0.00     0.163 HD
ATOM     36  O   UNL A   1      42.234  18.187  25.926  1.00  0.00    -0.269 OA
BRANCH  34  37
ATOM     37  C   UNL A   1      42.211  20.483  26.396  1.00  0.00     0.039 A 
ATOM     38  C   UNL A   1      42.276  20.917  27.722  1.00  0.00     0.014 A 
ATOM     39  C   UNL A   1      42.747  21.275  25.376  1.00  0.00     0.014 A 
ATOM     40  C   UNL A   1      42.692  22.216  28.001  1.00  0.00     0.010 A 
ATOM     41  C   UNL A   1      43.246  22.549  25.670  1.00  0.00     0.010 A 
ATOM     42  C   UNL A   1      43.161  23.055  26.976  1.00  0.00    -0.014 A 
BRANCH  42  43
ATOM     43  C   UNL A   1      43.519  24.464  27.290  1.00  0.00     0.031 A 
ATOM     44  C   UNL A   1      44.888  25.001  26.965  1.00  0.00     0.074 A 
ATOM     45  C   UNL A   1      42.587  25.286  27.807  1.00  0.00     0.049 A 
ATOM     46  N   UNL A   1      45.357  26.216  27.117  1.00  0.00    -0.248 NA
ATOM     47  C   UNL A   1      45.860  24.053  26.401  1.00  0.00     0.031 C 
ATOM     48  C   UNL A   1      41.224  24.893  28.161  1.00  0.00     0.029 A 
ATOM     49  N   UNL A   1      42.634  26.627  28.097  1.00  0.00    -0.354 N 
ATOM     50  C   UNL A   1      46.677  26.171  26.686  1.00  0.00     0.074 A 
ATOM     51  C   UNL A   1      46.947  24.804  26.296  1.00  0.00     0.031 C 
ATOM     52  C   UNL A   1      40.547  25.976  28.567  1.00  0.00     0.029 A 
ATOM     53  C   UNL A   1      41.441  27.131  28.551  1.00  0.00     0.049 A 
ATOM     54  H   UNL A   1      43.446  27.175  27.989  1.00  0.00     0.167 HD
ATOM     55  C   UNL A   1      47.578  27.179  26.609  1.00  0.00     0.037 A 
ATOM     56  C   UNL A   1      41.101  28.382  28.918  1.00  0.00     0.037 A 
ATOM     57  C   UNL A   1      47.305  28.547  26.968  1.00  0.00     0.049 A 
ATOM     58  C   UNL A   1      42.126  29.477  28.853  1.00  0.00     0.074 A 
ATOM     59  C   UNL A   1      48.142  29.646  26.877  1.00  0.00     0.029 A 
ATOM     60  N   UNL A   1      46.104  29.002  27.489  1.00  0.00    -0.354 N 
ATOM     61  N   UNL A   1      43.363  29.424  28.425  1.00  0.00    -0.248 NA
ATOM     62  C   UNL A   1      41.710  30.801  29.333  1.00  0.00     0.031 C 
ATOM     63  C   UNL A   1      47.461  30.758  27.382  1.00  0.00     0.029 A 
ATOM     64  C   UNL A   1      46.185  30.361  27.750  1.00  0.00     0.049 A 
ATOM     65  H   UNL A   1      45.309  28.442  27.651  1.00  0.00     0.167 HD
ATOM     66  C   UNL A   1      43.875  30.705  28.580  1.00  0.00     0.074 A 
ATOM     67  C   UNL A   1      42.807  31.519  29.122  1.00  0.00     0.031 C 
ATOM     68  C   UNL A   1      45.122  31.159  28.303  1.00  0.00     0.037 A 
BRANCH  55  69
ATOM     69  C   UNL A   1      48.958  26.843  26.122  1.00  0.00     0.064 A 
ATOM     70  C   UNL A   1      49.939  26.339  26.988  1.00  0.00     0.173 A 
ATOM     71  C   UNL A   1      49.288  26.984  24.767  1.00  0.00     0.173 A 
ATOM     72  F   UNL A   1      49.677  26.196  28.296  1.00  0.00    -0.203 F 
ATOM     73  C   UNL A   1      51.209  26.010  26.518  1.00  0.00     0.198 A 
ATOM     74  C   UNL A   1      50.549  26.630  24.294  1.00  0.00     0.198 A 
ATOM     75  F   UNL A   1      48.382  27.455  23.896  1.00  0.00    -0.203 F 
ATOM     76  F   UNL A   1      52.143  25.567  27.370  1.00  0.00    -0.200 F 
ATOM     77  C   UNL A   1      51.510  26.149  25.171  1.00  0.00     0.200 A 
ATOM     78  F   UNL A   1      50.835  26.755  22.992  1.00  0.00    -0.200 F 
ATOM     79  F   UNL A   1      52.730  25.826  24.719  1.00  0.00    -0.200 F 
ENDBRANCH  55  69
BRANCH  56  80
ATOM     80  C   UNL A   1      39.712  28.650  29.361  1.00  0.00     0.064 A 
ATOM     81  C   UNL A   1      39.342  28.479  30.702  1.00  0.00     0.173 A 
ATOM     82  C   UNL A   1      38.746  29.142  28.471  1.00  0.00     0.173 A 
ATOM     83  F   UNL A   1      40.228  27.994  31.583  1.00  0.00    -0.203 F 
ATOM     84  C   UNL A   1      38.058  28.800  31.137  1.00  0.00     0.198 A 
ATOM     85  C   UNL A   1      37.471  29.483  28.912  1.00  0.00     0.198 A 
ATOM     86  F   UNL A   1      39.056  29.325  27.179  1.00  0.00    -0.203 F 
ATOM     87  F   UNL A   1      37.725  28.617  32.422  1.00  0.00    -0.200 F 
ATOM     88  C   UNL A   1      37.127  29.312  30.245  1.00  0.00     0.200 A 
ATOM     89  F   UNL A   1      36.580  29.993  28.050  1.00  0.00    -0.200 F 
ATOM     90  F   UNL A   1      35.901  29.642  30.670  1.00  0.00    -0.200 F 
ENDBRANCH  56  80
BRANCH  68  91
ATOM     91  C   UNL A   1      45.409  32.602  28.587  1.00  0.00     0.064 A 
ATOM     92  C   UNL A   1      45.118  33.600  27.646  1.00  0.00     0.173 A 
ATOM     93  C   UNL A   1      45.917  32.999  29.833  1.00  0.00     0.173 A 
ATOM     94  F   UNL A   1      44.646  33.268  26.435  1.00  0.00    -0.203 F 
ATOM     95  C   UNL A   1      45.338  34.944  27.937  1.00  0.00     0.198 A 
ATOM     96  C   UNL A   1      46.112  34.345  30.130  1.00  0.00     0.198 A 
ATOM     97  F   UNL A   1      46.205  32.082  30.768  1.00  0.00    -0.203 F 
ATOM     98  F   UNL A   1      45.081  35.879  27.013  1.00  0.00    -0.200 F 
ATOM     99  C   UNL A   1      45.825  35.315  29.181  1.00  0.00     0.200 A 
ATOM    100  F   UNL A   1      46.574  34.704  31.336  1.00  0.00    -0.200 F 
ATOM    101  F   UNL A   1      46.023  36.610  29.466  1.00  0.00    -0.200 F 
ENDBRANCH  68  91
ENDBRANCH  42  43
ENDBRANCH  34  37
ENDBRANCH  32  33
ENDBRANCH  31  32
ENDBRANCH   1  31
TORSDOF 14
ENDMDL
MODEL 3
REMARK VINA RESULT:     -13.9      4.744     10.378
REMARK SMILES O=C(Cc1c(C(=O)c2cc3c(cn2)CCCC3)[nH]c2cc(Cl)ccc12)NCCCCNC(=O)c1ccc(-c2c3nc(c(-c4c(F)c(F)c(F)c(F)c4F)c4ccc([nH]4)c(-c4c(F)c(F)c(F)c(F)c4F)c4nc(c(-c5c(F)c(F)c(F)c(F)c5F)c5ccc2[nH]5)C=C4)C=C3)cc1
REMARK SMILES IDX 28 1 27 2 26 3 1 4 2 5 3 7 4 8 5 9 25 10 18 11 19 12 24 13
REMARK SMILES IDX 20 15 23 16 21 17 22 18 6 19 7 20 8 21 9 22 13 23 10 24
REMARK SMILES IDX 12 25 11 26 17 27 14 28 16 29 15 30 29 31 30 32 31 33 32 34
REMARK SMILES IDX 33 36 34 37 35 38 96 39 36 40 95 41 37 42 38 43 39 44 89 45
REMARK SMILES IDX 40 46 94 47 88 48 90 49 41 50 93 51 87 52 86 53 42 55 74 56
REMARK SMILES IDX 54 57 73 58 55 59 58 60 72 61 91 62 56 63 57 64 71 66 92 67
REMARK SMILES IDX 59 68 43 69 44 70 52 71 45 72 46 73 50 74 53 75 47 76 48 77
REMARK SMILES IDX 51 78 49 79 75 80 76 81 84 82 77 83 78 84 82 85 85 86 79 87
REMARK SMILES IDX 80 88 83 89 81 90 60 91 61 92 69 93 62 94 63 95 67 96 70 97
REMARK SMILES IDX 64 98 65 99 68 100 66 101
REMARK H PARENT 26 6 18 14 31 35 90 54 58 65
REMARK Flexibility Score: inf
ROOT
ATOM      1  C   UNL A   1      35.582  21.760  24.147  1.00  0.00     0.023 C 
ENDROOT
BRANCH   1   2
ATOM      2  C   UNL A   1      36.023  23.199  23.898  1.00  0.00     0.116 C 
BRANCH   2   3
ATOM      3  N   UNL A   1      35.286  24.177  24.674  1.00  0.00    -0.356 N 
ATOM      4  O   UNL A   1      34.055  24.931  22.889  1.00  0.00    -0.275 OA
ATOM      5  C   UNL A   1      34.304  24.961  24.092  1.00  0.00     0.224 C 
ATOM      6  H   UNL A   1      35.487  24.286  25.632  1.00  0.00     0.163 HD
BRANCH   5   7
ATOM      7  C   UNL A   1      33.531  25.832  25.064  1.00  0.00     0.138 C 
BRANCH   7   8
ATOM      8  C   UNL A   1      32.024  25.796  24.921  1.00  0.00    -0.002 A 
ATOM      9  C   UNL A   1      31.228  24.727  25.356  1.00  0.00     0.093 A 
ATOM     10  C   UNL A   1      31.138  26.774  24.338  1.00  0.00     0.004 A 
ATOM     11  N   UNL A   1      29.921  25.072  25.097  1.00  0.00    -0.351 N 
ATOM     12  C   UNL A   1      29.847  26.255  24.409  1.00  0.00     0.048 A 
ATOM     13  C   UNL A   1      31.292  28.049  23.748  1.00  0.00     0.012 A 
ATOM     14  H   UNL A   1      29.141  24.538  25.371  1.00  0.00     0.167 HD
ATOM     15  C   UNL A   1      28.725  26.906  23.876  1.00  0.00     0.047 A 
ATOM     16  C   UNL A   1      30.188  28.715  23.202  1.00  0.00     0.021 A 
ATOM     17  C   UNL A   1      28.926  28.139  23.255  1.00  0.00     0.043 A 
ATOM     18  Cl  UNL A   1      27.586  28.962  22.556  1.00  0.00    -0.084 Cl
BRANCH   9  19
ATOM     19  C   UNL A   1      31.653  23.482  26.001  1.00  0.00     0.227 C 
ATOM     20  O   UNL A   1      31.850  23.388  27.210  1.00  0.00    -0.285 OA
BRANCH  19  21
ATOM     21  C   UNL A   1      31.896  22.276  25.154  1.00  0.00     0.113 A 
ATOM     22  C   UNL A   1      32.233  21.063  25.748  1.00  0.00     0.036 A 
ATOM     23  N   UNL A   1      31.780  22.450  23.816  1.00  0.00    -0.252 NA
ATOM     24  C   UNL A   1      32.472  19.957  24.925  1.00  0.00    -0.041 A 
ATOM     25  C   UNL A   1      31.993  21.365  23.044  1.00  0.00     0.115 A 
ATOM     26  C   UNL A   1      32.356  20.111  23.535  1.00  0.00    -0.026 A 
ATOM     27  C   UNL A   1      32.903  18.647  25.535  1.00  0.00     0.036 C 
ATOM     28  C   UNL A   1      32.531  18.955  22.587  1.00  0.00     0.037 C 
ATOM     29  C   UNL A   1      32.734  17.458  24.591  1.00  0.00     0.005 C 
ATOM     30  C   UNL A   1      33.291  17.784  23.209  1.00  0.00     0.005 C 
ENDBRANCH  19  21
ENDBRANCH   9  19
ENDBRANCH   7   8
ENDBRANCH   5   7
ENDBRANCH   2   3
ENDBRANCH   1   2
BRANCH   1  31
ATOM     31  C   UNL A   1      36.526  20.915  25.002  1.00  0.00     0.023 C 
BRANCH  31  32
ATOM     32  C   UNL A   1      37.872  21.553  25.330  1.00  0.00     0.116 C 
BRANCH  32  33
ATOM     33  N   UNL A   1      38.871  20.595  25.783  1.00  0.00    -0.352 N 
ATOM     34  C   UNL A   1      40.029  20.801  26.500  1.00  0.00     0.251 C 
ATOM     35  H   UNL A   1      38.692  19.658  25.540  1.00  0.00     0.163 HD
ATOM     36  O   UNL A   1      40.810  19.873  26.688  1.00  0.00    -0.269 OA
BRANCH  34  37
ATOM     37  C   UNL A   1      40.363  22.152  27.006  1.00  0.00     0.039 A 
ATOM     38  C   UNL A   1      39.727  23.288  26.502  1.00  0.00     0.014 A 
ATOM     39  C   UNL A   1      41.354  22.284  27.984  1.00  0.00     0.014 A 
ATOM     40  C   UNL A   1      40.214  24.551  26.828  1.00  0.00     0.010 A 
ATOM     41  C   UNL A   1      41.784  23.556  28.375  1.00  0.00     0.010 A 
ATOM     42  C   UNL A   1      41.262  24.700  27.751  1.00  0.00    -0.014 A 
BRANCH  42  43
ATOM     43  C   UNL A   1      41.818  26.053  28.015  1.00  0.00     0.031 A 
ATOM     44  C   UNL A   1      43.157  26.458  27.459  1.00  0.00     0.074 A 
ATOM     45  C   UNL A   1      41.084  26.949  28.702  1.00  0.00     0.049 A 
ATOM     46  N   UNL A   1      43.773  27.613  27.541  1.00  0.00    -0.248 NA
ATOM     47  C   UNL A   1      43.908  25.435  26.716  1.00  0.00     0.031 C 
ATOM     48  C   UNL A   1      39.771  26.686  29.289  1.00  0.00     0.029 A 
ATOM     49  N   UNL A   1      41.324  28.269  28.998  1.00  0.00    -0.354 N 
ATOM     50  C   UNL A   1      44.984  27.448  26.880  1.00  0.00     0.074 A 
ATOM     51  C   UNL A   1      45.033  26.074  26.429  1.00  0.00     0.031 C 
ATOM     52  C   UNL A   1      39.296  27.819  29.825  1.00  0.00     0.029 A 
ATOM     53  C   UNL A   1      40.290  28.876  29.665  1.00  0.00     0.049 A 
ATOM     54  H   UNL A   1      42.158  28.734  28.754  1.00  0.00     0.167 HD
ATOM     55  C   UNL A   1      45.959  28.361  26.657  1.00  0.00     0.037 A 
ATOM     56  C   UNL A   1      40.156  30.142  30.104  1.00  0.00     0.037 A 
ATOM     57  C   UNL A   1      45.900  29.737  27.079  1.00  0.00     0.049 A 
ATOM     58  C   UNL A   1      41.263  31.129  29.872  1.00  0.00     0.074 A 
ATOM     59  C   UNL A   1      46.820  30.747  26.855  1.00  0.00     0.029 A 
ATOM     60  N   UNL A   1      44.865  30.295  27.812  1.00  0.00    -0.354 N 
ATOM     61  N   UNL A   1      42.393  30.964  29.229  1.00  0.00    -0.248 NA
ATOM     62  C   UNL A   1      41.082  32.472  30.437  1.00  0.00     0.031 C 
ATOM     63  C   UNL A   1      46.361  31.905  27.489  1.00  0.00     0.029 A 
ATOM     64  C   UNL A   1      45.135  31.629  28.074  1.00  0.00     0.049 A 
ATOM     65  H   UNL A   1      44.056  29.814  28.106  1.00  0.00     0.167 HD
ATOM     66  C   UNL A   1      43.057  32.180  29.309  1.00  0.00     0.074 A 
ATOM     67  C   UNL A   1      42.194  33.081  30.044  1.00  0.00     0.031 C 
ATOM     68  C   UNL A   1      44.277  32.513  28.820  1.00  0.00     0.037 A 
BRANCH  55  69
ATOM     69  C   UNL A   1      47.187  27.902  25.927  1.00  0.00     0.064 A 
ATOM     70  C   UNL A   1      48.340  27.492  26.614  1.00  0.00     0.173 A 
ATOM     71  C   UNL A   1      47.196  27.828  24.527  1.00  0.00     0.173 A 
ATOM     72  F   UNL A   1      48.386  27.554  27.954  1.00  0.00    -0.203 F 
ATOM     73  C   UNL A   1      49.465  27.046  25.923  1.00  0.00     0.198 A 
ATOM     74  C   UNL A   1      48.313  27.358  23.840  1.00  0.00     0.198 A 
ATOM     75  F   UNL A   1      46.116  28.200  23.823  1.00  0.00    -0.203 F 
ATOM     76  F   UNL A   1      50.568  26.697  26.598  1.00  0.00    -0.200 F 
ATOM     77  C   UNL A   1      49.448  26.973  24.538  1.00  0.00     0.200 A 
ATOM     78  F   UNL A   1      48.292  27.277  22.503  1.00  0.00    -0.200 F 
ATOM     79  F   UNL A   1      50.529  26.538  23.876  1.00  0.00    -0.200 F 
ENDBRANCH  55  69
BRANCH  56  80
ATOM     80  C   UNL A   1      38.903  30.536  30.792  1.00  0.00     0.064 A 
ATOM     81  C   UNL A   1      38.796  30.455  32.187  1.00  0.00     0.173 A 
ATOM     82  C   UNL A   1      37.815  31.061  30.079  1.00  0.00     0.173 A 
ATOM     83  F   UNL A   1      39.804  29.943  32.906  1.00  0.00    -0.203 F 
ATOM     84  C   UNL A   1      37.648  30.893  32.844  1.00  0.00     0.198 A 
ATOM     85  C   UNL A   1      36.678  31.519  30.739  1.00  0.00     0.198 A 
ATOM     86  F   UNL A   1      37.874  31.162  28.744  1.00  0.00    -0.203 F 
ATOM     87  F   UNL A   1      37.564  30.794  34.177  1.00  0.00    -0.200 F 
ATOM     88  C   UNL A   1      36.595  31.435  32.121  1.00  0.00     0.200 A 
ATOM     89  F   UNL A   1      35.670  32.057  30.039  1.00  0.00    -0.200 F 
ATOM     90  F   UNL A   1      35.502  31.877  32.756  1.00  0.00    -0.200 F 
ENDBRANCH  56  80
BRANCH  68  91
ATOM     91  C   UNL A   1      44.761  33.909  29.067  1.00  0.00     0.064 A 
ATOM     92  C   UNL A   1      44.430  34.959  28.199  1.00  0.00     0.173 A 
ATOM     93  C   UNL A   1      45.508  34.214  30.215  1.00  0.00     0.173 A 
ATOM     94  F   UNL A   1      43.731  34.714  27.081  1.00  0.00    -0.203 F 
ATOM     95  C   UNL A   1      44.838  36.263  28.465  1.00  0.00     0.198 A 
ATOM     96  C   UNL A   1      45.894  35.523  30.491  1.00  0.00     0.198 A 
ATOM     97  F   UNL A   1      45.845  33.245  31.080  1.00  0.00    -0.203 F 
ATOM     98  F   UNL A   1      44.536  37.247  27.607  1.00  0.00    -0.200 F 
ATOM     99  C   UNL A   1      45.561  36.546  29.615  1.00  0.00     0.200 A 
ATOM    100  F   UNL A   1      46.584  35.796  31.607  1.00  0.00    -0.200 F 
ATOM    101  F   UNL A   1      45.942  37.803  29.877  1.00  0.00    -0.200 F 
ENDBRANCH  68  91
ENDBRANCH  42  43
ENDBRANCH  34  37
ENDBRANCH  32  33
ENDBRANCH  31  32
ENDBRANCH   1  31
TORSDOF 14
ENDMDL
