MODEL 1
REMARK VINA RESULT:     -11.9      0.000      0.000
REMARK SMILES CC(C)=CC[N@@H+]1CC[C@@H](C(=O)NCCCCNC(=O)c2ccc(-c3c4nc(c(-c5c(F)c(F)c(F)c(F)c5F)c5ccc([nH]5)c(-c5c(F)c(F)c(F)c(F)c5F)c5nc(c(-c6c(F)c(F)c(F)c(F)c6F)c6ccc3[nH]6)C=C5)C=C4)cc2)[C@H]1C
REMARK SMILES IDX 14 1 13 2 12 3 10 4 11 5 9 7 6 8 7 9 83 10 8 12 84 13 5 14
REMARK SMILES IDX 4 15 1 16 2 17 3 18 15 19 16 20 17 21 18 22 19 24 20 25
REMARK SMILES IDX 21 26 82 27 22 28 81 29 23 30 24 31 25 32 75 33 26 34 80 35
REMARK SMILES IDX 74 36 76 37 27 38 79 39 73 40 72 41 28 43 60 44 40 45 59 46
REMARK SMILES IDX 41 47 44 48 58 49 77 50 42 51 43 52 57 54 78 55 45 56 29 57
REMARK SMILES IDX 30 58 38 59 31 60 32 61 36 62 39 63 33 64 34 65 37 66 35 67
REMARK SMILES IDX 61 68 62 69 70 70 63 71 64 72 68 73 71 74 65 75 66 76 69 77
REMARK SMILES IDX 67 78 46 79 47 80 55 81 48 82 49 83 53 84 56 85 50 86 51 87
REMARK SMILES IDX 54 88 52 89
REMARK H PARENT 12 6 6 11 17 23 76 42 44 53
REMARK Flexibility Score: inf
ROOT
ATOM      1  C   UNL A   1      31.765  30.604  26.139  1.00  0.00     0.023 C 
ENDROOT
BRANCH   1   2
ATOM      2  C   UNL A   1      33.207  30.117  26.254  1.00  0.00     0.116 C 
BRANCH   2   3
ATOM      3  N   UNL A   1      33.271  28.739  26.697  1.00  0.00    -0.356 N 
ATOM      4  C   UNL A   1      33.161  27.568  26.017  1.00  0.00     0.229 C 
ATOM      5  O   UNL A   1      33.199  26.537  26.700  1.00  0.00    -0.275 OA
ATOM      6  H   UNL A   1      33.419  28.631  27.665  1.00  0.00     0.163 HD
BRANCH   4   7
ATOM      7  C   UNL A   1      33.033  27.453  24.500  1.00  0.00     0.142 C 
ATOM      8  N   UNL A   1      31.483  28.684  23.252  1.00  0.00    -0.329 N 
ATOM      9  C   UNL A   1      32.772  28.953  22.621  1.00  0.00     0.263 C 
ATOM     10  C   UNL A   1      31.636  27.355  23.864  1.00  0.00     0.193 C 
ATOM     11  H   UNL A   1      31.246  29.359  23.979  1.00  0.00     0.348 HD
ATOM     12  C   UNL A   1      33.746  28.573  23.729  1.00  0.00     0.081 C 
ATOM     13  C   UNL A   1      30.508  26.875  24.764  1.00  0.00     0.076 C 
BRANCH   8  14
ATOM     14  C   UNL A   1      30.342  28.892  22.376  1.00  0.00     0.291 C 
BRANCH  14  15
ATOM     15  C   UNL A   1      29.582  30.116  22.809  1.00  0.00     0.032 C 
ATOM     16  C   UNL A   1      27.346  29.002  23.126  1.00  0.00     0.039 C 
ATOM     17  C   UNL A   1      28.276  30.184  23.147  1.00  0.00    -0.075 C 
ATOM     18  C   UNL A   1      27.653  31.508  23.501  1.00  0.00     0.039 C 
ENDBRANCH  14  15
ENDBRANCH   8  14
ENDBRANCH   4   7
ENDBRANCH   2   3
ENDBRANCH   1   2
BRANCH   1  19
ATOM     19  C   UNL A   1      31.452  31.906  26.861  1.00  0.00     0.023 C 
BRANCH  19  20
ATOM     20  C   UNL A   1      32.665  32.730  27.251  1.00  0.00     0.116 C 
BRANCH  20  21
ATOM     21  N   UNL A   1      32.359  34.111  27.599  1.00  0.00    -0.352 N 
ATOM     22  C   UNL A   1      32.964  34.930  28.528  1.00  0.00     0.251 C 
ATOM     23  H   UNL A   1      31.613  34.518  27.101  1.00  0.00     0.163 HD
ATOM     24  O   UNL A   1      32.528  36.050  28.752  1.00  0.00    -0.269 OA
BRANCH  22  25
ATOM     25  C   UNL A   1      34.122  34.415  29.290  1.00  0.00     0.039 A 
ATOM     26  C   UNL A   1      33.894  33.715  30.478  1.00  0.00     0.014 A 
ATOM     27  C   UNL A   1      35.419  34.555  28.795  1.00  0.00     0.014 A 
ATOM     28  C   UNL A   1      34.959  33.075  31.114  1.00  0.00     0.010 A 
ATOM     29  C   UNL A   1      36.454  33.824  29.362  1.00  0.00     0.010 A 
ATOM     30  C   UNL A   1      36.238  33.081  30.532  1.00  0.00    -0.014 A 
BRANCH  30  31
ATOM     31  C   UNL A   1      37.367  32.325  31.130  1.00  0.00     0.031 A 
ATOM     32  C   UNL A   1      37.847  32.666  32.515  1.00  0.00     0.074 A 
ATOM     33  C   UNL A   1      38.016  31.398  30.398  1.00  0.00     0.049 A 
ATOM     34  N   UNL A   1      38.862  32.179  33.183  1.00  0.00    -0.248 NA
ATOM     35  C   UNL A   1      37.118  33.728  33.225  1.00  0.00     0.031 C 
ATOM     36  C   UNL A   1      37.705  31.039  29.013  1.00  0.00     0.029 A 
ATOM     37  N   UNL A   1      39.082  30.594  30.716  1.00  0.00    -0.354 N 
ATOM     38  C   UNL A   1      38.910  32.899  34.369  1.00  0.00     0.074 A 
ATOM     39  C   UNL A   1      37.866  33.897  34.303  1.00  0.00     0.031 C 
ATOM     40  C   UNL A   1      38.535  30.063  28.613  1.00  0.00     0.029 A 
ATOM     41  C   UNL A   1      39.455  29.747  29.701  1.00  0.00     0.049 A 
ATOM     42  H   UNL A   1      39.535  30.620  31.590  1.00  0.00     0.167 HD
ATOM     43  C   UNL A   1      39.728  32.723  35.434  1.00  0.00     0.037 A 
ATOM     44  C   UNL A   1      40.427  28.815  29.659  1.00  0.00     0.037 A 
ATOM     45  C   UNL A   1      40.724  31.691  35.519  1.00  0.00     0.049 A 
ATOM     46  C   UNL A   1      41.278  28.589  30.877  1.00  0.00     0.074 A 
ATOM     47  C   UNL A   1      41.542  31.365  36.585  1.00  0.00     0.029 A 
ATOM     48  N   UNL A   1      41.030  30.808  34.493  1.00  0.00    -0.354 N 
ATOM     49  N   UNL A   1      41.255  29.216  32.028  1.00  0.00    -0.248 NA
ATOM     50  C   UNL A   1      42.280  27.518  30.797  1.00  0.00     0.031 C 
ATOM     51  C   UNL A   1      42.366  30.304  36.194  1.00  0.00     0.029 A 
ATOM     52  C   UNL A   1      42.034  29.944  34.897  1.00  0.00     0.049 A 
ATOM     53  H   UNL A   1      40.598  30.798  33.608  1.00  0.00     0.167 HD
ATOM     54  C   UNL A   1      42.218  28.601  32.817  1.00  0.00     0.074 A 
ATOM     55  C   UNL A   1      42.798  27.542  32.017  1.00  0.00     0.031 C 
ATOM     56  C   UNL A   1      42.587  28.888  34.089  1.00  0.00     0.037 A 
BRANCH  43  57
ATOM     57  C   UNL A   1      39.561  33.659  36.594  1.00  0.00     0.064 A 
ATOM     58  C   UNL A   1      40.206  34.906  36.634  1.00  0.00     0.173 A 
ATOM     59  C   UNL A   1      38.739  33.313  37.677  1.00  0.00     0.173 A 
ATOM     60  F   UNL A   1      41.014  35.280  35.630  1.00  0.00    -0.203 F 
ATOM     61  C   UNL A   1      40.068  35.751  37.732  1.00  0.00     0.198 A 
ATOM     62  C   UNL A   1      38.577  34.175  38.758  1.00  0.00     0.198 A 
ATOM     63  F   UNL A   1      38.095  32.136  37.689  1.00  0.00    -0.203 F 
ATOM     64  F   UNL A   1      40.744  36.907  37.774  1.00  0.00    -0.200 F 
ATOM     65  C   UNL A   1      39.249  35.388  38.790  1.00  0.00     0.200 A 
ATOM     66  F   UNL A   1      37.777  33.828  39.776  1.00  0.00    -0.200 F 
ATOM     67  F   UNL A   1      39.117  36.202  39.846  1.00  0.00    -0.200 F 
ENDBRANCH  43  57
BRANCH  44  68
ATOM     68  C   UNL A   1      40.602  27.986  28.438  1.00  0.00     0.064 A 
ATOM     69  C   UNL A   1      39.968  26.742  28.322  1.00  0.00     0.173 A 
ATOM     70  C   UNL A   1      41.388  28.422  27.362  1.00  0.00     0.173 A 
ATOM     71  F   UNL A   1      39.219  26.275  29.332  1.00  0.00    -0.203 F 
ATOM     72  C   UNL A   1      40.125  25.956  27.182  1.00  0.00     0.198 A 
ATOM     73  C   UNL A   1      41.526  27.646  26.212  1.00  0.00     0.198 A 
ATOM     74  F   UNL A   1      42.010  29.609  27.421  1.00  0.00    -0.203 F 
ATOM     75  F   UNL A   1      39.537  24.754  27.112  1.00  0.00    -0.200 F 
ATOM     76  C   UNL A   1      40.899  26.412  26.125  1.00  0.00     0.200 A 
ATOM     77  F   UNL A   1      42.264  28.094  25.188  1.00  0.00    -0.200 F 
ATOM     78  F   UNL A   1      41.045  25.659  25.027  1.00  0.00    -0.200 F 
ENDBRANCH  44  68
BRANCH  56  79
ATOM     79  C   UNL A   1      43.646  28.025  34.708  1.00  0.00     0.064 A 
ATOM     80  C   UNL A   1      45.001  28.385  34.670  1.00  0.00     0.173 A 
ATOM     81  C   UNL A   1      43.293  26.852  35.391  1.00  0.00     0.173 A 
ATOM     82  F   UNL A   1      45.387  29.490  34.016  1.00  0.00    -0.203 F 
ATOM     83  C   UNL A   1      45.967  27.587  35.277  1.00  0.00     0.198 A 
ATOM     84  C   UNL A   1      44.259  26.072  36.020  1.00  0.00     0.198 A 
ATOM     85  F   UNL A   1      42.008  26.470  35.461  1.00  0.00    -0.203 F 
ATOM     86  F   UNL A   1      47.261  27.928  35.196  1.00  0.00    -0.200 F 
ATOM     87  C   UNL A   1      45.594  26.438  35.958  1.00  0.00     0.200 A 
ATOM     88  F   UNL A   1      43.896  24.968  36.687  1.00  0.00    -0.200 F 
ATOM     89  F   UNL A   1      46.526  25.677  36.550  1.00  0.00    -0.200 F 
ENDBRANCH  56  79
ENDBRANCH  30  31
ENDBRANCH  22  25
ENDBRANCH  20  21
ENDBRANCH  19  20
ENDBRANCH   1  19
TORSDOF 13
ENDMDL
MODEL 2
REMARK VINA RESULT:     -11.9      0.720      7.559
REMARK SMILES CC(C)=CC[N@@H+]1CC[C@@H](C(=O)NCCCCNC(=O)c2ccc(-c3c4nc(c(-c5c(F)c(F)c(F)c(F)c5F)c5ccc([nH]5)c(-c5c(F)c(F)c(F)c(F)c5F)c5nc(c(-c6c(F)c(F)c(F)c(F)c6F)c6ccc3[nH]6)C=C5)C=C4)cc2)[C@H]1C
REMARK SMILES IDX 14 1 13 2 12 3 10 4 11 5 9 7 6 8 7 9 83 10 8 12 84 13 5 14
REMARK SMILES IDX 4 15 1 16 2 17 3 18 15 19 16 20 17 21 18 22 19 24 20 25
REMARK SMILES IDX 21 26 82 27 22 28 81 29 23 30 24 31 25 32 75 33 26 34 80 35
REMARK SMILES IDX 74 36 76 37 27 38 79 39 73 40 72 41 28 43 60 44 40 45 59 46
REMARK SMILES IDX 41 47 44 48 58 49 77 50 42 51 43 52 57 54 78 55 45 56 29 57
REMARK SMILES IDX 30 58 38 59 31 60 32 61 36 62 39 63 33 64 34 65 37 66 35 67
REMARK SMILES IDX 61 68 62 69 70 70 63 71 64 72 68 73 71 74 65 75 66 76 69 77
REMARK SMILES IDX 67 78 46 79 47 80 55 81 48 82 49 83 53 84 56 85 50 86 51 87
REMARK SMILES IDX 54 88 52 89
REMARK H PARENT 12 6 6 11 17 23 76 42 44 53
REMARK Flexibility Score: inf
ROOT
ATOM      1  C   UNL A   1      31.962  30.326  26.864  1.00  0.00     0.023 C 
ENDROOT
BRANCH   1   2
ATOM      2  C   UNL A   1      33.205  29.815  26.141  1.00  0.00     0.116 C 
BRANCH   2   3
ATOM      3  N   UNL A   1      33.483  28.432  26.472  1.00  0.00    -0.356 N 
ATOM      4  C   UNL A   1      33.457  27.304  25.717  1.00  0.00     0.229 C 
ATOM      5  O   UNL A   1      33.689  26.244  26.313  1.00  0.00    -0.275 OA
ATOM      6  H   UNL A   1      33.735  28.283  27.412  1.00  0.00     0.163 HD
BRANCH   4   7
ATOM      7  C   UNL A   1      33.201  27.270  24.211  1.00  0.00     0.142 C 
ATOM      8  N   UNL A   1      31.533  28.539  23.172  1.00  0.00    -0.329 N 
ATOM      9  C   UNL A   1      32.759  28.867  22.450  1.00  0.00     0.263 C 
ATOM     10  C   UNL A   1      31.757  27.181  23.692  1.00  0.00     0.193 C 
ATOM     11  H   UNL A   1      31.350  29.167  23.953  1.00  0.00     0.348 HD
ATOM     12  C   UNL A   1      33.829  28.445  23.448  1.00  0.00     0.081 C 
ATOM     13  C   UNL A   1      30.717  26.630  24.655  1.00  0.00     0.076 C 
BRANCH   8  14
ATOM     14  C   UNL A   1      30.318  28.773  22.409  1.00  0.00     0.291 C 
BRANCH  14  15
ATOM     15  C   UNL A   1      29.617  29.999  22.929  1.00  0.00     0.032 C 
ATOM     16  C   UNL A   1      27.293  29.030  22.986  1.00  0.00     0.039 C 
ATOM     17  C   UNL A   1      28.299  30.129  23.194  1.00  0.00    -0.075 C 
ATOM     18  C   UNL A   1      27.746  31.452  23.654  1.00  0.00     0.039 C 
ENDBRANCH  14  15
ENDBRANCH   8  14
ENDBRANCH   4   7
ENDBRANCH   2   3
ENDBRANCH   1   2
BRANCH   1  19
ATOM     19  C   UNL A   1      31.727  31.827  26.786  1.00  0.00     0.023 C 
BRANCH  19  20
ATOM     20  C   UNL A   1      32.831  32.680  27.385  1.00  0.00     0.116 C 
BRANCH  20  21
ATOM     21  N   UNL A   1      32.440  34.058  27.649  1.00  0.00    -0.352 N 
ATOM     22  C   UNL A   1      32.974  34.958  28.546  1.00  0.00     0.251 C 
ATOM     23  H   UNL A   1      31.687  34.395  27.112  1.00  0.00     0.163 HD
ATOM     24  O   UNL A   1      32.472  36.062  28.698  1.00  0.00    -0.269 OA
BRANCH  22  25
ATOM     25  C   UNL A   1      34.138  34.550  29.363  1.00  0.00     0.039 A 
ATOM     26  C   UNL A   1      33.918  34.021  30.637  1.00  0.00     0.014 A 
ATOM     27  C   UNL A   1      35.431  34.619  28.843  1.00  0.00     0.014 A 
ATOM     28  C   UNL A   1      34.989  33.471  31.346  1.00  0.00     0.010 A 
ATOM     29  C   UNL A   1      36.470  33.971  29.497  1.00  0.00     0.010 A 
ATOM     30  C   UNL A   1      36.263  33.396  30.759  1.00  0.00    -0.014 A 
BRANCH  30  31
ATOM     31  C   UNL A   1      37.396  32.727  31.446  1.00  0.00     0.031 A 
ATOM     32  C   UNL A   1      38.106  31.581  30.778  1.00  0.00     0.074 A 
ATOM     33  C   UNL A   1      37.727  33.088  32.701  1.00  0.00     0.049 A 
ATOM     34  N   UNL A   1      39.064  30.817  31.240  1.00  0.00    -0.248 NA
ATOM     35  C   UNL A   1      37.647  31.214  29.429  1.00  0.00     0.031 C 
ATOM     36  C   UNL A   1      37.057  34.123  33.491  1.00  0.00     0.029 A 
ATOM     37  N   UNL A   1      38.706  32.615  33.540  1.00  0.00    -0.354 N 
ATOM     38  C   UNL A   1      39.293  29.866  30.255  1.00  0.00     0.074 A 
ATOM     39  C   UNL A   1      38.333  30.106  29.201  1.00  0.00     0.031 C 
ATOM     40  C   UNL A   1      37.666  34.232  34.683  1.00  0.00     0.029 A 
ATOM     41  C   UNL A   1      38.750  33.257  34.753  1.00  0.00     0.049 A 
ATOM     42  H   UNL A   1      39.319  31.886  33.293  1.00  0.00     0.167 HD
ATOM     43  C   UNL A   1      40.240  28.899  30.216  1.00  0.00     0.037 A 
ATOM     44  C   UNL A   1      39.579  33.081  35.800  1.00  0.00     0.037 A 
ATOM     45  C   UNL A   1      41.230  28.703  31.239  1.00  0.00     0.049 A 
ATOM     46  C   UNL A   1      40.667  32.048  35.707  1.00  0.00     0.074 A 
ATOM     47  C   UNL A   1      42.291  27.816  31.257  1.00  0.00     0.029 A 
ATOM     48  N   UNL A   1      41.283  29.417  32.428  1.00  0.00    -0.354 N 
ATOM     49  N   UNL A   1      40.932  31.214  34.732  1.00  0.00    -0.248 NA
ATOM     50  C   UNL A   1      41.582  31.943  36.852  1.00  0.00     0.031 C 
ATOM     51  C   UNL A   1      42.969  27.971  32.471  1.00  0.00     0.029 A 
ATOM     52  C   UNL A   1      42.353  28.982  33.192  1.00  0.00     0.049 A 
ATOM     53  H   UNL A   1      40.653  30.127  32.689  1.00  0.00     0.167 HD
ATOM     54  C   UNL A   1      42.055  30.502  35.132  1.00  0.00     0.074 A 
ATOM     55  C   UNL A   1      42.430  31.014  36.435  1.00  0.00     0.031 C 
ATOM     56  C   UNL A   1      42.715  29.515  34.480  1.00  0.00     0.037 A 
BRANCH  43  57
ATOM     57  C   UNL A   1      40.255  27.997  29.017  1.00  0.00     0.064 A 
ATOM     58  C   UNL A   1      39.545  26.786  28.998  1.00  0.00     0.173 A 
ATOM     59  C   UNL A   1      40.981  28.348  27.870  1.00  0.00     0.173 A 
ATOM     60  F   UNL A   1      38.846  26.396  30.074  1.00  0.00    -0.203 F 
ATOM     61  C   UNL A   1      39.595  25.943  27.891  1.00  0.00     0.198 A 
ATOM     62  C   UNL A   1      41.002  27.519  26.752  1.00  0.00     0.198 A 
ATOM     63  F   UNL A   1      41.674  29.497  27.832  1.00  0.00    -0.203 F 
ATOM     64  F   UNL A   1      38.960  24.763  27.921  1.00  0.00    -0.200 F 
ATOM     65  C   UNL A   1      40.317  26.312  26.767  1.00  0.00     0.200 A 
ATOM     66  F   UNL A   1      41.692  27.881  25.662  1.00  0.00    -0.200 F 
ATOM     67  F   UNL A   1      40.364  25.499  25.702  1.00  0.00    -0.200 F 
ENDBRANCH  43  57
BRANCH  44  68
ATOM     68  C   UNL A   1      39.445  33.947  37.000  1.00  0.00     0.064 A 
ATOM     69  C   UNL A   1      38.729  33.508  38.122  1.00  0.00     0.173 A 
ATOM     70  C   UNL A   1      40.038  35.216  37.059  1.00  0.00     0.173 A 
ATOM     71  F   UNL A   1      38.130  32.309  38.107  1.00  0.00    -0.203 F 
ATOM     72  C   UNL A   1      38.597  34.312  39.252  1.00  0.00     0.198 A 
ATOM     73  C   UNL A   1      39.925  36.011  38.199  1.00  0.00     0.198 A 
ATOM     74  F   UNL A   1      40.740  35.679  36.014  1.00  0.00    -0.203 F 
ATOM     75  F   UNL A   1      37.876  33.883  40.298  1.00  0.00    -0.200 F 
ATOM     76  C   UNL A   1      39.200  35.561  39.292  1.00  0.00     0.200 A 
ATOM     77  F   UNL A   1      40.519  37.210  38.239  1.00  0.00    -0.200 F 
ATOM     78  F   UNL A   1      39.079  36.330  40.381  1.00  0.00    -0.200 F 
ENDBRANCH  44  68
BRANCH  56  79
ATOM     79  C   UNL A   1      43.931  28.945  35.148  1.00  0.00     0.064 A 
ATOM     80  C   UNL A   1      45.209  29.479  34.923  1.00  0.00     0.173 A 
ATOM     81  C   UNL A   1      43.809  27.887  36.059  1.00  0.00     0.173 A 
ATOM     82  F   UNL A   1      45.378  30.482  34.049  1.00  0.00    -0.203 F 
ATOM     83  C   UNL A   1      46.323  28.958  35.575  1.00  0.00     0.198 A 
ATOM     84  C   UNL A   1      44.921  27.387  36.729  1.00  0.00     0.198 A 
ATOM     85  F   UNL A   1      42.605  27.348  36.312  1.00  0.00    -0.203 F 
ATOM     86  F   UNL A   1      47.540  29.456  35.318  1.00  0.00    -0.200 F 
ATOM     87  C   UNL A   1      46.177  27.919  36.483  1.00  0.00     0.200 A 
ATOM     88  F   UNL A   1      44.777  26.391  37.615  1.00  0.00    -0.200 F 
ATOM     89  F   UNL A   1      47.250  27.426  37.116  1.00  0.00    -0.200 F 
ENDBRANCH  56  79
ENDBRANCH  30  31
ENDBRANCH  22  25
ENDBRANCH  20  21
ENDBRANCH  19  20
ENDBRANCH   1  19
TORSDOF 13
ENDMDL
MODEL 3
REMARK VINA RESULT:     -11.8      1.330      2.864
REMARK SMILES CC(C)=CC[N@@H+]1CC[C@@H](C(=O)NCCCCNC(=O)c2ccc(-c3c4nc(c(-c5c(F)c(F)c(F)c(F)c5F)c5ccc([nH]5)c(-c5c(F)c(F)c(F)c(F)c5F)c5nc(c(-c6c(F)c(F)c(F)c(F)c6F)c6ccc3[nH]6)C=C5)C=C4)cc2)[C@H]1C
REMARK SMILES IDX 14 1 13 2 12 3 10 4 11 5 9 7 6 8 7 9 83 10 8 12 84 13 5 14
REMARK SMILES IDX 4 15 1 16 2 17 3 18 15 19 16 20 17 21 18 22 19 24 20 25
REMARK SMILES IDX 21 26 82 27 22 28 81 29 23 30 24 31 25 32 75 33 26 34 80 35
REMARK SMILES IDX 74 36 76 37 27 38 79 39 73 40 72 41 28 43 60 44 40 45 59 46
REMARK SMILES IDX 41 47 44 48 58 49 77 50 42 51 43 52 57 54 78 55 45 56 29 57
REMARK SMILES IDX 30 58 38 59 31 60 32 61 36 62 39 63 33 64 34 65 37 66 35 67
REMARK SMILES IDX 61 68 62 69 70 70 63 71 64 72 68 73 71 74 65 75 66 76 69 77
REMARK SMILES IDX 67 78 46 79 47 80 55 81 48 82 49 83 53 84 56 85 50 86 51 87
REMARK SMILES IDX 54 88 52 89
REMARK H PARENT 12 6 6 11 17 23 76 42 44 53
REMARK Flexibility Score: inf
ROOT
ATOM      1  C   UNL A   1      31.805  30.684  26.267  1.00  0.00     0.023 C 
ENDROOT
BRANCH   1   2
ATOM      2  C   UNL A   1      32.605  29.721  27.140  1.00  0.00     0.116 C 
BRANCH   2   3
ATOM      3  N   UNL A   1      31.905  28.466  27.330  1.00  0.00    -0.356 N 
ATOM      4  C   UNL A   1      31.470  27.535  26.442  1.00  0.00     0.229 C 
ATOM      5  O   UNL A   1      30.839  26.583  26.918  1.00  0.00    -0.275 OA
ATOM      6  H   UNL A   1      31.709  28.250  28.271  1.00  0.00     0.163 HD
BRANCH   4   7
ATOM      7  C   UNL A   1      31.736  27.575  24.939  1.00  0.00     0.142 C 
ATOM      8  N   UNL A   1      31.983  25.648  23.635  1.00  0.00    -0.329 N 
ATOM      9  C   UNL A   1      30.943  26.425  22.965  1.00  0.00     0.263 C 
ATOM     10  C   UNL A   1      32.804  26.647  24.335  1.00  0.00     0.193 C 
ATOM     11  H   UNL A   1      31.610  24.988  24.317  1.00  0.00     0.348 HD
ATOM     12  C   UNL A   1      30.483  27.354  24.080  1.00  0.00     0.081 C 
ATOM     13  C   UNL A   1      33.870  26.123  25.285  1.00  0.00     0.076 C 
BRANCH   8  14
ATOM     14  C   UNL A   1      32.668  24.706  22.765  1.00  0.00     0.291 C 
BRANCH  14  15
ATOM     15  C   UNL A   1      32.555  23.315  23.329  1.00  0.00     0.032 C 
ATOM     16  C   UNL A   1      35.017  22.919  23.682  1.00  0.00     0.039 C 
ATOM     17  C   UNL A   1      33.567  22.522  23.742  1.00  0.00    -0.075 C 
ATOM     18  C   UNL A   1      33.285  21.125  24.226  1.00  0.00     0.039 C 
ENDBRANCH  14  15
ENDBRANCH   8  14
ENDBRANCH   4   7
ENDBRANCH   2   3
ENDBRANCH   1   2
BRANCH   1  19
ATOM     19  C   UNL A   1      31.479  32.028  26.900  1.00  0.00     0.023 C 
BRANCH  19  20
ATOM     20  C   UNL A   1      32.684  32.843  27.332  1.00  0.00     0.116 C 
BRANCH  20  21
ATOM     21  N   UNL A   1      32.374  34.220  27.690  1.00  0.00    -0.352 N 
ATOM     22  C   UNL A   1      32.984  35.037  28.617  1.00  0.00     0.251 C 
ATOM     23  H   UNL A   1      31.622  34.625  27.200  1.00  0.00     0.163 HD
ATOM     24  O   UNL A   1      32.544  36.153  28.851  1.00  0.00    -0.269 OA
BRANCH  22  25
ATOM     25  C   UNL A   1      34.151  34.524  29.366  1.00  0.00     0.039 A 
ATOM     26  C   UNL A   1      33.940  33.848  30.570  1.00  0.00     0.014 A 
ATOM     27  C   UNL A   1      35.440  34.643  28.843  1.00  0.00     0.014 A 
ATOM     28  C   UNL A   1      35.012  33.209  31.196  1.00  0.00     0.010 A 
ATOM     29  C   UNL A   1      36.478  33.912  29.403  1.00  0.00     0.010 A 
ATOM     30  C   UNL A   1      36.279  33.192  30.590  1.00  0.00    -0.014 A 
BRANCH  30  31
ATOM     31  C   UNL A   1      37.412  32.436  31.179  1.00  0.00     0.031 A 
ATOM     32  C   UNL A   1      37.908  32.782  32.557  1.00  0.00     0.074 A 
ATOM     33  C   UNL A   1      38.051  31.504  30.445  1.00  0.00     0.049 A 
ATOM     34  N   UNL A   1      38.929  32.296  33.217  1.00  0.00    -0.248 NA
ATOM     35  C   UNL A   1      37.189  33.849  33.271  1.00  0.00     0.031 C 
ATOM     36  C   UNL A   1      37.724  31.140  29.065  1.00  0.00     0.029 A 
ATOM     37  N   UNL A   1      39.118  30.699  30.755  1.00  0.00    -0.354 N 
ATOM     38  C   UNL A   1      38.990  33.021  34.399  1.00  0.00     0.074 A 
ATOM     39  C   UNL A   1      37.949  34.021  34.340  1.00  0.00     0.031 C 
ATOM     40  C   UNL A   1      38.548  30.160  28.660  1.00  0.00     0.029 A 
ATOM     41  C   UNL A   1      39.479  29.847  29.740  1.00  0.00     0.049 A 
ATOM     42  H   UNL A   1      39.581  30.728  31.624  1.00  0.00     0.167 HD
ATOM     43  C   UNL A   1      39.820  32.848  35.456  1.00  0.00     0.037 A 
ATOM     44  C   UNL A   1      40.447  28.912  29.692  1.00  0.00     0.037 A 
ATOM     45  C   UNL A   1      40.814  31.813  35.535  1.00  0.00     0.049 A 
ATOM     46  C   UNL A   1      41.311  28.690  30.902  1.00  0.00     0.074 A 
ATOM     47  C   UNL A   1      41.642  31.489  36.594  1.00  0.00     0.029 A 
ATOM     48  N   UNL A   1      41.107  30.925  34.510  1.00  0.00    -0.354 N 
ATOM     49  N   UNL A   1      41.302  29.321  32.051  1.00  0.00    -0.248 NA
ATOM     50  C   UNL A   1      42.309  27.615  30.817  1.00  0.00     0.031 C 
ATOM     51  C   UNL A   1      42.459  30.425  36.200  1.00  0.00     0.029 A 
ATOM     52  C   UNL A   1      42.113  30.059  34.908  1.00  0.00     0.049 A 
ATOM     53  H   UNL A   1      40.665  30.912  33.630  1.00  0.00     0.167 HD
ATOM     54  C   UNL A   1      42.271  28.708  32.832  1.00  0.00     0.074 A 
ATOM     55  C   UNL A   1      42.840  27.643  32.031  1.00  0.00     0.031 C 
ATOM     56  C   UNL A   1      42.655  28.999  34.098  1.00  0.00     0.037 A 
BRANCH  43  57
ATOM     57  C   UNL A   1      39.667  33.789  36.614  1.00  0.00     0.064 A 
ATOM     58  C   UNL A   1      38.879  33.464  37.729  1.00  0.00     0.173 A 
ATOM     59  C   UNL A   1      40.323  35.029  36.616  1.00  0.00     0.173 A 
ATOM     60  F   UNL A   1      38.219  32.296  37.772  1.00  0.00    -0.203 F 
ATOM     61  C   UNL A   1      38.720  34.360  38.782  1.00  0.00     0.198 A 
ATOM     62  C   UNL A   1      40.188  35.910  37.686  1.00  0.00     0.198 A 
ATOM     63  F   UNL A   1      41.093  35.390  35.578  1.00  0.00    -0.203 F 
ATOM     64  F   UNL A   1      37.911  34.053  39.806  1.00  0.00    -0.200 F 
ATOM     65  C   UNL A   1      39.379  35.580  38.763  1.00  0.00     0.200 A 
ATOM     66  F   UNL A   1      40.835  37.084  37.671  1.00  0.00    -0.200 F 
ATOM     67  F   UNL A   1      39.225  36.442  39.777  1.00  0.00    -0.200 F 
ENDBRANCH  43  57
BRANCH  44  68
ATOM     68  C   UNL A   1      40.607  28.077  28.473  1.00  0.00     0.064 A 
ATOM     69  C   UNL A   1      41.408  28.513  27.408  1.00  0.00     0.173 A 
ATOM     70  C   UNL A   1      39.982  26.829  28.351  1.00  0.00     0.173 A 
ATOM     71  F   UNL A   1      42.013  29.709  27.471  1.00  0.00    -0.203 F 
ATOM     72  C   UNL A   1      41.565  27.740  26.260  1.00  0.00     0.198 A 
ATOM     73  C   UNL A   1      40.158  26.045  27.212  1.00  0.00     0.198 A 
ATOM     74  F   UNL A   1      39.211  26.364  29.345  1.00  0.00    -0.203 F 
ATOM     75  F   UNL A   1      42.307  28.196  25.242  1.00  0.00    -0.200 F 
ATOM     76  C   UNL A   1      40.944  26.502  26.166  1.00  0.00     0.200 A 
ATOM     77  F   UNL A   1      39.568  24.845  27.129  1.00  0.00    -0.200 F 
ATOM     78  F   UNL A   1      41.101  25.756  25.065  1.00  0.00    -0.200 F 
ENDBRANCH  44  68
BRANCH  56  79
ATOM     79  C   UNL A   1      43.717  28.136  34.710  1.00  0.00     0.064 A 
ATOM     80  C   UNL A   1      45.077  28.461  34.605  1.00  0.00     0.173 A 
ATOM     81  C   UNL A   1      43.366  26.999  35.453  1.00  0.00     0.173 A 
ATOM     82  F   UNL A   1      45.462  29.531  33.893  1.00  0.00    -0.203 F 
ATOM     83  C   UNL A   1      46.049  27.666  35.206  1.00  0.00     0.198 A 
ATOM     84  C   UNL A   1      44.338  26.222  36.075  1.00  0.00     0.198 A 
ATOM     85  F   UNL A   1      42.076  26.652  35.589  1.00  0.00    -0.203 F 
ATOM     86  F   UNL A   1      47.346  27.972  35.060  1.00  0.00    -0.200 F 
ATOM     87  C   UNL A   1      45.678  26.553  35.946  1.00  0.00     0.200 A 
ATOM     88  F   UNL A   1      43.978  25.155  36.800  1.00  0.00    -0.200 F 
ATOM     89  F   UNL A   1      46.615  25.795  36.532  1.00  0.00    -0.200 F 
ENDBRANCH  56  79
ENDBRANCH  30  31
ENDBRANCH  22  25
ENDBRANCH  20  21
ENDBRANCH  19  20
ENDBRANCH   1  19
TORSDOF 13
ENDMDL
