MODEL 1
REMARK VINA RESULT:     -13.1      0.000      0.000
REMARK SMILES CNc1cc(-c2cncc(SCC(=O)NCCCCNC(=O)c3ccc(-c4c5nc(c(-c6c(F)c(F)c(F)c(F)c6F)c6ccc([nH]6)c(-c6c(F)c(F)c(F)c(F)c6F)c6nc(c(-c7c(F)c(F)c(F)c(F)c7F)c7ccc4[nH]7)C=C6)C=C5)cc3)n2)c2cc[nH]c2n1
REMARK SMILES IDX 16 1 15 2 13 3 14 4 12 6 11 7 10 8 6 9 7 10 86 11 8 12 9 13
REMARK SMILES IDX 5 14 3 15 4 16 92 17 91 18 87 19 90 20 88 21 89 22 2 24 1 25
REMARK SMILES IDX 17 27 18 28 19 29 20 30 21 31 22 33 23 34 24 35 85 36 25 37
REMARK SMILES IDX 84 38 26 39 27 40 28 41 78 42 29 43 83 44 77 45 79 46 30 47
REMARK SMILES IDX 82 48 76 49 75 50 31 52 63 53 43 54 62 55 44 56 47 57 61 58
REMARK SMILES IDX 80 59 45 60 46 61 60 63 81 64 48 65 32 66 33 67 41 68 34 69
REMARK SMILES IDX 35 70 39 71 42 72 36 73 37 74 40 75 38 76 64 77 65 78 73 79
REMARK SMILES IDX 66 80 67 81 71 82 74 83 68 84 69 85 72 86 70 87 49 88 50 89
REMARK SMILES IDX 58 90 51 91 52 92 56 93 59 94 53 95 54 96 57 97 55 98
REMARK H PARENT 15 5 90 23 2 26 20 32 79 51 47 62
REMARK Flexibility Score: inf
ROOT
ATOM      1  C   UNL A   1      32.105  29.974  25.379  1.00  0.00     0.116 C 
ENDROOT
BRANCH   1   2
ATOM      2  N   UNL A   1      30.979  30.021  24.470  1.00  0.00    -0.355 N 
ATOM      3  C   UNL A   1      30.599  29.158  23.485  1.00  0.00     0.230 C 
ATOM      4  O   UNL A   1      29.526  29.401  22.926  1.00  0.00    -0.274 OA
ATOM      5  H   UNL A   1      30.392  30.804  24.579  1.00  0.00     0.163 HD
BRANCH   3   6
ATOM      6  C   UNL A   1      31.360  27.875  23.199  1.00  0.00     0.176 C 
BRANCH   6   7
ATOM      7  S   UNL A   1      30.449  26.333  23.507  1.00  0.00    -0.095 SA
BRANCH   7   8
ATOM      8  C   UNL A   1      31.578  25.091  22.925  1.00  0.00     0.116 A 
ATOM      9  C   UNL A   1      32.582  23.024  23.087  1.00  0.00     0.091 A 
ATOM     10  C   UNL A   1      33.362  23.328  21.971  1.00  0.00     0.140 A 
ATOM     11  N   UNL A   1      31.676  23.914  23.577  1.00  0.00    -0.238 NA
ATOM     12  N   UNL A   1      33.278  24.503  21.307  1.00  0.00    -0.260 NA
ATOM     13  C   UNL A   1      32.372  25.373  21.814  1.00  0.00     0.146 A 
BRANCH   9  14
ATOM     14  C   UNL A   1      32.731  21.762  23.798  1.00  0.00     0.016 A 
ATOM     15  C   UNL A   1      32.527  19.341  23.933  1.00  0.00     0.128 A 
ATOM     16  C   UNL A   1      32.413  20.525  23.208  1.00  0.00     0.058 A 
ATOM     17  N   UNL A   1      32.890  19.300  25.226  1.00  0.00    -0.213 NA
ATOM     18  C   UNL A   1      33.210  20.492  25.754  1.00  0.00     0.140 A 
ATOM     19  C   UNL A   1      33.169  21.734  25.134  1.00  0.00     0.028 A 
ATOM     20  N   UNL A   1      33.652  20.667  27.035  1.00  0.00    -0.346 N 
ATOM     21  C   UNL A   1      33.602  22.681  26.107  1.00  0.00     0.030 A 
ATOM     22  C   UNL A   1      33.897  21.995  27.266  1.00  0.00     0.085 A 
ATOM     23  H   UNL A   1      33.776  19.946  27.694  1.00  0.00     0.167 HD
BRANCH  15  24
ATOM     24  N   UNL A   1      32.278  18.106  23.381  1.00  0.00    -0.373 N 
ATOM     25  C   UNL A   1      33.170  16.984  23.518  1.00  0.00     0.141 C 
ATOM     26  H   UNL A   1      31.447  17.982  22.867  1.00  0.00     0.161 HD
ENDBRANCH  15  24
ENDBRANCH   9  14
ENDBRANCH   7   8
ENDBRANCH   6   7
ENDBRANCH   3   6
ENDBRANCH   1   2
BRANCH   1  27
ATOM     27  C   UNL A   1      31.732  30.515  26.760  1.00  0.00     0.023 C 
BRANCH  27  28
ATOM     28  C   UNL A   1      31.544  32.035  26.820  1.00  0.00     0.023 C 
BRANCH  28  29
ATOM     29  C   UNL A   1      32.774  32.828  27.248  1.00  0.00     0.116 C 
BRANCH  29  30
ATOM     30  N   UNL A   1      32.462  34.197  27.629  1.00  0.00    -0.352 N 
ATOM     31  C   UNL A   1      33.015  34.971  28.619  1.00  0.00     0.251 C 
ATOM     32  H   UNL A   1      31.753  34.630  27.101  1.00  0.00     0.163 HD
ATOM     33  O   UNL A   1      32.527  36.065  28.890  1.00  0.00    -0.269 OA
BRANCH  31  34
ATOM     34  C   UNL A   1      34.179  34.476  29.384  1.00  0.00     0.039 A 
ATOM     35  C   UNL A   1      33.964  33.893  30.635  1.00  0.00     0.014 A 
ATOM     36  C   UNL A   1      35.475  34.575  28.871  1.00  0.00     0.014 A 
ATOM     37  C   UNL A   1      35.040  33.347  31.340  1.00  0.00     0.010 A 
ATOM     38  C   UNL A   1      36.534  33.964  29.539  1.00  0.00     0.010 A 
ATOM     39  C   UNL A   1      36.327  33.342  30.780  1.00  0.00    -0.014 A 
BRANCH  39  40
ATOM     40  C   UNL A   1      37.463  32.678  31.469  1.00  0.00     0.031 A 
ATOM     41  C   UNL A   1      38.160  31.507  30.832  1.00  0.00     0.074 A 
ATOM     42  C   UNL A   1      37.825  33.086  32.702  1.00  0.00     0.049 A 
ATOM     43  N   UNL A   1      39.123  30.758  31.306  1.00  0.00    -0.248 NA
ATOM     44  C   UNL A   1      37.696  31.111  29.493  1.00  0.00     0.031 C 
ATOM     45  C   UNL A   1      37.197  34.177  33.448  1.00  0.00     0.029 A 
ATOM     46  N   UNL A   1      38.801  32.624  33.549  1.00  0.00    -0.354 N 
ATOM     47  C   UNL A   1      39.367  29.796  30.334  1.00  0.00     0.074 A 
ATOM     48  C   UNL A   1      38.418  30.023  29.267  1.00  0.00     0.031 C 
ATOM     49  C   UNL A   1      37.815  34.313  34.632  1.00  0.00     0.029 A 
ATOM     50  C   UNL A   1      38.853  33.294  34.747  1.00  0.00     0.049 A 
ATOM     51  H   UNL A   1      39.406  31.882  33.320  1.00  0.00     0.167 HD
ATOM     52  C   UNL A   1      40.312  28.825  30.324  1.00  0.00     0.037 A 
ATOM     53  C   UNL A   1      39.640  33.100  35.824  1.00  0.00     0.037 A 
ATOM     54  C   UNL A   1      41.269  28.616  31.380  1.00  0.00     0.049 A 
ATOM     55  C   UNL A   1      40.675  32.008  35.791  1.00  0.00     0.074 A 
ATOM     56  C   UNL A   1      42.308  27.702  31.433  1.00  0.00     0.029 A 
ATOM     57  N   UNL A   1      41.301  29.325  32.572  1.00  0.00    -0.354 N 
ATOM     58  N   UNL A   1      40.947  31.153  34.835  1.00  0.00    -0.248 NA
ATOM     59  C   UNL A   1      41.517  31.858  36.986  1.00  0.00     0.031 C 
ATOM     60  C   UNL A   1      42.929  27.817  32.680  1.00  0.00     0.029 A 
ATOM     61  C   UNL A   1      42.322  28.847  33.380  1.00  0.00     0.049 A 
ATOM     62  H   UNL A   1      40.688  30.059  32.809  1.00  0.00     0.167 HD
ATOM     63  C   UNL A   1      42.007  30.386  35.299  1.00  0.00     0.074 A 
ATOM     64  C   UNL A   1      42.341  30.888  36.615  1.00  0.00     0.031 C 
ATOM     65  C   UNL A   1      42.648  29.359  34.687  1.00  0.00     0.037 A 
BRANCH  52  66
ATOM     66  C   UNL A   1      40.360  27.910  29.134  1.00  0.00     0.064 A 
ATOM     67  C   UNL A   1      39.628  26.713  29.092  1.00  0.00     0.173 A 
ATOM     68  C   UNL A   1      41.112  28.256  28.001  1.00  0.00     0.173 A 
ATOM     69  F   UNL A   1      38.900  26.329  30.151  1.00  0.00    -0.203 F 
ATOM     70  C   UNL A   1      39.672  25.884  27.974  1.00  0.00     0.198 A 
ATOM     71  C   UNL A   1      41.127  27.442  26.872  1.00  0.00     0.198 A 
ATOM     72  F   UNL A   1      41.826  29.392  27.983  1.00  0.00    -0.203 F 
ATOM     73  F   UNL A   1      39.005  24.721  27.979  1.00  0.00    -0.200 F 
ATOM     74  C   UNL A   1      40.414  26.253  26.862  1.00  0.00     0.200 A 
ATOM     75  F   UNL A   1      41.832  27.808  25.793  1.00  0.00    -0.200 F 
ATOM     76  F   UNL A   1      40.446  25.459  25.783  1.00  0.00    -0.200 F 
ENDBRANCH  52  66
BRANCH  53  77
ATOM     77  C   UNL A   1      39.490  33.972  37.019  1.00  0.00     0.064 A 
ATOM     78  C   UNL A   1      40.123  35.221  37.086  1.00  0.00     0.173 A 
ATOM     79  C   UNL A   1      38.718  33.574  38.121  1.00  0.00     0.173 A 
ATOM     80  F   UNL A   1      40.889  35.638  36.067  1.00  0.00    -0.203 F 
ATOM     81  C   UNL A   1      40.010  36.028  38.217  1.00  0.00     0.198 A 
ATOM     82  C   UNL A   1      38.579  34.396  39.238  1.00  0.00     0.198 A 
ATOM     83  F   UNL A   1      38.087  32.391  38.107  1.00  0.00    -0.203 F 
ATOM     84  F   UNL A   1      40.667  37.194  38.274  1.00  0.00    -0.200 F 
ATOM     85  C   UNL A   1      39.232  35.617  39.290  1.00  0.00     0.200 A 
ATOM     86  F   UNL A   1      37.814  34.001  40.265  1.00  0.00    -0.200 F 
ATOM     87  F   UNL A   1      39.120  36.394  40.374  1.00  0.00    -0.200 F 
ENDBRANCH  53  77
BRANCH  65  88
ATOM     88  C   UNL A   1      43.802  28.731  35.417  1.00  0.00     0.064 A 
ATOM     89  C   UNL A   1      45.122  29.162  35.223  1.00  0.00     0.173 A 
ATOM     90  C   UNL A   1      43.575  27.713  36.356  1.00  0.00     0.173 A 
ATOM     91  F   UNL A   1      45.395  30.122  34.326  1.00  0.00    -0.203 F 
ATOM     92  C   UNL A   1      46.176  28.576  35.921  1.00  0.00     0.198 A 
ATOM     93  C   UNL A   1      44.627  27.155  37.077  1.00  0.00     0.198 A 
ATOM     94  F   UNL A   1      42.330  27.270  36.586  1.00  0.00    -0.203 F 
ATOM     95  F   UNL A   1      47.435  28.968  35.680  1.00  0.00    -0.200 F 
ATOM     96  C   UNL A   1      45.926  27.581  36.853  1.00  0.00     0.200 A 
ATOM     97  F   UNL A   1      44.381  26.205  37.989  1.00  0.00    -0.200 F 
ATOM     98  F   UNL A   1      46.941  27.026  37.530  1.00  0.00    -0.200 F 
ENDBRANCH  65  88
ENDBRANCH  39  40
ENDBRANCH  31  34
ENDBRANCH  29  30
ENDBRANCH  28  29
ENDBRANCH  27  28
ENDBRANCH   1  27
TORSDOF 15
ENDMDL
MODEL 2
REMARK VINA RESULT:     -13.1      1.369      2.004
REMARK SMILES CNc1cc(-c2cncc(SCC(=O)NCCCCNC(=O)c3ccc(-c4c5nc(c(-c6c(F)c(F)c(F)c(F)c6F)c6ccc([nH]6)c(-c6c(F)c(F)c(F)c(F)c6F)c6nc(c(-c7c(F)c(F)c(F)c(F)c7F)c7ccc4[nH]7)C=C6)C=C5)cc3)n2)c2cc[nH]c2n1
REMARK SMILES IDX 16 1 15 2 13 3 14 4 12 6 11 7 10 8 6 9 7 10 86 11 8 12 9 13
REMARK SMILES IDX 5 14 3 15 4 16 92 17 91 18 87 19 90 20 88 21 89 22 2 24 1 25
REMARK SMILES IDX 17 27 18 28 19 29 20 30 21 31 22 33 23 34 24 35 85 36 25 37
REMARK SMILES IDX 84 38 26 39 27 40 28 41 78 42 29 43 83 44 77 45 79 46 30 47
REMARK SMILES IDX 82 48 76 49 75 50 31 52 63 53 43 54 62 55 44 56 47 57 61 58
REMARK SMILES IDX 80 59 45 60 46 61 60 63 81 64 48 65 32 66 33 67 41 68 34 69
REMARK SMILES IDX 35 70 39 71 42 72 36 73 37 74 40 75 38 76 64 77 65 78 73 79
REMARK SMILES IDX 66 80 67 81 71 82 74 83 68 84 69 85 72 86 70 87 49 88 50 89
REMARK SMILES IDX 58 90 51 91 52 92 56 93 59 94 53 95 54 96 57 97 55 98
REMARK H PARENT 15 5 90 23 2 26 20 32 79 51 47 62
REMARK Flexibility Score: inf
ROOT
ATOM      1  C   UNL A   1      31.486  29.936  25.252  1.00  0.00     0.116 C 
ENDROOT
BRANCH   1   2
ATOM      2  N   UNL A   1      32.716  29.714  24.520  1.00  0.00    -0.355 N 
ATOM      3  C   UNL A   1      32.989  28.872  23.483  1.00  0.00     0.230 C 
ATOM      4  O   UNL A   1      34.113  28.965  22.982  1.00  0.00    -0.274 OA
ATOM      5  H   UNL A   1      33.479  30.259  24.820  1.00  0.00     0.163 HD
BRANCH   3   6
ATOM      6  C   UNL A   1      31.925  27.985  22.862  1.00  0.00     0.176 C 
BRANCH   6   7
ATOM      7  S   UNL A   1      32.492  26.356  22.289  1.00  0.00    -0.095 SA
BRANCH   7   8
ATOM      8  C   UNL A   1      32.778  25.485  23.811  1.00  0.00     0.116 A 
ATOM      9  C   UNL A   1      33.929  23.951  25.086  1.00  0.00     0.091 A 
ATOM     10  C   UNL A   1      33.061  24.200  26.149  1.00  0.00     0.140 A 
ATOM     11  N   UNL A   1      33.791  24.597  23.896  1.00  0.00    -0.238 NA
ATOM     12  N   UNL A   1      32.040  25.084  26.079  1.00  0.00    -0.260 NA
ATOM     13  C   UNL A   1      31.921  25.713  24.886  1.00  0.00     0.146 A 
BRANCH   9  14
ATOM     14  C   UNL A   1      34.992  22.961  25.188  1.00  0.00     0.016 A 
ATOM     15  C   UNL A   1      37.333  22.349  25.452  1.00  0.00     0.128 A 
ATOM     16  C   UNL A   1      36.336  23.320  25.403  1.00  0.00     0.058 A 
ATOM     17  N   UNL A   1      37.099  21.041  25.254  1.00  0.00    -0.213 NA
ATOM     18  C   UNL A   1      35.806  20.726  25.076  1.00  0.00     0.140 A 
ATOM     19  C   UNL A   1      34.719  21.590  25.036  1.00  0.00     0.028 A 
ATOM     20  N   UNL A   1      35.346  19.450  24.907  1.00  0.00    -0.346 N 
ATOM     21  C   UNL A   1      33.569  20.775  24.826  1.00  0.00     0.030 A 
ATOM     22  C   UNL A   1      33.984  19.462  24.755  1.00  0.00     0.085 A 
ATOM     23  H   UNL A   1      35.909  18.643  24.897  1.00  0.00     0.167 HD
BRANCH  15  24
ATOM     24  N   UNL A   1      38.650  22.650  25.714  1.00  0.00    -0.373 N 
ATOM     25  C   UNL A   1      39.619  21.668  26.124  1.00  0.00     0.141 C 
ATOM     26  H   UNL A   1      38.945  23.584  25.613  1.00  0.00     0.161 HD
ENDBRANCH  15  24
ENDBRANCH   9  14
ENDBRANCH   7   8
ENDBRANCH   6   7
ENDBRANCH   3   6
ENDBRANCH   1   2
BRANCH   1  27
ATOM     27  C   UNL A   1      31.758  30.519  26.639  1.00  0.00     0.023 C 
BRANCH  27  28
ATOM     28  C   UNL A   1      31.550  32.034  26.747  1.00  0.00     0.023 C 
BRANCH  28  29
ATOM     29  C   UNL A   1      32.767  32.828  27.209  1.00  0.00     0.116 C 
BRANCH  29  30
ATOM     30  N   UNL A   1      32.439  34.189  27.602  1.00  0.00    -0.352 N 
ATOM     31  C   UNL A   1      32.984  34.962  28.598  1.00  0.00     0.251 C 
ATOM     32  H   UNL A   1      31.725  34.619  27.078  1.00  0.00     0.163 HD
ATOM     33  O   UNL A   1      32.484  36.048  28.880  1.00  0.00    -0.269 OA
BRANCH  31  34
ATOM     34  C   UNL A   1      34.155  34.473  29.358  1.00  0.00     0.039 A 
ATOM     35  C   UNL A   1      33.947  33.868  30.600  1.00  0.00     0.014 A 
ATOM     36  C   UNL A   1      35.450  34.601  28.849  1.00  0.00     0.014 A 
ATOM     37  C   UNL A   1      35.030  33.329  31.298  1.00  0.00     0.010 A 
ATOM     38  C   UNL A   1      36.517  33.997  29.509  1.00  0.00     0.010 A 
ATOM     39  C   UNL A   1      36.318  33.352  30.740  1.00  0.00    -0.014 A 
BRANCH  39  40
ATOM     40  C   UNL A   1      37.464  32.696  31.421  1.00  0.00     0.031 A 
ATOM     41  C   UNL A   1      38.155  31.522  30.785  1.00  0.00     0.074 A 
ATOM     42  C   UNL A   1      37.839  33.115  32.646  1.00  0.00     0.049 A 
ATOM     43  N   UNL A   1      39.125  30.777  31.255  1.00  0.00    -0.248 NA
ATOM     44  C   UNL A   1      37.676  31.113  29.456  1.00  0.00     0.031 C 
ATOM     45  C   UNL A   1      37.218  34.211  33.391  1.00  0.00     0.029 A 
ATOM     46  N   UNL A   1      38.827  32.662  33.486  1.00  0.00    -0.354 N 
ATOM     47  C   UNL A   1      39.359  29.808  30.288  1.00  0.00     0.074 A 
ATOM     48  C   UNL A   1      38.397  30.025  29.230  1.00  0.00     0.031 C 
ATOM     49  C   UNL A   1      37.850  34.358  34.566  1.00  0.00     0.029 A 
ATOM     50  C   UNL A   1      38.892  33.341  34.678  1.00  0.00     0.049 A 
ATOM     51  H   UNL A   1      39.430  31.919  33.256  1.00  0.00     0.167 HD
ATOM     52  C   UNL A   1      40.306  28.839  30.274  1.00  0.00     0.037 A 
ATOM     53  C   UNL A   1      39.692  33.158  35.746  1.00  0.00     0.037 A 
ATOM     54  C   UNL A   1      41.276  28.641  31.320  1.00  0.00     0.049 A 
ATOM     55  C   UNL A   1      40.728  32.068  35.710  1.00  0.00     0.074 A 
ATOM     56  C   UNL A   1      42.316  27.729  31.369  1.00  0.00     0.029 A 
ATOM     57  N   UNL A   1      41.320  29.359  32.506  1.00  0.00    -0.354 N 
ATOM     58  N   UNL A   1      40.990  31.205  34.758  1.00  0.00    -0.248 NA
ATOM     59  C   UNL A   1      41.584  31.929  36.896  1.00  0.00     0.031 C 
ATOM     60  C   UNL A   1      42.952  27.855  32.607  1.00  0.00     0.029 A 
ATOM     61  C   UNL A   1      42.352  28.890  33.305  1.00  0.00     0.049 A 
ATOM     62  H   UNL A   1      40.709  30.094  32.745  1.00  0.00     0.167 HD
ATOM     63  C   UNL A   1      42.057  30.444  35.215  1.00  0.00     0.074 A 
ATOM     64  C   UNL A   1      42.406  30.957  36.524  1.00  0.00     0.031 C 
ATOM     65  C   UNL A   1      42.692  29.413  34.604  1.00  0.00     0.037 A 
BRANCH  52  66
ATOM     66  C   UNL A   1      40.341  27.914  29.092  1.00  0.00     0.064 A 
ATOM     67  C   UNL A   1      39.581  26.735  29.052  1.00  0.00     0.173 A 
ATOM     68  C   UNL A   1      41.110  28.234  27.962  1.00  0.00     0.173 A 
ATOM     69  F   UNL A   1      38.836  26.376  30.108  1.00  0.00    -0.203 F 
ATOM     70  C   UNL A   1      39.614  25.896  27.941  1.00  0.00     0.198 A 
ATOM     71  C   UNL A   1      41.115  27.411  26.839  1.00  0.00     0.198 A 
ATOM     72  F   UNL A   1      41.851  29.352  27.942  1.00  0.00    -0.203 F 
ATOM     73  F   UNL A   1      38.920  24.750  27.948  1.00  0.00    -0.200 F 
ATOM     74  C   UNL A   1      40.374  26.239  26.832  1.00  0.00     0.200 A 
ATOM     75  F   UNL A   1      41.836  27.752  25.763  1.00  0.00    -0.200 F 
ATOM     76  F   UNL A   1      40.396  25.436  25.759  1.00  0.00    -0.200 F 
ENDBRANCH  52  66
BRANCH  53  77
ATOM     77  C   UNL A   1      39.554  34.040  36.936  1.00  0.00     0.064 A 
ATOM     78  C   UNL A   1      40.200  35.283  36.992  1.00  0.00     0.173 A 
ATOM     79  C   UNL A   1      38.781  33.657  38.043  1.00  0.00     0.173 A 
ATOM     80  F   UNL A   1      40.967  35.685  35.968  1.00  0.00    -0.203 F 
ATOM     81  C   UNL A   1      40.098  36.099  38.118  1.00  0.00     0.198 A 
ATOM     82  C   UNL A   1      38.655  34.488  39.155  1.00  0.00     0.198 A 
ATOM     83  F   UNL A   1      38.139  32.480  38.039  1.00  0.00    -0.203 F 
ATOM     84  F   UNL A   1      40.767  37.258  38.165  1.00  0.00    -0.200 F 
ATOM     85  C   UNL A   1      39.320  35.702  39.196  1.00  0.00     0.200 A 
ATOM     86  F   UNL A   1      37.889  34.108  40.187  1.00  0.00    -0.200 F 
ATOM     87  F   UNL A   1      39.219  36.488  40.276  1.00  0.00    -0.200 F 
ENDBRANCH  53  77
BRANCH  65  88
ATOM     88  C   UNL A   1      43.856  28.793  35.326  1.00  0.00     0.064 A 
ATOM     89  C   UNL A   1      45.172  29.228  35.116  1.00  0.00     0.173 A 
ATOM     90  C   UNL A   1      43.643  27.778  36.272  1.00  0.00     0.173 A 
ATOM     91  F   UNL A   1      45.433  30.185  34.213  1.00  0.00    -0.203 F 
ATOM     92  C   UNL A   1      46.236  28.650  35.806  1.00  0.00     0.198 A 
ATOM     93  C   UNL A   1      44.704  27.228  36.985  1.00  0.00     0.198 A 
ATOM     94  F   UNL A   1      42.402  27.332  36.517  1.00  0.00    -0.203 F 
ATOM     95  F   UNL A   1      47.490  29.046  35.551  1.00  0.00    -0.200 F 
ATOM     96  C   UNL A   1      45.999  27.658  36.746  1.00  0.00     0.200 A 
ATOM     97  F   UNL A   1      44.471  26.281  37.904  1.00  0.00    -0.200 F 
ATOM     98  F   UNL A   1      47.023  27.111  37.415  1.00  0.00    -0.200 F 
ENDBRANCH  65  88
ENDBRANCH  39  40
ENDBRANCH  31  34
ENDBRANCH  29  30
ENDBRANCH  28  29
ENDBRANCH  27  28
ENDBRANCH   1  27
TORSDOF 15
ENDMDL
MODEL 3
REMARK VINA RESULT:     -13.1      1.423      2.583
REMARK SMILES CNc1cc(-c2cncc(SCC(=O)NCCCCNC(=O)c3ccc(-c4c5nc(c(-c6c(F)c(F)c(F)c(F)c6F)c6ccc([nH]6)c(-c6c(F)c(F)c(F)c(F)c6F)c6nc(c(-c7c(F)c(F)c(F)c(F)c7F)c7ccc4[nH]7)C=C6)C=C5)cc3)n2)c2cc[nH]c2n1
REMARK SMILES IDX 16 1 15 2 13 3 14 4 12 6 11 7 10 8 6 9 7 10 86 11 8 12 9 13
REMARK SMILES IDX 5 14 3 15 4 16 92 17 91 18 87 19 90 20 88 21 89 22 2 24 1 25
REMARK SMILES IDX 17 27 18 28 19 29 20 30 21 31 22 33 23 34 24 35 85 36 25 37
REMARK SMILES IDX 84 38 26 39 27 40 28 41 78 42 29 43 83 44 77 45 79 46 30 47
REMARK SMILES IDX 82 48 76 49 75 50 31 52 63 53 43 54 62 55 44 56 47 57 61 58
REMARK SMILES IDX 80 59 45 60 46 61 60 63 81 64 48 65 32 66 33 67 41 68 34 69
REMARK SMILES IDX 35 70 39 71 42 72 36 73 37 74 40 75 38 76 64 77 65 78 73 79
REMARK SMILES IDX 66 80 67 81 71 82 74 83 68 84 69 85 72 86 70 87 49 88 50 89
REMARK SMILES IDX 58 90 51 91 52 92 56 93 59 94 53 95 54 96 57 97 55 98
REMARK H PARENT 15 5 90 23 2 26 20 32 79 51 47 62
REMARK Flexibility Score: inf
ROOT
ATOM      1  C   UNL A   1      31.582  29.962  25.293  1.00  0.00     0.116 C 
ENDROOT
BRANCH   1   2
ATOM      2  N   UNL A   1      32.845  29.707  24.632  1.00  0.00    -0.355 N 
ATOM      3  C   UNL A   1      33.161  28.828  23.638  1.00  0.00     0.230 C 
ATOM      4  O   UNL A   1      34.310  28.897  23.192  1.00  0.00    -0.274 OA
ATOM      5  H   UNL A   1      33.597  30.256  24.951  1.00  0.00     0.163 HD
BRANCH   3   6
ATOM      6  C   UNL A   1      32.122  27.929  22.994  1.00  0.00     0.176 C 
BRANCH   6   7
ATOM      7  S   UNL A   1      32.735  26.335  22.372  1.00  0.00    -0.095 SA
BRANCH   7   8
ATOM      8  C   UNL A   1      32.967  25.397  23.863  1.00  0.00     0.116 A 
ATOM      9  C   UNL A   1      34.090  23.825  25.117  1.00  0.00     0.091 A 
ATOM     10  C   UNL A   1      33.169  24.007  26.149  1.00  0.00     0.140 A 
ATOM     11  N   UNL A   1      33.993  24.525  23.954  1.00  0.00    -0.238 NA
ATOM     12  N   UNL A   1      32.134  24.875  26.073  1.00  0.00    -0.260 NA
ATOM     13  C   UNL A   1      32.057  25.559  24.906  1.00  0.00     0.146 A 
BRANCH   9  14
ATOM     14  C   UNL A   1      35.167  22.851  25.222  1.00  0.00     0.016 A 
ATOM     15  C   UNL A   1      37.511  22.272  25.525  1.00  0.00     0.128 A 
ATOM     16  C   UNL A   1      36.499  23.227  25.473  1.00  0.00     0.058 A 
ATOM     17  N   UNL A   1      37.303  20.965  25.295  1.00  0.00    -0.213 NA
ATOM     18  C   UNL A   1      36.019  20.632  25.084  1.00  0.00     0.140 A 
ATOM     19  C   UNL A   1      34.920  21.479  25.038  1.00  0.00     0.028 A 
ATOM     20  N   UNL A   1      35.585  19.352  24.881  1.00  0.00    -0.346 N 
ATOM     21  C   UNL A   1      33.788  20.650  24.788  1.00  0.00     0.030 A 
ATOM     22  C   UNL A   1      34.227  19.345  24.700  1.00  0.00     0.085 A 
ATOM     23  H   UNL A   1      36.161  18.555  24.866  1.00  0.00     0.167 HD
BRANCH  15  24
ATOM     24  N   UNL A   1      38.817  22.589  25.820  1.00  0.00    -0.373 N 
ATOM     25  C   UNL A   1      39.820  21.603  26.130  1.00  0.00     0.141 C 
ATOM     26  H   UNL A   1      39.080  23.538  25.817  1.00  0.00     0.161 HD
ENDBRANCH  15  24
ENDBRANCH   9  14
ENDBRANCH   7   8
ENDBRANCH   6   7
ENDBRANCH   3   6
ENDBRANCH   1   2
BRANCH   1  27
ATOM     27  C   UNL A   1      31.789  30.597  26.668  1.00  0.00     0.023 C 
BRANCH  27  28
ATOM     28  C   UNL A   1      31.623  32.121  26.700  1.00  0.00     0.023 C 
BRANCH  28  29
ATOM     29  C   UNL A   1      32.819  32.897  27.240  1.00  0.00     0.116 C 
BRANCH  29  30
ATOM     30  N   UNL A   1      32.478  34.247  27.656  1.00  0.00    -0.352 N 
ATOM     31  C   UNL A   1      33.006  35.003  28.674  1.00  0.00     0.251 C 
ATOM     32  H   UNL A   1      31.766  34.683  27.133  1.00  0.00     0.163 HD
ATOM     33  O   UNL A   1      32.495  36.080  28.971  1.00  0.00    -0.269 OA
BRANCH  31  34
ATOM     34  C   UNL A   1      34.172  34.508  29.437  1.00  0.00     0.039 A 
ATOM     35  C   UNL A   1      33.952  33.845  30.647  1.00  0.00     0.014 A 
ATOM     36  C   UNL A   1      35.473  34.685  28.962  1.00  0.00     0.014 A 
ATOM     37  C   UNL A   1      35.032  33.300  31.345  1.00  0.00     0.010 A 
ATOM     38  C   UNL A   1      36.540  34.076  29.618  1.00  0.00     0.010 A 
ATOM     39  C   UNL A   1      36.331  33.375  30.816  1.00  0.00    -0.014 A 
BRANCH  39  40
ATOM     40  C   UNL A   1      37.476  32.714  31.493  1.00  0.00     0.031 A 
ATOM     41  C   UNL A   1      38.164  31.540  30.853  1.00  0.00     0.074 A 
ATOM     42  C   UNL A   1      37.856  33.130  32.717  1.00  0.00     0.049 A 
ATOM     43  N   UNL A   1      39.133  30.792  31.318  1.00  0.00    -0.248 NA
ATOM     44  C   UNL A   1      37.680  31.135  29.523  1.00  0.00     0.031 C 
ATOM     45  C   UNL A   1      37.239  34.226  33.466  1.00  0.00     0.029 A 
ATOM     46  N   UNL A   1      38.845  32.673  33.553  1.00  0.00    -0.354 N 
ATOM     47  C   UNL A   1      39.362  29.824  30.348  1.00  0.00     0.074 A 
ATOM     48  C   UNL A   1      38.397  30.045  29.294  1.00  0.00     0.031 C 
ATOM     49  C   UNL A   1      37.875  34.369  34.640  1.00  0.00     0.029 A 
ATOM     50  C   UNL A   1      38.914  33.350  34.747  1.00  0.00     0.049 A 
ATOM     51  H   UNL A   1      39.446  31.929  33.320  1.00  0.00     0.167 HD
ATOM     52  C   UNL A   1      40.306  28.853  30.331  1.00  0.00     0.037 A 
ATOM     53  C   UNL A   1      39.717  33.163  35.813  1.00  0.00     0.037 A 
ATOM     54  C   UNL A   1      41.278  28.650  31.374  1.00  0.00     0.049 A 
ATOM     55  C   UNL A   1      40.750  32.070  35.772  1.00  0.00     0.074 A 
ATOM     56  C   UNL A   1      42.317  27.736  31.418  1.00  0.00     0.029 A 
ATOM     57  N   UNL A   1      41.328  29.366  32.561  1.00  0.00    -0.354 N 
ATOM     58  N   UNL A   1      41.007  31.209  34.818  1.00  0.00    -0.248 NA
ATOM     59  C   UNL A   1      41.610  31.927  36.955  1.00  0.00     0.031 C 
ATOM     60  C   UNL A   1      42.956  27.858  32.655  1.00  0.00     0.029 A 
ATOM     61  C   UNL A   1      42.360  28.893  33.357  1.00  0.00     0.049 A 
ATOM     62  H   UNL A   1      40.719  30.102  32.803  1.00  0.00     0.167 HD
ATOM     63  C   UNL A   1      42.074  30.444  35.270  1.00  0.00     0.074 A 
ATOM     64  C   UNL A   1      42.427  30.954  36.579  1.00  0.00     0.031 C 
ATOM     65  C   UNL A   1      42.705  29.413  34.656  1.00  0.00     0.037 A 
BRANCH  52  66
ATOM     66  C   UNL A   1      40.336  27.930  29.146  1.00  0.00     0.064 A 
ATOM     67  C   UNL A   1      39.571  26.755  29.105  1.00  0.00     0.173 A 
ATOM     68  C   UNL A   1      41.106  28.248  28.016  1.00  0.00     0.173 A 
ATOM     69  F   UNL A   1      38.824  26.398  30.160  1.00  0.00    -0.203 F 
ATOM     70  C   UNL A   1      39.598  25.918  27.992  1.00  0.00     0.198 A 
ATOM     71  C   UNL A   1      41.106  27.428  26.892  1.00  0.00     0.198 A 
ATOM     72  F   UNL A   1      41.853  29.363  27.998  1.00  0.00    -0.203 F 
ATOM     73  F   UNL A   1      38.899  24.776  27.997  1.00  0.00    -0.200 F 
ATOM     74  C   UNL A   1      40.359  26.260  26.883  1.00  0.00     0.200 A 
ATOM     75  F   UNL A   1      41.829  27.767  25.816  1.00  0.00    -0.200 F 
ATOM     76  F   UNL A   1      40.376  25.459  25.809  1.00  0.00    -0.200 F 
ENDBRANCH  52  66
BRANCH  53  77
ATOM     77  C   UNL A   1      39.584  34.043  37.004  1.00  0.00     0.064 A 
ATOM     78  C   UNL A   1      38.840  33.639  38.121  1.00  0.00     0.173 A 
ATOM     79  C   UNL A   1      40.191  35.307  37.049  1.00  0.00     0.173 A 
ATOM     80  F   UNL A   1      38.223  32.448  38.120  1.00  0.00    -0.203 F 
ATOM     81  C   UNL A   1      38.688  34.474  39.227  1.00  0.00     0.198 A 
ATOM     82  C   UNL A   1      40.065  36.128  38.168  1.00  0.00     0.198 A 
ATOM     83  F   UNL A   1      40.918  35.741  36.008  1.00  0.00    -0.203 F 
ATOM     84  F   UNL A   1      37.929  34.083  40.260  1.00  0.00    -0.200 F 
ATOM     85  C   UNL A   1      39.306  35.715  39.252  1.00  0.00     0.200 A 
ATOM     86  F   UNL A   1      40.678  37.319  38.193  1.00  0.00    -0.200 F 
ATOM     87  F   UNL A   1      39.164  36.515  40.316  1.00  0.00    -0.200 F 
ENDBRANCH  53  77
BRANCH  65  88
ATOM     88  C   UNL A   1      43.869  28.789  35.373  1.00  0.00     0.064 A 
ATOM     89  C   UNL A   1      43.702  27.717  36.261  1.00  0.00     0.173 A 
ATOM     90  C   UNL A   1      45.175  29.243  35.132  1.00  0.00     0.173 A 
ATOM     91  F   UNL A   1      42.473  27.253  36.538  1.00  0.00    -0.203 F 
ATOM     92  C   UNL A   1      44.796  27.142  36.904  1.00  0.00     0.198 A 
ATOM     93  C   UNL A   1      46.269  28.644  35.749  1.00  0.00     0.198 A 
ATOM     94  F   UNL A   1      45.392  30.260  34.284  1.00  0.00    -0.203 F 
ATOM     95  F   UNL A   1      44.606  26.154  37.789  1.00  0.00    -0.200 F 
ATOM     96  C   UNL A   1      46.078  27.601  36.641  1.00  0.00     0.200 A 
ATOM     97  F   UNL A   1      47.508  29.077  35.480  1.00  0.00    -0.200 F 
ATOM     98  F   UNL A   1      47.130  27.039  37.253  1.00  0.00    -0.200 F 
ENDBRANCH  65  88
ENDBRANCH  39  40
ENDBRANCH  31  34
ENDBRANCH  29  30
ENDBRANCH  28  29
ENDBRANCH  27  28
ENDBRANCH   1  27
TORSDOF 15
ENDMDL
