MODEL 1
REMARK VINA RESULT:     -13.4      0.000      0.000
REMARK SMILES COc1cccc([C@@H]2CN(C(=O)c3cnn(C)c3)C[C@H]2C(=O)NCCCCNC(=O)c2ccc(-c3c4nc(c(-c5c(F)c(F)c(F)c(F)c5F)c5ccc([nH]5)c(-c5c(F)c(F)c(F)c(F)c5F)c5nc(c(-c6c(F)c(F)c(F)c(F)c6F)c6ccc3[nH]6)C=C5)C=C4)cc2)c1OC
REMARK SMILES IDX 25 1 24 2 23 3 21 4 22 5 20 7 8 8 9 9 10 10 19 11 7 12 3 13
REMARK SMILES IDX 4 14 94 15 5 16 6 17 2 18 1 19 95 20 96 21 11 22 12 23 13 24
REMARK SMILES IDX 14 25 18 26 15 27 16 28 17 29 26 30 27 31 28 32 29 33 30 35
REMARK SMILES IDX 31 36 32 37 93 38 33 39 92 40 34 41 35 42 36 43 86 44 37 45
REMARK SMILES IDX 91 46 85 47 87 48 38 49 90 50 84 51 83 52 39 54 71 55 51 56
REMARK SMILES IDX 70 57 52 58 55 59 69 60 88 61 53 62 54 63 68 65 89 66 56 67
REMARK SMILES IDX 40 68 41 69 49 70 42 71 43 72 47 73 50 74 44 75 45 76 48 77
REMARK SMILES IDX 46 78 72 79 73 80 81 81 74 82 75 83 79 84 82 85 76 86 77 87
REMARK SMILES IDX 80 88 78 89 57 90 58 91 66 92 59 93 60 94 64 95 67 96 61 97
REMARK SMILES IDX 62 98 65 99 63 100
REMARK H PARENT 23 6 28 34 87 53 55 64
REMARK Flexibility Score: inf
ROOT
ATOM      1  C   UNL A   1      31.775  30.501  26.617  1.00  0.00     0.023 C 
ENDROOT
BRANCH   1   2
ATOM      2  C   UNL A   1      31.485  29.983  25.210  1.00  0.00     0.116 C 
BRANCH   2   3
ATOM      3  N   UNL A   1      32.699  29.664  24.482  1.00  0.00    -0.356 N 
ATOM      4  C   UNL A   1      32.929  28.826  23.436  1.00  0.00     0.225 C 
ATOM      5  O   UNL A   1      34.084  28.783  23.001  1.00  0.00    -0.275 OA
ATOM      6  H   UNL A   1      33.500  30.141  24.801  1.00  0.00     0.163 HD
BRANCH   4   7
ATOM      7  C   UNL A   1      31.848  27.959  22.808  1.00  0.00     0.107 C 
ATOM      8  C   UNL A   1      31.404  26.789  23.705  1.00  0.00     0.057 C 
ATOM      9  C   UNL A   1      29.882  26.723  23.551  1.00  0.00     0.129 C 
ATOM     10  N   UNL A   1      29.489  28.065  23.152  1.00  0.00    -0.337 N 
ATOM     11  C   UNL A   1      30.582  28.739  22.470  1.00  0.00     0.134 C 
BRANCH   8  12
ATOM     12  C   UNL A   1      32.115  25.470  23.466  1.00  0.00     0.004 A 
ATOM     13  C   UNL A   1      33.124  23.386  24.215  1.00  0.00     0.161 A 
ATOM     14  C   UNL A   1      33.482  23.083  22.897  1.00  0.00     0.050 A 
ATOM     15  C   UNL A   1      32.446  24.581  24.510  1.00  0.00     0.164 A 
ATOM     16  C   UNL A   1      33.134  23.944  21.862  1.00  0.00     0.004 A 
ATOM     17  C   UNL A   1      32.450  25.125  22.144  1.00  0.00     0.008 A 
BRANCH  13  18
ATOM     18  O   UNL A   1      33.526  22.556  25.230  1.00  0.00    -0.493 OA
ATOM     19  C   UNL A   1      34.251  21.426  24.742  1.00  0.00     0.278 C 
ENDBRANCH  13  18
BRANCH  15  20
ATOM     20  O   UNL A   1      32.116  25.003  25.773  1.00  0.00    -0.493 OA
ATOM     21  C   UNL A   1      30.996  24.375  26.384  1.00  0.00     0.278 C 
ENDBRANCH  15  20
ENDBRANCH   8  12
BRANCH  10  22
ATOM     22  C   UNL A   1      28.209  28.589  23.107  1.00  0.00     0.257 C 
ATOM     23  O   UNL A   1      27.230  27.920  23.452  1.00  0.00    -0.269 OA
BRANCH  22  24
ATOM     24  C   UNL A   1      28.044  29.961  22.674  1.00  0.00     0.077 A 
ATOM     25  C   UNL A   1      27.832  31.091  23.494  1.00  0.00     0.149 A 
ATOM     26  C   UNL A   1      27.983  30.474  21.391  1.00  0.00     0.122 A 
ATOM     27  N   UNL A   1      27.745  32.229  22.799  1.00  0.00    -0.181 NA
ATOM     28  N   UNL A   1      27.856  31.826  21.523  1.00  0.00    -0.275 N 
ATOM     29  C   UNL A   1      27.862  32.804  20.463  1.00  0.00     0.173 C 
ENDBRANCH  22  24
ENDBRANCH  10  22
ENDBRANCH   4   7
ENDBRANCH   2   3
ENDBRANCH   1   2
BRANCH   1  30
ATOM     30  C   UNL A   1      31.512  31.992  26.823  1.00  0.00     0.023 C 
BRANCH  30  31
ATOM     31  C   UNL A   1      32.727  32.822  27.217  1.00  0.00     0.116 C 
BRANCH  31  32
ATOM     32  N   UNL A   1      32.396  34.184  27.607  1.00  0.00    -0.352 N 
ATOM     33  C   UNL A   1      32.974  34.971  28.573  1.00  0.00     0.251 C 
ATOM     34  H   UNL A   1      31.655  34.598  27.110  1.00  0.00     0.163 HD
ATOM     35  O   UNL A   1      32.500  36.070  28.837  1.00  0.00    -0.269 OA
BRANCH  33  36
ATOM     36  C   UNL A   1      34.143  34.469  29.324  1.00  0.00     0.039 A 
ATOM     37  C   UNL A   1      33.926  33.844  30.555  1.00  0.00     0.014 A 
ATOM     38  C   UNL A   1      35.438  34.597  28.815  1.00  0.00     0.014 A 
ATOM     39  C   UNL A   1      35.002  33.282  31.243  1.00  0.00     0.010 A 
ATOM     40  C   UNL A   1      36.500  33.981  29.469  1.00  0.00     0.010 A 
ATOM     41  C   UNL A   1      36.291  33.318  30.688  1.00  0.00    -0.014 A 
BRANCH  41  42
ATOM     42  C   UNL A   1      37.433  32.660  31.366  1.00  0.00     0.031 A 
ATOM     43  C   UNL A   1      38.162  31.533  30.693  1.00  0.00     0.074 A 
ATOM     44  C   UNL A   1      37.769  33.037  32.614  1.00  0.00     0.049 A 
ATOM     45  N   UNL A   1      39.143  30.795  31.147  1.00  0.00    -0.248 NA
ATOM     46  C   UNL A   1      37.709  31.169  29.342  1.00  0.00     0.031 C 
ATOM     47  C   UNL A   1      37.099  34.081  33.392  1.00  0.00     0.029 A 
ATOM     48  N   UNL A   1      38.754  32.577  33.451  1.00  0.00    -0.354 N 
ATOM     49  C   UNL A   1      39.410  29.869  30.148  1.00  0.00     0.074 A 
ATOM     50  C   UNL A   1      38.462  30.111  29.081  1.00  0.00     0.031 C 
ATOM     51  C   UNL A   1      37.706  34.196  34.585  1.00  0.00     0.029 A 
ATOM     52  C   UNL A   1      38.788  33.220  34.664  1.00  0.00     0.049 A 
ATOM     53  H   UNL A   1      39.376  31.855  33.206  1.00  0.00     0.167 HD
ATOM     54  C   UNL A   1      40.372  28.917  30.115  1.00  0.00     0.037 A 
ATOM     55  C   UNL A   1      39.605  33.043  35.718  1.00  0.00     0.037 A 
ATOM     56  C   UNL A   1      41.336  28.703  31.161  1.00  0.00     0.049 A 
ATOM     57  C   UNL A   1      40.693  32.008  35.640  1.00  0.00     0.074 A 
ATOM     58  C   UNL A   1      42.388  27.804  31.197  1.00  0.00     0.029 A 
ATOM     59  N   UNL A   1      41.369  29.406  32.357  1.00  0.00    -0.354 N 
ATOM     60  N   UNL A   1      40.975  31.178  34.665  1.00  0.00    -0.248 NA
ATOM     61  C   UNL A   1      41.582  31.892  36.804  1.00  0.00     0.031 C 
ATOM     62  C   UNL A   1      43.043  27.945  32.427  1.00  0.00     0.029 A 
ATOM     63  C   UNL A   1      42.419  28.956  33.141  1.00  0.00     0.049 A 
ATOM     64  H   UNL A   1      40.740  30.119  32.610  1.00  0.00     0.167 HD
ATOM     65  C   UNL A   1      42.084  30.460  35.085  1.00  0.00     0.074 A 
ATOM     66  C   UNL A   1      42.433  30.960  36.399  1.00  0.00     0.031 C 
ATOM     67  C   UNL A   1      42.755  29.473  34.441  1.00  0.00     0.037 A 
BRANCH  54  68
ATOM     68  C   UNL A   1      40.432  28.041  28.901  1.00  0.00     0.064 A 
ATOM     69  C   UNL A   1      41.197  28.396  27.779  1.00  0.00     0.173 A 
ATOM     70  C   UNL A   1      39.737  26.824  28.865  1.00  0.00     0.173 A 
ATOM     71  F   UNL A   1      41.867  29.558  27.761  1.00  0.00    -0.203 F 
ATOM     72  C   UNL A   1      41.242  27.576  26.656  1.00  0.00     0.198 A 
ATOM     73  C   UNL A   1      39.803  25.994  27.748  1.00  0.00     0.198 A 
ATOM     74  F   UNL A   1      38.993  26.439  29.913  1.00  0.00    -0.203 F 
ATOM     75  F   UNL A   1      41.942  27.957  25.579  1.00  0.00    -0.200 F 
ATOM     76  C   UNL A   1      40.550  26.375  26.643  1.00  0.00     0.200 A 
ATOM     77  F   UNL A   1      39.142  24.830  27.740  1.00  0.00    -0.200 F 
ATOM     78  F   UNL A   1      40.596  25.585  25.561  1.00  0.00    -0.200 F 
ENDBRANCH  54  68
BRANCH  55  79
ATOM     79  C   UNL A   1      39.454  33.898  36.922  1.00  0.00     0.064 A 
ATOM     80  C   UNL A   1      38.732  33.443  38.034  1.00  0.00     0.173 A 
ATOM     81  C   UNL A   1      40.028  35.174  36.988  1.00  0.00     0.173 A 
ATOM     82  F   UNL A   1      38.150  32.235  38.006  1.00  0.00    -0.203 F 
ATOM     83  C   UNL A   1      38.576  34.242  39.164  1.00  0.00     0.198 A 
ATOM     84  C   UNL A   1      39.889  35.964  38.128  1.00  0.00     0.198 A 
ATOM     85  F   UNL A   1      40.732  35.649  35.952  1.00  0.00    -0.203 F 
ATOM     86  F   UNL A   1      37.852  33.799  40.200  1.00  0.00    -0.200 F 
ATOM     87  C   UNL A   1      39.158  35.500  39.212  1.00  0.00     0.200 A 
ATOM     88  F   UNL A   1      40.462  37.175  38.176  1.00  0.00    -0.200 F 
ATOM     89  F   UNL A   1      39.010  36.267  40.301  1.00  0.00    -0.200 F 
ENDBRANCH  55  79
BRANCH  67  90
ATOM     90  C   UNL A   1      43.949  28.895  35.136  1.00  0.00     0.064 A 
ATOM     91  C   UNL A   1      43.829  27.815  36.022  1.00  0.00     0.173 A 
ATOM     92  C   UNL A   1      45.231  29.407  34.888  1.00  0.00     0.173 A 
ATOM     93  F   UNL A   1      42.621  27.304  36.303  1.00  0.00    -0.203 F 
ATOM     94  C   UNL A   1      44.949  27.281  36.652  1.00  0.00     0.198 A 
ATOM     95  C   UNL A   1      46.351  28.856  35.502  1.00  0.00     0.198 A 
ATOM     96  F   UNL A   1      45.396  30.437  34.045  1.00  0.00    -0.203 F 
ATOM     97  F   UNL A   1      44.808  26.276  37.528  1.00  0.00    -0.200 F 
ATOM     98  C   UNL A   1      46.209  27.798  36.389  1.00  0.00     0.200 A 
ATOM     99  F   UNL A   1      47.569  29.351  35.241  1.00  0.00    -0.200 F 
ATOM    100  F   UNL A   1      47.287  27.282  36.995  1.00  0.00    -0.200 F 
ENDBRANCH  67  90
ENDBRANCH  41  42
ENDBRANCH  33  36
ENDBRANCH  31  32
ENDBRANCH  30  31
ENDBRANCH   1  30
TORSDOF 16
ENDMDL
MODEL 2
REMARK VINA RESULT:     -13.3      5.596     10.208
REMARK SMILES COc1cccc([C@@H]2CN(C(=O)c3cnn(C)c3)C[C@H]2C(=O)NCCCCNC(=O)c2ccc(-c3c4nc(c(-c5c(F)c(F)c(F)c(F)c5F)c5ccc([nH]5)c(-c5c(F)c(F)c(F)c(F)c5F)c5nc(c(-c6c(F)c(F)c(F)c(F)c6F)c6ccc3[nH]6)C=C5)C=C4)cc2)c1OC
REMARK SMILES IDX 25 1 24 2 23 3 21 4 22 5 20 7 8 8 9 9 10 10 19 11 7 12 3 13
REMARK SMILES IDX 4 14 94 15 5 16 6 17 2 18 1 19 95 20 96 21 11 22 12 23 13 24
REMARK SMILES IDX 14 25 18 26 15 27 16 28 17 29 26 30 27 31 28 32 29 33 30 35
REMARK SMILES IDX 31 36 32 37 93 38 33 39 92 40 34 41 35 42 36 43 86 44 37 45
REMARK SMILES IDX 91 46 85 47 87 48 38 49 90 50 84 51 83 52 39 54 71 55 51 56
REMARK SMILES IDX 70 57 52 58 55 59 69 60 88 61 53 62 54 63 68 65 89 66 56 67
REMARK SMILES IDX 40 68 41 69 49 70 42 71 43 72 47 73 50 74 44 75 45 76 48 77
REMARK SMILES IDX 46 78 72 79 73 80 81 81 74 82 75 83 79 84 82 85 76 86 77 87
REMARK SMILES IDX 80 88 78 89 57 90 58 91 66 92 59 93 60 94 64 95 67 96 61 97
REMARK SMILES IDX 62 98 65 99 63 100
REMARK H PARENT 23 6 28 34 87 53 55 64
REMARK Flexibility Score: inf
ROOT
ATOM      1  C   UNL A   1      39.266  22.467  26.330  1.00  0.00     0.023 C 
ENDROOT
BRANCH   1   2
ATOM      2  C   UNL A   1      38.026  23.282  25.966  1.00  0.00     0.116 C 
BRANCH   2   3
ATOM      3  N   UNL A   1      37.626  23.084  24.585  1.00  0.00    -0.356 N 
ATOM      4  C   UNL A   1      36.399  23.053  23.999  1.00  0.00     0.225 C 
ATOM      5  O   UNL A   1      36.372  22.891  22.775  1.00  0.00    -0.275 OA
ATOM      6  H   UNL A   1      38.376  22.949  23.961  1.00  0.00     0.163 HD
BRANCH   4   7
ATOM      7  C   UNL A   1      35.099  23.199  24.775  1.00  0.00     0.107 C 
ATOM      8  C   UNL A   1      33.993  23.926  23.987  1.00  0.00     0.057 C 
ATOM      9  C   UNL A   1      32.709  23.153  24.296  1.00  0.00     0.129 C 
ATOM     10  N   UNL A   1      33.154  21.819  24.665  1.00  0.00    -0.337 N 
ATOM     11  C   UNL A   1      34.506  21.859  25.198  1.00  0.00     0.134 C 
BRANCH   8  12
ATOM     12  C   UNL A   1      33.896  25.423  24.220  1.00  0.00     0.004 A 
ATOM     13  C   UNL A   1      33.682  27.724  23.458  1.00  0.00     0.161 A 
ATOM     14  C   UNL A   1      33.783  28.173  24.779  1.00  0.00     0.050 A 
ATOM     15  C   UNL A   1      33.745  26.350  23.168  1.00  0.00     0.164 A 
ATOM     16  C   UNL A   1      33.905  27.260  25.821  1.00  0.00     0.004 A 
ATOM     17  C   UNL A   1      33.955  25.895  25.544  1.00  0.00     0.008 A 
BRANCH  13  18
ATOM     18  O   UNL A   1      33.621  28.639  22.439  1.00  0.00    -0.493 OA
ATOM     19  C   UNL A   1      32.327  29.232  22.329  1.00  0.00     0.278 C 
ENDBRANCH  13  18
BRANCH  15  20
ATOM     20  O   UNL A   1      33.728  25.815  21.905  1.00  0.00    -0.493 OA
ATOM     21  C   UNL A   1      32.456  25.671  21.288  1.00  0.00     0.278 C 
ENDBRANCH  15  20
ENDBRANCH   8  12
BRANCH  10  22
ATOM     22  C   UNL A   1      32.379  20.683  24.812  1.00  0.00     0.257 C 
ATOM     23  O   UNL A   1      31.392  20.672  25.555  1.00  0.00    -0.269 OA
BRANCH  22  24
ATOM     24  C   UNL A   1      32.732  19.507  24.045  1.00  0.00     0.077 A 
ATOM     25  C   UNL A   1      32.204  19.120  22.792  1.00  0.00     0.149 A 
ATOM     26  C   UNL A   1      33.589  18.472  24.371  1.00  0.00     0.122 A 
ATOM     27  N   UNL A   1      32.753  17.994  22.323  1.00  0.00    -0.181 NA
ATOM     28  N   UNL A   1      33.603  17.631  23.297  1.00  0.00    -0.275 N 
ATOM     29  C   UNL A   1      34.433  16.464  23.121  1.00  0.00     0.173 C 
ENDBRANCH  22  24
ENDBRANCH  10  22
ENDBRANCH   4   7
ENDBRANCH   2   3
ENDBRANCH   1   2
BRANCH   1  30
ATOM     30  C   UNL A   1      39.373  21.110  25.637  1.00  0.00     0.023 C 
BRANCH  30  31
ATOM     31  C   UNL A   1      39.810  19.954  26.528  1.00  0.00     0.116 C 
BRANCH  31  32
ATOM     32  N   UNL A   1      40.922  19.191  25.982  1.00  0.00    -0.352 N 
ATOM     33  C   UNL A   1      42.230  19.572  25.811  1.00  0.00     0.251 C 
ATOM     34  H   UNL A   1      40.706  18.275  25.695  1.00  0.00     0.163 HD
ATOM     35  O   UNL A   1      43.020  18.828  25.240  1.00  0.00    -0.269 OA
BRANCH  33  36
ATOM     36  C   UNL A   1      42.673  20.902  26.279  1.00  0.00     0.039 A 
ATOM     37  C   UNL A   1      43.038  21.856  25.326  1.00  0.00     0.014 A 
ATOM     38  C   UNL A   1      42.712  21.213  27.641  1.00  0.00     0.014 A 
ATOM     39  C   UNL A   1      43.374  23.147  25.735  1.00  0.00     0.010 A 
ATOM     40  C   UNL A   1      42.985  22.516  28.044  1.00  0.00     0.010 A 
ATOM     41  C   UNL A   1      43.316  23.494  27.094  1.00  0.00    -0.014 A 
BRANCH  41  42
ATOM     42  C   UNL A   1      43.595  24.880  27.541  1.00  0.00     0.031 A 
ATOM     43  C   UNL A   1      45.012  25.348  27.704  1.00  0.00     0.074 A 
ATOM     44  C   UNL A   1      42.571  25.692  27.860  1.00  0.00     0.049 A 
ATOM     45  N   UNL A   1      45.458  26.499  28.140  1.00  0.00    -0.248 NA
ATOM     46  C   UNL A   1      46.068  24.384  27.358  1.00  0.00     0.031 C 
ATOM     47  C   UNL A   1      41.153  25.331  27.797  1.00  0.00     0.029 A 
ATOM     48  N   UNL A   1      42.566  26.987  28.312  1.00  0.00    -0.354 N 
ATOM     49  C   UNL A   1      46.842  26.391  28.139  1.00  0.00     0.074 A 
ATOM     50  C   UNL A   1      47.163  25.049  27.700  1.00  0.00     0.031 C 
ATOM     51  C   UNL A   1      40.415  26.388  28.175  1.00  0.00     0.029 A 
ATOM     52  C   UNL A   1      41.305  27.488  28.530  1.00  0.00     0.049 A 
ATOM     53  H   UNL A   1      43.386  27.508  28.466  1.00  0.00     0.167 HD
ATOM     54  C   UNL A   1      47.762  27.332  28.457  1.00  0.00     0.037 A 
ATOM     55  C   UNL A   1      40.915  28.701  28.963  1.00  0.00     0.037 A 
ATOM     56  C   UNL A   1      47.441  28.676  28.858  1.00  0.00     0.049 A 
ATOM     57  C   UNL A   1      41.956  29.742  29.269  1.00  0.00     0.074 A 
ATOM     58  C   UNL A   1      48.302  29.721  29.144  1.00  0.00     0.029 A 
ATOM     59  N   UNL A   1      46.152  29.161  29.022  1.00  0.00    -0.354 N 
ATOM     60  N   UNL A   1      43.262  29.648  29.208  1.00  0.00    -0.248 NA
ATOM     61  C   UNL A   1      41.468  31.062  29.694  1.00  0.00     0.031 C 
ATOM     62  C   UNL A   1      47.533  30.834  29.506  1.00  0.00     0.029 A 
ATOM     63  C   UNL A   1      46.194  30.490  29.413  1.00  0.00     0.049 A 
ATOM     64  H   UNL A   1      45.330  28.639  28.882  1.00  0.00     0.167 HD
ATOM     65  C   UNL A   1      43.751  30.896  29.561  1.00  0.00     0.074 A 
ATOM     66  C   UNL A   1      42.601  31.737  29.824  1.00  0.00     0.031 C 
ATOM     67  C   UNL A   1      45.038  31.311  29.660  1.00  0.00     0.037 A 
BRANCH  54  68
ATOM     68  C   UNL A   1      49.206  26.939  28.374  1.00  0.00     0.064 A 
ATOM     69  C   UNL A   1      49.916  27.011  27.165  1.00  0.00     0.173 A 
ATOM     70  C   UNL A   1      49.893  26.505  29.516  1.00  0.00     0.173 A 
ATOM     71  F   UNL A   1      49.296  27.406  26.043  1.00  0.00    -0.203 F 
ATOM     72  C   UNL A   1      51.255  26.640  27.100  1.00  0.00     0.198 A 
ATOM     73  C   UNL A   1      51.240  26.156  29.451  1.00  0.00     0.198 A 
ATOM     74  F   UNL A   1      49.260  26.418  30.695  1.00  0.00    -0.203 F 
ATOM     75  F   UNL A   1      51.900  26.675  25.926  1.00  0.00    -0.200 F 
ATOM     76  C   UNL A   1      51.917  26.218  28.242  1.00  0.00     0.200 A 
ATOM     77  F   UNL A   1      51.882  25.757  30.558  1.00  0.00    -0.200 F 
ATOM     78  F   UNL A   1      53.208  25.862  28.177  1.00  0.00    -0.200 F 
ENDBRANCH  54  68
BRANCH  55  79
ATOM     79  C   UNL A   1      39.470  29.011  29.090  1.00  0.00     0.064 A 
ATOM     80  C   UNL A   1      38.720  29.391  27.968  1.00  0.00     0.173 A 
ATOM     81  C   UNL A   1      38.811  28.929  30.324  1.00  0.00     0.173 A 
ATOM     82  F   UNL A   1      39.315  29.500  26.771  1.00  0.00    -0.203 F 
ATOM     83  C   UNL A   1      37.365  29.693  28.079  1.00  0.00     0.198 A 
ATOM     84  C   UNL A   1      37.451  29.211  30.430  1.00  0.00     0.198 A 
ATOM     85  F   UNL A   1      39.485  28.565  31.423  1.00  0.00    -0.203 F 
ATOM     86  F   UNL A   1      36.678  30.088  26.999  1.00  0.00    -0.200 F 
ATOM     87  C   UNL A   1      36.730  29.599  29.309  1.00  0.00     0.200 A 
ATOM     88  F   UNL A   1      36.837  29.108  31.617  1.00  0.00    -0.200 F 
ATOM     89  F   UNL A   1      35.426  29.887  29.415  1.00  0.00    -0.200 F 
ENDBRANCH  55  79
BRANCH  67  90
ATOM     90  C   UNL A   1      45.266  32.742  30.039  1.00  0.00     0.064 A 
ATOM     91  C   UNL A   1      45.436  33.127  31.376  1.00  0.00     0.173 A 
ATOM     92  C   UNL A   1      45.346  33.734  29.050  1.00  0.00     0.173 A 
ATOM     93  F   UNL A   1      45.351  32.216  32.357  1.00  0.00    -0.203 F 
ATOM     94  C   UNL A   1      45.658  34.459  31.712  1.00  0.00     0.198 A 
ATOM     95  C   UNL A   1      45.590  35.061  29.387  1.00  0.00     0.198 A 
ATOM     96  F   UNL A   1      45.193  33.412  27.757  1.00  0.00    -0.203 F 
ATOM     97  F   UNL A   1      45.777  34.814  32.999  1.00  0.00    -0.200 F 
ATOM     98  C   UNL A   1      45.740  35.424  30.718  1.00  0.00     0.200 A 
ATOM     99  F   UNL A   1      45.677  35.991  28.426  1.00  0.00    -0.200 F 
ATOM    100  F   UNL A   1      45.955  36.706  31.043  1.00  0.00    -0.200 F 
ENDBRANCH  67  90
ENDBRANCH  41  42
ENDBRANCH  33  36
ENDBRANCH  31  32
ENDBRANCH  30  31
ENDBRANCH   1  30
TORSDOF 16
ENDMDL
MODEL 3
REMARK VINA RESULT:     -13.3      1.360      7.207
REMARK SMILES COc1cccc([C@@H]2CN(C(=O)c3cnn(C)c3)C[C@H]2C(=O)NCCCCNC(=O)c2ccc(-c3c4nc(c(-c5c(F)c(F)c(F)c(F)c5F)c5ccc([nH]5)c(-c5c(F)c(F)c(F)c(F)c5F)c5nc(c(-c6c(F)c(F)c(F)c(F)c6F)c6ccc3[nH]6)C=C5)C=C4)cc2)c1OC
REMARK SMILES IDX 25 1 24 2 23 3 21 4 22 5 20 7 8 8 9 9 10 10 19 11 7 12 3 13
REMARK SMILES IDX 4 14 94 15 5 16 6 17 2 18 1 19 95 20 96 21 11 22 12 23 13 24
REMARK SMILES IDX 14 25 18 26 15 27 16 28 17 29 26 30 27 31 28 32 29 33 30 35
REMARK SMILES IDX 31 36 32 37 93 38 33 39 92 40 34 41 35 42 36 43 86 44 37 45
REMARK SMILES IDX 91 46 85 47 87 48 38 49 90 50 84 51 83 52 39 54 71 55 51 56
REMARK SMILES IDX 70 57 52 58 55 59 69 60 88 61 53 62 54 63 68 65 89 66 56 67
REMARK SMILES IDX 40 68 41 69 49 70 42 71 43 72 47 73 50 74 44 75 45 76 48 77
REMARK SMILES IDX 46 78 72 79 73 80 81 81 74 82 75 83 79 84 82 85 76 86 77 87
REMARK SMILES IDX 80 88 78 89 57 90 58 91 66 92 59 93 60 94 64 95 67 96 61 97
REMARK SMILES IDX 62 98 65 99 63 100
REMARK H PARENT 23 6 28 34 87 53 55 64
REMARK Flexibility Score: inf
ROOT
ATOM      1  C   UNL A   1      31.675  31.317  26.053  1.00  0.00     0.023 C 
ENDROOT
BRANCH   1   2
ATOM      2  C   UNL A   1      32.809  30.469  26.626  1.00  0.00     0.116 C 
BRANCH   2   3
ATOM      3  N   UNL A   1      32.325  29.452  27.541  1.00  0.00    -0.356 N 
ATOM      4  C   UNL A   1      31.948  28.161  27.336  1.00  0.00     0.225 C 
ATOM      5  O   UNL A   1      31.601  27.519  28.332  1.00  0.00    -0.275 OA
ATOM      6  H   UNL A   1      32.258  29.749  28.477  1.00  0.00     0.163 HD
BRANCH   4   7
ATOM      7  C   UNL A   1      31.932  27.504  25.965  1.00  0.00     0.107 C 
ATOM      8  C   UNL A   1      31.573  26.007  26.007  1.00  0.00     0.057 C 
ATOM      9  C   UNL A   1      30.640  25.786  24.813  1.00  0.00     0.129 C 
ATOM     10  N   UNL A   1      30.054  27.090  24.550  1.00  0.00    -0.337 N 
ATOM     11  C   UNL A   1      30.937  28.152  25.007  1.00  0.00     0.134 C 
BRANCH   8  12
ATOM     12  C   UNL A   1      32.749  25.050  26.069  1.00  0.00     0.004 A 
ATOM     13  C   UNL A   1      33.836  22.998  26.796  1.00  0.00     0.161 A 
ATOM     14  C   UNL A   1      35.015  23.392  26.153  1.00  0.00     0.050 A 
ATOM     15  C   UNL A   1      32.700  23.824  26.765  1.00  0.00     0.164 A 
ATOM     16  C   UNL A   1      35.059  24.587  25.443  1.00  0.00     0.004 A 
ATOM     17  C   UNL A   1      33.933  25.406  25.396  1.00  0.00     0.008 A 
BRANCH  13  18
ATOM     18  O   UNL A   1      33.828  21.846  27.540  1.00  0.00    -0.493 OA
ATOM     19  C   UNL A   1      33.732  20.681  26.720  1.00  0.00     0.278 C 
ENDBRANCH  13  18
BRANCH  15  20
ATOM     20  O   UNL A   1      31.524  23.563  27.422  1.00  0.00    -0.493 OA
ATOM     21  C   UNL A   1      30.592  22.724  26.754  1.00  0.00     0.278 C 
ENDBRANCH  15  20
ENDBRANCH   8  12
BRANCH  10  22
ATOM     22  C   UNL A   1      28.982  27.381  23.726  1.00  0.00     0.257 C 
ATOM     23  O   UNL A   1      27.961  26.686  23.733  1.00  0.00    -0.269 OA
BRANCH  22  24
ATOM     24  C   UNL A   1      29.069  28.546  22.870  1.00  0.00     0.077 A 
ATOM     25  C   UNL A   1      30.179  28.949  22.094  1.00  0.00     0.149 A 
ATOM     26  C   UNL A   1      28.146  29.555  22.666  1.00  0.00     0.122 A 
ATOM     27  N   UNL A   1      29.943  30.057  21.385  1.00  0.00    -0.181 NA
ATOM     28  N   UNL A   1      28.693  30.396  21.741  1.00  0.00    -0.275 N 
ATOM     29  C   UNL A   1      28.060  31.537  21.126  1.00  0.00     0.173 C 
ENDBRANCH  22  24
ENDBRANCH  10  22
ENDBRANCH   4   7
ENDBRANCH   2   3
ENDBRANCH   1   2
BRANCH   1  30
ATOM     30  C   UNL A   1      31.437  32.645  26.770  1.00  0.00     0.023 C 
BRANCH  30  31
ATOM     31  C   UNL A   1      32.668  33.272  27.412  1.00  0.00     0.116 C 
BRANCH  31  32
ATOM     32  N   UNL A   1      32.442  34.624  27.899  1.00  0.00    -0.352 N 
ATOM     33  C   UNL A   1      33.105  35.310  28.887  1.00  0.00     0.251 C 
ATOM     34  H   UNL A   1      31.711  35.116  27.459  1.00  0.00     0.163 HD
ATOM     35  O   UNL A   1      32.714  36.418  29.237  1.00  0.00    -0.269 OA
BRANCH  33  36
ATOM     36  C   UNL A   1      34.265  34.688  29.557  1.00  0.00     0.039 A 
ATOM     37  C   UNL A   1      34.057  34.019  30.767  1.00  0.00     0.014 A 
ATOM     38  C   UNL A   1      35.542  34.747  28.994  1.00  0.00     0.014 A 
ATOM     39  C   UNL A   1      35.117  33.347  31.375  1.00  0.00     0.010 A 
ATOM     40  C   UNL A   1      36.584  34.024  29.567  1.00  0.00     0.010 A 
ATOM     41  C   UNL A   1      36.380  33.317  30.762  1.00  0.00    -0.014 A 
BRANCH  41  42
ATOM     42  C   UNL A   1      37.498  32.546  31.354  1.00  0.00     0.031 A 
ATOM     43  C   UNL A   1      38.011  32.891  32.721  1.00  0.00     0.074 A 
ATOM     44  C   UNL A   1      38.091  31.577  30.631  1.00  0.00     0.049 A 
ATOM     45  N   UNL A   1      39.016  32.375  33.383  1.00  0.00    -0.248 NA
ATOM     46  C   UNL A   1      37.322  33.982  33.428  1.00  0.00     0.031 C 
ATOM     47  C   UNL A   1      37.718  31.189  29.269  1.00  0.00     0.029 A 
ATOM     48  N   UNL A   1      39.141  30.749  30.938  1.00  0.00    -0.354 N 
ATOM     49  C   UNL A   1      39.091  33.089  34.571  1.00  0.00     0.074 A 
ATOM     50  C   UNL A   1      38.057  34.102  34.523  1.00  0.00     0.031 C 
ATOM     51  C   UNL A   1      38.513  30.184  28.867  1.00  0.00     0.029 A 
ATOM     52  C   UNL A   1      39.465  29.875  29.929  1.00  0.00     0.049 A 
ATOM     53  H   UNL A   1      39.617  30.779  31.799  1.00  0.00     0.167 HD
ATOM     54  C   UNL A   1      39.932  32.903  35.615  1.00  0.00     0.037 A 
ATOM     55  C   UNL A   1      40.420  28.929  29.873  1.00  0.00     0.037 A 
ATOM     56  C   UNL A   1      40.934  31.872  35.676  1.00  0.00     0.049 A 
ATOM     57  C   UNL A   1      41.314  28.715  31.063  1.00  0.00     0.074 A 
ATOM     58  C   UNL A   1      41.796  31.564  36.714  1.00  0.00     0.029 A 
ATOM     59  N   UNL A   1      41.201  30.975  34.653  1.00  0.00    -0.354 N 
ATOM     60  N   UNL A   1      41.337  29.357  32.206  1.00  0.00    -0.248 NA
ATOM     61  C   UNL A   1      42.308  27.638  30.959  1.00  0.00     0.031 C 
ATOM     62  C   UNL A   1      42.603  30.494  36.309  1.00  0.00     0.029 A 
ATOM     63  C   UNL A   1      42.220  30.117  35.032  1.00  0.00     0.049 A 
ATOM     64  H   UNL A   1      40.736  30.951  33.786  1.00  0.00     0.167 HD
ATOM     65  C   UNL A   1      42.325  28.749  32.964  1.00  0.00     0.074 A 
ATOM     66  C   UNL A   1      42.873  27.678  32.157  1.00  0.00     0.031 C 
ATOM     67  C   UNL A   1      42.744  29.051  34.218  1.00  0.00     0.037 A 
BRANCH  54  68
ATOM     68  C   UNL A   1      39.795  33.833  36.783  1.00  0.00     0.064 A 
ATOM     69  C   UNL A   1      40.483  35.055  36.830  1.00  0.00     0.173 A 
ATOM     70  C   UNL A   1      38.952  33.509  37.856  1.00  0.00     0.173 A 
ATOM     71  F   UNL A   1      41.312  35.400  35.833  1.00  0.00    -0.203 F 
ATOM     72  C   UNL A   1      40.351  35.908  37.922  1.00  0.00     0.198 A 
ATOM     73  C   UNL A   1      38.805  34.377  38.936  1.00  0.00     0.198 A 
ATOM     74  F   UNL A   1      38.272  32.353  37.858  1.00  0.00    -0.203 F 
ATOM     75  F   UNL A   1      41.052  37.049  37.965  1.00  0.00    -0.200 F 
ATOM     76  C   UNL A   1      39.509  35.571  38.971  1.00  0.00     0.200 A 
ATOM     77  F   UNL A   1      37.984  34.055  39.945  1.00  0.00    -0.200 F 
ATOM     78  F   UNL A   1      39.382  36.395  40.020  1.00  0.00    -0.200 F 
ENDBRANCH  54  68
BRANCH  55  79
ATOM     79  C   UNL A   1      40.551  28.083  28.661  1.00  0.00     0.064 A 
ATOM     80  C   UNL A   1      39.866  26.864  28.565  1.00  0.00     0.173 A 
ATOM     81  C   UNL A   1      41.352  28.474  27.580  1.00  0.00     0.173 A 
ATOM     82  F   UNL A   1      39.103  26.442  29.584  1.00  0.00    -0.203 F 
ATOM     83  C   UNL A   1      39.991  26.057  27.436  1.00  0.00     0.198 A 
ATOM     84  C   UNL A   1      41.459  27.676  26.443  1.00  0.00     0.198 A 
ATOM     85  F   UNL A   1      42.021  29.634  27.624  1.00  0.00    -0.203 F 
ATOM     86  F   UNL A   1      39.354  24.880  27.383  1.00  0.00    -0.200 F 
ATOM     87  C   UNL A   1      40.784  26.466  26.374  1.00  0.00     0.200 A 
ATOM     88  F   UNL A   1      42.217  28.079  25.413  1.00  0.00    -0.200 F 
ATOM     89  F   UNL A   1      40.901  25.692  25.287  1.00  0.00    -0.200 F 
ENDBRANCH  55  79
BRANCH  67  90
ATOM     90  C   UNL A   1      43.823  28.191  34.801  1.00  0.00     0.064 A 
ATOM     91  C   UNL A   1      45.178  28.531  34.675  1.00  0.00     0.173 A 
ATOM     92  C   UNL A   1      43.496  27.033  35.521  1.00  0.00     0.173 A 
ATOM     93  F   UNL A   1      45.538  29.621  33.981  1.00  0.00    -0.203 F 
ATOM     94  C   UNL A   1      46.169  27.729  35.232  1.00  0.00     0.198 A 
ATOM     95  C   UNL A   1      44.489  26.245  36.095  1.00  0.00     0.198 A 
ATOM     96  F   UNL A   1      42.214  26.670  35.671  1.00  0.00    -0.203 F 
ATOM     97  F   UNL A   1      47.460  28.049  35.065  1.00  0.00    -0.200 F 
ATOM     98  C   UNL A   1      45.824  26.590  35.945  1.00  0.00     0.200 A 
ATOM     99  F   UNL A   1      44.154  25.149  36.791  1.00  0.00    -0.200 F 
ATOM    100  F   UNL A   1      46.780  25.819  36.482  1.00  0.00    -0.200 F 
ENDBRANCH  67  90
ENDBRANCH  41  42
ENDBRANCH  33  36
ENDBRANCH  31  32
ENDBRANCH  30  31
ENDBRANCH   1  30
TORSDOF 16
ENDMDL
