MODEL 1
REMARK VINA RESULT:     -10.9      0.000      0.000
REMARK SMILES C[NH2+]CCCC(=O)NC[C@@H]1CC[C@H](C(=O)NCCCCNC(=O)c2ccc(-c3c4nc(c(-c5c(F)c(F)c(F)c(F)c5F)c5ccc([nH]5)c(-c5c(F)c(F)c(F)c(F)c5F)c5nc(c(-c6c(F)c(F)c(F)c(F)c6F)c6ccc3[nH]6)C=C5)C=C4)cc2)O1
REMARK SMILES IDX 14 1 15 2 16 3 13 5 10 6 11 7 87 8 12 9 9 10 8 11 6 12 7 13
REMARK SMILES IDX 5 15 4 16 3 17 2 18 1 19 17 22 18 23 19 24 20 25 21 26 22 27
REMARK SMILES IDX 23 29 24 30 25 31 86 32 26 33 85 34 27 35 28 36 29 37 79 38
REMARK SMILES IDX 30 39 84 40 78 41 80 42 31 43 83 44 77 45 76 46 32 48 64 49
REMARK SMILES IDX 44 50 63 51 45 52 48 53 62 54 81 55 46 56 47 57 61 59 82 60
REMARK SMILES IDX 49 61 33 62 34 63 42 64 35 65 36 66 40 67 43 68 37 69 38 70
REMARK SMILES IDX 41 71 39 72 65 73 66 74 74 75 67 76 68 77 72 78 75 79 69 80
REMARK SMILES IDX 70 81 73 82 71 83 50 84 51 85 59 86 52 87 53 88 57 89 60 90
REMARK SMILES IDX 54 91 55 92 58 93 56 94
REMARK H PARENT 16 4 8 14 2 20 2 21 21 28 80 47 48 58
REMARK Flexibility Score: inf
ROOT
ATOM      1  C   UNL A   1      33.555  27.546  25.803  1.00  0.00     0.249 C 
ATOM      2  O   UNL A   1      33.928  26.417  26.136  1.00  0.00    -0.272 OA
ATOM      3  N   UNL A   1      33.882  28.581  26.632  1.00  0.00    -0.354 N 
ATOM      4  H   UNL A   1      34.407  28.328  27.426  1.00  0.00     0.163 HD
ENDROOT
BRANCH   1   5
ATOM      5  C   UNL A   1      32.729  27.755  24.515  1.00  0.00     0.207 C 
ATOM      6  C   UNL A   1      30.989  26.577  23.476  1.00  0.00     0.138 C 
ATOM      7  C   UNL A   1      32.283  26.100  22.831  1.00  0.00     0.037 C 
ATOM      8  O   UNL A   1      31.369  27.338  24.636  1.00  0.00    -0.363 OA
ATOM      9  C   UNL A   1      33.323  27.099  23.281  1.00  0.00     0.045 C 
BRANCH   6  10
ATOM     10  C   UNL A   1      30.039  25.451  23.940  1.00  0.00     0.147 C 
BRANCH  10  11
ATOM     11  N   UNL A   1      30.193  25.120  25.344  1.00  0.00    -0.353 N 
ATOM     12  C   UNL A   1      30.962  24.169  25.938  1.00  0.00     0.220 C 
ATOM     13  O   UNL A   1      31.020  24.149  27.169  1.00  0.00    -0.275 OA
ATOM     14  H   UNL A   1      29.657  25.668  25.963  1.00  0.00     0.163 HD
BRANCH  12  15
ATOM     15  C   UNL A   1      31.717  23.151  25.109  1.00  0.00     0.106 C 
BRANCH  15  16
ATOM     16  C   UNL A   1      33.145  22.914  25.611  1.00  0.00     0.071 C 
BRANCH  16  17
ATOM     17  C   UNL A   1      33.425  21.519  26.179  1.00  0.00     0.260 C 
BRANCH  17  18
ATOM     18  N   UNL A   1      34.851  21.191  26.301  1.00  0.00    -0.349 N 
ATOM     19  C   UNL A   1      35.385  20.631  25.064  1.00  0.00     0.330 C 
ATOM     20  H   UNL A   1      35.367  22.041  26.528  1.00  0.00     0.346 HD
ATOM     21  H   UNL A   1      34.954  20.492  27.036  1.00  0.00     0.346 HD
ENDBRANCH  17  18
ENDBRANCH  16  17
ENDBRANCH  15  16
ENDBRANCH  12  15
ENDBRANCH  10  11
ENDBRANCH   6  10
ENDBRANCH   1   5
BRANCH   3  22
ATOM     22  C   UNL A   1      33.575  29.989  26.524  1.00  0.00     0.116 C 
BRANCH  22  23
ATOM     23  C   UNL A   1      32.120  30.285  26.878  1.00  0.00     0.023 C 
BRANCH  23  24
ATOM     24  C   UNL A   1      31.773  31.774  26.876  1.00  0.00     0.023 C 
BRANCH  24  25
ATOM     25  C   UNL A   1      32.873  32.688  27.402  1.00  0.00     0.116 C 
BRANCH  25  26
ATOM     26  N   UNL A   1      32.435  34.051  27.661  1.00  0.00    -0.352 N 
ATOM     27  C   UNL A   1      32.962  34.955  28.560  1.00  0.00     0.251 C 
ATOM     28  H   UNL A   1      31.667  34.365  27.130  1.00  0.00     0.163 HD
ATOM     29  O   UNL A   1      32.446  36.043  28.731  1.00  0.00    -0.269 OA
BRANCH  27  30
ATOM     30  C   UNL A   1      34.145  34.547  29.353  1.00  0.00     0.039 A 
ATOM     31  C   UNL A   1      33.950  34.045  30.642  1.00  0.00     0.014 A 
ATOM     32  C   UNL A   1      35.423  34.586  28.793  1.00  0.00     0.014 A 
ATOM     33  C   UNL A   1      35.032  33.503  31.340  1.00  0.00     0.010 A 
ATOM     34  C   UNL A   1      36.484  33.981  29.459  1.00  0.00     0.010 A 
ATOM     35  C   UNL A   1      36.298  33.426  30.735  1.00  0.00    -0.014 A 
BRANCH  35  36
ATOM     36  C   UNL A   1      37.439  32.761  31.413  1.00  0.00     0.031 A 
ATOM     37  C   UNL A   1      38.131  31.600  30.757  1.00  0.00     0.074 A 
ATOM     38  C   UNL A   1      37.798  33.147  32.653  1.00  0.00     0.049 A 
ATOM     39  N   UNL A   1      39.087  30.836  31.221  1.00  0.00    -0.248 NA
ATOM     40  C   UNL A   1      37.663  31.229  29.413  1.00  0.00     0.031 C 
ATOM     41  C   UNL A   1      37.165  34.219  33.422  1.00  0.00     0.029 A 
ATOM     42  N   UNL A   1      38.774  32.668  33.492  1.00  0.00    -0.354 N 
ATOM     43  C   UNL A   1      39.321  29.886  30.235  1.00  0.00     0.074 A 
ATOM     44  C   UNL A   1      38.370  30.136  29.174  1.00  0.00     0.031 C 
ATOM     45  C   UNL A   1      37.780  34.330  34.611  1.00  0.00     0.029 A 
ATOM     46  C   UNL A   1      38.827  33.316  34.701  1.00  0.00     0.049 A 
ATOM     47  H   UNL A   1      39.378  31.930  33.249  1.00  0.00     0.167 HD
ATOM     48  C   UNL A   1      40.261  28.911  30.206  1.00  0.00     0.037 A 
ATOM     49  C   UNL A   1      39.628  33.113  35.766  1.00  0.00     0.037 A 
ATOM     50  C   UNL A   1      41.224  28.683  31.251  1.00  0.00     0.049 A 
ATOM     51  C   UNL A   1      40.674  32.034  35.704  1.00  0.00     0.074 A 
ATOM     52  C   UNL A   1      42.257  27.762  31.288  1.00  0.00     0.029 A 
ATOM     53  N   UNL A   1      41.270  29.384  32.447  1.00  0.00    -0.354 N 
ATOM     54  N   UNL A   1      40.935  31.189  34.736  1.00  0.00    -0.248 NA
ATOM     55  C   UNL A   1      41.544  31.886  36.880  1.00  0.00     0.031 C 
ATOM     56  C   UNL A   1      42.905  27.881  32.522  1.00  0.00     0.029 A 
ATOM     57  C   UNL A   1      42.304  28.905  33.236  1.00  0.00     0.049 A 
ATOM     58  H   UNL A   1      40.659  30.114  32.699  1.00  0.00     0.167 HD
ATOM     59  C   UNL A   1      42.009  30.428  35.173  1.00  0.00     0.074 A 
ATOM     60  C   UNL A   1      42.363  30.920  36.488  1.00  0.00     0.031 C 
ATOM     61  C   UNL A   1      42.647  29.411  34.541  1.00  0.00     0.037 A 
BRANCH  48  62
ATOM     62  C   UNL A   1      40.294  28.023  28.996  1.00  0.00     0.064 A 
ATOM     63  C   UNL A   1      39.594  26.807  28.960  1.00  0.00     0.173 A 
ATOM     64  C   UNL A   1      41.021  28.397  27.857  1.00  0.00     0.173 A 
ATOM     65  F   UNL A   1      38.895  26.399  30.030  1.00  0.00    -0.203 F 
ATOM     66  C   UNL A   1      39.650  25.981  27.840  1.00  0.00     0.198 A 
ATOM     67  C   UNL A   1      41.048  27.583  26.727  1.00  0.00     0.198 A 
ATOM     68  F   UNL A   1      41.703  29.551  27.836  1.00  0.00    -0.203 F 
ATOM     69  F   UNL A   1      39.020  24.799  27.851  1.00  0.00    -0.200 F 
ATOM     70  C   UNL A   1      40.371  26.372  26.723  1.00  0.00     0.200 A 
ATOM     71  F   UNL A   1      41.737  27.967  25.643  1.00  0.00    -0.200 F 
ATOM     72  F   UNL A   1      40.423  25.577  25.646  1.00  0.00    -0.200 F 
ENDBRANCH  48  62
BRANCH  49  73
ATOM     73  C   UNL A   1      39.492  33.975  36.968  1.00  0.00     0.064 A 
ATOM     74  C   UNL A   1      38.756  33.543  38.080  1.00  0.00     0.173 A 
ATOM     75  C   UNL A   1      40.098  35.237  37.035  1.00  0.00     0.173 A 
ATOM     76  F   UNL A   1      38.141  32.352  38.054  1.00  0.00    -0.203 F 
ATOM     77  C   UNL A   1      38.618  34.349  39.208  1.00  0.00     0.198 A 
ATOM     78  C   UNL A   1      39.980  36.031  38.173  1.00  0.00     0.198 A 
ATOM     79  F   UNL A   1      40.818  35.693  35.999  1.00  0.00    -0.203 F 
ATOM     80  F   UNL A   1      37.877  33.928  40.242  1.00  0.00    -0.200 F 
ATOM     81  C   UNL A   1      39.235  35.589  39.257  1.00  0.00     0.200 A 
ATOM     82  F   UNL A   1      40.589  37.224  38.222  1.00  0.00    -0.200 F 
ATOM     83  F   UNL A   1      39.107  36.361  40.344  1.00  0.00    -0.200 F 
ENDBRANCH  49  73
BRANCH  61  84
ATOM     84  C   UNL A   1      43.810  28.783  35.249  1.00  0.00     0.064 A 
ATOM     85  C   UNL A   1      45.125  29.224  35.039  1.00  0.00     0.173 A 
ATOM     86  C   UNL A   1      43.601  27.755  36.181  1.00  0.00     0.173 A 
ATOM     87  F   UNL A   1      45.377  30.192  34.147  1.00  0.00    -0.203 F 
ATOM     88  C   UNL A   1      46.191  28.644  35.722  1.00  0.00     0.198 A 
ATOM     89  C   UNL A   1      44.666  27.196  36.883  1.00  0.00     0.198 A 
ATOM     90  F   UNL A   1      42.361  27.301  36.421  1.00  0.00    -0.203 F 
ATOM     91  F   UNL A   1      47.443  29.052  35.475  1.00  0.00    -0.200 F 
ATOM     92  C   UNL A   1      45.960  27.636  36.649  1.00  0.00     0.200 A 
ATOM     93  F   UNL A   1      44.441  26.231  37.785  1.00  0.00    -0.200 F 
ATOM     94  F   UNL A   1      46.986  27.085  37.310  1.00  0.00    -0.200 F 
ENDBRANCH  61  84
ENDBRANCH  35  36
ENDBRANCH  27  30
ENDBRANCH  25  26
ENDBRANCH  24  25
ENDBRANCH  23  24
ENDBRANCH  22  23
ENDBRANCH   3  22
TORSDOF 17
ENDMDL
MODEL 2
REMARK VINA RESULT:     -10.9      2.112      8.166
REMARK SMILES C[NH2+]CCCC(=O)NC[C@@H]1CC[C@H](C(=O)NCCCCNC(=O)c2ccc(-c3c4nc(c(-c5c(F)c(F)c(F)c(F)c5F)c5ccc([nH]5)c(-c5c(F)c(F)c(F)c(F)c5F)c5nc(c(-c6c(F)c(F)c(F)c(F)c6F)c6ccc3[nH]6)C=C5)C=C4)cc2)O1
REMARK SMILES IDX 14 1 15 2 16 3 13 5 10 6 11 7 87 8 12 9 9 10 8 11 6 12 7 13
REMARK SMILES IDX 5 15 4 16 3 17 2 18 1 19 17 22 18 23 19 24 20 25 21 26 22 27
REMARK SMILES IDX 23 29 24 30 25 31 86 32 26 33 85 34 27 35 28 36 29 37 79 38
REMARK SMILES IDX 30 39 84 40 78 41 80 42 31 43 83 44 77 45 76 46 32 48 64 49
REMARK SMILES IDX 44 50 63 51 45 52 48 53 62 54 81 55 46 56 47 57 61 59 82 60
REMARK SMILES IDX 49 61 33 62 34 63 42 64 35 65 36 66 40 67 43 68 37 69 38 70
REMARK SMILES IDX 41 71 39 72 65 73 66 74 74 75 67 76 68 77 72 78 75 79 69 80
REMARK SMILES IDX 70 81 73 82 71 83 50 84 51 85 59 86 52 87 53 88 57 89 60 90
REMARK SMILES IDX 54 91 55 92 58 93 56 94
REMARK H PARENT 16 4 8 14 2 20 2 21 21 28 80 47 48 58
REMARK Flexibility Score: inf
ROOT
ATOM      1  C   UNL A   1      32.602  30.621  26.801  1.00  0.00     0.249 C 
ATOM      2  O   UNL A   1      31.623  30.882  26.095  1.00  0.00    -0.272 OA
ATOM      3  N   UNL A   1      33.198  31.662  27.451  1.00  0.00    -0.354 N 
ATOM      4  H   UNL A   1      32.775  32.540  27.308  1.00  0.00     0.163 HD
ENDROOT
BRANCH   1   5
ATOM      5  C   UNL A   1      33.134  29.174  26.904  1.00  0.00     0.207 C 
ATOM      6  C   UNL A   1      32.956  27.263  25.559  1.00  0.00     0.138 C 
ATOM      7  C   UNL A   1      31.852  27.165  26.603  1.00  0.00     0.037 C 
ATOM      8  O   UNL A   1      33.477  28.601  25.643  1.00  0.00    -0.363 OA
ATOM      9  C   UNL A   1      32.202  28.218  27.627  1.00  0.00     0.045 C 
BRANCH   6  10
ATOM     10  C   UNL A   1      32.499  27.023  24.103  1.00  0.00     0.147 C 
BRANCH  10  11
ATOM     11  N   UNL A   1      31.064  26.848  23.979  1.00  0.00    -0.353 N 
ATOM     12  C   UNL A   1      30.103  27.742  23.623  1.00  0.00     0.220 C 
ATOM     13  O   UNL A   1      28.951  27.331  23.471  1.00  0.00    -0.275 OA
ATOM     14  H   UNL A   1      30.736  25.943  24.183  1.00  0.00     0.163 HD
BRANCH  12  15
ATOM     15  C   UNL A   1      30.437  29.207  23.433  1.00  0.00     0.106 C 
BRANCH  15  16
ATOM     16  C   UNL A   1      30.220  29.686  21.994  1.00  0.00     0.071 C 
BRANCH  16  17
ATOM     17  C   UNL A   1      28.954  30.515  21.755  1.00  0.00     0.260 C 
BRANCH  17  18
ATOM     18  N   UNL A   1      27.914  30.338  22.777  1.00  0.00    -0.349 N 
ATOM     19  C   UNL A   1      27.651  31.576  23.502  1.00  0.00     0.330 C 
ATOM     20  H   UNL A   1      27.053  30.033  22.323  1.00  0.00     0.346 HD
ATOM     21  H   UNL A   1      28.242  29.642  23.446  1.00  0.00     0.346 HD
ENDBRANCH  17  18
ENDBRANCH  16  17
ENDBRANCH  15  16
ENDBRANCH  12  15
ENDBRANCH  10  11
ENDBRANCH   6  10
ENDBRANCH   1   5
BRANCH   3  22
ATOM     22  C   UNL A   1      34.354  31.675  28.318  1.00  0.00     0.116 C 
BRANCH  22  23
ATOM     23  C   UNL A   1      34.456  32.974  29.115  1.00  0.00     0.023 C 
BRANCH  23  24
ATOM     24  C   UNL A   1      33.397  34.012  28.745  1.00  0.00     0.023 C 
BRANCH  24  25
ATOM     25  C   UNL A   1      33.658  35.412  29.289  1.00  0.00     0.116 C 
BRANCH  25  26
ATOM     26  N   UNL A   1      32.656  35.873  30.239  1.00  0.00    -0.352 N 
ATOM     27  C   UNL A   1      32.658  35.728  31.610  1.00  0.00     0.251 C 
ATOM     28  H   UNL A   1      31.882  36.345  29.854  1.00  0.00     0.163 HD
ATOM     29  O   UNL A   1      31.712  36.096  32.281  1.00  0.00    -0.269 OA
BRANCH  27  30
ATOM     30  C   UNL A   1      33.820  35.064  32.245  1.00  0.00     0.039 A 
ATOM     31  C   UNL A   1      33.661  33.775  32.758  1.00  0.00     0.014 A 
ATOM     32  C   UNL A   1      35.073  35.682  32.255  1.00  0.00     0.014 A 
ATOM     33  C   UNL A   1      34.780  33.070  33.208  1.00  0.00     0.010 A 
ATOM     34  C   UNL A   1      36.195  34.953  32.635  1.00  0.00     0.010 A 
ATOM     35  C   UNL A   1      36.062  33.638  33.108  1.00  0.00    -0.014 A 
BRANCH  35  36
ATOM     36  C   UNL A   1      37.277  32.872  33.480  1.00  0.00     0.031 A 
ATOM     37  C   UNL A   1      37.994  33.174  34.765  1.00  0.00     0.074 A 
ATOM     38  C   UNL A   1      37.782  31.962  32.623  1.00  0.00     0.049 A 
ATOM     39  N   UNL A   1      39.114  32.676  35.226  1.00  0.00    -0.248 NA
ATOM     40  C   UNL A   1      37.388  34.196  35.631  1.00  0.00     0.031 C 
ATOM     41  C   UNL A   1      37.215  31.622  31.318  1.00  0.00     0.029 A 
ATOM     42  N   UNL A   1      38.900  31.169  32.717  1.00  0.00    -0.354 N 
ATOM     43  C   UNL A   1      39.353  33.335  36.424  1.00  0.00     0.074 A 
ATOM     44  C   UNL A   1      38.294  34.307  36.591  1.00  0.00     0.031 C 
ATOM     45  C   UNL A   1      37.975  30.677  30.741  1.00  0.00     0.029 A 
ATOM     46  C   UNL A   1      39.100  30.369  31.619  1.00  0.00     0.049 A 
ATOM     47  H   UNL A   1      39.500  31.174  33.497  1.00  0.00     0.167 HD
ATOM     48  C   UNL A   1      40.350  33.131  37.317  1.00  0.00     0.037 A 
ATOM     49  C   UNL A   1      40.084  29.489  31.349  1.00  0.00     0.037 A 
ATOM     50  C   UNL A   1      41.387  32.145  37.163  1.00  0.00     0.049 A 
ATOM     51  C   UNL A   1      41.173  29.268  32.362  1.00  0.00     0.074 A 
ATOM     52  C   UNL A   1      42.406  31.817  38.040  1.00  0.00     0.029 A 
ATOM     53  N   UNL A   1      41.537  31.327  36.053  1.00  0.00    -0.354 N 
ATOM     54  N   UNL A   1      41.349  29.846  33.526  1.00  0.00    -0.248 NA
ATOM     55  C   UNL A   1      42.196  28.267  32.029  1.00  0.00     0.031 C 
ATOM     56  C   UNL A   1      43.195  30.827  37.445  1.00  0.00     0.029 A 
ATOM     57  C   UNL A   1      42.642  30.506  36.216  1.00  0.00     0.049 A 
ATOM     58  H   UNL A   1      40.947  31.329  35.265  1.00  0.00     0.167 HD
ATOM     59  C   UNL A   1      42.483  29.264  34.074  1.00  0.00     0.074 A 
ATOM     60  C   UNL A   1      42.947  28.277  33.122  1.00  0.00     0.031 C 
ATOM     61  C   UNL A   1      43.086  29.524  35.260  1.00  0.00     0.037 A 
BRANCH  48  62
ATOM     62  C   UNL A   1      40.359  33.991  38.548  1.00  0.00     0.064 A 
ATOM     63  C   UNL A   1      39.642  33.631  39.700  1.00  0.00     0.173 A 
ATOM     64  C   UNL A   1      41.103  35.179  38.583  1.00  0.00     0.173 A 
ATOM     65  F   UNL A   1      38.904  32.510  39.712  1.00  0.00    -0.203 F 
ATOM     66  C   UNL A   1      39.641  34.447  40.828  1.00  0.00     0.198 A 
ATOM     67  C   UNL A   1      41.124  35.977  39.724  1.00  0.00     0.198 A 
ATOM     68  F   UNL A   1      41.811  35.567  37.511  1.00  0.00    -0.203 F 
ATOM     69  F   UNL A   1      38.902  34.111  41.894  1.00  0.00    -0.200 F 
ATOM     70  C   UNL A   1      40.386  35.615  40.841  1.00  0.00     0.200 A 
ATOM     71  F   UNL A   1      41.854  37.101  39.740  1.00  0.00    -0.200 F 
ATOM     72  F   UNL A   1      40.385  36.399  41.928  1.00  0.00    -0.200 F 
ENDBRANCH  48  62
BRANCH  49  73
ATOM     73  C   UNL A   1      40.062  28.725  30.075  1.00  0.00     0.064 A 
ATOM     74  C   UNL A   1      40.655  29.247  28.916  1.00  0.00     0.173 A 
ATOM     75  C   UNL A   1      39.462  27.462  29.989  1.00  0.00     0.173 A 
ATOM     76  F   UNL A   1      41.224  30.461  28.944  1.00  0.00    -0.203 F 
ATOM     77  C   UNL A   1      40.633  28.540  27.716  1.00  0.00     0.198 A 
ATOM     78  C   UNL A   1      39.462  26.745  28.795  1.00  0.00     0.198 A 
ATOM     79  F   UNL A   1      38.887  26.917  31.071  1.00  0.00    -0.203 F 
ATOM     80  F   UNL A   1      41.172  29.079  26.614  1.00  0.00    -0.200 F 
ATOM     81  C   UNL A   1      40.042  27.287  27.657  1.00  0.00     0.200 A 
ATOM     82  F   UNL A   1      38.902  25.528  28.746  1.00  0.00    -0.200 F 
ATOM     83  F   UNL A   1      40.027  26.605  26.505  1.00  0.00    -0.200 F 
ENDBRANCH  49  73
BRANCH  61  84
ATOM     84  C   UNL A   1      44.297  28.709  35.609  1.00  0.00     0.064 A 
ATOM     85  C   UNL A   1      44.190  27.483  36.281  1.00  0.00     0.173 A 
ATOM     86  C   UNL A   1      45.576  29.142  35.228  1.00  0.00     0.173 A 
ATOM     87  F   UNL A   1      42.990  27.035  36.680  1.00  0.00    -0.203 F 
ATOM     88  C   UNL A   1      45.322  26.729  36.577  1.00  0.00     0.198 A 
ATOM     89  C   UNL A   1      46.704  28.372  35.501  1.00  0.00     0.198 A 
ATOM     90  F   UNL A   1      45.731  30.306  34.578  1.00  0.00    -0.203 F 
ATOM     91  F   UNL A   1      45.201  25.581  37.258  1.00  0.00    -0.200 F 
ATOM     92  C   UNL A   1      46.577  27.170  36.181  1.00  0.00     0.200 A 
ATOM     93  F   UNL A   1      47.914  28.794  35.107  1.00  0.00    -0.200 F 
ATOM     94  F   UNL A   1      47.664  26.440  36.460  1.00  0.00    -0.200 F 
ENDBRANCH  61  84
ENDBRANCH  35  36
ENDBRANCH  27  30
ENDBRANCH  25  26
ENDBRANCH  24  25
ENDBRANCH  23  24
ENDBRANCH  22  23
ENDBRANCH   3  22
TORSDOF 17
ENDMDL
MODEL 3
REMARK VINA RESULT:     -10.6      1.696      7.791
REMARK SMILES C[NH2+]CCCC(=O)NC[C@@H]1CC[C@H](C(=O)NCCCCNC(=O)c2ccc(-c3c4nc(c(-c5c(F)c(F)c(F)c(F)c5F)c5ccc([nH]5)c(-c5c(F)c(F)c(F)c(F)c5F)c5nc(c(-c6c(F)c(F)c(F)c(F)c6F)c6ccc3[nH]6)C=C5)C=C4)cc2)O1
REMARK SMILES IDX 14 1 15 2 16 3 13 5 10 6 11 7 87 8 12 9 9 10 8 11 6 12 7 13
REMARK SMILES IDX 5 15 4 16 3 17 2 18 1 19 17 22 18 23 19 24 20 25 21 26 22 27
REMARK SMILES IDX 23 29 24 30 25 31 86 32 26 33 85 34 27 35 28 36 29 37 79 38
REMARK SMILES IDX 30 39 84 40 78 41 80 42 31 43 83 44 77 45 76 46 32 48 64 49
REMARK SMILES IDX 44 50 63 51 45 52 48 53 62 54 81 55 46 56 47 57 61 59 82 60
REMARK SMILES IDX 49 61 33 62 34 63 42 64 35 65 36 66 40 67 43 68 37 69 38 70
REMARK SMILES IDX 41 71 39 72 65 73 66 74 74 75 67 76 68 77 72 78 75 79 69 80
REMARK SMILES IDX 70 81 73 82 71 83 50 84 51 85 59 86 52 87 53 88 57 89 60 90
REMARK SMILES IDX 54 91 55 92 58 93 56 94
REMARK H PARENT 16 4 8 14 2 20 2 21 21 28 80 47 48 58
REMARK Flexibility Score: inf
ROOT
ATOM      1  C   UNL A   1      32.697  30.585  27.000  1.00  0.00     0.249 C 
ATOM      2  O   UNL A   1      31.829  30.861  26.165  1.00  0.00    -0.272 OA
ATOM      3  N   UNL A   1      33.404  31.626  27.530  1.00  0.00    -0.354 N 
ATOM      4  H   UNL A   1      33.142  32.517  27.205  1.00  0.00     0.163 HD
ENDROOT
BRANCH   1   5
ATOM      5  C   UNL A   1      32.978  29.118  27.390  1.00  0.00     0.207 C 
ATOM      6  C   UNL A   1      33.374  27.149  26.181  1.00  0.00     0.138 C 
ATOM      7  C   UNL A   1      31.883  27.177  26.491  1.00  0.00     0.037 C 
ATOM      8  O   UNL A   1      33.881  28.455  26.505  1.00  0.00    -0.363 OA
ATOM      9  C   UNL A   1      31.731  28.261  27.530  1.00  0.00     0.045 C 
BRANCH   6  10
ATOM     10  C   UNL A   1      33.727  26.857  24.706  1.00  0.00     0.147 C 
BRANCH  10  11
ATOM     11  N   UNL A   1      33.236  25.570  24.247  1.00  0.00    -0.353 N 
ATOM     12  C   UNL A   1      33.638  24.314  24.578  1.00  0.00     0.220 C 
ATOM     13  O   UNL A   1      32.988  23.360  24.145  1.00  0.00    -0.275 OA
ATOM     14  H   UNL A   1      32.498  25.614  23.597  1.00  0.00     0.163 HD
BRANCH  12  15
ATOM     15  C   UNL A   1      34.861  24.092  25.443  1.00  0.00     0.106 C 
BRANCH  15  16
ATOM     16  C   UNL A   1      35.777  22.987  24.909  1.00  0.00     0.071 C 
BRANCH  16  17
ATOM     17  C   UNL A   1      35.561  21.597  25.514  1.00  0.00     0.260 C 
BRANCH  17  18
ATOM     18  N   UNL A   1      35.192  21.606  26.935  1.00  0.00    -0.349 N 
ATOM     19  C   UNL A   1      33.807  21.195  27.137  1.00  0.00     0.330 C 
ATOM     20  H   UNL A   1      35.803  20.965  27.440  1.00  0.00     0.346 HD
ATOM     21  H   UNL A   1      35.294  22.559  27.283  1.00  0.00     0.346 HD
ENDBRANCH  17  18
ENDBRANCH  16  17
ENDBRANCH  15  16
ENDBRANCH  12  15
ENDBRANCH  10  11
ENDBRANCH   6  10
ENDBRANCH   1   5
BRANCH   3  22
ATOM     22  C   UNL A   1      34.478  31.620  28.497  1.00  0.00     0.116 C 
BRANCH  22  23
ATOM     23  C   UNL A   1      34.581  32.948  29.244  1.00  0.00     0.023 C 
BRANCH  23  24
ATOM     24  C   UNL A   1      33.507  33.963  28.855  1.00  0.00     0.023 C 
BRANCH  24  25
ATOM     25  C   UNL A   1      33.737  35.373  29.387  1.00  0.00     0.116 C 
BRANCH  25  26
ATOM     26  N   UNL A   1      32.742  35.809  30.354  1.00  0.00    -0.352 N 
ATOM     27  C   UNL A   1      32.762  35.644  31.724  1.00  0.00     0.251 C 
ATOM     28  H   UNL A   1      31.958  36.278  29.986  1.00  0.00     0.163 HD
ATOM     29  O   UNL A   1      31.820  35.992  32.411  1.00  0.00    -0.269 OA
BRANCH  27  30
ATOM     30  C   UNL A   1      33.938  34.984  32.335  1.00  0.00     0.039 A 
ATOM     31  C   UNL A   1      33.791  33.698  32.859  1.00  0.00     0.014 A 
ATOM     32  C   UNL A   1      35.191  35.601  32.311  1.00  0.00     0.014 A 
ATOM     33  C   UNL A   1      34.920  32.996  33.287  1.00  0.00     0.010 A 
ATOM     34  C   UNL A   1      36.321  34.875  32.669  1.00  0.00     0.010 A 
ATOM     35  C   UNL A   1      36.199  33.562  33.153  1.00  0.00    -0.014 A 
BRANCH  35  36
ATOM     36  C   UNL A   1      37.423  32.798  33.501  1.00  0.00     0.031 A 
ATOM     37  C   UNL A   1      38.159  33.094  34.777  1.00  0.00     0.074 A 
ATOM     38  C   UNL A   1      37.918  31.895  32.631  1.00  0.00     0.049 A 
ATOM     39  N   UNL A   1      39.288  32.597  35.216  1.00  0.00    -0.248 NA
ATOM     40  C   UNL A   1      37.563  34.109  35.659  1.00  0.00     0.031 C 
ATOM     41  C   UNL A   1      37.331  31.561  31.333  1.00  0.00     0.029 A 
ATOM     42  N   UNL A   1      39.039  31.105  32.702  1.00  0.00    -0.354 N 
ATOM     43  C   UNL A   1      39.544  33.250  36.415  1.00  0.00     0.074 A 
ATOM     44  C   UNL A   1      38.484  34.217  36.605  1.00  0.00     0.031 C 
ATOM     45  C   UNL A   1      38.084  30.623  30.738  1.00  0.00     0.029 A 
ATOM     46  C   UNL A   1      39.225  30.313  31.596  1.00  0.00     0.049 A 
ATOM     47  H   UNL A   1      39.652  31.108  33.472  1.00  0.00     0.167 HD
ATOM     48  C   UNL A   1      40.556  33.044  37.291  1.00  0.00     0.037 A 
ATOM     49  C   UNL A   1      40.207  29.438  31.305  1.00  0.00     0.037 A 
ATOM     50  C   UNL A   1      41.593  32.062  37.114  1.00  0.00     0.049 A 
ATOM     51  C   UNL A   1      41.312  29.215  32.300  1.00  0.00     0.074 A 
ATOM     52  C   UNL A   1      42.627  31.733  37.973  1.00  0.00     0.029 A 
ATOM     53  N   UNL A   1      41.728  31.252  35.996  1.00  0.00    -0.354 N 
ATOM     54  N   UNL A   1      41.505  29.785  33.464  1.00  0.00    -0.248 NA
ATOM     55  C   UNL A   1      42.334  28.219  31.944  1.00  0.00     0.031 C 
ATOM     56  C   UNL A   1      43.410  30.749  37.359  1.00  0.00     0.029 A 
ATOM     57  C   UNL A   1      42.838  30.433  36.137  1.00  0.00     0.049 A 
ATOM     58  H   UNL A   1      41.126  31.256  35.218  1.00  0.00     0.167 HD
ATOM     59  C   UNL A   1      42.650  29.204  33.990  1.00  0.00     0.074 A 
ATOM     60  C   UNL A   1      43.102  28.225  33.024  1.00  0.00     0.031 C 
ATOM     61  C   UNL A   1      43.271  29.459  35.168  1.00  0.00     0.037 A 
BRANCH  48  62
ATOM     62  C   UNL A   1      40.581  33.896  38.527  1.00  0.00     0.064 A 
ATOM     63  C   UNL A   1      39.855  33.544  39.675  1.00  0.00     0.173 A 
ATOM     64  C   UNL A   1      41.350  35.068  38.570  1.00  0.00     0.173 A 
ATOM     65  F   UNL A   1      39.093  32.440  39.680  1.00  0.00    -0.203 F 
ATOM     66  C   UNL A   1      39.869  34.354  40.808  1.00  0.00     0.198 A 
ATOM     67  C   UNL A   1      41.387  35.858  39.716  1.00  0.00     0.198 A 
ATOM     68  F   UNL A   1      42.068  35.446  37.502  1.00  0.00    -0.203 F 
ATOM     69  F   UNL A   1      39.122  34.027  41.871  1.00  0.00    -0.200 F 
ATOM     70  C   UNL A   1      40.639  35.505  40.830  1.00  0.00     0.200 A 
ATOM     71  F   UNL A   1      42.141  36.966  39.740  1.00  0.00    -0.200 F 
ATOM     72  F   UNL A   1      40.653  36.283  41.922  1.00  0.00    -0.200 F 
ENDBRANCH  48  62
BRANCH  49  73
ATOM     73  C   UNL A   1      40.168  28.682  30.026  1.00  0.00     0.064 A 
ATOM     74  C   UNL A   1      40.774  29.196  28.871  1.00  0.00     0.173 A 
ATOM     75  C   UNL A   1      39.537  27.434  29.934  1.00  0.00     0.173 A 
ATOM     76  F   UNL A   1      41.372  30.395  28.906  1.00  0.00    -0.203 F 
ATOM     77  C   UNL A   1      40.735  28.497  27.667  1.00  0.00     0.198 A 
ATOM     78  C   UNL A   1      39.521  26.724  28.735  1.00  0.00     0.198 A 
ATOM     79  F   UNL A   1      38.948  26.897  31.012  1.00  0.00    -0.203 F 
ATOM     80  F   UNL A   1      41.288  29.028  26.568  1.00  0.00    -0.200 F 
ATOM     81  C   UNL A   1      40.114  27.258  27.601  1.00  0.00     0.200 A 
ATOM     82  F   UNL A   1      38.931  25.522  28.679  1.00  0.00    -0.200 F 
ATOM     83  F   UNL A   1      40.083  26.583  26.444  1.00  0.00    -0.200 F 
ENDBRANCH  49  73
BRANCH  61  84
ATOM     84  C   UNL A   1      44.490  28.646  35.493  1.00  0.00     0.064 A 
ATOM     85  C   UNL A   1      44.400  27.430  36.184  1.00  0.00     0.173 A 
ATOM     86  C   UNL A   1      45.758  29.071  35.068  1.00  0.00     0.173 A 
ATOM     87  F   UNL A   1      43.212  26.990  36.624  1.00  0.00    -0.203 F 
ATOM     88  C   UNL A   1      45.539  26.677  36.458  1.00  0.00     0.198 A 
ATOM     89  C   UNL A   1      46.891  28.302  35.319  1.00  0.00     0.198 A 
ATOM     90  F   UNL A   1      45.896  30.225  34.399  1.00  0.00    -0.203 F 
ATOM     91  F   UNL A   1      45.435  25.538  37.157  1.00  0.00    -0.200 F 
ATOM     92  C   UNL A   1      46.782  27.110  36.019  1.00  0.00     0.200 A 
ATOM     93  F   UNL A   1      48.090  28.716  34.885  1.00  0.00    -0.200 F 
ATOM     94  F   UNL A   1      47.876  26.381  36.276  1.00  0.00    -0.200 F 
ENDBRANCH  61  84
ENDBRANCH  35  36
ENDBRANCH  27  30
ENDBRANCH  25  26
ENDBRANCH  24  25
ENDBRANCH  23  24
ENDBRANCH  22  23
ENDBRANCH   3  22
TORSDOF 17
ENDMDL
