MODEL 1
REMARK VINA RESULT:     -12.7      0.000      0.000
REMARK SMILES C[C@@H](C(=O)NCCCCNC(=O)c1ccc(-c2c3nc(c(-c4c(F)c(F)c(F)c(F)c4F)c4ccc([nH]4)c(-c4c(F)c(F)c(F)c(F)c4F)c4nc(c(-c5c(F)c(F)c(F)c(F)c5F)c5ccc2[nH]5)C=C4)C=C3)cc1)N(C)c1ccc(C(N)=O)nn1
REMARK SMILES IDX 7 1 6 2 5 3 3 4 4 5 2 7 1 8 76 9 77 10 78 11 79 12 86 13
REMARK SMILES IDX 80 14 85 15 81 16 82 17 83 18 84 19 8 22 9 23 10 24 11 25
REMARK SMILES IDX 12 27 13 28 14 29 75 30 15 31 74 32 16 33 17 34 18 35 68 36
REMARK SMILES IDX 19 37 73 38 67 39 69 40 20 41 72 42 66 43 65 44 21 46 53 47
REMARK SMILES IDX 33 48 52 49 34 50 37 51 51 52 70 53 35 54 36 55 50 57 71 58
REMARK SMILES IDX 38 59 22 60 23 61 31 62 24 63 25 64 29 65 32 66 26 67 27 68
REMARK SMILES IDX 30 69 28 70 54 71 55 72 63 73 56 74 57 75 61 76 64 77 58 78
REMARK SMILES IDX 59 79 62 80 60 81 39 82 40 83 48 84 41 85 42 86 46 87 49 88
REMARK SMILES IDX 43 89 44 90 47 91 45 92
REMARK H PARENT 5 6 83 20 83 21 10 26 69 45 37 56
REMARK Flexibility Score: inf
ROOT
ATOM      1  C   UNL A   1      32.023  30.206  26.963  1.00  0.00     0.023 C 
ENDROOT
BRANCH   1   2
ATOM      2  C   UNL A   1      33.413  29.692  26.584  1.00  0.00     0.116 C 
BRANCH   2   3
ATOM      3  N   UNL A   1      33.601  29.684  25.149  1.00  0.00    -0.354 N 
ATOM      4  C   UNL A   1      32.995  28.934  24.179  1.00  0.00     0.242 C 
ATOM      5  O   UNL A   1      33.388  29.129  23.027  1.00  0.00    -0.273 OA
ATOM      6  H   UNL A   1      34.273  30.322  24.817  1.00  0.00     0.163 HD
BRANCH   4   7
ATOM      7  C   UNL A   1      31.833  27.960  24.544  1.00  0.00     0.169 C 
ATOM      8  C   UNL A   1      32.290  26.559  24.948  1.00  0.00     0.042 C 
BRANCH   7   9
ATOM      9  N   UNL A   1      30.769  27.905  23.502  1.00  0.00    -0.346 N 
ATOM     10  C   UNL A   1      29.912  26.721  23.530  1.00  0.00     0.146 C 
BRANCH   9  11
ATOM     11  C   UNL A   1      30.127  29.056  23.034  1.00  0.00     0.151 A 
ATOM     12  C   UNL A   1      29.724  30.084  23.882  1.00  0.00     0.051 A 
ATOM     13  N   UNL A   1      29.921  29.220  21.702  1.00  0.00    -0.132 NA
ATOM     14  C   UNL A   1      29.083  31.220  23.383  1.00  0.00     0.040 A 
ATOM     15  N   UNL A   1      29.276  30.330  21.185  1.00  0.00    -0.143 NA
ATOM     16  C   UNL A   1      28.863  31.298  22.026  1.00  0.00     0.150 A 
BRANCH  16  17
ATOM     17  C   UNL A   1      28.168  32.472  21.432  1.00  0.00     0.269 C 
ATOM     18  N   UNL A   1      27.719  32.324  20.147  1.00  0.00    -0.364 N 
ATOM     19  O   UNL A   1      27.997  33.514  22.054  1.00  0.00    -0.268 OA
ATOM     20  H   UNL A   1      27.869  31.477  19.669  1.00  0.00     0.160 HD
ATOM     21  H   UNL A   1      27.248  33.065  19.702  1.00  0.00     0.160 HD
ENDBRANCH  16  17
ENDBRANCH   9  11
ENDBRANCH   7   9
ENDBRANCH   4   7
ENDBRANCH   2   3
ENDBRANCH   1   2
BRANCH   1  22
ATOM     22  C   UNL A   1      31.829  31.715  26.785  1.00  0.00     0.023 C 
BRANCH  22  23
ATOM     23  C   UNL A   1      32.921  32.583  27.398  1.00  0.00     0.116 C 
BRANCH  23  24
ATOM     24  N   UNL A   1      32.489  33.947  27.664  1.00  0.00    -0.352 N 
ATOM     25  C   UNL A   1      33.010  34.843  28.568  1.00  0.00     0.251 C 
ATOM     26  H   UNL A   1      31.729  34.270  27.128  1.00  0.00     0.163 HD
ATOM     27  O   UNL A   1      32.475  35.929  28.756  1.00  0.00    -0.269 OA
BRANCH  25  28
ATOM     28  C   UNL A   1      34.204  34.459  29.345  1.00  0.00     0.039 A 
ATOM     29  C   UNL A   1      34.037  33.812  30.572  1.00  0.00     0.014 A 
ATOM     30  C   UNL A   1      35.482  34.685  28.828  1.00  0.00     0.014 A 
ATOM     31  C   UNL A   1      35.154  33.315  31.247  1.00  0.00     0.010 A 
ATOM     32  C   UNL A   1      36.586  34.136  29.469  1.00  0.00     0.010 A 
ATOM     33  C   UNL A   1      36.431  33.437  30.677  1.00  0.00    -0.014 A 
BRANCH  33  34
ATOM     34  C   UNL A   1      37.633  32.834  31.304  1.00  0.00     0.031 A 
ATOM     35  C   UNL A   1      38.310  31.671  30.642  1.00  0.00     0.074 A 
ATOM     36  C   UNL A   1      38.026  33.244  32.523  1.00  0.00     0.049 A 
ATOM     37  N   UNL A   1      39.240  30.877  31.106  1.00  0.00    -0.248 NA
ATOM     38  C   UNL A   1      37.849  31.334  29.287  1.00  0.00     0.031 C 
ATOM     39  C   UNL A   1      37.417  34.331  33.289  1.00  0.00     0.029 A 
ATOM     40  N   UNL A   1      39.011  32.764  33.351  1.00  0.00    -0.354 N 
ATOM     41  C   UNL A   1      39.446  29.923  30.119  1.00  0.00     0.074 A 
ATOM     42  C   UNL A   1      38.523  30.220  29.044  1.00  0.00     0.031 C 
ATOM     43  C   UNL A   1      38.034  34.431  34.477  1.00  0.00     0.029 A 
ATOM     44  C   UNL A   1      39.053  33.389  34.572  1.00  0.00     0.049 A 
ATOM     45  H   UNL A   1      39.628  32.040  33.093  1.00  0.00     0.167 HD
ATOM     46  C   UNL A   1      40.333  28.900  30.110  1.00  0.00     0.037 A 
ATOM     47  C   UNL A   1      39.809  33.136  35.657  1.00  0.00     0.037 A 
ATOM     48  C   UNL A   1      41.275  28.636  31.165  1.00  0.00     0.049 A 
ATOM     49  C   UNL A   1      40.811  32.016  35.613  1.00  0.00     0.074 A 
ATOM     50  C   UNL A   1      42.272  27.679  31.213  1.00  0.00     0.029 A 
ATOM     51  N   UNL A   1      41.331  29.335  32.362  1.00  0.00    -0.354 N 
ATOM     52  N   UNL A   1      41.044  31.157  34.650  1.00  0.00    -0.248 NA
ATOM     53  C   UNL A   1      41.655  31.830  36.801  1.00  0.00     0.031 C 
ATOM     54  C   UNL A   1      42.909  27.774  32.455  1.00  0.00     0.029 A 
ATOM     55  C   UNL A   1      42.336  28.818  33.164  1.00  0.00     0.049 A 
ATOM     56  H   UNL A   1      40.744  30.087  32.606  1.00  0.00     0.167 HD
ATOM     57  C   UNL A   1      42.076  30.346  35.104  1.00  0.00     0.074 A 
ATOM     58  C   UNL A   1      42.427  30.819  36.427  1.00  0.00     0.031 C 
ATOM     59  C   UNL A   1      42.678  29.306  34.477  1.00  0.00     0.037 A 
BRANCH  46  60
ATOM     60  C   UNL A   1      40.312  27.985  28.921  1.00  0.00     0.064 A 
ATOM     61  C   UNL A   1      39.581  26.787  28.923  1.00  0.00     0.173 A 
ATOM     62  C   UNL A   1      41.034  28.312  27.763  1.00  0.00     0.173 A 
ATOM     63  F   UNL A   1      38.886  26.422  30.010  1.00  0.00    -0.203 F 
ATOM     64  C   UNL A   1      39.607  25.931  27.825  1.00  0.00     0.198 A 
ATOM     65  C   UNL A   1      41.031  27.468  26.655  1.00  0.00     0.198 A 
ATOM     66  F   UNL A   1      41.745  29.448  27.706  1.00  0.00    -0.203 F 
ATOM     67  F   UNL A   1      38.952  24.763  27.874  1.00  0.00    -0.200 F 
ATOM     68  C   UNL A   1      40.328  26.274  26.691  1.00  0.00     0.200 A 
ATOM     69  F   UNL A   1      41.720  27.806  25.557  1.00  0.00    -0.200 F 
ATOM     70  F   UNL A   1      40.354  25.447  25.637  1.00  0.00    -0.200 F 
ENDBRANCH  46  60
BRANCH  47  71
ATOM     71  C   UNL A   1      39.649  33.977  36.870  1.00  0.00     0.064 A 
ATOM     72  C   UNL A   1      40.269  35.229  36.963  1.00  0.00     0.173 A 
ATOM     73  C   UNL A   1      38.840  33.565  37.939  1.00  0.00     0.173 A 
ATOM     74  F   UNL A   1      41.065  35.655  35.971  1.00  0.00    -0.203 F 
ATOM     75  C   UNL A   1      40.090  36.038  38.082  1.00  0.00     0.198 A 
ATOM     76  C   UNL A   1      38.645  34.384  39.050  1.00  0.00     0.198 A 
ATOM     77  F   UNL A   1      38.220  32.376  37.893  1.00  0.00    -0.203 F 
ATOM     78  F   UNL A   1      40.714  37.221  38.157  1.00  0.00    -0.200 F 
ATOM     79  C   UNL A   1      39.273  35.618  39.121  1.00  0.00     0.200 A 
ATOM     80  F   UNL A   1      37.843  33.981  40.044  1.00  0.00    -0.200 F 
ATOM     81  F   UNL A   1      39.091  36.403  40.191  1.00  0.00    -0.200 F 
ENDBRANCH  47  71
BRANCH  59  82
ATOM     82  C   UNL A   1      43.805  28.625  35.194  1.00  0.00     0.064 A 
ATOM     83  C   UNL A   1      45.130  29.065  35.064  1.00  0.00     0.173 A 
ATOM     84  C   UNL A   1      43.545  27.561  36.071  1.00  0.00     0.173 A 
ATOM     85  F   UNL A   1      45.430  30.068  34.226  1.00  0.00    -0.203 F 
ATOM     86  C   UNL A   1      46.156  28.456  35.782  1.00  0.00     0.198 A 
ATOM     87  C   UNL A   1      44.570  26.971  36.803  1.00  0.00     0.198 A 
ATOM     88  F   UNL A   1      42.292  27.109  36.230  1.00  0.00    -0.203 F 
ATOM     89  F   UNL A   1      47.420  28.872  35.622  1.00  0.00    -0.200 F 
ATOM     90  C   UNL A   1      45.875  27.417  36.657  1.00  0.00     0.200 A 
ATOM     91  F   UNL A   1      44.294  25.975  37.657  1.00  0.00    -0.200 F 
ATOM     92  F   UNL A   1      46.863  26.842  37.357  1.00  0.00    -0.200 F 
ENDBRANCH  59  82
ENDBRANCH  33  34
ENDBRANCH  25  28
ENDBRANCH  23  24
ENDBRANCH  22  23
ENDBRANCH   1  22
TORSDOF 14
ENDMDL
MODEL 2
REMARK VINA RESULT:     -12.6      0.143      1.627
REMARK SMILES C[C@@H](C(=O)NCCCCNC(=O)c1ccc(-c2c3nc(c(-c4c(F)c(F)c(F)c(F)c4F)c4ccc([nH]4)c(-c4c(F)c(F)c(F)c(F)c4F)c4nc(c(-c5c(F)c(F)c(F)c(F)c5F)c5ccc2[nH]5)C=C4)C=C3)cc1)N(C)c1ccc(C(N)=O)nn1
REMARK SMILES IDX 7 1 6 2 5 3 3 4 4 5 2 7 1 8 76 9 77 10 78 11 79 12 86 13
REMARK SMILES IDX 80 14 85 15 81 16 82 17 83 18 84 19 8 22 9 23 10 24 11 25
REMARK SMILES IDX 12 27 13 28 14 29 75 30 15 31 74 32 16 33 17 34 18 35 68 36
REMARK SMILES IDX 19 37 73 38 67 39 69 40 20 41 72 42 66 43 65 44 21 46 53 47
REMARK SMILES IDX 33 48 52 49 34 50 37 51 51 52 70 53 35 54 36 55 50 57 71 58
REMARK SMILES IDX 38 59 22 60 23 61 31 62 24 63 25 64 29 65 32 66 26 67 27 68
REMARK SMILES IDX 30 69 28 70 54 71 55 72 63 73 56 74 57 75 61 76 64 77 58 78
REMARK SMILES IDX 59 79 62 80 60 81 39 82 40 83 48 84 41 85 42 86 46 87 49 88
REMARK SMILES IDX 43 89 44 90 47 91 45 92
REMARK H PARENT 5 6 83 20 83 21 10 26 69 45 37 56
REMARK Flexibility Score: inf
ROOT
ATOM      1  C   UNL A   1      32.060  30.232  26.869  1.00  0.00     0.023 C 
ENDROOT
BRANCH   1   2
ATOM      2  C   UNL A   1      33.492  29.785  26.573  1.00  0.00     0.116 C 
BRANCH   2   3
ATOM      3  N   UNL A   1      33.696  29.565  25.157  1.00  0.00    -0.354 N 
ATOM      4  C   UNL A   1      32.976  28.821  24.263  1.00  0.00     0.242 C 
ATOM      5  O   UNL A   1      33.414  28.796  23.111  1.00  0.00    -0.273 OA
ATOM      6  H   UNL A   1      34.478  30.024  24.776  1.00  0.00     0.163 HD
BRANCH   4   7
ATOM      7  C   UNL A   1      31.650  28.126  24.700  1.00  0.00     0.169 C 
ATOM      8  C   UNL A   1      31.845  26.782  25.401  1.00  0.00     0.042 C 
BRANCH   7   9
ATOM      9  N   UNL A   1      30.655  28.024  23.596  1.00  0.00    -0.346 N 
ATOM     10  C   UNL A   1      29.819  26.824  23.603  1.00  0.00     0.146 C 
BRANCH   9  11
ATOM     11  C   UNL A   1      30.022  29.149  23.059  1.00  0.00     0.151 A 
ATOM     12  C   UNL A   1      29.617  30.225  23.844  1.00  0.00     0.051 A 
ATOM     13  N   UNL A   1      29.828  29.240  21.718  1.00  0.00    -0.132 NA
ATOM     14  C   UNL A   1      28.986  31.333  23.277  1.00  0.00     0.040 A 
ATOM     15  N   UNL A   1      29.193  30.322  21.134  1.00  0.00    -0.143 NA
ATOM     16  C   UNL A   1      28.778  31.337  21.916  1.00  0.00     0.150 A 
BRANCH  16  17
ATOM     17  C   UNL A   1      28.093  32.478  21.251  1.00  0.00     0.269 C 
ATOM     18  N   UNL A   1      27.675  32.269  19.964  1.00  0.00    -0.364 N 
ATOM     19  O   UNL A   1      27.906  33.548  21.819  1.00  0.00    -0.268 OA
ATOM     20  H   UNL A   1      27.838  31.401  19.530  1.00  0.00     0.160 HD
ATOM     21  H   UNL A   1      27.213  32.986  19.474  1.00  0.00     0.160 HD
ENDBRANCH  16  17
ENDBRANCH   9  11
ENDBRANCH   7   9
ENDBRANCH   4   7
ENDBRANCH   2   3
ENDBRANCH   1   2
BRANCH   1  22
ATOM     22  C   UNL A   1      31.836  31.746  26.802  1.00  0.00     0.023 C 
BRANCH  22  23
ATOM     23  C   UNL A   1      32.909  32.589  27.480  1.00  0.00     0.116 C 
BRANCH  23  24
ATOM     24  N   UNL A   1      32.499  33.967  27.705  1.00  0.00    -0.352 N 
ATOM     25  C   UNL A   1      33.043  34.884  28.574  1.00  0.00     0.251 C 
ATOM     26  H   UNL A   1      31.737  34.283  27.167  1.00  0.00     0.163 HD
ATOM     27  O   UNL A   1      32.526  35.984  28.731  1.00  0.00    -0.269 OA
BRANCH  25  28
ATOM     28  C   UNL A   1      34.241  34.509  29.350  1.00  0.00     0.039 A 
ATOM     29  C   UNL A   1      34.078  33.944  30.618  1.00  0.00     0.014 A 
ATOM     30  C   UNL A   1      35.514  34.659  28.795  1.00  0.00     0.014 A 
ATOM     31  C   UNL A   1      35.193  33.453  31.300  1.00  0.00     0.010 A 
ATOM     32  C   UNL A   1      36.613  34.114  29.447  1.00  0.00     0.010 A 
ATOM     33  C   UNL A   1      36.460  33.496  30.700  1.00  0.00    -0.014 A 
BRANCH  33  34
ATOM     34  C   UNL A   1      37.655  32.892  31.339  1.00  0.00     0.031 A 
ATOM     35  C   UNL A   1      38.342  31.731  30.682  1.00  0.00     0.074 A 
ATOM     36  C   UNL A   1      38.034  33.299  32.564  1.00  0.00     0.049 A 
ATOM     37  N   UNL A   1      39.266  30.936  31.156  1.00  0.00    -0.248 NA
ATOM     38  C   UNL A   1      37.896  31.397  29.321  1.00  0.00     0.031 C 
ATOM     39  C   UNL A   1      37.414  34.384  33.325  1.00  0.00     0.029 A 
ATOM     40  N   UNL A   1      39.009  32.817  33.403  1.00  0.00    -0.354 N 
ATOM     41  C   UNL A   1      39.485  29.985  30.169  1.00  0.00     0.074 A 
ATOM     42  C   UNL A   1      38.575  30.284  29.084  1.00  0.00     0.031 C 
ATOM     43  C   UNL A   1      38.017  34.480  34.521  1.00  0.00     0.029 A 
ATOM     44  C   UNL A   1      39.036  33.440  34.626  1.00  0.00     0.049 A 
ATOM     45  H   UNL A   1      39.629  32.095  33.150  1.00  0.00     0.167 HD
ATOM     46  C   UNL A   1      40.373  28.963  30.168  1.00  0.00     0.037 A 
ATOM     47  C   UNL A   1      39.779  33.184  35.719  1.00  0.00     0.037 A 
ATOM     48  C   UNL A   1      41.301  28.697  31.234  1.00  0.00     0.049 A 
ATOM     49  C   UNL A   1      40.781  32.064  35.684  1.00  0.00     0.074 A 
ATOM     50  C   UNL A   1      42.299  27.740  31.291  1.00  0.00     0.029 A 
ATOM     51  N   UNL A   1      41.343  29.393  32.433  1.00  0.00    -0.354 N 
ATOM     52  N   UNL A   1      41.027  31.208  34.722  1.00  0.00    -0.248 NA
ATOM     53  C   UNL A   1      41.611  31.876  36.882  1.00  0.00     0.031 C 
ATOM     54  C   UNL A   1      42.921  27.832  32.542  1.00  0.00     0.029 A 
ATOM     55  C   UNL A   1      42.338  28.874  33.246  1.00  0.00     0.049 A 
ATOM     56  H   UNL A   1      40.753  30.144  32.672  1.00  0.00     0.167 HD
ATOM     57  C   UNL A   1      42.054  30.397  35.186  1.00  0.00     0.074 A 
ATOM     58  C   UNL A   1      42.389  30.866  36.515  1.00  0.00     0.031 C 
ATOM     59  C   UNL A   1      42.664  29.359  34.564  1.00  0.00     0.037 A 
BRANCH  46  60
ATOM     60  C   UNL A   1      40.367  28.051  28.977  1.00  0.00     0.064 A 
ATOM     61  C   UNL A   1      41.082  28.356  27.808  1.00  0.00     0.173 A 
ATOM     62  C   UNL A   1      39.636  26.854  29.004  1.00  0.00     0.173 A 
ATOM     63  F   UNL A   1      41.786  29.495  27.726  1.00  0.00    -0.203 F 
ATOM     64  C   UNL A   1      41.032  27.517  26.698  1.00  0.00     0.198 A 
ATOM     65  C   UNL A   1      39.614  26.001  27.903  1.00  0.00     0.198 A 
ATOM     66  F   UNL A   1      38.939  26.511  30.098  1.00  0.00    -0.203 F 
ATOM     67  F   UNL A   1      41.672  27.860  25.572  1.00  0.00    -0.200 F 
ATOM     68  C   UNL A   1      40.302  26.339  26.748  1.00  0.00     0.200 A 
ATOM     69  F   UNL A   1      38.916  24.859  27.957  1.00  0.00    -0.200 F 
ATOM     70  F   UNL A   1      40.252  25.535  25.677  1.00  0.00    -0.200 F 
ENDBRANCH  46  60
BRANCH  47  71
ATOM     71  C   UNL A   1      39.603  34.021  36.932  1.00  0.00     0.064 A 
ATOM     72  C   UNL A   1      40.225  35.271  37.038  1.00  0.00     0.173 A 
ATOM     73  C   UNL A   1      38.777  33.609  37.988  1.00  0.00     0.173 A 
ATOM     74  F   UNL A   1      41.038  35.698  36.059  1.00  0.00    -0.203 F 
ATOM     75  C   UNL A   1      40.033  36.077  38.157  1.00  0.00     0.198 A 
ATOM     76  C   UNL A   1      38.569  34.425  39.098  1.00  0.00     0.198 A 
ATOM     77  F   UNL A   1      38.154  32.423  37.929  1.00  0.00    -0.203 F 
ATOM     78  F   UNL A   1      40.659  37.258  38.245  1.00  0.00    -0.200 F 
ATOM     79  C   UNL A   1      39.199  35.657  39.183  1.00  0.00     0.200 A 
ATOM     80  F   UNL A   1      37.750  34.022  40.079  1.00  0.00    -0.200 F 
ATOM     81  F   UNL A   1      39.003  36.440  40.252  1.00  0.00    -0.200 F 
ENDBRANCH  47  71
BRANCH  59  82
ATOM     82  C   UNL A   1      43.782  28.677  35.293  1.00  0.00     0.064 A 
ATOM     83  C   UNL A   1      43.553  27.565  36.115  1.00  0.00     0.173 A 
ATOM     84  C   UNL A   1      45.108  29.104  35.113  1.00  0.00     0.173 A 
ATOM     85  F   UNL A   1      42.303  27.130  36.329  1.00  0.00    -0.203 F 
ATOM     86  C   UNL A   1      44.611  26.910  36.739  1.00  0.00     0.198 A 
ATOM     87  C   UNL A   1      46.164  28.432  35.721  1.00  0.00     0.198 A 
ATOM     88  F   UNL A   1      45.376  30.161  34.333  1.00  0.00    -0.203 F 
ATOM     89  F   UNL A   1      44.369  25.866  37.545  1.00  0.00    -0.200 F 
ATOM     90  C   UNL A   1      45.916  27.337  36.535  1.00  0.00     0.200 A 
ATOM     91  F   UNL A   1      47.424  28.840  35.512  1.00  0.00    -0.200 F 
ATOM     92  F   UNL A   1      46.933  26.696  37.126  1.00  0.00    -0.200 F 
ENDBRANCH  59  82
ENDBRANCH  33  34
ENDBRANCH  25  28
ENDBRANCH  23  24
ENDBRANCH  22  23
ENDBRANCH   1  22
TORSDOF 14
ENDMDL
MODEL 3
REMARK VINA RESULT:     -12.6      0.473      7.529
REMARK SMILES C[C@@H](C(=O)NCCCCNC(=O)c1ccc(-c2c3nc(c(-c4c(F)c(F)c(F)c(F)c4F)c4ccc([nH]4)c(-c4c(F)c(F)c(F)c(F)c4F)c4nc(c(-c5c(F)c(F)c(F)c(F)c5F)c5ccc2[nH]5)C=C4)C=C3)cc1)N(C)c1ccc(C(N)=O)nn1
REMARK SMILES IDX 7 1 6 2 5 3 3 4 4 5 2 7 1 8 76 9 77 10 78 11 79 12 86 13
REMARK SMILES IDX 80 14 85 15 81 16 82 17 83 18 84 19 8 22 9 23 10 24 11 25
REMARK SMILES IDX 12 27 13 28 14 29 75 30 15 31 74 32 16 33 17 34 18 35 68 36
REMARK SMILES IDX 19 37 73 38 67 39 69 40 20 41 72 42 66 43 65 44 21 46 53 47
REMARK SMILES IDX 33 48 52 49 34 50 37 51 51 52 70 53 35 54 36 55 50 57 71 58
REMARK SMILES IDX 38 59 22 60 23 61 31 62 24 63 25 64 29 65 32 66 26 67 27 68
REMARK SMILES IDX 30 69 28 70 54 71 55 72 63 73 56 74 57 75 61 76 64 77 58 78
REMARK SMILES IDX 59 79 62 80 60 81 39 82 40 83 48 84 41 85 42 86 46 87 49 88
REMARK SMILES IDX 43 89 44 90 47 91 45 92
REMARK H PARENT 5 6 83 20 83 21 10 26 69 45 37 56
REMARK Flexibility Score: inf
ROOT
ATOM      1  C   UNL A   1      31.737  30.703  26.832  1.00  0.00     0.023 C 
ENDROOT
BRANCH   1   2
ATOM      2  C   UNL A   1      33.171  30.179  26.746  1.00  0.00     0.116 C 
BRANCH   2   3
ATOM      3  N   UNL A   1      33.515  29.802  25.391  1.00  0.00    -0.354 N 
ATOM      4  C   UNL A   1      32.870  28.981  24.508  1.00  0.00     0.242 C 
ATOM      5  O   UNL A   1      33.427  28.823  23.419  1.00  0.00    -0.273 OA
ATOM      6  H   UNL A   1      34.348  30.201  25.051  1.00  0.00     0.163 HD
BRANCH   4   7
ATOM      7  C   UNL A   1      31.485  28.364  24.869  1.00  0.00     0.169 C 
ATOM      8  C   UNL A   1      31.562  27.082  25.696  1.00  0.00     0.042 C 
BRANCH   7   9
ATOM      9  N   UNL A   1      30.596  28.195  23.685  1.00  0.00    -0.346 N 
ATOM     10  C   UNL A   1      29.824  26.953  23.642  1.00  0.00     0.146 C 
BRANCH   9  11
ATOM     11  C   UNL A   1      29.957  29.278  23.073  1.00  0.00     0.151 A 
ATOM     12  C   UNL A   1      29.583  30.419  23.777  1.00  0.00     0.051 A 
ATOM     13  N   UNL A   1      29.726  29.258  21.735  1.00  0.00    -0.132 NA
ATOM     14  C   UNL A   1      28.945  31.483  23.136  1.00  0.00     0.040 A 
ATOM     15  N   UNL A   1      29.084  30.295  21.081  1.00  0.00    -0.143 NA
ATOM     16  C   UNL A   1      28.699  31.376  21.787  1.00  0.00     0.150 A 
BRANCH  16  17
ATOM     17  C   UNL A   1      28.005  32.465  21.048  1.00  0.00     0.269 C 
ATOM     18  N   UNL A   1      27.641  32.186  19.757  1.00  0.00    -0.364 N 
ATOM     19  O   UNL A   1      27.763  33.552  21.561  1.00  0.00    -0.268 OA
ATOM     20  H   UNL A   1      27.847  31.306  19.368  1.00  0.00     0.160 HD
ATOM     21  H   UNL A   1      27.175  32.866  19.220  1.00  0.00     0.160 HD
ENDBRANCH  16  17
ENDBRANCH   9  11
ENDBRANCH   7   9
ENDBRANCH   4   7
ENDBRANCH   2   3
ENDBRANCH   1   2
BRANCH   1  22
ATOM     22  C   UNL A   1      31.612  32.230  26.798  1.00  0.00     0.023 C 
BRANCH  22  23
ATOM     23  C   UNL A   1      32.820  32.989  27.330  1.00  0.00     0.116 C 
BRANCH  23  24
ATOM     24  N   UNL A   1      32.510  34.354  27.731  1.00  0.00    -0.352 N 
ATOM     25  C   UNL A   1      33.055  35.081  28.763  1.00  0.00     0.251 C 
ATOM     26  H   UNL A   1      31.825  34.815  27.195  1.00  0.00     0.163 HD
ATOM     27  O   UNL A   1      32.620  36.191  29.047  1.00  0.00    -0.269 OA
BRANCH  25  28
ATOM     28  C   UNL A   1      34.149  34.486  29.555  1.00  0.00     0.039 A 
ATOM     29  C   UNL A   1      33.839  33.800  30.732  1.00  0.00     0.014 A 
ATOM     30  C   UNL A   1      35.467  34.556  29.097  1.00  0.00     0.014 A 
ATOM     31  C   UNL A   1      34.844  33.111  31.413  1.00  0.00     0.010 A 
ATOM     32  C   UNL A   1      36.454  33.818  29.741  1.00  0.00     0.010 A 
ATOM     33  C   UNL A   1      36.149  33.080  30.897  1.00  0.00    -0.014 A 
BRANCH  33  34
ATOM     34  C   UNL A   1      37.226  32.276  31.525  1.00  0.00     0.031 A 
ATOM     35  C   UNL A   1      37.746  32.661  32.878  1.00  0.00     0.074 A 
ATOM     36  C   UNL A   1      37.820  31.293  30.824  1.00  0.00     0.049 A 
ATOM     37  N   UNL A   1      38.802  32.226  33.516  1.00  0.00    -0.248 NA
ATOM     38  C   UNL A   1      36.996  33.706  33.591  1.00  0.00     0.031 C 
ATOM     39  C   UNL A   1      37.436  30.860  29.481  1.00  0.00     0.029 A 
ATOM     40  N   UNL A   1      38.903  30.507  31.132  1.00  0.00    -0.354 N 
ATOM     41  C   UNL A   1      38.866  32.971  34.686  1.00  0.00     0.074 A 
ATOM     42  C   UNL A   1      37.761  33.906  34.654  1.00  0.00     0.031 C 
ATOM     43  C   UNL A   1      38.274  29.893  29.075  1.00  0.00     0.029 A 
ATOM     44  C   UNL A   1      39.277  29.668  30.113  1.00  0.00     0.049 A 
ATOM     45  H   UNL A   1      39.365  30.542  32.001  1.00  0.00     0.167 HD
ATOM     46  C   UNL A   1      39.761  32.874  35.697  1.00  0.00     0.037 A 
ATOM     47  C   UNL A   1      40.327  28.829  30.013  1.00  0.00     0.037 A 
ATOM     48  C   UNL A   1      40.832  31.915  35.740  1.00  0.00     0.049 A 
ATOM     49  C   UNL A   1      41.289  28.714  31.162  1.00  0.00     0.074 A 
ATOM     50  C   UNL A   1      41.738  31.677  36.757  1.00  0.00     0.029 A 
ATOM     51  N   UNL A   1      41.141  31.033  34.714  1.00  0.00    -0.354 N 
ATOM     52  N   UNL A   1      41.307  29.377  32.292  1.00  0.00    -0.248 NA
ATOM     53  C   UNL A   1      42.375  27.733  31.024  1.00  0.00     0.031 C 
ATOM     54  C   UNL A   1      42.620  30.677  36.333  1.00  0.00     0.029 A 
ATOM     55  C   UNL A   1      42.236  30.262  35.067  1.00  0.00     0.049 A 
ATOM     56  H   UNL A   1      40.653  30.965  33.861  1.00  0.00     0.167 HD
ATOM     57  C   UNL A   1      42.386  28.879  33.010  1.00  0.00     0.074 A 
ATOM     58  C   UNL A   1      42.997  27.854  32.189  1.00  0.00     0.031 C 
ATOM     59  C   UNL A   1      42.827  29.239  34.240  1.00  0.00     0.037 A 
BRANCH  46  60
ATOM     60  C   UNL A   1      39.620  33.844  36.833  1.00  0.00     0.064 A 
ATOM     61  C   UNL A   1      40.270  35.088  36.828  1.00  0.00     0.173 A 
ATOM     62  C   UNL A   1      38.824  33.524  37.943  1.00  0.00     0.173 A 
ATOM     63  F   UNL A   1      41.054  35.435  35.797  1.00  0.00    -0.203 F 
ATOM     64  C   UNL A   1      40.160  35.957  37.910  1.00  0.00     0.198 A 
ATOM     65  C   UNL A   1      38.690  34.411  39.009  1.00  0.00     0.198 A 
ATOM     66  F   UNL A   1      38.176  32.351  37.996  1.00  0.00    -0.203 F 
ATOM     67  F   UNL A   1      40.839  37.113  37.910  1.00  0.00    -0.200 F 
ATOM     68  C   UNL A   1      39.367  35.620  38.997  1.00  0.00     0.200 A 
ATOM     69  F   UNL A   1      37.917  34.087  40.054  1.00  0.00    -0.200 F 
ATOM     70  F   UNL A   1      39.266  36.457  40.038  1.00  0.00    -0.200 F 
ENDBRANCH  46  60
BRANCH  47  71
ATOM     71  C   UNL A   1      40.503  28.026  28.777  1.00  0.00     0.064 A 
ATOM     72  C   UNL A   1      39.848  26.798  28.620  1.00  0.00     0.173 A 
ATOM     73  C   UNL A   1      41.293  28.489  27.715  1.00  0.00     0.173 A 
ATOM     74  F   UNL A   1      39.096  26.309  29.617  1.00  0.00    -0.203 F 
ATOM     75  C   UNL A   1      39.980  26.059  27.447  1.00  0.00     0.198 A 
ATOM     76  C   UNL A   1      41.408  27.758  26.534  1.00  0.00     0.198 A 
ATOM     77  F   UNL A   1      41.934  29.662  27.817  1.00  0.00    -0.203 F 
ATOM     78  F   UNL A   1      39.362  24.876  27.330  1.00  0.00    -0.200 F 
ATOM     79  C   UNL A   1      40.754  26.543  26.402  1.00  0.00     0.200 A 
ATOM     80  F   UNL A   1      42.143  28.237  25.522  1.00  0.00    -0.200 F 
ATOM     81  F   UNL A   1      40.868  25.838  25.269  1.00  0.00    -0.200 F 
ENDBRANCH  47  71
BRANCH  59  82
ATOM     82  C   UNL A   1      44.006  28.499  34.796  1.00  0.00     0.064 A 
ATOM     83  C   UNL A   1      45.314  28.980  34.640  1.00  0.00     0.173 A 
ATOM     84  C   UNL A   1      43.817  27.329  35.547  1.00  0.00     0.173 A 
ATOM     85  F   UNL A   1      45.547  30.085  33.918  1.00  0.00    -0.203 F 
ATOM     86  C   UNL A   1      46.392  28.309  35.212  1.00  0.00     0.198 A 
ATOM     87  C   UNL A   1      44.895  26.675  36.135  1.00  0.00     0.198 A 
ATOM     88  F   UNL A   1      42.583  26.834  35.726  1.00  0.00    -0.203 F 
ATOM     89  F   UNL A   1      47.638  28.768  35.028  1.00  0.00    -0.200 F 
ATOM     90  C   UNL A   1      46.182  27.163  35.966  1.00  0.00     0.200 A 
ATOM     91  F   UNL A   1      44.688  25.575  36.873  1.00  0.00    -0.200 F 
ATOM     92  F   UNL A   1      47.220  26.527  36.526  1.00  0.00    -0.200 F 
ENDBRANCH  59  82
ENDBRANCH  33  34
ENDBRANCH  25  28
ENDBRANCH  23  24
ENDBRANCH  22  23
ENDBRANCH   1  22
TORSDOF 14
ENDMDL
