MODEL 1
REMARK VINA RESULT:     -14.2      0.000      0.000
REMARK SMILES Cc1ccc(S(=O)(=O)Nc2cc(C(=O)NCCCCNC(=O)c3ccc(-c4c5nc(c(-c6c(F)c(F)c(F)c(F)c6F)c6ccc([nH]6)c(-c6c(F)c(F)c(F)c(F)c6F)c6nc(c(-c7c(F)c(F)c(F)c(F)c7F)c7ccc4[nH]7)C=C6)C=C5)cc3)ccc2C)c(Br)c1
REMARK SMILES IDX 17 1 16 2 15 3 13 4 14 5 12 7 10 8 11 9 88 10 87 11 89 12
REMARK SMILES IDX 86 13 9 14 6 16 7 17 8 18 5 19 1 20 2 21 3 22 92 23 4 24
REMARK SMILES IDX 90 25 91 26 18 27 19 28 20 29 21 30 22 32 23 33 24 34 85 35
REMARK SMILES IDX 25 36 84 37 26 38 27 39 28 40 78 41 29 42 83 43 77 44 79 45
REMARK SMILES IDX 30 46 82 47 76 48 75 49 31 51 63 52 43 53 62 54 44 55 47 56
REMARK SMILES IDX 61 57 80 58 45 59 46 60 60 62 81 63 48 64 32 65 33 66 41 67
REMARK SMILES IDX 34 68 35 69 39 70 42 71 36 72 37 73 40 74 38 75 64 76 65 77
REMARK SMILES IDX 73 78 66 79 67 80 71 81 74 82 68 83 69 84 72 85 70 86 49 87
REMARK SMILES IDX 50 88 58 89 51 90 52 91 56 92 59 93 53 94 54 95 57 96 55 97
REMARK H PARENT 15 6 9 15 20 31 79 50 47 61
REMARK Flexibility Score: inf
ROOT
ATOM      1  C   UNL A   1      31.785  29.601  26.067  1.00  0.00     0.023 C 
ENDROOT
BRANCH   1   2
ATOM      2  C   UNL A   1      32.452  29.364  24.702  1.00  0.00     0.116 C 
BRANCH   2   3
ATOM      3  N   UNL A   1      31.477  29.315  23.622  1.00  0.00    -0.352 N 
ATOM      4  C   UNL A   1      31.044  28.323  22.777  1.00  0.00     0.251 C 
ATOM      5  O   UNL A   1      30.141  28.613  21.990  1.00  0.00    -0.269 OA
ATOM      6  H   UNL A   1      31.032  30.178  23.464  1.00  0.00     0.163 HD
BRANCH   4   7
ATOM      7  C   UNL A   1      31.534  26.917  22.815  1.00  0.00     0.041 A 
ATOM      8  C   UNL A   1      31.415  24.620  23.563  1.00  0.00     0.053 A 
ATOM      9  C   UNL A   1      31.140  25.975  23.760  1.00  0.00     0.040 A 
ATOM     10  C   UNL A   1      32.248  24.187  22.522  1.00  0.00    -0.027 A 
ATOM     11  C   UNL A   1      32.767  25.154  21.654  1.00  0.00     0.006 A 
ATOM     12  C   UNL A   1      32.607  22.744  22.293  1.00  0.00     0.046 C 
ATOM     13  C   UNL A   1      32.383  26.496  21.777  1.00  0.00     0.014 A 
BRANCH   8  14
ATOM     14  N   UNL A   1      30.681  23.693  24.341  1.00  0.00    -0.279 N 
ATOM     15  H   UNL A   1      29.797  23.399  24.022  1.00  0.00     0.180 HD
BRANCH  14  16
ATOM     16  S   UNL A   1      31.272  23.070  25.806  1.00  0.00     0.263 S 
ATOM     17  O   UNL A   1      30.666  21.744  25.858  1.00  0.00    -0.201 OA
ATOM     18  O   UNL A   1      30.955  24.077  26.784  1.00  0.00    -0.201 OA
BRANCH  16  19
ATOM     19  C   UNL A   1      33.037  22.807  25.897  1.00  0.00     0.101 A 
ATOM     20  C   UNL A   1      37.264  22.426  25.019  1.00  0.00     0.044 C 
ATOM     21  C   UNL A   1      35.817  22.549  25.394  1.00  0.00    -0.050 A 
ATOM     22  C   UNL A   1      35.326  23.622  26.130  1.00  0.00     0.005 A 
ATOM     23  C   UNL A   1      34.927  21.531  25.064  1.00  0.00     0.020 A 
ATOM     24  C   UNL A   1      33.953  23.726  26.409  1.00  0.00     0.024 A 
ATOM     25  C   UNL A   1      33.557  21.645  25.325  1.00  0.00     0.038 A 
ATOM     26  Br  UNL A   1      32.528  20.085  25.024  1.00  0.00    -0.049 Br
ENDBRANCH  16  19
ENDBRANCH  14  16
ENDBRANCH   8  14
ENDBRANCH   4   7
ENDBRANCH   2   3
ENDBRANCH   1   2
BRANCH   1  27
ATOM     27  C   UNL A   1      32.441  30.707  26.902  1.00  0.00     0.023 C 
BRANCH  27  28
ATOM     28  C   UNL A   1      33.824  30.328  27.415  1.00  0.00     0.116 C 
BRANCH  28  29
ATOM     29  N   UNL A   1      34.538  31.383  28.112  1.00  0.00    -0.352 N 
ATOM     30  C   UNL A   1      35.722  31.330  28.830  1.00  0.00     0.251 C 
ATOM     31  H   UNL A   1      34.116  32.272  28.069  1.00  0.00     0.163 HD
ATOM     32  O   UNL A   1      36.076  32.312  29.470  1.00  0.00    -0.269 OA
BRANCH  30  33
ATOM     33  C   UNL A   1      36.631  30.156  28.724  1.00  0.00     0.039 A 
ATOM     34  C   UNL A   1      36.778  29.328  29.849  1.00  0.00     0.014 A 
ATOM     35  C   UNL A   1      37.457  29.954  27.623  1.00  0.00     0.014 A 
ATOM     36  C   UNL A   1      37.887  28.488  29.955  1.00  0.00     0.010 A 
ATOM     37  C   UNL A   1      38.619  29.229  27.776  1.00  0.00     0.010 A 
ATOM     38  C   UNL A   1      38.861  28.539  28.964  1.00  0.00    -0.014 A 
BRANCH  38  39
ATOM     39  C   UNL A   1      40.210  28.014  29.114  1.00  0.00     0.031 A 
ATOM     40  C   UNL A   1      40.585  26.705  28.537  1.00  0.00     0.074 A 
ATOM     41  C   UNL A   1      41.166  28.825  29.620  1.00  0.00     0.049 A 
ATOM     42  N   UNL A   1      41.641  26.046  28.877  1.00  0.00    -0.248 NA
ATOM     43  C   UNL A   1      39.784  26.018  27.530  1.00  0.00     0.031 C 
ATOM     44  C   UNL A   1      42.611  28.664  29.488  1.00  0.00     0.029 A 
ATOM     45  N   UNL A   1      41.011  29.904  30.503  1.00  0.00    -0.354 N 
ATOM     46  C   UNL A   1      41.811  25.022  27.977  1.00  0.00     0.074 A 
ATOM     47  C   UNL A   1      40.598  25.013  27.189  1.00  0.00     0.031 C 
ATOM     48  C   UNL A   1      43.219  29.401  30.427  1.00  0.00     0.029 A 
ATOM     49  C   UNL A   1      42.181  29.942  31.289  1.00  0.00     0.049 A 
ATOM     50  H   UNL A   1      40.240  30.513  30.561  1.00  0.00     0.167 HD
ATOM     51  C   UNL A   1      43.014  24.383  27.914  1.00  0.00     0.037 A 
ATOM     52  C   UNL A   1      42.154  29.784  32.644  1.00  0.00     0.037 A 
ATOM     53  C   UNL A   1      43.958  24.937  28.882  1.00  0.00     0.049 A 
ATOM     54  C   UNL A   1      42.992  28.624  33.099  1.00  0.00     0.074 A 
ATOM     55  C   UNL A   1      44.985  25.860  28.756  1.00  0.00     0.029 A 
ATOM     56  N   UNL A   1      43.719  24.800  30.247  1.00  0.00    -0.354 N 
ATOM     57  N   UNL A   1      43.247  27.588  32.347  1.00  0.00    -0.248 NA
ATOM     58  C   UNL A   1      43.640  28.551  34.401  1.00  0.00     0.031 C 
ATOM     59  C   UNL A   1      45.355  26.291  30.052  1.00  0.00     0.029 A 
ATOM     60  C   UNL A   1      44.565  25.619  30.970  1.00  0.00     0.049 A 
ATOM     61  H   UNL A   1      43.043  24.203  30.642  1.00  0.00     0.167 HD
ATOM     62  C   UNL A   1      44.101  26.750  33.008  1.00  0.00     0.074 A 
ATOM     63  C   UNL A   1      44.306  27.387  34.297  1.00  0.00     0.031 C 
ATOM     64  C   UNL A   1      44.580  25.612  32.426  1.00  0.00     0.037 A 
BRANCH  51  65
ATOM     65  C   UNL A   1      43.420  23.467  26.778  1.00  0.00     0.064 A 
ATOM     66  C   UNL A   1      42.990  22.122  26.732  1.00  0.00     0.173 A 
ATOM     67  C   UNL A   1      44.264  23.849  25.720  1.00  0.00     0.173 A 
ATOM     68  F   UNL A   1      42.097  21.638  27.604  1.00  0.00    -0.203 F 
ATOM     69  C   UNL A   1      43.465  21.212  25.783  1.00  0.00     0.198 A 
ATOM     70  C   UNL A   1      44.784  22.927  24.803  1.00  0.00     0.198 A 
ATOM     71  F   UNL A   1      44.572  25.135  25.510  1.00  0.00    -0.203 F 
ATOM     72  F   UNL A   1      43.026  19.945  25.799  1.00  0.00    -0.200 F 
ATOM     73  C   UNL A   1      44.393  21.604  24.843  1.00  0.00     0.200 A 
ATOM     74  F   UNL A   1      45.669  23.332  23.880  1.00  0.00    -0.200 F 
ATOM     75  F   UNL A   1      44.889  20.721  23.965  1.00  0.00    -0.200 F 
ENDBRANCH  51  65
BRANCH  52  76
ATOM     76  C   UNL A   1      40.903  30.273  33.279  1.00  0.00     0.064 A 
ATOM     77  C   UNL A   1      40.737  31.663  33.383  1.00  0.00     0.173 A 
ATOM     78  C   UNL A   1      39.749  29.483  33.304  1.00  0.00     0.173 A 
ATOM     79  F   UNL A   1      41.815  32.448  33.504  1.00  0.00    -0.203 F 
ATOM     80  C   UNL A   1      39.479  32.252  33.281  1.00  0.00     0.198 A 
ATOM     81  C   UNL A   1      38.484  30.075  33.254  1.00  0.00     0.198 A 
ATOM     82  F   UNL A   1      39.842  28.148  33.237  1.00  0.00    -0.203 F 
ATOM     83  F   UNL A   1      39.364  33.586  33.210  1.00  0.00    -0.200 F 
ATOM     84  C   UNL A   1      38.353  31.453  33.176  1.00  0.00     0.200 A 
ATOM     85  F   UNL A   1      37.390  29.302  33.181  1.00  0.00    -0.200 F 
ATOM     86  F   UNL A   1      37.150  32.007  32.975  1.00  0.00    -0.200 F 
ENDBRANCH  52  76
BRANCH  64  87
ATOM     87  C   UNL A   1      45.225  24.447  33.142  1.00  0.00     0.064 A 
ATOM     88  C   UNL A   1      46.546  24.458  33.618  1.00  0.00     0.173 A 
ATOM     89  C   UNL A   1      44.451  23.325  33.532  1.00  0.00     0.173 A 
ATOM     90  F   UNL A   1      47.354  25.508  33.426  1.00  0.00    -0.203 F 
ATOM     91  C   UNL A   1      47.069  23.408  34.378  1.00  0.00     0.198 A 
ATOM     92  C   UNL A   1      44.957  22.310  34.341  1.00  0.00     0.198 A 
ATOM     93  F   UNL A   1      43.164  23.194  33.176  1.00  0.00    -0.203 F 
ATOM     94  F   UNL A   1      48.347  23.453  34.776  1.00  0.00    -0.200 F 
ATOM     95  C   UNL A   1      46.271  22.343  34.751  1.00  0.00     0.200 A 
ATOM     96  F   UNL A   1      44.153  21.314  34.740  1.00  0.00    -0.200 F 
ATOM     97  F   UNL A   1      46.762  21.369  35.529  1.00  0.00    -0.200 F 
ENDBRANCH  64  87
ENDBRANCH  38  39
ENDBRANCH  30  33
ENDBRANCH  28  29
ENDBRANCH  27  28
ENDBRANCH   1  27
TORSDOF 14
ENDMDL
MODEL 2
REMARK VINA RESULT:     -14.2      3.853      9.954
REMARK SMILES Cc1ccc(S(=O)(=O)Nc2cc(C(=O)NCCCCNC(=O)c3ccc(-c4c5nc(c(-c6c(F)c(F)c(F)c(F)c6F)c6ccc([nH]6)c(-c6c(F)c(F)c(F)c(F)c6F)c6nc(c(-c7c(F)c(F)c(F)c(F)c7F)c7ccc4[nH]7)C=C6)C=C5)cc3)ccc2C)c(Br)c1
REMARK SMILES IDX 17 1 16 2 15 3 13 4 14 5 12 7 10 8 11 9 88 10 87 11 89 12
REMARK SMILES IDX 86 13 9 14 6 16 7 17 8 18 5 19 1 20 2 21 3 22 92 23 4 24
REMARK SMILES IDX 90 25 91 26 18 27 19 28 20 29 21 30 22 32 23 33 24 34 85 35
REMARK SMILES IDX 25 36 84 37 26 38 27 39 28 40 78 41 29 42 83 43 77 44 79 45
REMARK SMILES IDX 30 46 82 47 76 48 75 49 31 51 63 52 43 53 62 54 44 55 47 56
REMARK SMILES IDX 61 57 80 58 45 59 46 60 60 62 81 63 48 64 32 65 33 66 41 67
REMARK SMILES IDX 34 68 35 69 39 70 42 71 36 72 37 73 40 74 38 75 64 76 65 77
REMARK SMILES IDX 73 78 66 79 67 80 71 81 74 82 68 83 69 84 72 85 70 86 49 87
REMARK SMILES IDX 50 88 58 89 51 90 52 91 56 92 59 93 53 94 54 95 57 96 55 97
REMARK H PARENT 15 6 9 15 20 31 79 50 47 61
REMARK Flexibility Score: inf
ROOT
ATOM      1  C   UNL A   1      36.232  21.527  24.751  1.00  0.00     0.023 C 
ENDROOT
BRANCH   1   2
ATOM      2  C   UNL A   1      35.295  21.337  25.956  1.00  0.00     0.116 C 
BRANCH   2   3
ATOM      3  N   UNL A   1      34.179  20.455  25.643  1.00  0.00    -0.352 N 
ATOM      4  C   UNL A   1      32.866  20.668  25.302  1.00  0.00     0.251 C 
ATOM      5  O   UNL A   1      32.187  19.674  25.042  1.00  0.00    -0.269 OA
ATOM      6  H   UNL A   1      34.418  19.502  25.683  1.00  0.00     0.163 HD
BRANCH   4   7
ATOM      7  C   UNL A   1      32.250  22.016  25.147  1.00  0.00     0.041 A 
ATOM      8  C   UNL A   1      31.572  23.929  23.832  1.00  0.00     0.053 A 
ATOM      9  C   UNL A   1      32.402  22.822  24.023  1.00  0.00     0.040 A 
ATOM     10  C   UNL A   1      30.700  24.372  24.837  1.00  0.00    -0.027 A 
ATOM     11  C   UNL A   1      30.654  23.642  26.030  1.00  0.00     0.006 A 
ATOM     12  C   UNL A   1      29.817  25.581  24.695  1.00  0.00     0.046 C 
ATOM     13  C   UNL A   1      31.390  22.459  26.167  1.00  0.00     0.014 A 
BRANCH   8  14
ATOM     14  N   UNL A   1      31.516  24.476  22.528  1.00  0.00    -0.279 N 
ATOM     15  H   UNL A   1      31.033  23.983  21.826  1.00  0.00     0.180 HD
BRANCH  14  16
ATOM     16  S   UNL A   1      32.253  25.954  22.131  1.00  0.00     0.263 S 
ATOM     17  O   UNL A   1      31.147  26.724  21.573  1.00  0.00    -0.201 OA
ATOM     18  O   UNL A   1      33.391  25.588  21.329  1.00  0.00    -0.201 OA
BRANCH  16  19
ATOM     19  C   UNL A   1      32.880  26.915  23.501  1.00  0.00     0.101 A 
ATOM     20  C   UNL A   1      33.450  28.891  27.315  1.00  0.00     0.044 C 
ATOM     21  C   UNL A   1      33.320  28.228  25.976  1.00  0.00    -0.050 A 
ATOM     22  C   UNL A   1      34.080  27.121  25.616  1.00  0.00     0.005 A 
ATOM     23  C   UNL A   1      32.464  28.764  25.018  1.00  0.00     0.020 A 
ATOM     24  C   UNL A   1      33.885  26.496  24.372  1.00  0.00     0.024 A 
ATOM     25  C   UNL A   1      32.256  28.130  23.788  1.00  0.00     0.038 A 
ATOM     26  Br  UNL A   1      31.246  29.105  22.519  1.00  0.00    -0.049 Br
ENDBRANCH  16  19
ENDBRANCH  14  16
ENDBRANCH   8  14
ENDBRANCH   4   7
ENDBRANCH   2   3
ENDBRANCH   1   2
BRANCH   1  27
ATOM     27  C   UNL A   1      37.721  21.397  25.088  1.00  0.00     0.023 C 
BRANCH  27  28
ATOM     28  C   UNL A   1      38.307  22.660  25.706  1.00  0.00     0.116 C 
BRANCH  28  29
ATOM     29  N   UNL A   1      39.670  22.539  26.192  1.00  0.00    -0.352 N 
ATOM     30  C   UNL A   1      40.533  23.513  26.667  1.00  0.00     0.251 C 
ATOM     31  H   UNL A   1      40.038  21.626  26.181  1.00  0.00     0.163 HD
ATOM     32  O   UNL A   1      41.702  23.220  26.889  1.00  0.00    -0.269 OA
BRANCH  30  33
ATOM     33  C   UNL A   1      40.033  24.866  27.040  1.00  0.00     0.039 A 
ATOM     34  C   UNL A   1      40.455  25.963  26.273  1.00  0.00     0.014 A 
ATOM     35  C   UNL A   1      39.313  25.093  28.208  1.00  0.00     0.014 A 
ATOM     36  C   UNL A   1      40.368  27.254  26.797  1.00  0.00     0.010 A 
ATOM     37  C   UNL A   1      39.343  26.344  28.786  1.00  0.00     0.010 A 
ATOM     38  C   UNL A   1      39.920  27.416  28.103  1.00  0.00    -0.014 A 
BRANCH  38  39
ATOM     39  C   UNL A   1      40.117  28.622  28.892  1.00  0.00     0.031 A 
ATOM     40  C   UNL A   1      39.032  29.616  29.046  1.00  0.00     0.074 A 
ATOM     41  C   UNL A   1      41.238  28.728  29.640  1.00  0.00     0.049 A 
ATOM     42  N   UNL A   1      39.218  30.823  29.463  1.00  0.00    -0.248 NA
ATOM     43  C   UNL A   1      37.638  29.331  28.728  1.00  0.00     0.031 C 
ATOM     44  C   UNL A   1      41.451  29.619  30.778  1.00  0.00     0.029 A 
ATOM     45  N   UNL A   1      42.491  28.137  29.416  1.00  0.00    -0.354 N 
ATOM     46  C   UNL A   1      37.988  31.374  29.726  1.00  0.00     0.074 A 
ATOM     47  C   UNL A   1      37.032  30.425  29.201  1.00  0.00     0.031 C 
ATOM     48  C   UNL A   1      42.768  29.734  31.000  1.00  0.00     0.029 A 
ATOM     49  C   UNL A   1      43.450  29.041  29.918  1.00  0.00     0.049 A 
ATOM     50  H   UNL A   1      42.665  27.266  28.993  1.00  0.00     0.167 HD
ATOM     51  C   UNL A   1      37.914  32.511  30.478  1.00  0.00     0.037 A 
ATOM     52  C   UNL A   1      44.399  29.613  29.124  1.00  0.00     0.037 A 
ATOM     53  C   UNL A   1      39.243  32.963  30.883  1.00  0.00     0.049 A 
ATOM     54  C   UNL A   1      44.327  31.113  29.139  1.00  0.00     0.074 A 
ATOM     55  C   UNL A   1      39.960  32.807  32.060  1.00  0.00     0.029 A 
ATOM     56  N   UNL A   1      40.153  33.403  29.925  1.00  0.00    -0.354 N 
ATOM     57  N   UNL A   1      43.229  31.773  29.386  1.00  0.00    -0.248 NA
ATOM     58  C   UNL A   1      45.475  31.984  28.925  1.00  0.00     0.031 C 
ATOM     59  C   UNL A   1      41.310  33.141  31.803  1.00  0.00     0.029 A 
ATOM     60  C   UNL A   1      41.416  33.516  30.474  1.00  0.00     0.049 A 
ATOM     61  H   UNL A   1      39.929  33.606  28.988  1.00  0.00     0.167 HD
ATOM     62  C   UNL A   1      43.504  33.112  29.413  1.00  0.00     0.074 A 
ATOM     63  C   UNL A   1      44.920  33.196  29.103  1.00  0.00     0.031 C 
ATOM     64  C   UNL A   1      42.542  34.035  29.709  1.00  0.00     0.037 A 
BRANCH  51  65
ATOM     65  C   UNL A   1      36.630  33.034  31.087  1.00  0.00     0.064 A 
ATOM     66  C   UNL A   1      35.724  33.811  30.331  1.00  0.00     0.173 A 
ATOM     67  C   UNL A   1      36.252  32.830  32.426  1.00  0.00     0.173 A 
ATOM     68  F   UNL A   1      35.886  34.001  29.016  1.00  0.00    -0.203 F 
ATOM     69  C   UNL A   1      34.608  34.432  30.899  1.00  0.00     0.198 A 
ATOM     70  C   UNL A   1      35.167  33.497  33.010  1.00  0.00     0.198 A 
ATOM     71  F   UNL A   1      36.891  31.942  33.198  1.00  0.00    -0.203 F 
ATOM     72  F   UNL A   1      33.791  35.167  30.130  1.00  0.00    -0.200 F 
ATOM     73  C   UNL A   1      34.352  34.308  32.248  1.00  0.00     0.200 A 
ATOM     74  F   UNL A   1      34.920  33.344  34.319  1.00  0.00    -0.200 F 
ATOM     75  F   UNL A   1      33.313  34.945  32.805  1.00  0.00    -0.200 F 
ENDBRANCH  51  65
BRANCH  52  76
ATOM     76  C   UNL A   1      44.816  28.760  27.980  1.00  0.00     0.064 A 
ATOM     77  C   UNL A   1      45.638  27.659  28.267  1.00  0.00     0.173 A 
ATOM     78  C   UNL A   1      44.062  28.711  26.803  1.00  0.00     0.173 A 
ATOM     79  F   UNL A   1      46.480  27.719  29.307  1.00  0.00    -0.203 F 
ATOM     80  C   UNL A   1      45.538  26.472  27.544  1.00  0.00     0.198 A 
ATOM     81  C   UNL A   1      44.003  27.538  26.047  1.00  0.00     0.198 A 
ATOM     82  F   UNL A   1      43.279  29.743  26.458  1.00  0.00    -0.203 F 
ATOM     83  F   UNL A   1      46.207  25.382  27.944  1.00  0.00    -0.200 F 
ATOM     84  C   UNL A   1      44.688  26.402  26.454  1.00  0.00     0.200 A 
ATOM     85  F   UNL A   1      43.200  27.477  24.974  1.00  0.00    -0.200 F 
ATOM     86  F   UNL A   1      44.507  25.240  25.814  1.00  0.00    -0.200 F 
ENDBRANCH  52  76
BRANCH  64  87
ATOM     87  C   UNL A   1      42.614  35.519  29.435  1.00  0.00     0.064 A 
ATOM     88  C   UNL A   1      43.411  36.411  30.171  1.00  0.00     0.173 A 
ATOM     89  C   UNL A   1      42.002  36.067  28.279  1.00  0.00     0.173 A 
ATOM     90  F   UNL A   1      44.140  36.003  31.217  1.00  0.00    -0.203 F 
ATOM     91  C   UNL A   1      43.542  37.756  29.813  1.00  0.00     0.198 A 
ATOM     92  C   UNL A   1      42.185  37.393  27.892  1.00  0.00     0.198 A 
ATOM     93  F   UNL A   1      41.237  35.326  27.464  1.00  0.00    -0.203 F 
ATOM     94  F   UNL A   1      44.286  38.571  30.572  1.00  0.00    -0.200 F 
ATOM     95  C   UNL A   1      42.943  38.242  28.667  1.00  0.00     0.200 A 
ATOM     96  F   UNL A   1      41.642  37.832  26.748  1.00  0.00    -0.200 F 
ATOM     97  F   UNL A   1      43.120  39.517  28.298  1.00  0.00    -0.200 F 
ENDBRANCH  64  87
ENDBRANCH  38  39
ENDBRANCH  30  33
ENDBRANCH  28  29
ENDBRANCH  27  28
ENDBRANCH   1  27
TORSDOF 14
ENDMDL
MODEL 3
REMARK VINA RESULT:     -14.0      1.172      1.536
REMARK SMILES Cc1ccc(S(=O)(=O)Nc2cc(C(=O)NCCCCNC(=O)c3ccc(-c4c5nc(c(-c6c(F)c(F)c(F)c(F)c6F)c6ccc([nH]6)c(-c6c(F)c(F)c(F)c(F)c6F)c6nc(c(-c7c(F)c(F)c(F)c(F)c7F)c7ccc4[nH]7)C=C6)C=C5)cc3)ccc2C)c(Br)c1
REMARK SMILES IDX 17 1 16 2 15 3 13 4 14 5 12 7 10 8 11 9 88 10 87 11 89 12
REMARK SMILES IDX 86 13 9 14 6 16 7 17 8 18 5 19 1 20 2 21 3 22 92 23 4 24
REMARK SMILES IDX 90 25 91 26 18 27 19 28 20 29 21 30 22 32 23 33 24 34 85 35
REMARK SMILES IDX 25 36 84 37 26 38 27 39 28 40 78 41 29 42 83 43 77 44 79 45
REMARK SMILES IDX 30 46 82 47 76 48 75 49 31 51 63 52 43 53 62 54 44 55 47 56
REMARK SMILES IDX 61 57 80 58 45 59 46 60 60 62 81 63 48 64 32 65 33 66 41 67
REMARK SMILES IDX 34 68 35 69 39 70 42 71 36 72 37 73 40 74 38 75 64 76 65 77
REMARK SMILES IDX 73 78 66 79 67 80 71 81 74 82 68 83 69 84 72 85 70 86 49 87
REMARK SMILES IDX 50 88 58 89 51 90 52 91 56 92 59 93 53 94 54 95 57 96 55 97
REMARK H PARENT 15 6 9 15 20 31 79 50 47 61
REMARK Flexibility Score: inf
ROOT
ATOM      1  C   UNL A   1      32.914  29.611  25.163  1.00  0.00     0.023 C 
ENDROOT
BRANCH   1   2
ATOM      2  C   UNL A   1      33.260  28.959  23.814  1.00  0.00     0.116 C 
BRANCH   2   3
ATOM      3  N   UNL A   1      32.092  28.836  22.953  1.00  0.00    -0.352 N 
ATOM      4  C   UNL A   1      31.098  27.897  22.827  1.00  0.00     0.251 C 
ATOM      5  O   UNL A   1      30.205  28.134  22.013  1.00  0.00    -0.269 OA
ATOM      6  H   UNL A   1      31.994  29.590  22.328  1.00  0.00     0.163 HD
BRANCH   4   7
ATOM      7  C   UNL A   1      30.995  26.671  23.666  1.00  0.00     0.041 A 
ATOM      8  C   UNL A   1      31.761  24.495  24.393  1.00  0.00     0.053 A 
ATOM      9  C   UNL A   1      31.686  25.490  23.416  1.00  0.00     0.040 A 
ATOM     10  C   UNL A   1      30.999  24.565  25.568  1.00  0.00    -0.027 A 
ATOM     11  C   UNL A   1      30.186  25.690  25.754  1.00  0.00     0.006 A 
ATOM     12  C   UNL A   1      31.013  23.501  26.631  1.00  0.00     0.046 C 
ATOM     13  C   UNL A   1      30.215  26.745  24.833  1.00  0.00     0.014 A 
BRANCH   8  14
ATOM     14  N   UNL A   1      32.764  23.509  24.235  1.00  0.00    -0.279 N 
ATOM     15  H   UNL A   1      32.538  22.568  24.415  1.00  0.00     0.180 HD
BRANCH  14  16
ATOM     16  S   UNL A   1      34.345  23.893  23.747  1.00  0.00     0.263 S 
ATOM     17  O   UNL A   1      34.412  25.332  23.980  1.00  0.00    -0.201 OA
ATOM     18  O   UNL A   1      34.459  23.343  22.421  1.00  0.00    -0.201 OA
BRANCH  16  19
ATOM     19  C   UNL A   1      35.665  23.177  24.714  1.00  0.00     0.101 A 
ATOM     20  C   UNL A   1      39.254  21.145  26.044  1.00  0.00     0.044 C 
ATOM     21  C   UNL A   1      38.000  21.870  25.653  1.00  0.00    -0.050 A 
ATOM     22  C   UNL A   1      37.892  23.255  25.709  1.00  0.00     0.005 A 
ATOM     23  C   UNL A   1      36.870  21.147  25.283  1.00  0.00     0.020 A 
ATOM     24  C   UNL A   1      36.718  23.896  25.278  1.00  0.00     0.024 A 
ATOM     25  C   UNL A   1      35.708  21.787  24.836  1.00  0.00     0.038 A 
ATOM     26  Br  UNL A   1      34.196  20.675  24.593  1.00  0.00    -0.049 Br
ENDBRANCH  16  19
ENDBRANCH  14  16
ENDBRANCH   8  14
ENDBRANCH   4   7
ENDBRANCH   2   3
ENDBRANCH   1   2
BRANCH   1  27
ATOM     27  C   UNL A   1      33.886  29.263  26.296  1.00  0.00     0.023 C 
BRANCH  27  28
ATOM     28  C   UNL A   1      33.506  29.899  27.626  1.00  0.00     0.116 C 
BRANCH  28  29
ATOM     29  N   UNL A   1      34.264  31.084  27.987  1.00  0.00    -0.352 N 
ATOM     30  C   UNL A   1      35.539  31.196  28.517  1.00  0.00     0.251 C 
ATOM     31  H   UNL A   1      33.801  31.939  27.830  1.00  0.00     0.163 HD
ATOM     32  O   UNL A   1      35.937  32.293  28.890  1.00  0.00    -0.269 OA
BRANCH  30  33
ATOM     33  C   UNL A   1      36.475  30.038  28.514  1.00  0.00     0.039 A 
ATOM     34  C   UNL A   1      36.682  29.349  29.720  1.00  0.00     0.014 A 
ATOM     35  C   UNL A   1      37.269  29.730  27.414  1.00  0.00     0.014 A 
ATOM     36  C   UNL A   1      37.816  28.552  29.881  1.00  0.00     0.010 A 
ATOM     37  C   UNL A   1      38.455  29.054  27.607  1.00  0.00     0.010 A 
ATOM     38  C   UNL A   1      38.755  28.510  28.856  1.00  0.00    -0.014 A 
BRANCH  38  39
ATOM     39  C   UNL A   1      40.121  28.037  29.017  1.00  0.00     0.031 A 
ATOM     40  C   UNL A   1      40.548  26.741  28.448  1.00  0.00     0.074 A 
ATOM     41  C   UNL A   1      41.043  28.886  29.525  1.00  0.00     0.049 A 
ATOM     42  N   UNL A   1      41.627  26.123  28.797  1.00  0.00    -0.248 NA
ATOM     43  C   UNL A   1      39.780  26.020  27.439  1.00  0.00     0.031 C 
ATOM     44  C   UNL A   1      42.494  28.779  29.402  1.00  0.00     0.029 A 
ATOM     45  N   UNL A   1      40.842  29.962  30.402  1.00  0.00    -0.354 N 
ATOM     46  C   UNL A   1      41.840  25.103  27.903  1.00  0.00     0.074 A 
ATOM     47  C   UNL A   1      40.633  25.045  27.107  1.00  0.00     0.031 C 
ATOM     48  C   UNL A   1      43.068  29.542  30.342  1.00  0.00     0.029 A 
ATOM     49  C   UNL A   1      42.005  30.047  31.195  1.00  0.00     0.049 A 
ATOM     50  H   UNL A   1      40.049  30.542  30.453  1.00  0.00     0.167 HD
ATOM     51  C   UNL A   1      43.067  24.509  27.849  1.00  0.00     0.037 A 
ATOM     52  C   UNL A   1      41.976  29.894  32.550  1.00  0.00     0.037 A 
ATOM     53  C   UNL A   1      43.983  25.102  28.821  1.00  0.00     0.049 A 
ATOM     54  C   UNL A   1      42.854  28.768  33.015  1.00  0.00     0.074 A 
ATOM     55  C   UNL A   1      44.976  26.063  28.697  1.00  0.00     0.029 A 
ATOM     56  N   UNL A   1      43.741  24.962  30.185  1.00  0.00    -0.354 N 
ATOM     57  N   UNL A   1      43.152  27.739  32.270  1.00  0.00    -0.248 NA
ATOM     58  C   UNL A   1      43.497  28.725  34.322  1.00  0.00     0.031 C 
ATOM     59  C   UNL A   1      45.321  26.512  29.993  1.00  0.00     0.029 A 
ATOM     60  C   UNL A   1      44.551  25.816  30.910  1.00  0.00     0.049 A 
ATOM     61  H   UNL A   1      43.086  24.342  30.578  1.00  0.00     0.167 HD
ATOM     62  C   UNL A   1      44.033  26.937  32.940  1.00  0.00     0.074 A 
ATOM     63  C   UNL A   1      44.206  27.587  34.226  1.00  0.00     0.031 C 
ATOM     64  C   UNL A   1      44.558  25.815  32.365  1.00  0.00     0.037 A 
BRANCH  51  65
ATOM     65  C   UNL A   1      43.514  23.604  26.720  1.00  0.00     0.064 A 
ATOM     66  C   UNL A   1      43.127  22.246  26.673  1.00  0.00     0.173 A 
ATOM     67  C   UNL A   1      44.356  24.011  25.669  1.00  0.00     0.173 A 
ATOM     68  F   UNL A   1      42.242  21.736  27.537  1.00  0.00    -0.203 F 
ATOM     69  C   UNL A   1      43.642  21.350  25.731  1.00  0.00     0.198 A 
ATOM     70  C   UNL A   1      44.915  23.104  24.761  1.00  0.00     0.198 A 
ATOM     71  F   UNL A   1      44.624  25.306  25.460  1.00  0.00    -0.203 F 
ATOM     72  F   UNL A   1      43.243  20.069  25.746  1.00  0.00    -0.200 F 
ATOM     73  C   UNL A   1      44.567  21.770  24.800  1.00  0.00     0.200 A 
ATOM     74  F   UNL A   1      45.795  23.536  23.846  1.00  0.00    -0.200 F 
ATOM     75  F   UNL A   1      45.099  20.901  23.930  1.00  0.00    -0.200 F 
ENDBRANCH  51  65
BRANCH  52  76
ATOM     76  C   UNL A   1      40.703  30.339  33.176  1.00  0.00     0.064 A 
ATOM     77  C   UNL A   1      40.471  31.721  33.246  1.00  0.00     0.173 A 
ATOM     78  C   UNL A   1      39.588  29.496  33.222  1.00  0.00     0.173 A 
ATOM     79  F   UNL A   1      41.511  32.560  33.346  1.00  0.00    -0.203 F 
ATOM     80  C   UNL A   1      39.187  32.247  33.132  1.00  0.00     0.198 A 
ATOM     81  C   UNL A   1      38.296  30.025  33.161  1.00  0.00     0.198 A 
ATOM     82  F   UNL A   1      39.745  28.165  33.187  1.00  0.00    -0.203 F 
ATOM     83  F   UNL A   1      39.009  33.572  33.029  1.00  0.00    -0.200 F 
ATOM     84  C   UNL A   1      38.100  31.393  33.049  1.00  0.00     0.200 A 
ATOM     85  F   UNL A   1      37.241  29.199  33.108  1.00  0.00    -0.200 F 
ATOM     86  F   UNL A   1      36.872  31.884  32.837  1.00  0.00    -0.200 F 
ENDBRANCH  52  76
BRANCH  64  87
ATOM     87  C   UNL A   1      45.242  24.679  33.090  1.00  0.00     0.064 A 
ATOM     88  C   UNL A   1      46.562  24.737  33.564  1.00  0.00     0.173 A 
ATOM     89  C   UNL A   1      44.505  23.535  33.492  1.00  0.00     0.173 A 
ATOM     90  F   UNL A   1      47.335  25.811  33.360  1.00  0.00    -0.203 F 
ATOM     91  C   UNL A   1      47.121  23.711  34.332  1.00  0.00     0.198 A 
ATOM     92  C   UNL A   1      45.046  22.544  34.308  1.00  0.00     0.198 A 
ATOM     93  F   UNL A   1      43.223  23.359  33.140  1.00  0.00    -0.203 F 
ATOM     94  F   UNL A   1      48.398  23.801  34.727  1.00  0.00    -0.200 F 
ATOM     95  C   UNL A   1      46.359  22.624  34.716  1.00  0.00     0.200 A 
ATOM     96  F   UNL A   1      44.275  21.527  34.718  1.00  0.00    -0.200 F 
ATOM     97  F   UNL A   1      46.882  21.673  35.501  1.00  0.00    -0.200 F 
ENDBRANCH  64  87
ENDBRANCH  38  39
ENDBRANCH  30  33
ENDBRANCH  28  29
ENDBRANCH  27  28
ENDBRANCH   1  27
TORSDOF 14
ENDMDL
