MODEL 1
REMARK VINA RESULT:     -13.2      0.000      0.000
REMARK SMILES CS(=O)(=O)N1C[C@@H]2C[N@H+](Cc3cccnc3N)C[C@]2(C(=O)NCCCCNC(=O)c2ccc(-c3c4nc(c(-c5c(F)c(F)c(F)c(F)c5F)c5ccc([nH]5)c(-c5c(F)c(F)c(F)c(F)c5F)c5nc(c(-c6c(F)c(F)c(F)c(F)c6F)c6ccc3[nH]6)C=C5)C=C4)cc2)C1
REMARK SMILES IDX 24 1 23 2 22 3 20 4 21 5 19 7 5 8 6 9 93 10 7 11 8 12 18 13
REMARK SMILES IDX 9 14 2 16 1 17 3 18 4 19 10 20 11 21 12 22 16 23 13 24 15 25
REMARK SMILES IDX 14 26 17 27 25 30 26 31 27 32 28 33 29 35 30 36 31 37 92 38
REMARK SMILES IDX 32 39 91 40 33 41 34 42 35 43 85 44 36 45 90 46 84 47 86 48
REMARK SMILES IDX 37 49 89 50 83 51 82 52 38 54 70 55 50 56 69 57 51 58 54 59
REMARK SMILES IDX 68 60 87 61 52 62 53 63 67 65 88 66 55 67 39 68 40 69 48 70
REMARK SMILES IDX 41 71 42 72 46 73 49 74 43 75 44 76 47 77 45 78 71 79 72 80
REMARK SMILES IDX 80 81 73 82 74 83 78 84 81 85 75 86 76 87 79 88 77 89 56 90
REMARK SMILES IDX 57 91 65 92 58 93 59 94 63 95 66 96 60 97 61 98 64 99 62 100
REMARK H PARENT 22 6 9 15 17 28 17 29 27 34 86 53 54 64
REMARK Flexibility Score: inf
ROOT
ATOM      1  C   UNL A   1      37.476  22.035  24.643  1.00  0.00     0.023 C 
ENDROOT
BRANCH   1   2
ATOM      2  C   UNL A   1      36.645  22.961  25.549  1.00  0.00     0.116 C 
BRANCH   2   3
ATOM      3  N   UNL A   1      35.950  22.208  26.571  1.00  0.00    -0.355 N 
ATOM      4  C   UNL A   1      34.616  21.838  26.551  1.00  0.00     0.233 C 
ATOM      5  O   UNL A   1      34.094  21.546  27.630  1.00  0.00    -0.274 OA
ATOM      6  H   UNL A   1      36.477  21.932  27.355  1.00  0.00     0.163 HD
BRANCH   4   7
ATOM      7  C   UNL A   1      33.865  21.776  25.134  1.00  0.00     0.121 C 
ATOM      8  N   UNL A   1      33.512  19.519  24.142  1.00  0.00    -0.200 NA
ATOM      9  C   UNL A   1      32.371  20.299  23.724  1.00  0.00     0.113 C 
ATOM     10  C   UNL A   1      34.186  20.222  25.246  1.00  0.00     0.125 C 
ATOM     11  C   UNL A   1      32.352  21.424  24.743  1.00  0.00     0.082 C 
ATOM     12  C   UNL A   1      31.662  22.652  24.133  1.00  0.00     0.268 C 
ATOM     13  C   UNL A   1      33.349  23.198  25.525  1.00  0.00     0.281 C 
ATOM     14  N   UNL A   1      32.573  23.737  24.410  1.00  0.00    -0.330 N 
ATOM     15  H   UNL A   1      32.081  24.600  24.641  1.00  0.00     0.348 HD
BRANCH   8  16
ATOM     16  S   UNL A   1      33.543  17.862  23.947  1.00  0.00     0.211 S 
ATOM     17  C   UNL A   1      32.472  17.244  25.234  1.00  0.00     0.176 C 
ATOM     18  O   UNL A   1      34.883  17.414  24.273  1.00  0.00    -0.213 OA
ATOM     19  O   UNL A   1      32.937  17.537  22.676  1.00  0.00    -0.213 OA
ENDBRANCH   8  16
BRANCH  14  20
ATOM     20  C   UNL A   1      33.311  24.358  23.286  1.00  0.00     0.302 C 
BRANCH  20  21
ATOM     21  C   UNL A   1      33.467  25.863  23.174  1.00  0.00     0.048 A 
ATOM     22  C   UNL A   1      33.659  26.657  24.316  1.00  0.00     0.015 A 
ATOM     23  C   UNL A   1      33.339  26.563  21.977  1.00  0.00     0.132 A 
ATOM     24  C   UNL A   1      33.978  28.007  24.206  1.00  0.00     0.021 A 
ATOM     25  N   UNL A   1      33.665  27.863  21.840  1.00  0.00    -0.239 NA
ATOM     26  C   UNL A   1      34.022  28.549  22.942  1.00  0.00     0.113 A 
BRANCH  23  27
ATOM     27  N   UNL A   1      32.852  25.984  20.824  1.00  0.00    -0.383 N 
ATOM     28  H   UNL A   1      32.711  26.532  20.019  1.00  0.00     0.158 HD
ATOM     29  H   UNL A   1      32.645  25.021  20.807  1.00  0.00     0.158 HD
ENDBRANCH  23  27
ENDBRANCH  20  21
ENDBRANCH  14  20
ENDBRANCH   4   7
ENDBRANCH   2   3
ENDBRANCH   1   2
BRANCH   1  30
ATOM     30  C   UNL A   1      37.952  20.761  25.314  1.00  0.00     0.023 C 
BRANCH  30  31
ATOM     31  C   UNL A   1      39.357  20.857  25.868  1.00  0.00     0.116 C 
BRANCH  31  32
ATOM     32  N   UNL A   1      40.079  19.590  25.885  1.00  0.00    -0.352 N 
ATOM     33  C   UNL A   1      41.427  19.408  26.098  1.00  0.00     0.251 C 
ATOM     34  H   UNL A   1      39.544  18.778  25.727  1.00  0.00     0.163 HD
ATOM     35  O   UNL A   1      41.947  18.303  26.015  1.00  0.00    -0.269 OA
BRANCH  33  36
ATOM     36  C   UNL A   1      42.237  20.610  26.373  1.00  0.00     0.039 A 
ATOM     37  C   UNL A   1      42.705  21.369  25.300  1.00  0.00     0.014 A 
ATOM     38  C   UNL A   1      42.355  21.070  27.687  1.00  0.00     0.014 A 
ATOM     39  C   UNL A   1      43.224  22.639  25.545  1.00  0.00     0.010 A 
ATOM     40  C   UNL A   1      42.756  22.377  27.910  1.00  0.00     0.010 A 
ATOM     41  C   UNL A   1      43.208  23.171  26.845  1.00  0.00    -0.014 A 
BRANCH  41  42
ATOM     42  C   UNL A   1      43.682  24.549  27.121  1.00  0.00     0.031 A 
ATOM     43  C   UNL A   1      42.702  25.585  27.593  1.00  0.00     0.074 A 
ATOM     44  C   UNL A   1      44.964  24.884  26.883  1.00  0.00     0.049 A 
ATOM     45  N   UNL A   1      42.890  26.858  27.832  1.00  0.00    -0.248 NA
ATOM     46  C   UNL A   1      41.312  25.140  27.782  1.00  0.00     0.031 C 
ATOM     47  C   UNL A   1      45.992  23.983  26.359  1.00  0.00     0.029 A 
ATOM     48  N   UNL A   1      45.618  26.079  27.041  1.00  0.00    -0.354 N 
ATOM     49  C   UNL A   1      41.645  27.361  28.182  1.00  0.00     0.074 A 
ATOM     50  C   UNL A   1      40.694  26.281  28.039  1.00  0.00     0.031 C 
ATOM     51  C   UNL A   1      47.154  24.649  26.269  1.00  0.00     0.029 A 
ATOM     52  C   UNL A   1      46.945  26.032  26.688  1.00  0.00     0.049 A 
ATOM     53  H   UNL A   1      45.179  26.894  27.377  1.00  0.00     0.167 HD
ATOM     54  C   UNL A   1      41.326  28.601  28.619  1.00  0.00     0.037 A 
ATOM     55  C   UNL A   1      47.883  26.998  26.697  1.00  0.00     0.037 A 
ATOM     56  C   UNL A   1      42.282  29.664  28.774  1.00  0.00     0.049 A 
ATOM     57  C   UNL A   1      47.510  28.374  27.181  1.00  0.00     0.074 A 
ATOM     58  C   UNL A   1      42.082  30.940  29.267  1.00  0.00     0.029 A 
ATOM     59  N   UNL A   1      43.623  29.574  28.427  1.00  0.00    -0.354 N 
ATOM     60  N   UNL A   1      46.347  28.819  27.592  1.00  0.00    -0.248 NA
ATOM     61  C   UNL A   1      48.582  29.377  27.213  1.00  0.00     0.031 C 
ATOM     62  C   UNL A   1      43.287  31.643  29.158  1.00  0.00     0.029 A 
ATOM     63  C   UNL A   1      44.256  30.784  28.664  1.00  0.00     0.049 A 
ATOM     64  H   UNL A   1      44.061  28.769  28.066  1.00  0.00     0.167 HD
ATOM     65  C   UNL A   1      46.549  30.144  27.953  1.00  0.00     0.074 A 
ATOM     66  C   UNL A   1      47.953  30.425  27.728  1.00  0.00     0.031 C 
ATOM     67  C   UNL A   1      45.655  31.046  28.429  1.00  0.00     0.037 A 
BRANCH  54  68
ATOM     68  C   UNL A   1      39.883  28.863  28.950  1.00  0.00     0.064 A 
ATOM     69  C   UNL A   1      39.369  28.656  30.241  1.00  0.00     0.173 A 
ATOM     70  C   UNL A   1      38.996  29.307  27.958  1.00  0.00     0.173 A 
ATOM     71  F   UNL A   1      40.169  28.216  31.225  1.00  0.00    -0.203 F 
ATOM     72  C   UNL A   1      38.015  28.831  30.512  1.00  0.00     0.198 A 
ATOM     73  C   UNL A   1      37.650  29.523  28.244  1.00  0.00     0.198 A 
ATOM     74  F   UNL A   1      39.430  29.525  26.708  1.00  0.00    -0.203 F 
ATOM     75  F   UNL A   1      37.536  28.548  31.732  1.00  0.00    -0.200 F 
ATOM     76  C   UNL A   1      37.158  29.270  29.516  1.00  0.00     0.200 A 
ATOM     77  F   UNL A   1      36.825  29.959  27.283  1.00  0.00    -0.200 F 
ATOM     78  F   UNL A   1      35.854  29.435  29.776  1.00  0.00    -0.200 F 
ENDBRANCH  54  68
BRANCH  55  79
ATOM     79  C   UNL A   1      49.268  26.682  26.258  1.00  0.00     0.064 A 
ATOM     80  C   UNL A   1      49.680  26.915  24.938  1.00  0.00     0.173 A 
ATOM     81  C   UNL A   1      50.216  26.167  27.155  1.00  0.00     0.173 A 
ATOM     82  F   UNL A   1      48.808  27.389  24.038  1.00  0.00    -0.203 F 
ATOM     83  C   UNL A   1      50.984  26.636  24.531  1.00  0.00     0.198 A 
ATOM     84  C   UNL A   1      51.526  25.916  26.754  1.00  0.00     0.198 A 
ATOM     85  F   UNL A   1      49.874  25.933  28.431  1.00  0.00    -0.203 F 
ATOM     86  F   UNL A   1      51.342  26.837  23.255  1.00  0.00    -0.200 F 
ATOM     87  C   UNL A   1      51.908  26.145  25.440  1.00  0.00     0.200 A 
ATOM     88  F   UNL A   1      52.421  25.460  27.642  1.00  0.00    -0.200 F 
ATOM     89  F   UNL A   1      53.166  25.892  25.053  1.00  0.00    -0.200 F 
ENDBRANCH  55  79
BRANCH  67  90
ATOM     90  C   UNL A   1      46.170  32.416  28.771  1.00  0.00     0.064 A 
ATOM     91  C   UNL A   1      46.158  33.463  27.837  1.00  0.00     0.173 A 
ATOM     92  C   UNL A   1      46.635  32.696  30.065  1.00  0.00     0.173 A 
ATOM     93  F   UNL A   1      45.736  33.246  26.583  1.00  0.00    -0.203 F 
ATOM     94  C   UNL A   1      46.617  34.732  28.181  1.00  0.00     0.198 A 
ATOM     95  C   UNL A   1      47.059  33.974  30.414  1.00  0.00     0.198 A 
ATOM     96  F   UNL A   1      46.659  31.731  30.998  1.00  0.00    -0.203 F 
ATOM     97  F   UNL A   1      46.644  35.705  27.259  1.00  0.00    -0.200 F 
ATOM     98  C   UNL A   1      47.059  34.989  29.471  1.00  0.00     0.200 A 
ATOM     99  F   UNL A   1      47.467  34.224  31.666  1.00  0.00    -0.200 F 
ATOM    100  F   UNL A   1      47.489  36.213  29.802  1.00  0.00    -0.200 F 
ENDBRANCH  67  90
ENDBRANCH  41  42
ENDBRANCH  33  36
ENDBRANCH  31  32
ENDBRANCH  30  31
ENDBRANCH   1  30
TORSDOF 15
ENDMDL
MODEL 2
REMARK VINA RESULT:     -13.1      5.982     10.075
REMARK SMILES CS(=O)(=O)N1C[C@@H]2C[N@H+](Cc3cccnc3N)C[C@]2(C(=O)NCCCCNC(=O)c2ccc(-c3c4nc(c(-c5c(F)c(F)c(F)c(F)c5F)c5ccc([nH]5)c(-c5c(F)c(F)c(F)c(F)c5F)c5nc(c(-c6c(F)c(F)c(F)c(F)c6F)c6ccc3[nH]6)C=C5)C=C4)cc2)C1
REMARK SMILES IDX 24 1 23 2 22 3 20 4 21 5 19 7 5 8 6 9 93 10 7 11 8 12 18 13
REMARK SMILES IDX 9 14 2 16 1 17 3 18 4 19 10 20 11 21 12 22 16 23 13 24 15 25
REMARK SMILES IDX 14 26 17 27 25 30 26 31 27 32 28 33 29 35 30 36 31 37 92 38
REMARK SMILES IDX 32 39 91 40 33 41 34 42 35 43 85 44 36 45 90 46 84 47 86 48
REMARK SMILES IDX 37 49 89 50 83 51 82 52 38 54 70 55 50 56 69 57 51 58 54 59
REMARK SMILES IDX 68 60 87 61 52 62 53 63 67 65 88 66 55 67 39 68 40 69 48 70
REMARK SMILES IDX 41 71 42 72 46 73 49 74 43 75 44 76 47 77 45 78 71 79 72 80
REMARK SMILES IDX 80 81 73 82 74 83 78 84 81 85 75 86 76 87 79 88 77 89 56 90
REMARK SMILES IDX 57 91 65 92 58 93 59 94 63 95 66 96 60 97 61 98 64 99 62 100
REMARK H PARENT 22 6 9 15 17 28 17 29 27 34 86 53 54 64
REMARK Flexibility Score: inf
ROOT
ATOM      1  C   UNL A   1      32.019  30.166  27.138  1.00  0.00     0.023 C 
ENDROOT
BRANCH   1   2
ATOM      2  C   UNL A   1      33.062  29.240  26.489  1.00  0.00     0.116 C 
BRANCH   2   3
ATOM      3  N   UNL A   1      33.342  29.640  25.127  1.00  0.00    -0.355 N 
ATOM      4  C   UNL A   1      32.876  29.023  23.979  1.00  0.00     0.233 C 
ATOM      5  O   UNL A   1      33.491  29.238  22.931  1.00  0.00    -0.274 OA
ATOM      6  H   UNL A   1      33.920  30.428  25.006  1.00  0.00     0.163 HD
BRANCH   4   7
ATOM      7  C   UNL A   1      31.556  28.117  24.085  1.00  0.00     0.121 C 
ATOM      8  N   UNL A   1      29.388  29.209  23.529  1.00  0.00    -0.200 NA
ATOM      9  C   UNL A   1      29.238  27.835  23.113  1.00  0.00     0.113 C 
ATOM     10  C   UNL A   1      30.818  29.484  23.743  1.00  0.00     0.125 C 
ATOM     11  C   UNL A   1      30.677  27.376  22.970  1.00  0.00     0.082 C 
ATOM     12  C   UNL A   1      30.749  25.855  23.161  1.00  0.00     0.268 C 
ATOM     13  C   UNL A   1      32.560  26.924  23.973  1.00  0.00     0.281 C 
ATOM     14  N   UNL A   1      31.817  25.673  24.114  1.00  0.00    -0.330 N 
ATOM     15  H   UNL A   1      32.377  24.846  23.908  1.00  0.00     0.348 HD
BRANCH   8  16
ATOM     16  S   UNL A   1      28.281  30.374  23.079  1.00  0.00     0.211 S 
ATOM     17  C   UNL A   1      28.333  30.368  21.295  1.00  0.00     0.176 C 
ATOM     18  O   UNL A   1      28.808  31.657  23.504  1.00  0.00    -0.213 OA
ATOM     19  O   UNL A   1      26.964  29.938  23.482  1.00  0.00    -0.213 OA
ENDBRANCH   8  16
BRANCH  14  20
ATOM     20  C   UNL A   1      31.487  25.213  25.483  1.00  0.00     0.302 C 
BRANCH  20  21
ATOM     21  C   UNL A   1      32.332  24.175  26.197  1.00  0.00     0.048 A 
ATOM     22  C   UNL A   1      33.701  24.039  25.915  1.00  0.00     0.015 A 
ATOM     23  C   UNL A   1      31.813  23.241  27.090  1.00  0.00     0.132 A 
ATOM     24  C   UNL A   1      34.515  23.216  26.688  1.00  0.00     0.021 A 
ATOM     25  N   UNL A   1      32.580  22.452  27.866  1.00  0.00    -0.239 NA
ATOM     26  C   UNL A   1      33.913  22.485  27.687  1.00  0.00     0.113 A 
BRANCH  23  27
ATOM     27  N   UNL A   1      30.459  23.035  27.247  1.00  0.00    -0.383 N 
ATOM     28  H   UNL A   1      29.851  23.803  27.345  1.00  0.00     0.158 HD
ATOM     29  H   UNL A   1      30.100  22.117  27.262  1.00  0.00     0.158 HD
ENDBRANCH  23  27
ENDBRANCH  20  21
ENDBRANCH  14  20
ENDBRANCH   4   7
ENDBRANCH   2   3
ENDBRANCH   1   2
BRANCH   1  30
ATOM     30  C   UNL A   1      32.051  31.597  26.638  1.00  0.00     0.023 C 
BRANCH  30  31
ATOM     31  C   UNL A   1      33.053  32.470  27.361  1.00  0.00     0.116 C 
BRANCH  31  32
ATOM     32  N   UNL A   1      32.591  33.832  27.606  1.00  0.00    -0.352 N 
ATOM     33  C   UNL A   1      33.092  34.722  28.529  1.00  0.00     0.251 C 
ATOM     34  H   UNL A   1      31.840  34.147  27.052  1.00  0.00     0.163 HD
ATOM     35  O   UNL A   1      32.579  35.819  28.706  1.00  0.00    -0.269 OA
BRANCH  33  36
ATOM     36  C   UNL A   1      34.240  34.280  29.342  1.00  0.00     0.039 A 
ATOM     37  C   UNL A   1      34.009  33.464  30.450  1.00  0.00     0.014 A 
ATOM     38  C   UNL A   1      35.537  34.522  28.883  1.00  0.00     0.014 A 
ATOM     39  C   UNL A   1      35.088  32.821  31.053  1.00  0.00     0.010 A 
ATOM     40  C   UNL A   1      36.586  33.785  29.407  1.00  0.00     0.010 A 
ATOM     41  C   UNL A   1      36.376  32.937  30.506  1.00  0.00    -0.014 A 
BRANCH  41  42
ATOM     42  C   UNL A   1      37.529  32.200  31.080  1.00  0.00     0.031 A 
ATOM     43  C   UNL A   1      38.027  32.562  32.450  1.00  0.00     0.074 A 
ATOM     44  C   UNL A   1      38.166  31.266  30.350  1.00  0.00     0.049 A 
ATOM     45  N   UNL A   1      39.053  32.092  33.111  1.00  0.00    -0.248 NA
ATOM     46  C   UNL A   1      37.298  33.628  33.157  1.00  0.00     0.031 C 
ATOM     47  C   UNL A   1      37.818  30.876  28.982  1.00  0.00     0.029 A 
ATOM     48  N   UNL A   1      39.248  30.479  30.654  1.00  0.00    -0.354 N 
ATOM     49  C   UNL A   1      39.097  32.812  34.296  1.00  0.00     0.074 A 
ATOM     50  C   UNL A   1      38.053  33.810  34.226  1.00  0.00     0.031 C 
ATOM     51  C   UNL A   1      38.651  29.904  28.578  1.00  0.00     0.029 A 
ATOM     52  C   UNL A   1      39.616  29.630  29.639  1.00  0.00     0.049 A 
ATOM     53  H   UNL A   1      39.717  30.519  31.519  1.00  0.00     0.167 HD
ATOM     54  C   UNL A   1      39.910  32.637  35.364  1.00  0.00     0.037 A 
ATOM     55  C   UNL A   1      40.622  28.737  29.572  1.00  0.00     0.037 A 
ATOM     56  C   UNL A   1      40.935  31.630  35.431  1.00  0.00     0.049 A 
ATOM     57  C   UNL A   1      41.520  28.557  30.767  1.00  0.00     0.074 A 
ATOM     58  C   UNL A   1      41.775  31.322  36.485  1.00  0.00     0.029 A 
ATOM     59  N   UNL A   1      41.265  30.772  34.391  1.00  0.00    -0.354 N 
ATOM     60  N   UNL A   1      41.500  29.186  31.918  1.00  0.00    -0.248 NA
ATOM     61  C   UNL A   1      42.571  27.538  30.657  1.00  0.00     0.031 C 
ATOM     62  C   UNL A   1      42.656  30.321  36.061  1.00  0.00     0.029 A 
ATOM     63  C   UNL A   1      42.319  29.956  34.767  1.00  0.00     0.049 A 
ATOM     64  H   UNL A   1      40.816  30.747  33.515  1.00  0.00     0.167 HD
ATOM     65  C   UNL A   1      42.518  28.625  32.678  1.00  0.00     0.074 A 
ATOM     66  C   UNL A   1      43.124  27.593  31.861  1.00  0.00     0.031 C 
ATOM     67  C   UNL A   1      42.913  28.935  33.937  1.00  0.00     0.037 A 
BRANCH  54  68
ATOM     68  C   UNL A   1      39.718  33.562  36.533  1.00  0.00     0.064 A 
ATOM     69  C   UNL A   1      38.886  33.226  37.615  1.00  0.00     0.173 A 
ATOM     70  C   UNL A   1      40.356  34.810  36.565  1.00  0.00     0.173 A 
ATOM     71  F   UNL A   1      38.237  32.051  37.629  1.00  0.00    -0.203 F 
ATOM     72  C   UNL A   1      38.660  34.125  38.653  1.00  0.00     0.198 A 
ATOM     73  C   UNL A   1      40.161  35.690  37.627  1.00  0.00     0.198 A 
ATOM     74  F   UNL A   1      41.165  35.183  35.562  1.00  0.00    -0.203 F 
ATOM     75  F   UNL A   1      37.798  33.812  39.631  1.00  0.00    -0.200 F 
ATOM     76  C   UNL A   1      39.301  35.353  38.662  1.00  0.00     0.200 A 
ATOM     77  F   UNL A   1      40.793  36.871  37.641  1.00  0.00    -0.200 F 
ATOM     78  F   UNL A   1      39.081  36.219  39.660  1.00  0.00    -0.200 F 
ENDBRANCH  54  68
BRANCH  55  79
ATOM     79  C   UNL A   1      40.806  27.929  28.337  1.00  0.00     0.064 A 
ATOM     80  C   UNL A   1      41.600  28.395  27.280  1.00  0.00     0.173 A 
ATOM     81  C   UNL A   1      40.217  26.663  28.202  1.00  0.00     0.173 A 
ATOM     82  F   UNL A   1      42.170  29.606  27.354  1.00  0.00    -0.203 F 
ATOM     83  C   UNL A   1      41.789  27.630  26.130  1.00  0.00     0.198 A 
ATOM     84  C   UNL A   1      40.430  25.888  27.064  1.00  0.00     0.198 A 
ATOM     85  F   UNL A   1      39.454  26.168  29.188  1.00  0.00    -0.203 F 
ATOM     86  F   UNL A   1      42.525  28.114  25.120  1.00  0.00    -0.200 F 
ATOM     87  C   UNL A   1      41.211  26.374  26.026  1.00  0.00     0.200 A 
ATOM     88  F   UNL A   1      39.885  24.666  26.977  1.00  0.00    -0.200 F 
ATOM     89  F   UNL A   1      41.406  25.632  24.927  1.00  0.00    -0.200 F 
ENDBRANCH  55  79
BRANCH  67  90
ATOM     90  C   UNL A   1      44.036  28.130  34.528  1.00  0.00     0.064 A 
ATOM     91  C   UNL A   1      45.369  28.562  34.463  1.00  0.00     0.173 A 
ATOM     92  C   UNL A   1      43.767  26.933  35.210  1.00  0.00     0.173 A 
ATOM     93  F   UNL A   1      45.682  29.692  33.811  1.00  0.00    -0.203 F 
ATOM     94  C   UNL A   1      46.393  27.813  35.037  1.00  0.00     0.198 A 
ATOM     95  C   UNL A   1      44.788  26.206  35.814  1.00  0.00     0.198 A 
ATOM     96  F   UNL A   1      42.508  26.479  35.309  1.00  0.00    -0.203 F 
ATOM     97  F   UNL A   1      47.665  28.219  34.919  1.00  0.00    -0.200 F 
ATOM     98  C   UNL A   1      46.101  26.641  35.720  1.00  0.00     0.200 A 
ATOM     99  F   UNL A   1      44.501  25.085  36.489  1.00  0.00    -0.200 F 
ATOM    100  F   UNL A   1      47.086  25.928  36.281  1.00  0.00    -0.200 F 
ENDBRANCH  67  90
ENDBRANCH  41  42
ENDBRANCH  33  36
ENDBRANCH  31  32
ENDBRANCH  30  31
ENDBRANCH   1  30
TORSDOF 15
ENDMDL
MODEL 3
REMARK VINA RESULT:     -13.1      5.943     10.057
REMARK SMILES CS(=O)(=O)N1C[C@@H]2C[N@H+](Cc3cccnc3N)C[C@]2(C(=O)NCCCCNC(=O)c2ccc(-c3c4nc(c(-c5c(F)c(F)c(F)c(F)c5F)c5ccc([nH]5)c(-c5c(F)c(F)c(F)c(F)c5F)c5nc(c(-c6c(F)c(F)c(F)c(F)c6F)c6ccc3[nH]6)C=C5)C=C4)cc2)C1
REMARK SMILES IDX 24 1 23 2 22 3 20 4 21 5 19 7 5 8 6 9 93 10 7 11 8 12 18 13
REMARK SMILES IDX 9 14 2 16 1 17 3 18 4 19 10 20 11 21 12 22 16 23 13 24 15 25
REMARK SMILES IDX 14 26 17 27 25 30 26 31 27 32 28 33 29 35 30 36 31 37 92 38
REMARK SMILES IDX 32 39 91 40 33 41 34 42 35 43 85 44 36 45 90 46 84 47 86 48
REMARK SMILES IDX 37 49 89 50 83 51 82 52 38 54 70 55 50 56 69 57 51 58 54 59
REMARK SMILES IDX 68 60 87 61 52 62 53 63 67 65 88 66 55 67 39 68 40 69 48 70
REMARK SMILES IDX 41 71 42 72 46 73 49 74 43 75 44 76 47 77 45 78 71 79 72 80
REMARK SMILES IDX 80 81 73 82 74 83 78 84 81 85 75 86 76 87 79 88 77 89 56 90
REMARK SMILES IDX 57 91 65 92 58 93 59 94 63 95 66 96 60 97 61 98 64 99 62 100
REMARK H PARENT 22 6 9 15 17 28 17 29 27 34 86 53 54 64
REMARK Flexibility Score: inf
ROOT
ATOM      1  C   UNL A   1      32.086  30.124  27.052  1.00  0.00     0.023 C 
ENDROOT
BRANCH   1   2
ATOM      2  C   UNL A   1      33.143  29.267  26.333  1.00  0.00     0.116 C 
BRANCH   2   3
ATOM      3  N   UNL A   1      33.317  29.693  24.961  1.00  0.00    -0.355 N 
ATOM      4  C   UNL A   1      32.845  29.041  23.834  1.00  0.00     0.233 C 
ATOM      5  O   UNL A   1      33.384  29.309  22.758  1.00  0.00    -0.274 OA
ATOM      6  H   UNL A   1      33.818  30.528  24.815  1.00  0.00     0.163 HD
BRANCH   4   7
ATOM      7  C   UNL A   1      31.615  28.024  24.003  1.00  0.00     0.121 C 
ATOM      8  N   UNL A   1      29.365  28.852  23.326  1.00  0.00    -0.200 NA
ATOM      9  C   UNL A   1      29.354  27.440  23.030  1.00  0.00     0.113 C 
ATOM     10  C   UNL A   1      30.759  29.280  23.534  1.00  0.00     0.125 C 
ATOM     11  C   UNL A   1      30.833  27.110  22.946  1.00  0.00     0.082 C 
ATOM     12  C   UNL A   1      31.043  25.625  23.271  1.00  0.00     0.268 C 
ATOM     13  C   UNL A   1      32.728  26.928  24.008  1.00  0.00     0.281 C 
ATOM     14  N   UNL A   1      32.104  25.628  24.249  1.00  0.00    -0.330 N 
ATOM     15  H   UNL A   1      32.744  24.844  24.124  1.00  0.00     0.348 HD
BRANCH   8  16
ATOM     16  S   UNL A   1      28.163  29.863  22.762  1.00  0.00     0.211 S 
ATOM     17  C   UNL A   1      28.581  31.464  23.430  1.00  0.00     0.176 C 
ATOM     18  O   UNL A   1      26.925  29.459  23.401  1.00  0.00    -0.213 OA
ATOM     19  O   UNL A   1      28.268  29.944  21.324  1.00  0.00    -0.213 OA
ENDBRANCH   8  16
BRANCH  14  20
ATOM     20  C   UNL A   1      31.790  25.258  25.649  1.00  0.00     0.302 C 
BRANCH  20  21
ATOM     21  C   UNL A   1      32.528  24.139  26.359  1.00  0.00     0.048 A 
ATOM     22  C   UNL A   1      33.903  23.936  26.156  1.00  0.00     0.015 A 
ATOM     23  C   UNL A   1      31.900  23.194  27.166  1.00  0.00     0.132 A 
ATOM     24  C   UNL A   1      34.617  23.029  26.933  1.00  0.00     0.021 A 
ATOM     25  N   UNL A   1      32.570  22.323  27.946  1.00  0.00    -0.239 NA
ATOM     26  C   UNL A   1      33.912  22.287  27.852  1.00  0.00     0.113 A 
BRANCH  23  27
ATOM     27  N   UNL A   1      30.529  23.060  27.228  1.00  0.00    -0.383 N 
ATOM     28  H   UNL A   1      29.963  23.466  26.532  1.00  0.00     0.158 HD
ATOM     29  H   UNL A   1      30.117  22.558  27.968  1.00  0.00     0.158 HD
ENDBRANCH  23  27
ENDBRANCH  20  21
ENDBRANCH  14  20
ENDBRANCH   4   7
ENDBRANCH   2   3
ENDBRANCH   1   2
BRANCH   1  30
ATOM     30  C   UNL A   1      32.057  31.578  26.623  1.00  0.00     0.023 C 
BRANCH  30  31
ATOM     31  C   UNL A   1      33.055  32.446  27.358  1.00  0.00     0.116 C 
BRANCH  31  32
ATOM     32  N   UNL A   1      32.592  33.806  27.608  1.00  0.00    -0.352 N 
ATOM     33  C   UNL A   1      33.083  34.689  28.544  1.00  0.00     0.251 C 
ATOM     34  H   UNL A   1      31.848  34.127  27.048  1.00  0.00     0.163 HD
ATOM     35  O   UNL A   1      32.569  35.785  28.724  1.00  0.00    -0.269 OA
BRANCH  33  36
ATOM     36  C   UNL A   1      34.221  34.239  29.367  1.00  0.00     0.039 A 
ATOM     37  C   UNL A   1      33.985  33.356  30.421  1.00  0.00     0.014 A 
ATOM     38  C   UNL A   1      35.522  34.547  28.962  1.00  0.00     0.014 A 
ATOM     39  C   UNL A   1      35.067  32.714  31.021  1.00  0.00     0.010 A 
ATOM     40  C   UNL A   1      36.580  33.815  29.478  1.00  0.00     0.010 A 
ATOM     41  C   UNL A   1      36.366  32.902  30.522  1.00  0.00    -0.014 A 
BRANCH  41  42
ATOM     42  C   UNL A   1      37.525  32.171  31.090  1.00  0.00     0.031 A 
ATOM     43  C   UNL A   1      38.028  32.536  32.458  1.00  0.00     0.074 A 
ATOM     44  C   UNL A   1      38.163  31.240  30.357  1.00  0.00     0.049 A 
ATOM     45  N   UNL A   1      39.060  32.071  33.114  1.00  0.00    -0.248 NA
ATOM     46  C   UNL A   1      37.297  33.598  33.168  1.00  0.00     0.031 C 
ATOM     47  C   UNL A   1      37.811  30.848  28.991  1.00  0.00     0.029 A 
ATOM     48  N   UNL A   1      39.251  30.459  30.657  1.00  0.00    -0.354 N 
ATOM     49  C   UNL A   1      39.106  32.792  34.299  1.00  0.00     0.074 A 
ATOM     50  C   UNL A   1      38.057  33.785  34.234  1.00  0.00     0.031 C 
ATOM     51  C   UNL A   1      38.647  29.880  28.583  1.00  0.00     0.029 A 
ATOM     52  C   UNL A   1      39.618  29.611  29.640  1.00  0.00     0.049 A 
ATOM     53  H   UNL A   1      39.725  30.502  31.519  1.00  0.00     0.167 HD
ATOM     54  C   UNL A   1      39.925  32.621  35.363  1.00  0.00     0.037 A 
ATOM     55  C   UNL A   1      40.628  28.723  29.568  1.00  0.00     0.037 A 
ATOM     56  C   UNL A   1      40.955  31.620  35.425  1.00  0.00     0.049 A 
ATOM     57  C   UNL A   1      41.533  28.549  30.759  1.00  0.00     0.074 A 
ATOM     58  C   UNL A   1      41.802  31.316  36.475  1.00  0.00     0.029 A 
ATOM     59  N   UNL A   1      41.285  30.763  34.383  1.00  0.00    -0.354 N 
ATOM     60  N   UNL A   1      41.516  29.178  31.910  1.00  0.00    -0.248 NA
ATOM     61  C   UNL A   1      42.589  27.535  30.644  1.00  0.00     0.031 C 
ATOM     62  C   UNL A   1      42.686  30.320  36.047  1.00  0.00     0.029 A 
ATOM     63  C   UNL A   1      42.345  29.952  34.754  1.00  0.00     0.049 A 
ATOM     64  H   UNL A   1      40.832  30.736  33.509  1.00  0.00     0.167 HD
ATOM     65  C   UNL A   1      42.540  28.622  32.665  1.00  0.00     0.074 A 
ATOM     66  C   UNL A   1      43.148  27.593  31.845  1.00  0.00     0.031 C 
ATOM     67  C   UNL A   1      42.940  28.935  33.922  1.00  0.00     0.037 A 
BRANCH  54  68
ATOM     68  C   UNL A   1      39.733  33.546  36.532  1.00  0.00     0.064 A 
ATOM     69  C   UNL A   1      38.906  33.207  37.617  1.00  0.00     0.173 A 
ATOM     70  C   UNL A   1      40.369  34.796  36.562  1.00  0.00     0.173 A 
ATOM     71  F   UNL A   1      38.261  32.031  37.633  1.00  0.00    -0.203 F 
ATOM     72  C   UNL A   1      38.681  34.105  38.656  1.00  0.00     0.198 A 
ATOM     73  C   UNL A   1      40.174  35.675  37.625  1.00  0.00     0.198 A 
ATOM     74  F   UNL A   1      41.173  35.172  35.557  1.00  0.00    -0.203 F 
ATOM     75  F   UNL A   1      37.823  33.790  39.637  1.00  0.00    -0.200 F 
ATOM     76  C   UNL A   1      39.318  35.335  38.663  1.00  0.00     0.200 A 
ATOM     77  F   UNL A   1      40.802  36.858  37.637  1.00  0.00    -0.200 F 
ATOM     78  F   UNL A   1      39.099  36.201  39.661  1.00  0.00    -0.200 F 
ENDBRANCH  54  68
BRANCH  55  79
ATOM     79  C   UNL A   1      40.811  27.916  28.333  1.00  0.00     0.064 A 
ATOM     80  C   UNL A   1      41.618  28.375  27.282  1.00  0.00     0.173 A 
ATOM     81  C   UNL A   1      40.207  26.658  28.191  1.00  0.00     0.173 A 
ATOM     82  F   UNL A   1      42.202  29.578  27.362  1.00  0.00    -0.203 F 
ATOM     83  C   UNL A   1      41.804  27.610  26.131  1.00  0.00     0.198 A 
ATOM     84  C   UNL A   1      40.418  25.883  27.052  1.00  0.00     0.198 A 
ATOM     85  F   UNL A   1      39.432  26.170  29.170  1.00  0.00    -0.203 F 
ATOM     86  F   UNL A   1      42.553  28.087  25.127  1.00  0.00    -0.200 F 
ATOM     87  C   UNL A   1      41.212  26.361  26.020  1.00  0.00     0.200 A 
ATOM     88  F   UNL A   1      39.859  24.668  26.959  1.00  0.00    -0.200 F 
ATOM     89  F   UNL A   1      41.405  25.619  24.922  1.00  0.00    -0.200 F 
ENDBRANCH  55  79
BRANCH  67  90
ATOM     90  C   UNL A   1      44.070  28.135  34.507  1.00  0.00     0.064 A 
ATOM     91  C   UNL A   1      43.848  26.920  35.172  1.00  0.00     0.173 A 
ATOM     92  C   UNL A   1      45.396  28.568  34.356  1.00  0.00     0.173 A 
ATOM     93  F   UNL A   1      42.599  26.467  35.355  1.00  0.00    -0.203 F 
ATOM     94  C   UNL A   1      44.912  26.182  35.686  1.00  0.00     0.198 A 
ATOM     95  C   UNL A   1      46.458  27.810  34.839  1.00  0.00     0.198 A 
ATOM     96  F   UNL A   1      45.664  29.720  33.720  1.00  0.00    -0.203 F 
ATOM     97  F   UNL A   1      44.674  25.049  36.362  1.00  0.00    -0.200 F 
ATOM     98  C   UNL A   1      46.216  26.623  35.511  1.00  0.00     0.200 A 
ATOM     99  F   UNL A   1      47.718  28.229  34.653  1.00  0.00    -0.200 F 
ATOM    100  F   UNL A   1      47.237  25.905  35.996  1.00  0.00    -0.200 F 
ENDBRANCH  67  90
ENDBRANCH  41  42
ENDBRANCH  33  36
ENDBRANCH  31  32
ENDBRANCH  30  31
ENDBRANCH   1  30
TORSDOF 15
ENDMDL
