MODEL 1
REMARK VINA RESULT:     -12.6      0.000      0.000
REMARK SMILES C[C@H](O)[C@H](C)[N@H+]1Cc2ccccc2C[C@@H]1C(=O)NCCCCNC(=O)c1ccc(-c2c3nc(c(-c4c(F)c(F)c(F)c(F)c4F)c4ccc([nH]4)c(-c4c(F)c(F)c(F)c(F)c4F)c4nc(c(-c5c(F)c(F)c(F)c(F)c5F)c5ccc2[nH]5)C=C4)C=C3)cc1
REMARK SMILES IDX 20 1 19 2 18 3 16 4 17 5 15 7 6 8 7 9 8 11 14 12 9 13 13 14
REMARK SMILES IDX 10 15 12 16 11 17 4 18 5 19 2 20 1 21 3 22 21 24 22 25 23 26
REMARK SMILES IDX 24 27 25 29 26 30 27 31 88 32 28 33 87 34 29 35 30 36 31 37
REMARK SMILES IDX 81 38 32 39 86 40 80 41 82 42 33 43 85 44 79 45 78 46 34 48
REMARK SMILES IDX 66 49 46 50 65 51 47 52 50 53 64 54 83 55 48 56 49 57 63 59
REMARK SMILES IDX 84 60 51 61 35 62 36 63 44 64 37 65 38 66 42 67 45 68 39 69
REMARK SMILES IDX 40 70 43 71 41 72 67 73 68 74 76 75 69 76 70 77 74 78 77 79
REMARK SMILES IDX 71 80 72 81 75 82 73 83 52 84 53 85 61 86 54 87 55 88 59 89
REMARK SMILES IDX 62 90 56 91 57 92 60 93 58 94
REMARK H PARENT 18 6 6 10 3 23 23 28 82 47 50 58
REMARK Flexibility Score: inf
ROOT
ATOM      1  C   UNL A   1      31.774  30.658  26.251  1.00  0.00     0.023 C 
ENDROOT
BRANCH   1   2
ATOM      2  C   UNL A   1      32.544  29.761  27.217  1.00  0.00     0.116 C 
BRANCH   2   3
ATOM      3  N   UNL A   1      31.870  28.503  27.433  1.00  0.00    -0.351 N 
ATOM      4  C   UNL A   1      31.992  27.315  26.766  1.00  0.00     0.278 C 
ATOM      5  O   UNL A   1      31.351  26.372  27.236  1.00  0.00    -0.268 OA
ATOM      6  H   UNL A   1      31.222  28.500  28.174  1.00  0.00     0.163 HD
BRANCH   4   7
ATOM      7  C   UNL A   1      32.941  27.198  25.536  1.00  0.00     0.279 C 
ATOM      8  N   UNL A   1      32.138  27.068  24.291  1.00  0.00    -0.316 N 
ATOM      9  C   UNL A   1      31.775  25.698  23.890  1.00  0.00     0.300 C 
ATOM     10  H   UNL A   1      31.224  27.421  24.571  1.00  0.00     0.349 HD
ATOM     11  C   UNL A   1      32.198  24.572  24.813  1.00  0.00     0.010 A 
ATOM     12  C   UNL A   1      33.960  26.068  25.742  1.00  0.00     0.111 C 
ATOM     13  C   UNL A   1      31.545  23.331  24.772  1.00  0.00     0.010 A 
ATOM     14  C   UNL A   1      33.289  24.728  25.678  1.00  0.00    -0.033 A 
ATOM     15  C   UNL A   1      31.953  22.285  25.605  1.00  0.00     0.001 A 
ATOM     16  C   UNL A   1      33.704  23.675  26.503  1.00  0.00     0.004 A 
ATOM     17  C   UNL A   1      33.028  22.459  26.472  1.00  0.00     0.000 A 
BRANCH   8  18
ATOM     18  C   UNL A   1      32.520  28.002  23.207  1.00  0.00     0.210 C 
ATOM     19  C   UNL A   1      33.494  27.447  22.158  1.00  0.00     0.078 C 
BRANCH  18  20
ATOM     20  C   UNL A   1      31.263  28.698  22.589  1.00  0.00     0.169 C 
ATOM     21  C   UNL A   1      30.165  29.123  23.550  1.00  0.00     0.045 C 
BRANCH  20  22
ATOM     22  O   UNL A   1      30.655  27.824  21.627  1.00  0.00    -0.387 OA
ATOM     23  H   UNL A   1      30.427  28.329  20.830  1.00  0.00     0.211 HD
ENDBRANCH  20  22
ENDBRANCH  18  20
ENDBRANCH   8  18
ENDBRANCH   4   7
ENDBRANCH   2   3
ENDBRANCH   1   2
BRANCH   1  24
ATOM     24  C   UNL A   1      31.500  32.071  26.760  1.00  0.00     0.023 C 
BRANCH  24  25
ATOM     25  C   UNL A   1      32.720  32.821  27.281  1.00  0.00     0.116 C 
BRANCH  25  26
ATOM     26  N   UNL A   1      32.429  34.203  27.626  1.00  0.00    -0.352 N 
ATOM     27  C   UNL A   1      32.996  34.996  28.596  1.00  0.00     0.251 C 
ATOM     28  H   UNL A   1      31.724  34.633  27.090  1.00  0.00     0.163 HD
ATOM     29  O   UNL A   1      32.527  36.099  28.842  1.00  0.00    -0.269 OA
BRANCH  27  30
ATOM     30  C   UNL A   1      34.158  34.498  29.366  1.00  0.00     0.039 A 
ATOM     31  C   UNL A   1      33.936  33.907  30.611  1.00  0.00     0.014 A 
ATOM     32  C   UNL A   1      35.455  34.597  28.857  1.00  0.00     0.014 A 
ATOM     33  C   UNL A   1      35.007  33.351  31.313  1.00  0.00     0.010 A 
ATOM     34  C   UNL A   1      36.507  33.970  29.517  1.00  0.00     0.010 A 
ATOM     35  C   UNL A   1      36.294  33.340  30.752  1.00  0.00    -0.014 A 
BRANCH  35  36
ATOM     36  C   UNL A   1      37.428  32.670  31.440  1.00  0.00     0.031 A 
ATOM     37  C   UNL A   1      38.127  31.507  30.792  1.00  0.00     0.074 A 
ATOM     38  C   UNL A   1      37.788  33.067  32.677  1.00  0.00     0.049 A 
ATOM     39  N   UNL A   1      39.090  30.753  31.259  1.00  0.00    -0.248 NA
ATOM     40  C   UNL A   1      37.664  31.123  29.448  1.00  0.00     0.031 C 
ATOM     41  C   UNL A   1      37.157  34.151  33.433  1.00  0.00     0.029 A 
ATOM     42  N   UNL A   1      38.764  32.599  33.521  1.00  0.00    -0.354 N 
ATOM     43  C   UNL A   1      39.336  29.803  30.277  1.00  0.00     0.074 A 
ATOM     44  C   UNL A   1      38.385  30.037  29.213  1.00  0.00     0.031 C 
ATOM     45  C   UNL A   1      37.777  34.279  34.616  1.00  0.00     0.029 A 
ATOM     46  C   UNL A   1      38.817  33.260  34.724  1.00  0.00     0.049 A 
ATOM     47  H   UNL A   1      39.368  31.857  33.287  1.00  0.00     0.167 HD
ATOM     48  C   UNL A   1      40.287  28.837  30.254  1.00  0.00     0.037 A 
ATOM     49  C   UNL A   1      39.607  33.062  35.796  1.00  0.00     0.037 A 
ATOM     50  C   UNL A   1      41.243  28.619  31.308  1.00  0.00     0.049 A 
ATOM     51  C   UNL A   1      40.643  31.970  35.752  1.00  0.00     0.074 A 
ATOM     52  C   UNL A   1      42.282  27.705  31.354  1.00  0.00     0.029 A 
ATOM     53  N   UNL A   1      41.273  29.317  32.507  1.00  0.00    -0.354 N 
ATOM     54  N   UNL A   1      40.916  31.126  34.787  1.00  0.00    -0.248 NA
ATOM     55  C   UNL A   1      41.485  31.808  36.945  1.00  0.00     0.031 C 
ATOM     56  C   UNL A   1      42.903  27.811  32.602  1.00  0.00     0.029 A 
ATOM     57  C   UNL A   1      42.295  28.835  33.310  1.00  0.00     0.049 A 
ATOM     58  H   UNL A   1      40.660  30.047  32.750  1.00  0.00     0.167 HD
ATOM     59  C   UNL A   1      41.979  30.355  35.242  1.00  0.00     0.074 A 
ATOM     60  C   UNL A   1      42.310  30.845  36.564  1.00  0.00     0.031 C 
ATOM     61  C   UNL A   1      42.620  29.336  34.621  1.00  0.00     0.037 A 
BRANCH  48  62
ATOM     62  C   UNL A   1      40.338  27.941  29.050  1.00  0.00     0.064 A 
ATOM     63  C   UNL A   1      39.620  26.736  28.995  1.00  0.00     0.173 A 
ATOM     64  C   UNL A   1      41.083  28.310  27.919  1.00  0.00     0.173 A 
ATOM     65  F   UNL A   1      38.901  26.330  30.052  1.00  0.00    -0.203 F 
ATOM     66  C   UNL A   1      39.672  25.920  27.868  1.00  0.00     0.198 A 
ATOM     67  C   UNL A   1      41.105  27.509  26.780  1.00  0.00     0.198 A 
ATOM     68  F   UNL A   1      41.783  29.454  27.914  1.00  0.00    -0.203 F 
ATOM     69  F   UNL A   1      39.021  24.749  27.860  1.00  0.00    -0.200 F 
ATOM     70  C   UNL A   1      40.407  26.310  26.759  1.00  0.00     0.200 A 
ATOM     71  F   UNL A   1      41.803  27.896  25.703  1.00  0.00    -0.200 F 
ATOM     72  F   UNL A   1      40.448  25.529  25.671  1.00  0.00    -0.200 F 
ENDBRANCH  48  62
BRANCH  49  73
ATOM     73  C   UNL A   1      39.464  33.927  36.997  1.00  0.00     0.064 A 
ATOM     74  C   UNL A   1      38.713  33.508  38.103  1.00  0.00     0.173 A 
ATOM     75  C   UNL A   1      40.064  35.195  37.059  1.00  0.00     0.173 A 
ATOM     76  F   UNL A   1      38.103  32.313  38.083  1.00  0.00    -0.203 F 
ATOM     77  C   UNL A   1      38.545  34.330  39.215  1.00  0.00     0.198 A 
ATOM     78  C   UNL A   1      39.923  36.003  38.186  1.00  0.00     0.198 A 
ATOM     79  F   UNL A   1      40.798  35.642  36.031  1.00  0.00    -0.203 F 
ATOM     80  F   UNL A   1      37.778  33.924  40.236  1.00  0.00    -0.200 F 
ATOM     81  C   UNL A   1      39.156  35.574  39.258  1.00  0.00     0.200 A 
ATOM     82  F   UNL A   1      40.528  37.198  38.230  1.00  0.00    -0.200 F 
ATOM     83  F   UNL A   1      38.997  36.364  40.329  1.00  0.00    -0.200 F 
ENDBRANCH  49  73
BRANCH  61  84
ATOM     84  C   UNL A   1      43.777  28.705  35.345  1.00  0.00     0.064 A 
ATOM     85  C   UNL A   1      45.092  29.161  35.176  1.00  0.00     0.173 A 
ATOM     86  C   UNL A   1      43.556  27.655  36.251  1.00  0.00     0.173 A 
ATOM     87  F   UNL A   1      45.358  30.152  34.313  1.00  0.00    -0.203 F 
ATOM     88  C   UNL A   1      46.148  28.569  35.866  1.00  0.00     0.198 A 
ATOM     89  C   UNL A   1      44.609  27.090  36.964  1.00  0.00     0.198 A 
ATOM     90  F   UNL A   1      42.316  27.186  36.455  1.00  0.00    -0.203 F 
ATOM     91  F   UNL A   1      47.403  28.986  35.649  1.00  0.00    -0.200 F 
ATOM     92  C   UNL A   1      45.905  27.541  36.765  1.00  0.00     0.200 A 
ATOM     93  F   UNL A   1      44.371  26.108  37.844  1.00  0.00    -0.200 F 
ATOM     94  F   UNL A   1      46.922  26.980  37.434  1.00  0.00    -0.200 F 
ENDBRANCH  61  84
ENDBRANCH  35  36
ENDBRANCH  27  30
ENDBRANCH  25  26
ENDBRANCH  24  25
ENDBRANCH   1  24
TORSDOF 14
ENDMDL
MODEL 2
REMARK VINA RESULT:     -12.6      0.623      1.467
REMARK SMILES C[C@H](O)[C@H](C)[N@H+]1Cc2ccccc2C[C@@H]1C(=O)NCCCCNC(=O)c1ccc(-c2c3nc(c(-c4c(F)c(F)c(F)c(F)c4F)c4ccc([nH]4)c(-c4c(F)c(F)c(F)c(F)c4F)c4nc(c(-c5c(F)c(F)c(F)c(F)c5F)c5ccc2[nH]5)C=C4)C=C3)cc1
REMARK SMILES IDX 20 1 19 2 18 3 16 4 17 5 15 7 6 8 7 9 8 11 14 12 9 13 13 14
REMARK SMILES IDX 10 15 12 16 11 17 4 18 5 19 2 20 1 21 3 22 21 24 22 25 23 26
REMARK SMILES IDX 24 27 25 29 26 30 27 31 88 32 28 33 87 34 29 35 30 36 31 37
REMARK SMILES IDX 81 38 32 39 86 40 80 41 82 42 33 43 85 44 79 45 78 46 34 48
REMARK SMILES IDX 66 49 46 50 65 51 47 52 50 53 64 54 83 55 48 56 49 57 63 59
REMARK SMILES IDX 84 60 51 61 35 62 36 63 44 64 37 65 38 66 42 67 45 68 39 69
REMARK SMILES IDX 40 70 43 71 41 72 67 73 68 74 76 75 69 76 70 77 74 78 77 79
REMARK SMILES IDX 71 80 72 81 75 82 73 83 52 84 53 85 61 86 54 87 55 88 59 89
REMARK SMILES IDX 62 90 56 91 57 92 60 93 58 94
REMARK H PARENT 18 6 6 10 3 23 23 28 82 47 50 58
REMARK Flexibility Score: inf
ROOT
ATOM      1  C   UNL A   1      31.726  30.739  26.153  1.00  0.00     0.023 C 
ENDROOT
BRANCH   1   2
ATOM      2  C   UNL A   1      32.635  29.760  26.891  1.00  0.00     0.116 C 
BRANCH   2   3
ATOM      3  N   UNL A   1      31.936  28.553  27.262  1.00  0.00    -0.351 N 
ATOM      4  C   UNL A   1      31.434  27.553  26.478  1.00  0.00     0.278 C 
ATOM      5  O   UNL A   1      30.963  26.587  27.082  1.00  0.00    -0.268 OA
ATOM      6  H   UNL A   1      31.799  28.433  28.229  1.00  0.00     0.163 HD
BRANCH   4   7
ATOM      7  C   UNL A   1      31.533  27.646  24.925  1.00  0.00     0.279 C 
ATOM      8  N   UNL A   1      30.440  26.854  24.302  1.00  0.00    -0.316 N 
ATOM      9  C   UNL A   1      30.734  25.434  24.036  1.00  0.00     0.300 C 
ATOM     10  H   UNL A   1      29.766  26.758  25.061  1.00  0.00     0.349 HD
ATOM     11  C   UNL A   1      32.088  24.914  24.479  1.00  0.00     0.010 A 
ATOM     12  C   UNL A   1      32.938  27.256  24.446  1.00  0.00     0.111 C 
ATOM     13  C   UNL A   1      32.294  23.542  24.682  1.00  0.00     0.010 A 
ATOM     14  C   UNL A   1      33.174  25.786  24.631  1.00  0.00    -0.033 A 
ATOM     15  C   UNL A   1      33.550  23.060  25.066  1.00  0.00     0.001 A 
ATOM     16  C   UNL A   1      34.435  25.300  25.002  1.00  0.00     0.004 A 
ATOM     17  C   UNL A   1      34.617  23.939  25.229  1.00  0.00     0.000 A 
BRANCH   8  18
ATOM     18  C   UNL A   1      29.658  27.577  23.274  1.00  0.00     0.210 C 
ATOM     19  C   UNL A   1      28.133  27.527  23.436  1.00  0.00     0.078 C 
BRANCH  18  20
ATOM     20  C   UNL A   1      30.217  29.020  23.047  1.00  0.00     0.169 C 
ATOM     21  C   UNL A   1      29.287  30.180  23.365  1.00  0.00     0.045 C 
BRANCH  20  22
ATOM     22  O   UNL A   1      30.613  29.173  21.676  1.00  0.00    -0.387 OA
ATOM     23  H   UNL A   1      30.475  28.336  21.204  1.00  0.00     0.211 HD
ENDBRANCH  20  22
ENDBRANCH  18  20
ENDBRANCH   8  18
ENDBRANCH   4   7
ENDBRANCH   2   3
ENDBRANCH   1   2
BRANCH   1  24
ATOM     24  C   UNL A   1      31.468  32.057  26.881  1.00  0.00     0.023 C 
BRANCH  24  25
ATOM     25  C   UNL A   1      32.717  32.832  27.280  1.00  0.00     0.116 C 
BRANCH  25  26
ATOM     26  N   UNL A   1      32.439  34.220  27.612  1.00  0.00    -0.352 N 
ATOM     27  C   UNL A   1      33.024  35.022  28.563  1.00  0.00     0.251 C 
ATOM     28  H   UNL A   1      31.730  34.647  27.080  1.00  0.00     0.163 HD
ATOM     29  O   UNL A   1      32.565  36.131  28.801  1.00  0.00    -0.269 OA
BRANCH  27  30
ATOM     30  C   UNL A   1      34.194  34.527  29.323  1.00  0.00     0.039 A 
ATOM     31  C   UNL A   1      33.981  33.903  30.553  1.00  0.00     0.014 A 
ATOM     32  C   UNL A   1      35.489  34.662  28.819  1.00  0.00     0.014 A 
ATOM     33  C   UNL A   1      35.061  33.350  31.245  1.00  0.00     0.010 A 
ATOM     34  C   UNL A   1      36.552  34.038  29.466  1.00  0.00     0.010 A 
ATOM     35  C   UNL A   1      36.349  33.376  30.686  1.00  0.00    -0.014 A 
BRANCH  35  36
ATOM     36  C   UNL A   1      37.494  32.710  31.360  1.00  0.00     0.031 A 
ATOM     37  C   UNL A   1      38.205  31.566  30.692  1.00  0.00     0.074 A 
ATOM     38  C   UNL A   1      37.853  33.093  32.601  1.00  0.00     0.049 A 
ATOM     39  N   UNL A   1      39.179  30.818  31.145  1.00  0.00    -0.248 NA
ATOM     40  C   UNL A   1      37.743  31.196  29.345  1.00  0.00     0.031 C 
ATOM     41  C   UNL A   1      37.211  34.158  33.376  1.00  0.00     0.029 A 
ATOM     42  N   UNL A   1      38.837  32.625  33.436  1.00  0.00    -0.354 N 
ATOM     43  C   UNL A   1      39.434  29.885  30.148  1.00  0.00     0.074 A 
ATOM     44  C   UNL A   1      38.477  30.123  29.091  1.00  0.00     0.031 C 
ATOM     45  C   UNL A   1      37.833  34.276  34.559  1.00  0.00     0.029 A 
ATOM     46  C   UNL A   1      38.886  33.269  34.648  1.00  0.00     0.049 A 
ATOM     47  H   UNL A   1      39.450  31.895  33.188  1.00  0.00     0.167 HD
ATOM     48  C   UNL A   1      40.397  28.932  30.108  1.00  0.00     0.037 A 
ATOM     49  C   UNL A   1      39.683  33.065  35.714  1.00  0.00     0.037 A 
ATOM     50  C   UNL A   1      41.360  28.711  31.155  1.00  0.00     0.049 A 
ATOM     51  C   UNL A   1      40.732  31.988  35.650  1.00  0.00     0.074 A 
ATOM     52  C   UNL A   1      42.411  27.810  31.184  1.00  0.00     0.029 A 
ATOM     53  N   UNL A   1      41.385  29.392  32.364  1.00  0.00    -0.354 N 
ATOM     54  N   UNL A   1      41.013  31.161  34.671  1.00  0.00    -0.248 NA
ATOM     55  C   UNL A   1      41.580  31.819  36.838  1.00  0.00     0.031 C 
ATOM     56  C   UNL A   1      43.035  27.905  32.431  1.00  0.00     0.029 A 
ATOM     57  C   UNL A   1      42.416  28.911  33.156  1.00  0.00     0.049 A 
ATOM     58  H   UNL A   1      40.763  30.110  32.620  1.00  0.00     0.167 HD
ATOM     59  C   UNL A   1      42.087  30.398  35.112  1.00  0.00     0.074 A 
ATOM     60  C   UNL A   1      42.417  30.872  36.440  1.00  0.00     0.031 C 
ATOM     61  C   UNL A   1      42.739  29.396  34.474  1.00  0.00     0.037 A 
BRANCH  48  62
ATOM     62  C   UNL A   1      40.456  28.055  28.890  1.00  0.00     0.064 A 
ATOM     63  C   UNL A   1      39.751  26.844  28.818  1.00  0.00     0.173 A 
ATOM     64  C   UNL A   1      41.195  28.448  27.763  1.00  0.00     0.173 A 
ATOM     65  F   UNL A   1      39.037  26.414  29.870  1.00  0.00    -0.203 F 
ATOM     66  C   UNL A   1      39.809  26.045  27.679  1.00  0.00     0.198 A 
ATOM     67  C   UNL A   1      41.223  27.665  26.613  1.00  0.00     0.198 A 
ATOM     68  F   UNL A   1      41.883  29.600  27.774  1.00  0.00    -0.203 F 
ATOM     69  F   UNL A   1      39.170  24.867  27.654  1.00  0.00    -0.200 F 
ATOM     70  C   UNL A   1      40.537  26.460  26.575  1.00  0.00     0.200 A 
ATOM     71  F   UNL A   1      41.915  28.075  25.541  1.00  0.00    -0.200 F 
ATOM     72  F   UNL A   1      40.585  25.696  25.475  1.00  0.00    -0.200 F 
ENDBRANCH  48  62
BRANCH  49  73
ATOM     73  C   UNL A   1      39.533  33.911  36.928  1.00  0.00     0.064 A 
ATOM     74  C   UNL A   1      38.761  33.481  38.016  1.00  0.00     0.173 A 
ATOM     75  C   UNL A   1      40.146  35.169  37.022  1.00  0.00     0.173 A 
ATOM     76  F   UNL A   1      38.137  32.294  37.966  1.00  0.00    -0.203 F 
ATOM     77  C   UNL A   1      38.588  34.285  39.140  1.00  0.00     0.198 A 
ATOM     78  C   UNL A   1      39.999  35.959  38.161  1.00  0.00     0.198 A 
ATOM     79  F   UNL A   1      40.900  35.626  36.012  1.00  0.00    -0.203 F 
ATOM     80  F   UNL A   1      37.801  33.871  40.143  1.00  0.00    -0.200 F 
ATOM     81  C   UNL A   1      39.212  35.521  39.214  1.00  0.00     0.200 A 
ATOM     82  F   UNL A   1      40.618  37.145  38.235  1.00  0.00    -0.200 F 
ATOM     83  F   UNL A   1      39.047  36.293  40.297  1.00  0.00    -0.200 F 
ENDBRANCH  49  73
BRANCH  61  84
ATOM     84  C   UNL A   1      43.906  28.769  35.184  1.00  0.00     0.064 A 
ATOM     85  C   UNL A   1      43.753  27.646  36.010  1.00  0.00     0.173 A 
ATOM     86  C   UNL A   1      45.202  29.277  35.000  1.00  0.00     0.173 A 
ATOM     87  F   UNL A   1      42.535  27.130  36.229  1.00  0.00    -0.203 F 
ATOM     88  C   UNL A   1      44.851  27.074  36.649  1.00  0.00     0.198 A 
ATOM     89  C   UNL A   1      46.300  28.681  35.613  1.00  0.00     0.198 A 
ATOM     90  F   UNL A   1      45.405  30.346  34.214  1.00  0.00    -0.203 F 
ATOM     91  F   UNL A   1      44.673  26.034  37.477  1.00  0.00    -0.200 F 
ATOM     92  C   UNL A   1      46.123  27.586  36.444  1.00  0.00     0.200 A 
ATOM     93  F   UNL A   1      47.531  29.168  35.401  1.00  0.00    -0.200 F 
ATOM     94  F   UNL A   1      47.178  27.028  37.053  1.00  0.00    -0.200 F 
ENDBRANCH  61  84
ENDBRANCH  35  36
ENDBRANCH  27  30
ENDBRANCH  25  26
ENDBRANCH  24  25
ENDBRANCH   1  24
TORSDOF 14
ENDMDL
MODEL 3
REMARK VINA RESULT:     -12.5      0.831      7.343
REMARK SMILES C[C@H](O)[C@H](C)[N@H+]1Cc2ccccc2C[C@@H]1C(=O)NCCCCNC(=O)c1ccc(-c2c3nc(c(-c4c(F)c(F)c(F)c(F)c4F)c4ccc([nH]4)c(-c4c(F)c(F)c(F)c(F)c4F)c4nc(c(-c5c(F)c(F)c(F)c(F)c5F)c5ccc2[nH]5)C=C4)C=C3)cc1
REMARK SMILES IDX 20 1 19 2 18 3 16 4 17 5 15 7 6 8 7 9 8 11 14 12 9 13 13 14
REMARK SMILES IDX 10 15 12 16 11 17 4 18 5 19 2 20 1 21 3 22 21 24 22 25 23 26
REMARK SMILES IDX 24 27 25 29 26 30 27 31 88 32 28 33 87 34 29 35 30 36 31 37
REMARK SMILES IDX 81 38 32 39 86 40 80 41 82 42 33 43 85 44 79 45 78 46 34 48
REMARK SMILES IDX 66 49 46 50 65 51 47 52 50 53 64 54 83 55 48 56 49 57 63 59
REMARK SMILES IDX 84 60 51 61 35 62 36 63 44 64 37 65 38 66 42 67 45 68 39 69
REMARK SMILES IDX 40 70 43 71 41 72 67 73 68 74 76 75 69 76 70 77 74 78 77 79
REMARK SMILES IDX 71 80 72 81 75 82 73 83 52 84 53 85 61 86 54 87 55 88 59 89
REMARK SMILES IDX 62 90 56 91 57 92 60 93 58 94
REMARK H PARENT 18 6 6 10 3 23 23 28 82 47 50 58
REMARK Flexibility Score: inf
ROOT
ATOM      1  C   UNL A   1      31.445  30.844  26.088  1.00  0.00     0.023 C 
ENDROOT
BRANCH   1   2
ATOM      2  C   UNL A   1      32.432  30.019  26.909  1.00  0.00     0.116 C 
BRANCH   2   3
ATOM      3  N   UNL A   1      31.851  28.776  27.356  1.00  0.00    -0.351 N 
ATOM      4  C   UNL A   1      31.467  27.678  26.637  1.00  0.00     0.278 C 
ATOM      5  O   UNL A   1      31.085  26.712  27.302  1.00  0.00    -0.268 OA
ATOM      6  H   UNL A   1      31.709  28.708  28.327  1.00  0.00     0.163 HD
BRANCH   4   7
ATOM      7  C   UNL A   1      31.586  27.675  25.083  1.00  0.00     0.279 C 
ATOM      8  N   UNL A   1      30.520  26.819  24.499  1.00  0.00    -0.316 N 
ATOM      9  C   UNL A   1      30.849  25.393  24.328  1.00  0.00     0.300 C 
ATOM     10  H   UNL A   1      29.838  26.756  25.254  1.00  0.00     0.349 HD
ATOM     11  C   UNL A   1      32.208  24.933  24.819  1.00  0.00     0.010 A 
ATOM     12  C   UNL A   1      33.006  27.287  24.647  1.00  0.00     0.111 C 
ATOM     13  C   UNL A   1      32.441  23.581  25.112  1.00  0.00     0.010 A 
ATOM     14  C   UNL A   1      33.272  25.838  24.928  1.00  0.00    -0.033 A 
ATOM     15  C   UNL A   1      33.702  23.154  25.541  1.00  0.00     0.001 A 
ATOM     16  C   UNL A   1      34.538  25.406  25.346  1.00  0.00     0.004 A 
ATOM     17  C   UNL A   1      34.747  24.067  25.661  1.00  0.00     0.000 A 
BRANCH   8  18
ATOM     18  C   UNL A   1      29.736  27.457  23.417  1.00  0.00     0.210 C 
ATOM     19  C   UNL A   1      28.210  27.389  23.567  1.00  0.00     0.078 C 
BRANCH  18  20
ATOM     20  C   UNL A   1      30.271  28.893  23.100  1.00  0.00     0.169 C 
ATOM     21  C   UNL A   1      29.280  30.040  23.212  1.00  0.00     0.045 C 
BRANCH  20  22
ATOM     22  O   UNL A   1      30.794  28.927  21.764  1.00  0.00    -0.387 OA
ATOM     23  H   UNL A   1      31.733  28.687  21.778  1.00  0.00     0.211 HD
ENDBRANCH  20  22
ENDBRANCH  18  20
ENDBRANCH   8  18
ENDBRANCH   4   7
ENDBRANCH   2   3
ENDBRANCH   1   2
BRANCH   1  24
ATOM     24  C   UNL A   1      31.317  32.307  26.507  1.00  0.00     0.023 C 
BRANCH  24  25
ATOM     25  C   UNL A   1      32.520  32.876  27.247  1.00  0.00     0.116 C 
BRANCH  25  26
ATOM     26  N   UNL A   1      32.347  34.272  27.617  1.00  0.00    -0.352 N 
ATOM     27  C   UNL A   1      33.014  35.010  28.567  1.00  0.00     0.251 C 
ATOM     28  H   UNL A   1      31.653  34.758  27.118  1.00  0.00     0.163 HD
ATOM     29  O   UNL A   1      32.639  36.141  28.843  1.00  0.00    -0.269 OA
BRANCH  27  30
ATOM     30  C   UNL A   1      34.170  34.419  29.278  1.00  0.00     0.039 A 
ATOM     31  C   UNL A   1      33.937  33.666  30.430  1.00  0.00     0.014 A 
ATOM     32  C   UNL A   1      35.472  34.593  28.804  1.00  0.00     0.014 A 
ATOM     33  C   UNL A   1      35.003  33.026  31.065  1.00  0.00     0.010 A 
ATOM     34  C   UNL A   1      36.521  33.888  29.388  1.00  0.00     0.010 A 
ATOM     35  C   UNL A   1      36.297  33.098  30.525  1.00  0.00    -0.014 A 
BRANCH  35  36
ATOM     36  C   UNL A   1      37.427  32.348  31.132  1.00  0.00     0.031 A 
ATOM     37  C   UNL A   1      37.919  32.701  32.508  1.00  0.00     0.074 A 
ATOM     38  C   UNL A   1      38.054  31.391  30.418  1.00  0.00     0.049 A 
ATOM     39  N   UNL A   1      38.931  32.209  33.179  1.00  0.00    -0.248 NA
ATOM     40  C   UNL A   1      37.194  33.769  33.215  1.00  0.00     0.031 C 
ATOM     41  C   UNL A   1      37.703  30.988  29.054  1.00  0.00     0.029 A 
ATOM     42  N   UNL A   1      39.124  30.591  30.735  1.00  0.00    -0.354 N 
ATOM     43  C   UNL A   1      38.969  32.914  34.375  1.00  0.00     0.074 A 
ATOM     44  C   UNL A   1      37.919  33.906  34.316  1.00  0.00     0.031 C 
ATOM     45  C   UNL A   1      38.526  30.003  28.663  1.00  0.00     0.029 A 
ATOM     46  C   UNL A   1      39.489  29.734  29.725  1.00  0.00     0.049 A 
ATOM     47  H   UNL A   1      39.586  30.629  31.604  1.00  0.00     0.167 HD
ATOM     48  C   UNL A   1      39.791  32.733  35.437  1.00  0.00     0.037 A 
ATOM     49  C   UNL A   1      40.493  28.839  29.660  1.00  0.00     0.037 A 
ATOM     50  C   UNL A   1      40.824  31.732  35.498  1.00  0.00     0.049 A 
ATOM     51  C   UNL A   1      41.404  28.671  30.847  1.00  0.00     0.074 A 
ATOM     52  C   UNL A   1      41.671  31.430  36.551  1.00  0.00     0.029 A 
ATOM     53  N   UNL A   1      41.157  30.873  34.460  1.00  0.00    -0.354 N 
ATOM     54  N   UNL A   1      41.384  29.292  32.002  1.00  0.00    -0.248 NA
ATOM     55  C   UNL A   1      42.475  27.671  30.723  1.00  0.00     0.031 C 
ATOM     56  C   UNL A   1      42.554  30.430  36.131  1.00  0.00     0.029 A 
ATOM     57  C   UNL A   1      42.216  30.062  34.838  1.00  0.00     0.049 A 
ATOM     58  H   UNL A   1      40.708  30.845  33.585  1.00  0.00     0.167 HD
ATOM     59  C   UNL A   1      42.414  28.738  32.752  1.00  0.00     0.074 A 
ATOM     60  C   UNL A   1      43.029  27.720  31.926  1.00  0.00     0.031 C 
ATOM     61  C   UNL A   1      42.814  29.046  34.010  1.00  0.00     0.037 A 
BRANCH  48  62
ATOM     62  C   UNL A   1      39.608  33.639  36.620  1.00  0.00     0.064 A 
ATOM     63  C   UNL A   1      38.771  33.293  37.692  1.00  0.00     0.173 A 
ATOM     64  C   UNL A   1      40.310  34.852  36.705  1.00  0.00     0.173 A 
ATOM     65  F   UNL A   1      38.069  32.151  37.659  1.00  0.00    -0.203 F 
ATOM     66  C   UNL A   1      38.618  34.141  38.787  1.00  0.00     0.198 A 
ATOM     67  C   UNL A   1      40.182  35.681  37.816  1.00  0.00     0.198 A 
ATOM     68  F   UNL A   1      41.130  35.230  35.712  1.00  0.00    -0.203 F 
ATOM     69  F   UNL A   1      37.771  33.813  39.773  1.00  0.00    -0.200 F 
ATOM     70  C   UNL A   1      39.330  35.329  38.852  1.00  0.00     0.200 A 
ATOM     71  F   UNL A   1      40.884  36.821  37.884  1.00  0.00    -0.200 F 
ATOM     72  F   UNL A   1      39.190  36.139  39.910  1.00  0.00    -0.200 F 
ENDBRANCH  48  62
BRANCH  49  73
ATOM     73  C   UNL A   1      40.682  28.020  28.434  1.00  0.00     0.064 A 
ATOM     74  C   UNL A   1      40.087  26.756  28.312  1.00  0.00     0.173 A 
ATOM     75  C   UNL A   1      41.469  28.474  27.365  1.00  0.00     0.173 A 
ATOM     76  F   UNL A   1      39.342  26.268  29.315  1.00  0.00    -0.203 F 
ATOM     77  C   UNL A   1      40.291  25.969  27.180  1.00  0.00     0.198 A 
ATOM     78  C   UNL A   1      41.646  27.700  26.220  1.00  0.00     0.198 A 
ATOM     79  F   UNL A   1      42.057  29.678  27.428  1.00  0.00    -0.203 F 
ATOM     80  F   UNL A   1      39.753  24.744  27.114  1.00  0.00    -0.200 F 
ATOM     81  C   UNL A   1      41.065  26.444  26.133  1.00  0.00     0.200 A 
ATOM     82  F   UNL A   1      42.381  28.170  25.203  1.00  0.00    -0.200 F 
ATOM     83  F   UNL A   1      41.259  25.689  25.044  1.00  0.00    -0.200 F 
ENDBRANCH  49  73
BRANCH  61  84
ATOM     84  C   UNL A   1      43.945  28.245  34.591  1.00  0.00     0.064 A 
ATOM     85  C   UNL A   1      45.275  28.684  34.523  1.00  0.00     0.173 A 
ATOM     86  C   UNL A   1      43.685  27.039  35.261  1.00  0.00     0.173 A 
ATOM     87  F   UNL A   1      45.578  29.823  33.882  1.00  0.00    -0.203 F 
ATOM     88  C   UNL A   1      46.306  27.931  35.079  1.00  0.00     0.198 A 
ATOM     89  C   UNL A   1      44.715  26.307  35.846  1.00  0.00     0.198 A 
ATOM     90  F   UNL A   1      42.430  26.576  35.362  1.00  0.00    -0.203 F 
ATOM     91  F   UNL A   1      47.575  28.345  34.955  1.00  0.00    -0.200 F 
ATOM     92  C   UNL A   1      46.025  26.749  35.747  1.00  0.00     0.200 A 
ATOM     93  F   UNL A   1      44.439  25.173  36.505  1.00  0.00    -0.200 F 
ATOM     94  F   UNL A   1      47.018  26.031  36.288  1.00  0.00    -0.200 F 
ENDBRANCH  61  84
ENDBRANCH  35  36
ENDBRANCH  27  30
ENDBRANCH  25  26
ENDBRANCH  24  25
ENDBRANCH   1  24
TORSDOF 14
ENDMDL
