MODEL 1
REMARK VINA RESULT:     -12.6      0.000      0.000
REMARK SMILES O=C(NCCCCNC(=O)[C@@H]1[C@H](C(=O)Nc2ccccc2OC(F)F)[C@@H]2C=C[C@H]1C2)c1ccc(-c2c3nc(c(-c4c(F)c(F)c(F)c(F)c4F)c4ccc([nH]4)c(-c4c(F)c(F)c(F)c(F)c4F)c4nc(c(-c5c(F)c(F)c(F)c(F)c5F)c5ccc2[nH]5)C=C4)C=C3)cc1
REMARK SMILES IDX 6 1 5 2 4 3 3 4 1 5 2 6 31 8 32 9 93 10 33 11 92 12 34 13
REMARK SMILES IDX 35 14 36 15 86 16 37 17 91 18 85 19 87 20 38 21 90 22 84 23
REMARK SMILES IDX 83 24 39 26 71 27 51 28 70 29 52 30 55 31 69 32 88 33 53 34
REMARK SMILES IDX 54 35 68 37 89 38 56 39 40 40 41 41 49 42 42 43 43 44 47 45
REMARK SMILES IDX 50 46 44 47 45 48 48 49 46 50 72 51 73 52 81 53 74 54 75 55
REMARK SMILES IDX 79 56 82 57 76 58 77 59 80 60 78 61 57 62 58 63 66 64 59 65
REMARK SMILES IDX 60 66 64 67 67 68 61 69 62 70 65 71 63 72 7 73 8 74 9 75
REMARK SMILES IDX 10 77 11 78 12 79 29 80 26 81 28 82 30 83 27 84 13 85 14 86
REMARK SMILES IDX 15 87 16 89 17 90 21 91 18 92 20 93 19 94 22 95 23 96 24 97
REMARK SMILES IDX 25 98
REMARK H PARENT 3 7 87 25 55 36 8 76 15 88
REMARK Flexibility Score: inf
ROOT
ATOM      1  C   UNL A   1      36.762  20.879  24.764  1.00  0.00     0.023 C 
ENDROOT
BRANCH   1   2
ATOM      2  C   UNL A   1      37.915  19.880  24.953  1.00  0.00     0.023 C 
BRANCH   2   3
ATOM      3  C   UNL A   1      38.982  20.162  26.005  1.00  0.00     0.116 C 
BRANCH   3   4
ATOM      4  N   UNL A   1      40.082  19.219  25.941  1.00  0.00    -0.352 N 
ATOM      5  O   UNL A   1      42.200  18.507  25.726  1.00  0.00    -0.269 OA
ATOM      6  C   UNL A   1      41.443  19.419  26.021  1.00  0.00     0.251 C 
ATOM      7  H   UNL A   1      39.812  18.280  25.821  1.00  0.00     0.163 HD
BRANCH   6   8
ATOM      8  C   UNL A   1      42.014  20.726  26.442  1.00  0.00     0.039 A 
ATOM      9  C   UNL A   1      42.332  21.730  25.523  1.00  0.00     0.014 A 
ATOM     10  C   UNL A   1      42.132  20.991  27.811  1.00  0.00     0.014 A 
ATOM     11  C   UNL A   1      42.870  22.942  25.962  1.00  0.00     0.010 A 
ATOM     12  C   UNL A   1      42.591  22.237  28.254  1.00  0.00     0.010 A 
ATOM     13  C   UNL A   1      42.978  23.222  27.332  1.00  0.00    -0.014 A 
BRANCH  13  14
ATOM     14  C   UNL A   1      43.402  24.569  27.804  1.00  0.00     0.031 A 
ATOM     15  C   UNL A   1      42.388  25.619  28.159  1.00  0.00     0.074 A 
ATOM     16  C   UNL A   1      44.716  24.862  27.860  1.00  0.00     0.049 A 
ATOM     17  N   UNL A   1      42.569  26.882  28.456  1.00  0.00    -0.248 NA
ATOM     18  C   UNL A   1      40.980  25.198  28.172  1.00  0.00     0.031 C 
ATOM     19  C   UNL A   1      45.799  23.932  27.538  1.00  0.00     0.029 A 
ATOM     20  N   UNL A   1      45.368  26.024  28.194  1.00  0.00    -0.354 N 
ATOM     21  C   UNL A   1      41.303  27.415  28.656  1.00  0.00     0.074 A 
ATOM     22  C   UNL A   1      40.358  26.339  28.433  1.00  0.00     0.031 C 
ATOM     23  C   UNL A   1      46.977  24.550  27.703  1.00  0.00     0.029 A 
ATOM     24  C   UNL A   1      46.732  25.941  28.066  1.00  0.00     0.049 A 
ATOM     25  H   UNL A   1      44.901  26.837  28.494  1.00  0.00     0.167 HD
ATOM     26  C   UNL A   1      40.962  28.683  28.993  1.00  0.00     0.037 A 
ATOM     27  C   UNL A   1      47.685  26.885  28.182  1.00  0.00     0.037 A 
ATOM     28  C   UNL A   1      41.914  29.743  29.222  1.00  0.00     0.049 A 
ATOM     29  C   UNL A   1      47.284  28.291  28.521  1.00  0.00     0.074 A 
ATOM     30  C   UNL A   1      41.673  31.053  29.602  1.00  0.00     0.029 A 
ATOM     31  N   UNL A   1      43.289  29.616  29.085  1.00  0.00    -0.354 N 
ATOM     32  N   UNL A   1      46.085  28.779  28.724  1.00  0.00    -0.248 NA
ATOM     33  C   UNL A   1      48.365  29.278  28.641  1.00  0.00     0.031 C 
ATOM     34  C   UNL A   1      42.896  31.730  29.643  1.00  0.00     0.029 A 
ATOM     35  C   UNL A   1      43.907  30.829  29.349  1.00  0.00     0.049 A 
ATOM     36  H   UNL A   1      43.757  28.786  28.835  1.00  0.00     0.167 HD
ATOM     37  C   UNL A   1      46.265  30.122  29.022  1.00  0.00     0.074 A 
ATOM     38  C   UNL A   1      47.692  30.371  28.977  1.00  0.00     0.031 C 
ATOM     39  C   UNL A   1      45.330  31.060  29.310  1.00  0.00     0.037 A 
BRANCH  26  40
ATOM     40  C   UNL A   1      39.498  29.008  29.098  1.00  0.00     0.064 A 
ATOM     41  C   UNL A   1      38.815  28.980  30.324  1.00  0.00     0.173 A 
ATOM     42  C   UNL A   1      38.769  29.375  27.954  1.00  0.00     0.173 A 
ATOM     43  F   UNL A   1      39.460  28.628  31.447  1.00  0.00    -0.203 F 
ATOM     44  C   UNL A   1      37.454  29.268  30.395  1.00  0.00     0.198 A 
ATOM     45  C   UNL A   1      37.416  29.693  28.034  1.00  0.00     0.198 A 
ATOM     46  F   UNL A   1      39.372  29.429  26.757  1.00  0.00    -0.203 F 
ATOM     47  F   UNL A   1      36.813  29.178  31.568  1.00  0.00    -0.200 F 
ATOM     48  C   UNL A   1      36.757  29.629  29.253  1.00  0.00     0.200 A 
ATOM     49  F   UNL A   1      36.748  30.057  26.930  1.00  0.00    -0.200 F 
ATOM     50  F   UNL A   1      35.447  29.906  29.323  1.00  0.00    -0.200 F 
ENDBRANCH  26  40
BRANCH  27  51
ATOM     51  C   UNL A   1      49.106  26.516  27.956  1.00  0.00     0.064 A 
ATOM     52  C   UNL A   1      49.627  26.417  26.660  1.00  0.00     0.173 A 
ATOM     53  C   UNL A   1      49.984  26.310  29.031  1.00  0.00     0.173 A 
ATOM     54  F   UNL A   1      48.823  26.589  25.600  1.00  0.00    -0.203 F 
ATOM     55  C   UNL A   1      50.974  26.125  26.447  1.00  0.00     0.198 A 
ATOM     56  C   UNL A   1      51.334  26.047  28.818  1.00  0.00     0.198 A 
ATOM     57  F   UNL A   1      49.535  26.401  30.292  1.00  0.00    -0.203 F 
ATOM     58  F   UNL A   1      51.442  26.013  25.197  1.00  0.00    -0.200 F 
ATOM     59  C   UNL A   1      51.828  25.951  27.527  1.00  0.00     0.200 A 
ATOM     60  F   UNL A   1      52.160  25.900  29.863  1.00  0.00    -0.200 F 
ATOM     61  F   UNL A   1      53.126  25.693  27.320  1.00  0.00    -0.200 F 
ENDBRANCH  27  51
BRANCH  39  62
ATOM     62  C   UNL A   1      45.821  32.436  29.654  1.00  0.00     0.064 A 
ATOM     63  C   UNL A   1      45.952  33.439  28.684  1.00  0.00     0.173 A 
ATOM     64  C   UNL A   1      46.113  32.766  30.987  1.00  0.00     0.173 A 
ATOM     65  F   UNL A   1      45.702  33.167  27.394  1.00  0.00    -0.203 F 
ATOM     66  C   UNL A   1      46.373  34.720  29.033  1.00  0.00     0.198 A 
ATOM     67  C   UNL A   1      46.506  34.054  31.336  1.00  0.00     0.198 A 
ATOM     68  F   UNL A   1      46.000  31.841  31.953  1.00  0.00    -0.203 F 
ATOM     69  F   UNL A   1      46.530  35.653  28.085  1.00  0.00    -0.200 F 
ATOM     70  C   UNL A   1      46.641  35.028  30.359  1.00  0.00     0.200 A 
ATOM     71  F   UNL A   1      46.751  34.353  32.619  1.00  0.00    -0.200 F 
ATOM     72  F   UNL A   1      47.034  36.264  30.695  1.00  0.00    -0.200 F 
ENDBRANCH  39  62
ENDBRANCH  13  14
ENDBRANCH   6   8
ENDBRANCH   3   4
ENDBRANCH   2   3
ENDBRANCH   1   2
BRANCH   1  73
ATOM     73  C   UNL A   1      37.066  22.247  24.125  1.00  0.00     0.116 C 
BRANCH  73  74
ATOM     74  N   UNL A   1      35.980  23.250  24.407  1.00  0.00    -0.356 N 
ATOM     75  C   UNL A   1      34.688  23.669  24.198  1.00  0.00     0.224 C 
ATOM     76  H   UNL A   1      36.376  23.907  25.023  1.00  0.00     0.163 HD
ATOM     77  O   UNL A   1      34.166  24.583  24.848  1.00  0.00    -0.275 OA
BRANCH  75  78
ATOM     78  C   UNL A   1      33.842  23.145  23.137  1.00  0.00     0.098 C 
ATOM     79  C   UNL A   1      32.806  24.182  22.849  1.00  0.00     0.099 C 
ATOM     80  C   UNL A   1      33.139  21.860  23.623  1.00  0.00     0.025 C 
ATOM     81  C   UNL A   1      31.510  23.392  23.411  1.00  0.00     0.025 C 
ATOM     82  C   UNL A   1      32.562  22.042  24.999  1.00  0.00    -0.027 C 
ATOM     83  C   UNL A   1      31.821  21.957  22.861  1.00  0.00     0.017 C 
ATOM     84  C   UNL A   1      31.545  22.906  24.860  1.00  0.00    -0.027 C 
BRANCH  79  85
ATOM     85  C   UNL A   1      33.287  25.744  22.830  1.00  0.00     0.229 C 
ATOM     86  O   UNL A   1      33.927  26.004  21.776  1.00  0.00    -0.274 OA
ATOM     87  N   UNL A   1      33.207  26.920  23.570  1.00  0.00    -0.323 N 
ATOM     88  H   UNL A   1      33.870  27.484  23.111  1.00  0.00     0.170 HD
BRANCH  87  89
ATOM     89  C   UNL A   1      32.719  27.855  24.653  1.00  0.00     0.084 A 
ATOM     90  C   UNL A   1      33.607  27.757  25.778  1.00  0.00     0.030 A 
ATOM     91  C   UNL A   1      31.721  28.897  24.845  1.00  0.00     0.149 A 
ATOM     92  C   UNL A   1      33.594  28.612  26.904  1.00  0.00     0.002 A 
ATOM     93  C   UNL A   1      31.710  29.718  26.007  1.00  0.00     0.049 A 
ATOM     94  C   UNL A   1      32.654  29.610  27.008  1.00  0.00     0.004 A 
BRANCH  91  95
ATOM     95  O   UNL A   1      30.622  29.092  24.056  1.00  0.00    -0.433 OA
BRANCH  95  96
ATOM     96  C   UNL A   1      29.791  28.060  23.432  1.00  0.00     0.542 C 
ATOM     97  F   UNL A   1      30.332  27.518  22.321  1.00  0.00    -0.167 F 
ATOM     98  F   UNL A   1      29.670  27.012  24.297  1.00  0.00    -0.167 F 
ENDBRANCH  95  96
ENDBRANCH  91  95
ENDBRANCH  87  89
ENDBRANCH  79  85
ENDBRANCH  75  78
ENDBRANCH  73  74
ENDBRANCH   1  73
TORSDOF 15
ENDMDL
MODEL 2
REMARK VINA RESULT:     -12.5      0.255      1.940
REMARK SMILES O=C(NCCCCNC(=O)[C@@H]1[C@H](C(=O)Nc2ccccc2OC(F)F)[C@@H]2C=C[C@H]1C2)c1ccc(-c2c3nc(c(-c4c(F)c(F)c(F)c(F)c4F)c4ccc([nH]4)c(-c4c(F)c(F)c(F)c(F)c4F)c4nc(c(-c5c(F)c(F)c(F)c(F)c5F)c5ccc2[nH]5)C=C4)C=C3)cc1
REMARK SMILES IDX 6 1 5 2 4 3 3 4 1 5 2 6 31 8 32 9 93 10 33 11 92 12 34 13
REMARK SMILES IDX 35 14 36 15 86 16 37 17 91 18 85 19 87 20 38 21 90 22 84 23
REMARK SMILES IDX 83 24 39 26 71 27 51 28 70 29 52 30 55 31 69 32 88 33 53 34
REMARK SMILES IDX 54 35 68 37 89 38 56 39 40 40 41 41 49 42 42 43 43 44 47 45
REMARK SMILES IDX 50 46 44 47 45 48 48 49 46 50 72 51 73 52 81 53 74 54 75 55
REMARK SMILES IDX 79 56 82 57 76 58 77 59 80 60 78 61 57 62 58 63 66 64 59 65
REMARK SMILES IDX 60 66 64 67 67 68 61 69 62 70 65 71 63 72 7 73 8 74 9 75
REMARK SMILES IDX 10 77 11 78 12 79 29 80 26 81 28 82 30 83 27 84 13 85 14 86
REMARK SMILES IDX 15 87 16 89 17 90 21 91 18 92 20 93 19 94 22 95 23 96 24 97
REMARK SMILES IDX 25 98
REMARK H PARENT 3 7 87 25 55 36 8 76 15 88
REMARK Flexibility Score: inf
ROOT
ATOM      1  C   UNL A   1      36.813  20.745  24.787  1.00  0.00     0.023 C 
ENDROOT
BRANCH   1   2
ATOM      2  C   UNL A   1      38.001  19.792  24.990  1.00  0.00     0.023 C 
BRANCH   2   3
ATOM      3  C   UNL A   1      39.123  20.191  25.942  1.00  0.00     0.116 C 
BRANCH   3   4
ATOM      4  N   UNL A   1      40.228  19.252  25.916  1.00  0.00    -0.352 N 
ATOM      5  O   UNL A   1      42.353  18.546  25.759  1.00  0.00    -0.269 OA
ATOM      6  C   UNL A   1      41.586  19.459  26.024  1.00  0.00     0.251 C 
ATOM      7  H   UNL A   1      39.964  18.310  25.804  1.00  0.00     0.163 HD
BRANCH   6   8
ATOM      8  C   UNL A   1      42.142  20.774  26.438  1.00  0.00     0.039 A 
ATOM      9  C   UNL A   1      42.483  21.763  25.513  1.00  0.00     0.014 A 
ATOM     10  C   UNL A   1      42.221  21.062  27.806  1.00  0.00     0.014 A 
ATOM     11  C   UNL A   1      43.006  22.984  25.946  1.00  0.00     0.010 A 
ATOM     12  C   UNL A   1      42.665  22.316  28.241  1.00  0.00     0.010 A 
ATOM     13  C   UNL A   1      43.075  23.287  27.314  1.00  0.00    -0.014 A 
BRANCH  13  14
ATOM     14  C   UNL A   1      43.483  24.643  27.774  1.00  0.00     0.031 A 
ATOM     15  C   UNL A   1      42.457  25.682  28.128  1.00  0.00     0.074 A 
ATOM     16  C   UNL A   1      44.793  24.954  27.823  1.00  0.00     0.049 A 
ATOM     17  N   UNL A   1      42.622  26.949  28.416  1.00  0.00    -0.248 NA
ATOM     18  C   UNL A   1      41.055  25.241  28.151  1.00  0.00     0.031 C 
ATOM     19  C   UNL A   1      45.887  24.037  27.501  1.00  0.00     0.029 A 
ATOM     20  N   UNL A   1      45.431  26.127  28.145  1.00  0.00    -0.354 N 
ATOM     21  C   UNL A   1      41.349  27.465  28.618  1.00  0.00     0.074 A 
ATOM     22  C   UNL A   1      40.418  26.376  28.407  1.00  0.00     0.031 C 
ATOM     23  C   UNL A   1      47.058  24.672  27.656  1.00  0.00     0.029 A 
ATOM     24  C   UNL A   1      46.795  26.062  28.011  1.00  0.00     0.049 A 
ATOM     25  H   UNL A   1      44.954  26.936  28.443  1.00  0.00     0.167 HD
ATOM     26  C   UNL A   1      40.993  28.731  28.948  1.00  0.00     0.037 A 
ATOM     27  C   UNL A   1      47.736  27.020  28.117  1.00  0.00     0.037 A 
ATOM     28  C   UNL A   1      41.931  29.806  29.166  1.00  0.00     0.049 A 
ATOM     29  C   UNL A   1      47.317  28.422  28.449  1.00  0.00     0.074 A 
ATOM     30  C   UNL A   1      41.674  31.114  29.539  1.00  0.00     0.029 A 
ATOM     31  N   UNL A   1      43.307  29.696  29.022  1.00  0.00    -0.354 N 
ATOM     32  N   UNL A   1      46.112  28.896  28.654  1.00  0.00    -0.248 NA
ATOM     33  C   UNL A   1      48.385  29.425  28.556  1.00  0.00     0.031 C 
ATOM     34  C   UNL A   1      42.888  31.809  29.569  1.00  0.00     0.029 A 
ATOM     35  C   UNL A   1      43.910  30.919  29.276  1.00  0.00     0.049 A 
ATOM     36  H   UNL A   1      43.785  28.871  28.776  1.00  0.00     0.167 HD
ATOM     37  C   UNL A   1      46.276  30.242  28.942  1.00  0.00     0.074 A 
ATOM     38  C   UNL A   1      47.699  30.511  28.889  1.00  0.00     0.031 C 
ATOM     39  C   UNL A   1      45.330  31.169  29.229  1.00  0.00     0.037 A 
BRANCH  26  40
ATOM     40  C   UNL A   1      39.525  29.036  29.058  1.00  0.00     0.064 A 
ATOM     41  C   UNL A   1      38.751  29.385  27.941  1.00  0.00     0.173 A 
ATOM     42  C   UNL A   1      38.876  28.957  30.302  1.00  0.00     0.173 A 
ATOM     43  F   UNL A   1      39.320  29.484  26.731  1.00  0.00    -0.203 F 
ATOM     44  C   UNL A   1      37.395  29.679  28.070  1.00  0.00     0.198 A 
ATOM     45  C   UNL A   1      37.514  29.221  30.422  1.00  0.00     0.198 A 
ATOM     46  F   UNL A   1      39.563  28.618  31.403  1.00  0.00    -0.203 F 
ATOM     47  F   UNL A   1      36.691  30.066  26.997  1.00  0.00    -0.200 F 
ATOM     48  C   UNL A   1      36.777  29.593  29.308  1.00  0.00     0.200 A 
ATOM     49  F   UNL A   1      36.915  29.122  31.617  1.00  0.00    -0.200 F 
ATOM     50  F   UNL A   1      35.472  29.876  29.430  1.00  0.00    -0.200 F 
ENDBRANCH  26  40
BRANCH  27  51
ATOM     51  C   UNL A   1      49.161  26.668  27.886  1.00  0.00     0.064 A 
ATOM     52  C   UNL A   1      50.028  26.434  28.961  1.00  0.00     0.173 A 
ATOM     53  C   UNL A   1      49.668  26.505  26.588  1.00  0.00     0.173 A 
ATOM     54  F   UNL A   1      49.593  26.595  30.219  1.00  0.00    -0.203 F 
ATOM     55  C   UNL A   1      51.351  26.050  28.745  1.00  0.00     0.198 A 
ATOM     56  C   UNL A   1      50.981  26.094  26.375  1.00  0.00     0.198 A 
ATOM     57  F   UNL A   1      48.875  26.710  25.526  1.00  0.00    -0.203 F 
ATOM     58  F   UNL A   1      52.167  25.855  29.790  1.00  0.00    -0.200 F 
ATOM     59  C   UNL A   1      51.823  25.870  27.453  1.00  0.00     0.200 A 
ATOM     60  F   UNL A   1      51.427  25.900  25.126  1.00  0.00    -0.200 F 
ATOM     61  F   UNL A   1      53.088  25.480  27.249  1.00  0.00    -0.200 F 
ENDBRANCH  27  51
BRANCH  39  62
ATOM     62  C   UNL A   1      45.803  32.554  29.561  1.00  0.00     0.064 A 
ATOM     63  C   UNL A   1      46.160  32.923  30.865  1.00  0.00     0.173 A 
ATOM     64  C   UNL A   1      45.949  33.510  28.543  1.00  0.00     0.173 A 
ATOM     65  F   UNL A   1      46.020  32.050  31.875  1.00  0.00    -0.203 F 
ATOM     66  C   UNL A   1      46.631  34.204  31.142  1.00  0.00     0.198 A 
ATOM     67  C   UNL A   1      46.448  34.780  28.818  1.00  0.00     0.198 A 
ATOM     68  F   UNL A   1      45.624  33.205  27.277  1.00  0.00    -0.203 F 
ATOM     69  F   UNL A   1      46.930  34.548  32.403  1.00  0.00    -0.200 F 
ATOM     70  C   UNL A   1      46.783  35.127  30.118  1.00  0.00     0.200 A 
ATOM     71  F   UNL A   1      46.606  35.665  27.826  1.00  0.00    -0.200 F 
ATOM     72  F   UNL A   1      47.249  36.354  30.385  1.00  0.00    -0.200 F 
ENDBRANCH  39  62
ENDBRANCH  13  14
ENDBRANCH   6   8
ENDBRANCH   3   4
ENDBRANCH   2   3
ENDBRANCH   1   2
BRANCH   1  73
ATOM     73  C   UNL A   1      37.039  22.056  24.011  1.00  0.00     0.116 C 
BRANCH  73  74
ATOM     74  N   UNL A   1      35.975  23.076  24.312  1.00  0.00    -0.356 N 
ATOM     75  C   UNL A   1      34.690  23.524  24.116  1.00  0.00     0.224 C 
ATOM     76  H   UNL A   1      36.388  23.717  24.935  1.00  0.00     0.163 HD
ATOM     77  O   UNL A   1      34.190  24.439  24.781  1.00  0.00    -0.275 OA
BRANCH  75  78
ATOM     78  C   UNL A   1      33.829  23.032  23.052  1.00  0.00     0.098 C 
ATOM     79  C   UNL A   1      32.803  24.087  22.796  1.00  0.00     0.099 C 
ATOM     80  C   UNL A   1      33.115  21.746  23.518  1.00  0.00     0.025 C 
ATOM     81  C   UNL A   1      31.502  23.300  23.353  1.00  0.00     0.025 C 
ATOM     82  C   UNL A   1      32.554  21.906  24.903  1.00  0.00    -0.027 C 
ATOM     83  C   UNL A   1      31.791  21.873  22.771  1.00  0.00     0.017 C 
ATOM     84  C   UNL A   1      31.545  22.784  24.792  1.00  0.00    -0.027 C 
BRANCH  79  85
ATOM     85  C   UNL A   1      33.302  25.643  22.805  1.00  0.00     0.229 C 
ATOM     86  O   UNL A   1      33.942  25.915  21.753  1.00  0.00    -0.274 OA
ATOM     87  N   UNL A   1      33.237  26.806  23.567  1.00  0.00    -0.323 N 
ATOM     88  H   UNL A   1      33.905  27.370  23.116  1.00  0.00     0.170 HD
BRANCH  87  89
ATOM     89  C   UNL A   1      32.763  27.726  24.669  1.00  0.00     0.084 A 
ATOM     90  C   UNL A   1      33.685  27.641  25.767  1.00  0.00     0.030 A 
ATOM     91  C   UNL A   1      31.750  28.747  24.895  1.00  0.00     0.149 A 
ATOM     92  C   UNL A   1      33.688  28.489  26.897  1.00  0.00     0.002 A 
ATOM     93  C   UNL A   1      31.757  29.562  26.061  1.00  0.00     0.049 A 
ATOM     94  C   UNL A   1      32.732  29.468  27.033  1.00  0.00     0.004 A 
BRANCH  91  95
ATOM     95  O   UNL A   1      30.625  28.925  24.139  1.00  0.00    -0.433 OA
BRANCH  95  96
ATOM     96  C   UNL A   1      29.810  27.880  23.515  1.00  0.00     0.542 C 
ATOM     97  F   UNL A   1      28.535  28.252  23.272  1.00  0.00    -0.167 F 
ATOM     98  F   UNL A   1      30.323  27.600  22.283  1.00  0.00    -0.167 F 
ENDBRANCH  95  96
ENDBRANCH  91  95
ENDBRANCH  87  89
ENDBRANCH  79  85
ENDBRANCH  75  78
ENDBRANCH  73  74
ENDBRANCH   1  73
TORSDOF 15
ENDMDL
MODEL 3
REMARK VINA RESULT:     -12.5      5.194     10.419
REMARK SMILES O=C(NCCCCNC(=O)[C@@H]1[C@H](C(=O)Nc2ccccc2OC(F)F)[C@@H]2C=C[C@H]1C2)c1ccc(-c2c3nc(c(-c4c(F)c(F)c(F)c(F)c4F)c4ccc([nH]4)c(-c4c(F)c(F)c(F)c(F)c4F)c4nc(c(-c5c(F)c(F)c(F)c(F)c5F)c5ccc2[nH]5)C=C4)C=C3)cc1
REMARK SMILES IDX 6 1 5 2 4 3 3 4 1 5 2 6 31 8 32 9 93 10 33 11 92 12 34 13
REMARK SMILES IDX 35 14 36 15 86 16 37 17 91 18 85 19 87 20 38 21 90 22 84 23
REMARK SMILES IDX 83 24 39 26 71 27 51 28 70 29 52 30 55 31 69 32 88 33 53 34
REMARK SMILES IDX 54 35 68 37 89 38 56 39 40 40 41 41 49 42 42 43 43 44 47 45
REMARK SMILES IDX 50 46 44 47 45 48 48 49 46 50 72 51 73 52 81 53 74 54 75 55
REMARK SMILES IDX 79 56 82 57 76 58 77 59 80 60 78 61 57 62 58 63 66 64 59 65
REMARK SMILES IDX 60 66 64 67 67 68 61 69 62 70 65 71 63 72 7 73 8 74 9 75
REMARK SMILES IDX 10 77 11 78 12 79 29 80 26 81 28 82 30 83 27 84 13 85 14 86
REMARK SMILES IDX 15 87 16 89 17 90 21 91 18 92 20 93 19 94 22 95 23 96 24 97
REMARK SMILES IDX 25 98
REMARK H PARENT 3 7 87 25 55 36 8 76 15 88
REMARK Flexibility Score: inf
ROOT
ATOM      1  C   UNL A   1      31.403  30.670  26.410  1.00  0.00     0.023 C 
ENDROOT
BRANCH   1   2
ATOM      2  C   UNL A   1      31.410  32.185  26.670  1.00  0.00     0.023 C 
BRANCH   2   3
ATOM      3  C   UNL A   1      32.698  32.857  27.134  1.00  0.00     0.116 C 
BRANCH   3   4
ATOM      4  N   UNL A   1      32.471  34.202  27.626  1.00  0.00    -0.352 N 
ATOM      5  O   UNL A   1      32.528  35.929  29.059  1.00  0.00    -0.269 OA
ATOM      6  C   UNL A   1      33.022  34.872  28.696  1.00  0.00     0.251 C 
ATOM      7  H   UNL A   1      31.816  34.724  27.108  1.00  0.00     0.163 HD
BRANCH   6   8
ATOM      8  C   UNL A   1      34.196  34.332  29.432  1.00  0.00     0.039 A 
ATOM      9  C   UNL A   1      34.057  33.505  30.549  1.00  0.00     0.014 A 
ATOM     10  C   UNL A   1      35.475  34.576  28.917  1.00  0.00     0.014 A 
ATOM     11  C   UNL A   1      35.187  33.022  31.213  1.00  0.00     0.010 A 
ATOM     12  C   UNL A   1      36.603  34.022  29.533  1.00  0.00     0.010 A 
ATOM     13  C   UNL A   1      36.471  33.248  30.697  1.00  0.00    -0.014 A 
BRANCH  13  14
ATOM     14  C   UNL A   1      37.665  32.605  31.312  1.00  0.00     0.031 A 
ATOM     15  C   UNL A   1      38.384  31.484  30.616  1.00  0.00     0.074 A 
ATOM     16  C   UNL A   1      38.069  33.001  32.534  1.00  0.00     0.049 A 
ATOM     17  N   UNL A   1      39.352  30.718  31.056  1.00  0.00    -0.248 NA
ATOM     18  C   UNL A   1      37.952  31.174  29.246  1.00  0.00     0.031 C 
ATOM     19  C   UNL A   1      37.453  34.075  33.315  1.00  0.00     0.029 A 
ATOM     20  N   UNL A   1      39.082  32.544  33.342  1.00  0.00    -0.354 N 
ATOM     21  C   UNL A   1      39.620  29.815  30.035  1.00  0.00     0.074 A 
ATOM     22  C   UNL A   1      38.703  30.120  28.956  1.00  0.00     0.031 C 
ATOM     23  C   UNL A   1      38.106  34.205  34.479  1.00  0.00     0.029 A 
ATOM     24  C   UNL A   1      39.134  33.175  34.560  1.00  0.00     0.049 A 
ATOM     25  H   UNL A   1      39.707  31.833  33.073  1.00  0.00     0.167 HD
ATOM     26  C   UNL A   1      40.545  28.824  30.005  1.00  0.00     0.037 A 
ATOM     27  C   UNL A   1      39.894  32.929  35.645  1.00  0.00     0.037 A 
ATOM     28  C   UNL A   1      41.461  28.537  31.082  1.00  0.00     0.049 A 
ATOM     29  C   UNL A   1      40.887  31.805  35.602  1.00  0.00     0.074 A 
ATOM     30  C   UNL A   1      42.459  27.579  31.136  1.00  0.00     0.029 A 
ATOM     31  N   UNL A   1      41.483  29.203  32.300  1.00  0.00    -0.354 N 
ATOM     32  N   UNL A   1      41.144  30.969  34.627  1.00  0.00    -0.248 NA
ATOM     33  C   UNL A   1      41.691  31.585  36.812  1.00  0.00     0.031 C 
ATOM     34  C   UNL A   1      43.049  27.630  32.403  1.00  0.00     0.029 A 
ATOM     35  C   UNL A   1      42.461  28.661  33.119  1.00  0.00     0.049 A 
ATOM     36  H   UNL A   1      40.890  29.950  32.546  1.00  0.00     0.167 HD
ATOM     37  C   UNL A   1      42.156  30.141  35.090  1.00  0.00     0.074 A 
ATOM     38  C   UNL A   1      42.470  30.579  36.435  1.00  0.00     0.031 C 
ATOM     39  C   UNL A   1      42.770  29.114  34.454  1.00  0.00     0.037 A 
BRANCH  26  40
ATOM     40  C   UNL A   1      40.592  27.951  28.781  1.00  0.00     0.064 A 
ATOM     41  C   UNL A   1      39.850  26.764  28.686  1.00  0.00     0.173 A 
ATOM     42  C   UNL A   1      41.376  28.322  27.676  1.00  0.00     0.173 A 
ATOM     43  F   UNL A   1      39.091  26.358  29.714  1.00  0.00    -0.203 F 
ATOM     44  C   UNL A   1      39.921  25.962  27.548  1.00  0.00     0.198 A 
ATOM     45  C   UNL A   1      41.420  27.534  26.528  1.00  0.00     0.198 A 
ATOM     46  F   UNL A   1      42.097  29.452  27.706  1.00  0.00    -0.203 F 
ATOM     47  F   UNL A   1      39.249  24.804  27.505  1.00  0.00    -0.200 F 
ATOM     48  C   UNL A   1      40.701  26.349  26.469  1.00  0.00     0.200 A 
ATOM     49  F   UNL A   1      42.163  27.919  25.481  1.00  0.00    -0.200 F 
ATOM     50  F   UNL A   1      40.769  25.577  25.376  1.00  0.00    -0.200 F 
ENDBRANCH  26  40
BRANCH  27  51
ATOM     51  C   UNL A   1      39.717  33.764  36.861  1.00  0.00     0.064 A 
ATOM     52  C   UNL A   1      40.361  35.001  36.985  1.00  0.00     0.173 A 
ATOM     53  C   UNL A   1      38.856  33.367  37.896  1.00  0.00     0.173 A 
ATOM     54  F   UNL A   1      41.206  35.415  36.029  1.00  0.00    -0.203 F 
ATOM     55  C   UNL A   1      40.153  35.811  38.101  1.00  0.00     0.198 A 
ATOM     56  C   UNL A   1      38.626  34.190  38.996  1.00  0.00     0.198 A 
ATOM     57  F   UNL A   1      38.210  32.195  37.820  1.00  0.00    -0.203 F 
ATOM     58  F   UNL A   1      40.799  36.979  38.207  1.00  0.00    -0.200 F 
ATOM     59  C   UNL A   1      39.277  35.410  39.099  1.00  0.00     0.200 A 
ATOM     60  F   UNL A   1      37.764  33.808  39.948  1.00  0.00    -0.200 F 
ATOM     61  F   UNL A   1      39.061  36.199  40.160  1.00  0.00    -0.200 F 
ENDBRANCH  27  51
BRANCH  39  62
ATOM     62  C   UNL A   1      43.884  28.422  35.183  1.00  0.00     0.064 A 
ATOM     63  C   UNL A   1      45.209  28.871  35.110  1.00  0.00     0.173 A 
ATOM     64  C   UNL A   1      43.607  27.321  36.008  1.00  0.00     0.173 A 
ATOM     65  F   UNL A   1      45.528  29.908  34.319  1.00  0.00    -0.203 F 
ATOM     66  C   UNL A   1      46.221  28.234  35.824  1.00  0.00     0.198 A 
ATOM     67  C   UNL A   1      44.615  26.705  36.744  1.00  0.00     0.198 A 
ATOM     68  F   UNL A   1      42.353  26.855  36.115  1.00  0.00    -0.203 F 
ATOM     69  F   UNL A   1      47.488  28.656  35.710  1.00  0.00    -0.200 F 
ATOM     70  C   UNL A   1      45.921  27.159  36.647  1.00  0.00     0.200 A 
ATOM     71  F   UNL A   1      44.321  25.675  37.548  1.00  0.00    -0.200 F 
ATOM     72  F   UNL A   1      46.893  26.556  37.345  1.00  0.00    -0.200 F 
ENDBRANCH  39  62
ENDBRANCH  13  14
ENDBRANCH   6   8
ENDBRANCH   3   4
ENDBRANCH   2   3
ENDBRANCH   1   2
BRANCH   1  73
ATOM     73  C   UNL A   1      32.493  29.803  27.066  1.00  0.00     0.116 C 
BRANCH  73  74
ATOM     74  N   UNL A   1      32.789  28.569  26.256  1.00  0.00    -0.356 N 
ATOM     75  C   UNL A   1      32.322  27.541  25.471  1.00  0.00     0.224 C 
ATOM     76  H   UNL A   1      33.763  28.438  26.314  1.00  0.00     0.163 HD
ATOM     77  O   UNL A   1      33.072  26.776  24.854  1.00  0.00    -0.275 OA
BRANCH  75  78
ATOM     78  C   UNL A   1      30.913  27.197  25.365  1.00  0.00     0.098 C 
ATOM     79  C   UNL A   1      30.836  25.716  25.188  1.00  0.00     0.099 C 
ATOM     80  C   UNL A   1      30.307  27.880  24.121  1.00  0.00     0.025 C 
ATOM     81  C   UNL A   1      30.311  25.681  23.657  1.00  0.00     0.025 C 
ATOM     82  C   UNL A   1      31.197  27.713  22.921  1.00  0.00    -0.027 C 
ATOM     83  C   UNL A   1      29.262  26.845  23.715  1.00  0.00     0.017 C 
ATOM     84  C   UNL A   1      31.145  26.410  22.603  1.00  0.00    -0.027 C 
BRANCH  79  85
ATOM     85  C   UNL A   1      31.848  24.795  26.082  1.00  0.00     0.229 C 
ATOM     86  O   UNL A   1      31.403  24.645  27.252  1.00  0.00    -0.274 OA
ATOM     87  N   UNL A   1      33.036  24.077  25.992  1.00  0.00    -0.323 N 
ATOM     88  H   UNL A   1      33.221  23.888  26.940  1.00  0.00     0.170 HD
BRANCH  87  89
ATOM     89  C   UNL A   1      34.217  23.412  25.320  1.00  0.00     0.084 A 
ATOM     90  C   UNL A   1      35.410  24.128  25.676  1.00  0.00     0.030 A 
ATOM     91  C   UNL A   1      34.517  22.217  24.545  1.00  0.00     0.149 A 
ATOM     92  C   UNL A   1      36.729  23.701  25.401  1.00  0.00     0.002 A 
ATOM     93  C   UNL A   1      35.854  21.832  24.252  1.00  0.00     0.049 A 
ATOM     94  C   UNL A   1      36.952  22.536  24.705  1.00  0.00     0.004 A 
BRANCH  91  95
ATOM     95  O   UNL A   1      33.596  21.449  23.890  1.00  0.00    -0.433 OA
BRANCH  95  96
ATOM     96  C   UNL A   1      32.541  21.917  22.987  1.00  0.00     0.542 C 
ATOM     97  F   UNL A   1      31.498  22.497  23.618  1.00  0.00    -0.167 F 
ATOM     98  F   UNL A   1      33.048  22.902  22.193  1.00  0.00    -0.167 F 
ENDBRANCH  95  96
ENDBRANCH  91  95
ENDBRANCH  87  89
ENDBRANCH  79  85
ENDBRANCH  75  78
ENDBRANCH  73  74
ENDBRANCH   1  73
TORSDOF 15
ENDMDL
