MODEL 1
REMARK VINA RESULT:     -12.1      0.000      0.000
REMARK SMILES CC[NH2+][C@]1(C(=O)NCCCCNC(=O)c2ccc(-c3c4nc(c(-c5c(F)c(F)c(F)c(F)c5F)c5ccc([nH]5)c(-c5c(F)c(F)c(F)c(F)c5F)c5nc(c(-c6c(F)c(F)c(F)c(F)c6F)c6ccc3[nH]6)C=C5)C=C4)cc2)CCC[C@@H](n2cccn2)C1
REMARK SMILES IDX 9 1 8 2 7 3 5 4 6 5 4 7 78 8 87 9 79 10 81 11 80 12 3 13
REMARK SMILES IDX 2 16 1 17 82 18 83 19 86 20 84 21 85 22 10 23 11 24 12 25
REMARK SMILES IDX 13 26 14 28 15 29 16 30 77 31 17 32 76 33 18 34 19 35 20 36
REMARK SMILES IDX 70 37 21 38 75 39 69 40 71 41 22 42 74 43 68 44 67 45 23 47
REMARK SMILES IDX 55 48 35 49 54 50 36 51 39 52 53 53 72 54 37 55 38 56 52 58
REMARK SMILES IDX 73 59 40 60 24 61 25 62 33 63 26 64 27 65 31 66 34 67 28 68
REMARK SMILES IDX 29 69 32 70 30 71 56 72 57 73 65 74 58 75 59 76 63 77 66 78
REMARK SMILES IDX 60 79 61 80 64 81 62 82 41 83 42 84 50 85 43 86 44 87 48 88
REMARK SMILES IDX 51 89 45 90 46 91 49 92 47 93
REMARK H PARENT 7 6 3 14 3 15 12 27 71 46 39 57
REMARK Flexibility Score: inf
ROOT
ATOM      1  C   UNL A   1      31.767  30.785  25.932  1.00  0.00     0.023 C 
ENDROOT
BRANCH   1   2
ATOM      2  C   UNL A   1      32.453  29.430  26.077  1.00  0.00     0.116 C 
BRANCH   2   3
ATOM      3  N   UNL A   1      33.529  29.185  25.125  1.00  0.00    -0.351 N 
ATOM      4  C   UNL A   1      33.543  28.745  23.827  1.00  0.00     0.281 C 
ATOM      5  O   UNL A   1      34.625  28.867  23.241  1.00  0.00    -0.268 OA
ATOM      6  H   UNL A   1      34.424  29.373  25.487  1.00  0.00     0.163 HD
BRANCH   4   7
ATOM      7  C   UNL A   1      32.309  28.017  23.134  1.00  0.00     0.177 C 
ATOM      8  C   UNL A   1      31.714  26.991  24.131  1.00  0.00     0.079 C 
ATOM      9  C   UNL A   1      31.276  29.148  22.921  1.00  0.00     0.106 C 
ATOM     10  C   UNL A   1      30.296  26.521  23.804  1.00  0.00     0.009 C 
ATOM     11  C   UNL A   1      29.863  28.705  22.530  1.00  0.00     0.114 C 
ATOM     12  C   UNL A   1      29.332  27.675  23.541  1.00  0.00     0.028 C 
BRANCH   7  13
ATOM     13  N   UNL A   1      32.823  27.387  21.898  1.00  0.00    -0.334 N 
ATOM     14  H   UNL A   1      32.053  27.411  21.228  1.00  0.00     0.347 HD
ATOM     15  H   UNL A   1      33.663  27.937  21.717  1.00  0.00     0.347 HD
BRANCH  13  16
ATOM     16  C   UNL A   1      33.340  26.033  21.872  1.00  0.00     0.257 C 
ATOM     17  C   UNL A   1      32.626  25.281  20.753  1.00  0.00     0.071 C 
ENDBRANCH  13  16
ENDBRANCH   7  13
BRANCH  11  18
ATOM     18  N   UNL A   1      28.978  29.868  22.364  1.00  0.00    -0.269 N 
ATOM     19  C   UNL A   1      28.636  30.777  23.332  1.00  0.00     0.109 A 
ATOM     20  N   UNL A   1      28.470  30.187  21.156  1.00  0.00    -0.181 NA
ATOM     21  C   UNL A   1      27.822  31.703  22.725  1.00  0.00     0.042 A 
ATOM     22  C   UNL A   1      27.763  31.295  21.383  1.00  0.00     0.135 A 
ENDBRANCH  11  18
ENDBRANCH   4   7
ENDBRANCH   2   3
ENDBRANCH   1   2
BRANCH   1  23
ATOM     23  C   UNL A   1      31.798  31.648  27.192  1.00  0.00     0.023 C 
BRANCH  23  24
ATOM     24  C   UNL A   1      32.942  32.654  27.245  1.00  0.00     0.116 C 
BRANCH  24  25
ATOM     25  N   UNL A   1      32.511  34.008  27.569  1.00  0.00    -0.352 N 
ATOM     26  C   UNL A   1      33.022  34.863  28.516  1.00  0.00     0.251 C 
ATOM     27  H   UNL A   1      31.757  34.356  27.039  1.00  0.00     0.163 HD
ATOM     28  O   UNL A   1      32.500  35.946  28.735  1.00  0.00    -0.269 OA
BRANCH  26  29
ATOM     29  C   UNL A   1      34.191  34.425  29.300  1.00  0.00     0.039 A 
ATOM     30  C   UNL A   1      33.979  33.796  30.528  1.00  0.00     0.014 A 
ATOM     31  C   UNL A   1      35.482  34.581  28.789  1.00  0.00     0.014 A 
ATOM     32  C   UNL A   1      35.065  33.254  31.215  1.00  0.00     0.010 A 
ATOM     33  C   UNL A   1      36.552  33.981  29.439  1.00  0.00     0.010 A 
ATOM     34  C   UNL A   1      36.351  33.310  30.655  1.00  0.00    -0.014 A 
BRANCH  34  35
ATOM     35  C   UNL A   1      37.507  32.669  31.324  1.00  0.00     0.031 A 
ATOM     36  C   UNL A   1      38.231  31.543  30.645  1.00  0.00     0.074 A 
ATOM     37  C   UNL A   1      37.846  33.046  32.571  1.00  0.00     0.049 A 
ATOM     38  N   UNL A   1      39.205  30.795  31.095  1.00  0.00    -0.248 NA
ATOM     39  C   UNL A   1      37.778  31.191  29.289  1.00  0.00     0.031 C 
ATOM     40  C   UNL A   1      37.177  34.089  33.351  1.00  0.00     0.029 A 
ATOM     41  N   UNL A   1      38.831  32.586  33.407  1.00  0.00    -0.354 N 
ATOM     42  C   UNL A   1      39.465  29.873  30.090  1.00  0.00     0.074 A 
ATOM     43  C   UNL A   1      38.516  30.123  29.027  1.00  0.00     0.031 C 
ATOM     44  C   UNL A   1      37.783  34.202  34.544  1.00  0.00     0.029 A 
ATOM     45  C   UNL A   1      38.860  33.220  34.623  1.00  0.00     0.049 A 
ATOM     46  H   UNL A   1      39.458  31.869  33.157  1.00  0.00     0.167 HD
ATOM     47  C   UNL A   1      40.426  28.921  30.050  1.00  0.00     0.037 A 
ATOM     48  C   UNL A   1      39.665  33.026  35.685  1.00  0.00     0.037 A 
ATOM     49  C   UNL A   1      41.390  28.702  31.095  1.00  0.00     0.049 A 
ATOM     50  C   UNL A   1      40.739  31.976  35.605  1.00  0.00     0.074 A 
ATOM     51  C   UNL A   1      42.446  27.810  31.123  1.00  0.00     0.029 A 
ATOM     52  N   UNL A   1      41.413  29.390  32.300  1.00  0.00    -0.354 N 
ATOM     53  N   UNL A   1      41.022  31.156  34.622  1.00  0.00    -0.248 NA
ATOM     54  C   UNL A   1      41.610  31.829  36.780  1.00  0.00     0.031 C 
ATOM     55  C   UNL A   1      43.089  27.934  32.360  1.00  0.00     0.029 A 
ATOM     56  C   UNL A   1      42.457  28.932  33.085  1.00  0.00     0.049 A 
ATOM     57  H   UNL A   1      40.780  30.099  32.558  1.00  0.00     0.167 HD
ATOM     58  C   UNL A   1      42.116  30.415  35.046  1.00  0.00     0.074 A 
ATOM     59  C   UNL A   1      42.454  30.891  36.372  1.00  0.00     0.031 C 
ATOM     60  C   UNL A   1      42.781  29.428  34.398  1.00  0.00     0.037 A 
BRANCH  47  61
ATOM     61  C   UNL A   1      40.485  28.051  28.829  1.00  0.00     0.064 A 
ATOM     62  C   UNL A   1      39.778  26.842  28.755  1.00  0.00     0.173 A 
ATOM     63  C   UNL A   1      41.237  28.443  27.712  1.00  0.00     0.173 A 
ATOM     64  F   UNL A   1      39.057  26.416  29.804  1.00  0.00    -0.203 F 
ATOM     65  C   UNL A   1      39.844  26.041  27.618  1.00  0.00     0.198 A 
ATOM     66  C   UNL A   1      41.277  27.654  26.565  1.00  0.00     0.198 A 
ATOM     67  F   UNL A   1      41.928  29.592  27.730  1.00  0.00    -0.203 F 
ATOM     68  F   UNL A   1      39.201  24.866  27.590  1.00  0.00    -0.200 F 
ATOM     69  C   UNL A   1      40.589  26.451  26.522  1.00  0.00     0.200 A 
ATOM     70  F   UNL A   1      41.990  28.055  25.503  1.00  0.00    -0.200 F 
ATOM     71  F   UNL A   1      40.649  25.681  25.426  1.00  0.00    -0.200 F 
ENDBRANCH  47  61
BRANCH  48  72
ATOM     72  C   UNL A   1      39.509  33.867  36.899  1.00  0.00     0.064 A 
ATOM     73  C   UNL A   1      38.754  33.414  37.991  1.00  0.00     0.173 A 
ATOM     74  C   UNL A   1      40.105  35.131  36.996  1.00  0.00     0.173 A 
ATOM     75  F   UNL A   1      38.148  32.218  37.935  1.00  0.00    -0.203 F 
ATOM     76  C   UNL A   1      38.588  34.202  39.127  1.00  0.00     0.198 A 
ATOM     77  C   UNL A   1      39.958  35.909  38.143  1.00  0.00     0.198 A 
ATOM     78  F   UNL A   1      40.842  35.606  35.981  1.00  0.00    -0.203 F 
ATOM     79  F   UNL A   1      37.828  33.762  40.139  1.00  0.00    -0.200 F 
ATOM     80  C   UNL A   1      39.194  35.447  39.204  1.00  0.00     0.200 A 
ATOM     81  F   UNL A   1      40.556  37.106  38.219  1.00  0.00    -0.200 F 
ATOM     82  F   UNL A   1      39.036  36.204  40.298  1.00  0.00    -0.200 F 
ENDBRANCH  48  72
BRANCH  60  83
ATOM     83  C   UNL A   1      43.959  28.820  35.098  1.00  0.00     0.064 A 
ATOM     84  C   UNL A   1      43.820  27.700  35.928  1.00  0.00     0.173 A 
ATOM     85  C   UNL A   1      45.247  29.339  34.899  1.00  0.00     0.173 A 
ATOM     86  F   UNL A   1      42.606  27.179  36.162  1.00  0.00    -0.203 F 
ATOM     87  C   UNL A   1      44.927  27.132  36.552  1.00  0.00     0.198 A 
ATOM     88  C   UNL A   1      46.355  28.753  35.502  1.00  0.00     0.198 A 
ATOM     89  F   UNL A   1      45.431  30.408  34.109  1.00  0.00    -0.203 F 
ATOM     90  F   UNL A   1      44.768  26.086  37.373  1.00  0.00    -0.200 F 
ATOM     91  C   UNL A   1      46.194  27.654  36.332  1.00  0.00     0.200 A 
ATOM     92  F   UNL A   1      47.580  29.251  35.281  1.00  0.00    -0.200 F 
ATOM     93  F   UNL A   1      47.260  27.100  36.926  1.00  0.00    -0.200 F 
ENDBRANCH  60  83
ENDBRANCH  34  35
ENDBRANCH  26  29
ENDBRANCH  24  25
ENDBRANCH  23  24
ENDBRANCH   1  23
TORSDOF 14
ENDMDL
MODEL 2
REMARK VINA RESULT:     -12.1      6.586     11.825
REMARK SMILES CC[NH2+][C@]1(C(=O)NCCCCNC(=O)c2ccc(-c3c4nc(c(-c5c(F)c(F)c(F)c(F)c5F)c5ccc([nH]5)c(-c5c(F)c(F)c(F)c(F)c5F)c5nc(c(-c6c(F)c(F)c(F)c(F)c6F)c6ccc3[nH]6)C=C5)C=C4)cc2)CCC[C@@H](n2cccn2)C1
REMARK SMILES IDX 9 1 8 2 7 3 5 4 6 5 4 7 78 8 87 9 79 10 81 11 80 12 3 13
REMARK SMILES IDX 2 16 1 17 82 18 83 19 86 20 84 21 85 22 10 23 11 24 12 25
REMARK SMILES IDX 13 26 14 28 15 29 16 30 77 31 17 32 76 33 18 34 19 35 20 36
REMARK SMILES IDX 70 37 21 38 75 39 69 40 71 41 22 42 74 43 68 44 67 45 23 47
REMARK SMILES IDX 55 48 35 49 54 50 36 51 39 52 53 53 72 54 37 55 38 56 52 58
REMARK SMILES IDX 73 59 40 60 24 61 25 62 33 63 26 64 27 65 31 66 34 67 28 68
REMARK SMILES IDX 29 69 32 70 30 71 56 72 57 73 65 74 58 75 59 76 63 77 66 78
REMARK SMILES IDX 60 79 61 80 64 81 62 82 41 83 42 84 50 85 43 86 44 87 48 88
REMARK SMILES IDX 51 89 45 90 46 91 49 92 47 93
REMARK H PARENT 7 6 3 14 3 15 12 27 71 46 39 57
REMARK Flexibility Score: inf
ROOT
ATOM      1  C   UNL A   1      36.938  20.594  25.051  1.00  0.00     0.023 C 
ENDROOT
BRANCH   1   2
ATOM      2  C   UNL A   1      36.247  21.953  24.999  1.00  0.00     0.116 C 
BRANCH   2   3
ATOM      3  N   UNL A   1      35.674  22.395  26.264  1.00  0.00    -0.351 N 
ATOM      4  C   UNL A   1      34.441  22.228  26.839  1.00  0.00     0.281 C 
ATOM      5  O   UNL A   1      34.368  22.548  28.031  1.00  0.00    -0.268 OA
ATOM      6  H   UNL A   1      36.298  22.919  26.816  1.00  0.00     0.163 HD
BRANCH   4   7
ATOM      7  C   UNL A   1      33.151  21.768  26.029  1.00  0.00     0.177 C 
ATOM      8  C   UNL A   1      33.107  22.541  24.686  1.00  0.00     0.079 C 
ATOM      9  C   UNL A   1      33.409  20.274  25.726  1.00  0.00     0.106 C 
ATOM     10  C   UNL A   1      32.198  21.930  23.619  1.00  0.00     0.009 C 
ATOM     11  C   UNL A   1      32.469  19.622  24.707  1.00  0.00     0.114 C 
ATOM     12  C   UNL A   1      32.451  20.440  23.404  1.00  0.00     0.028 C 
BRANCH   7  13
ATOM     13  N   UNL A   1      31.982  22.048  26.892  1.00  0.00    -0.334 N 
ATOM     14  H   UNL A   1      31.307  21.306  26.702  1.00  0.00     0.347 HD
ATOM     15  H   UNL A   1      32.413  22.109  27.814  1.00  0.00     0.347 HD
BRANCH  13  16
ATOM     16  C   UNL A   1      31.244  23.293  26.822  1.00  0.00     0.257 C 
ATOM     17  C   UNL A   1      29.763  22.970  26.999  1.00  0.00     0.071 C 
ENDBRANCH  13  16
ENDBRANCH   7  13
BRANCH  11  18
ATOM     18  N   UNL A   1      32.821  18.209  24.502  1.00  0.00    -0.269 N 
ATOM     19  C   UNL A   1      33.550  17.693  23.461  1.00  0.00     0.109 A 
ATOM     20  N   UNL A   1      32.498  17.273  25.417  1.00  0.00    -0.181 NA
ATOM     21  C   UNL A   1      33.658  16.342  23.694  1.00  0.00     0.042 A 
ATOM     22  C   UNL A   1      33.000  16.142  24.919  1.00  0.00     0.135 A 
ENDBRANCH  11  18
ENDBRANCH   4   7
ENDBRANCH   2   3
ENDBRANCH   1   2
BRANCH   1  23
ATOM     23  C   UNL A   1      38.451  20.645  24.843  1.00  0.00     0.023 C 
BRANCH  23  24
ATOM     24  C   UNL A   1      39.273  20.427  26.107  1.00  0.00     0.116 C 
BRANCH  24  25
ATOM     25  N   UNL A   1      40.198  19.305  26.014  1.00  0.00    -0.352 N 
ATOM     26  C   UNL A   1      41.568  19.317  26.114  1.00  0.00     0.251 C 
ATOM     27  H   UNL A   1      39.787  18.423  25.860  1.00  0.00     0.163 HD
ATOM     28  O   UNL A   1      42.223  18.301  25.928  1.00  0.00    -0.269 OA
BRANCH  26  29
ATOM     29  C   UNL A   1      42.240  20.596  26.406  1.00  0.00     0.039 A 
ATOM     30  C   UNL A   1      42.662  21.391  25.339  1.00  0.00     0.014 A 
ATOM     31  C   UNL A   1      42.391  21.029  27.725  1.00  0.00     0.014 A 
ATOM     32  C   UNL A   1      43.172  22.663  25.594  1.00  0.00     0.010 A 
ATOM     33  C   UNL A   1      42.834  22.321  27.975  1.00  0.00     0.010 A 
ATOM     34  C   UNL A   1      43.225  23.149  26.911  1.00  0.00    -0.014 A 
BRANCH  34  35
ATOM     35  C   UNL A   1      43.685  24.527  27.202  1.00  0.00     0.031 A 
ATOM     36  C   UNL A   1      42.712  25.543  27.724  1.00  0.00     0.074 A 
ATOM     37  C   UNL A   1      44.953  24.879  26.917  1.00  0.00     0.049 A 
ATOM     38  N   UNL A   1      42.892  26.818  27.957  1.00  0.00    -0.248 NA
ATOM     39  C   UNL A   1      41.344  25.069  27.990  1.00  0.00     0.031 C 
ATOM     40  C   UNL A   1      45.971  23.991  26.351  1.00  0.00     0.029 A 
ATOM     41  N   UNL A   1      45.598  26.081  27.050  1.00  0.00    -0.354 N 
ATOM     42  C   UNL A   1      41.659  27.300  28.376  1.00  0.00     0.074 A 
ATOM     43  C   UNL A   1      40.727  26.194  28.318  1.00  0.00     0.031 C 
ATOM     44  C   UNL A   1      47.117  24.674  26.205  1.00  0.00     0.029 A 
ATOM     45  C   UNL A   1      46.906  26.052  26.636  1.00  0.00     0.049 A 
ATOM     46  H   UNL A   1      45.164  26.889  27.410  1.00  0.00     0.167 HD
ATOM     47  C   UNL A   1      41.340  28.548  28.793  1.00  0.00     0.037 A 
ATOM     48  C   UNL A   1      47.829  27.032  26.604  1.00  0.00     0.037 A 
ATOM     49  C   UNL A   1      42.281  29.632  28.882  1.00  0.00     0.049 A 
ATOM     50  C   UNL A   1      47.455  28.404  27.095  1.00  0.00     0.074 A 
ATOM     51  C   UNL A   1      42.076  30.915  29.357  1.00  0.00     0.029 A 
ATOM     52  N   UNL A   1      43.609  29.557  28.489  1.00  0.00    -0.354 N 
ATOM     53  N   UNL A   1      46.304  28.833  27.554  1.00  0.00    -0.248 NA
ATOM     54  C   UNL A   1      48.510  29.427  27.068  1.00  0.00     0.031 C 
ATOM     55  C   UNL A   1      43.273  31.627  29.219  1.00  0.00     0.029 A 
ATOM     56  C   UNL A   1      44.233  30.775  28.696  1.00  0.00     0.049 A 
ATOM     57  H   UNL A   1      44.043  28.755  28.117  1.00  0.00     0.167 HD
ATOM     58  C   UNL A   1      46.502  30.163  27.895  1.00  0.00     0.074 A 
ATOM     59  C   UNL A   1      47.887  30.469  27.601  1.00  0.00     0.031 C 
ATOM     60  C   UNL A   1      45.616  31.053  28.405  1.00  0.00     0.037 A 
BRANCH  47  61
ATOM     61  C   UNL A   1      39.917  28.799  29.193  1.00  0.00     0.064 A 
ATOM     62  C   UNL A   1      38.970  29.277  28.275  1.00  0.00     0.173 A 
ATOM     63  C   UNL A   1      39.489  28.536  30.503  1.00  0.00     0.173 A 
ATOM     64  F   UNL A   1      39.334  29.559  27.015  1.00  0.00    -0.203 F 
ATOM     65  C   UNL A   1      37.653  29.511  28.661  1.00  0.00     0.198 A 
ATOM     66  C   UNL A   1      38.163  28.744  30.877  1.00  0.00     0.198 A 
ATOM     67  F   UNL A   1      40.353  28.075  31.418  1.00  0.00    -0.203 F 
ATOM     68  F   UNL A   1      36.779  30.016  27.780  1.00  0.00    -0.200 F 
ATOM     69  C   UNL A   1      37.250  29.238  29.959  1.00  0.00     0.200 A 
ATOM     70  F   UNL A   1      37.772  28.471  32.130  1.00  0.00    -0.200 F 
ATOM     71  F   UNL A   1      35.980  29.460  30.328  1.00  0.00    -0.200 F 
ENDBRANCH  47  61
BRANCH  48  72
ATOM     72  C   UNL A   1      49.203  26.742  26.123  1.00  0.00     0.064 A 
ATOM     73  C   UNL A   1      49.562  26.989  24.790  1.00  0.00     0.173 A 
ATOM     74  C   UNL A   1      50.183  26.217  26.976  1.00  0.00     0.173 A 
ATOM     75  F   UNL A   1      48.652  27.473  23.931  1.00  0.00    -0.203 F 
ATOM     76  C   UNL A   1      50.844  26.704  24.325  1.00  0.00     0.198 A 
ATOM     77  C   UNL A   1      51.471  25.955  26.516  1.00  0.00     0.198 A 
ATOM     78  F   UNL A   1      49.891  25.969  28.262  1.00  0.00    -0.203 F 
ATOM     79  F   UNL A   1      51.147  26.912  23.037  1.00  0.00    -0.200 F 
ATOM     80  C   UNL A   1      51.799  26.192  25.190  1.00  0.00     0.200 A 
ATOM     81  F   UNL A   1      52.396  25.473  27.358  1.00  0.00    -0.200 F 
ATOM     82  F   UNL A   1      53.032  25.922  24.743  1.00  0.00    -0.200 F 
ENDBRANCH  48  72
BRANCH  60  83
ATOM     83  C   UNL A   1      46.125  32.430  28.708  1.00  0.00     0.064 A 
ATOM     84  C   UNL A   1      46.030  33.469  27.772  1.00  0.00     0.173 A 
ATOM     85  C   UNL A   1      46.673  32.723  29.966  1.00  0.00     0.173 A 
ATOM     86  F   UNL A   1      45.529  33.233  26.549  1.00  0.00    -0.203 F 
ATOM     87  C   UNL A   1      46.485  34.749  28.077  1.00  0.00     0.198 A 
ATOM     88  C   UNL A   1      47.102  34.009  30.277  1.00  0.00     0.198 A 
ATOM     89  F   UNL A   1      46.780  31.763  30.897  1.00  0.00    -0.203 F 
ATOM     90  F   UNL A   1      46.422  35.717  27.154  1.00  0.00    -0.200 F 
ATOM     91  C   UNL A   1      47.013  35.019  29.331  1.00  0.00     0.200 A 
ATOM     92  F   UNL A   1      47.601  34.273  31.492  1.00  0.00    -0.200 F 
ATOM     93  F   UNL A   1      47.442  36.254  29.626  1.00  0.00    -0.200 F 
ENDBRANCH  60  83
ENDBRANCH  34  35
ENDBRANCH  26  29
ENDBRANCH  24  25
ENDBRANCH  23  24
ENDBRANCH   1  23
TORSDOF 14
ENDMDL
MODEL 3
REMARK VINA RESULT:     -12.0      6.548     10.788
REMARK SMILES CC[NH2+][C@]1(C(=O)NCCCCNC(=O)c2ccc(-c3c4nc(c(-c5c(F)c(F)c(F)c(F)c5F)c5ccc([nH]5)c(-c5c(F)c(F)c(F)c(F)c5F)c5nc(c(-c6c(F)c(F)c(F)c(F)c6F)c6ccc3[nH]6)C=C5)C=C4)cc2)CCC[C@@H](n2cccn2)C1
REMARK SMILES IDX 9 1 8 2 7 3 5 4 6 5 4 7 78 8 87 9 79 10 81 11 80 12 3 13
REMARK SMILES IDX 2 16 1 17 82 18 83 19 86 20 84 21 85 22 10 23 11 24 12 25
REMARK SMILES IDX 13 26 14 28 15 29 16 30 77 31 17 32 76 33 18 34 19 35 20 36
REMARK SMILES IDX 70 37 21 38 75 39 69 40 71 41 22 42 74 43 68 44 67 45 23 47
REMARK SMILES IDX 55 48 35 49 54 50 36 51 39 52 53 53 72 54 37 55 38 56 52 58
REMARK SMILES IDX 73 59 40 60 24 61 25 62 33 63 26 64 27 65 31 66 34 67 28 68
REMARK SMILES IDX 29 69 32 70 30 71 56 72 57 73 65 74 58 75 59 76 63 77 66 78
REMARK SMILES IDX 60 79 61 80 64 81 62 82 41 83 42 84 50 85 43 86 44 87 48 88
REMARK SMILES IDX 51 89 45 90 46 91 49 92 47 93
REMARK H PARENT 7 6 3 14 3 15 12 27 71 46 39 57
REMARK Flexibility Score: inf
ROOT
ATOM      1  C   UNL A   1      37.875  21.177  24.985  1.00  0.00     0.023 C 
ENDROOT
BRANCH   1   2
ATOM      2  C   UNL A   1      36.363  21.123  25.176  1.00  0.00     0.116 C 
BRANCH   2   3
ATOM      3  N   UNL A   1      35.845  22.010  26.209  1.00  0.00    -0.351 N 
ATOM      4  C   UNL A   1      34.587  22.230  26.706  1.00  0.00     0.281 C 
ATOM      5  O   UNL A   1      34.540  22.898  27.745  1.00  0.00    -0.268 OA
ATOM      6  H   UNL A   1      36.539  22.563  26.636  1.00  0.00     0.163 HD
BRANCH   4   7
ATOM      7  C   UNL A   1      33.258  21.773  25.960  1.00  0.00     0.177 C 
ATOM      8  C   UNL A   1      33.183  22.497  24.592  1.00  0.00     0.079 C 
ATOM      9  C   UNL A   1      33.470  20.262  25.705  1.00  0.00     0.106 C 
ATOM     10  C   UNL A   1      32.222  21.868  23.581  1.00  0.00     0.009 C 
ATOM     11  C   UNL A   1      32.479  19.597  24.745  1.00  0.00     0.114 C 
ATOM     12  C   UNL A   1      32.432  20.366  23.414  1.00  0.00     0.028 C 
BRANCH   7  13
ATOM     13  N   UNL A   1      32.128  22.112  26.853  1.00  0.00    -0.334 N 
ATOM     14  H   UNL A   1      31.469  21.336  26.782  1.00  0.00     0.347 HD
ATOM     15  H   UNL A   1      32.605  22.286  27.737  1.00  0.00     0.347 HD
BRANCH  13  16
ATOM     16  C   UNL A   1      31.345  23.322  26.692  1.00  0.00     0.257 C 
ATOM     17  C   UNL A   1      29.896  22.990  27.033  1.00  0.00     0.071 C 
ENDBRANCH  13  16
ENDBRANCH   7  13
BRANCH  11  18
ATOM     18  N   UNL A   1      32.790  18.168  24.581  1.00  0.00    -0.269 N 
ATOM     19  C   UNL A   1      33.670  17.624  23.680  1.00  0.00     0.109 A 
ATOM     20  N   UNL A   1      32.259  17.243  25.405  1.00  0.00    -0.181 NA
ATOM     21  C   UNL A   1      33.665  16.267  23.905  1.00  0.00     0.042 A 
ATOM     22  C   UNL A   1      32.786  16.092  24.985  1.00  0.00     0.135 A 
ENDBRANCH  11  18
ENDBRANCH   4   7
ENDBRANCH   2   3
ENDBRANCH   1   2
BRANCH   1  23
ATOM     23  C   UNL A   1      38.590  19.846  25.213  1.00  0.00     0.023 C 
BRANCH  23  24
ATOM     24  C   UNL A   1      39.708  19.894  26.248  1.00  0.00     0.116 C 
BRANCH  24  25
ATOM     25  N   UNL A   1      40.755  18.907  26.021  1.00  0.00    -0.352 N 
ATOM     26  C   UNL A   1      42.116  19.097  25.994  1.00  0.00     0.251 C 
ATOM     27  H   UNL A   1      40.448  17.984  25.867  1.00  0.00     0.163 HD
ATOM     28  O   UNL A   1      42.874  18.183  25.704  1.00  0.00    -0.269 OA
BRANCH  26  29
ATOM     29  C   UNL A   1      42.643  20.444  26.278  1.00  0.00     0.039 A 
ATOM     30  C   UNL A   1      43.057  21.241  25.210  1.00  0.00     0.014 A 
ATOM     31  C   UNL A   1      42.664  20.932  27.586  1.00  0.00     0.014 A 
ATOM     32  C   UNL A   1      43.427  22.564  25.448  1.00  0.00     0.010 A 
ATOM     33  C   UNL A   1      42.966  22.268  27.813  1.00  0.00     0.010 A 
ATOM     34  C   UNL A   1      43.346  23.095  26.745  1.00  0.00    -0.014 A 
BRANCH  34  35
ATOM     35  C   UNL A   1      43.653  24.520  27.011  1.00  0.00     0.031 A 
ATOM     36  C   UNL A   1      45.049  25.033  26.806  1.00  0.00     0.074 A 
ATOM     37  C   UNL A   1      42.697  25.324  27.512  1.00  0.00     0.049 A 
ATOM     38  N   UNL A   1      45.541  26.217  27.063  1.00  0.00    -0.248 NA
ATOM     39  C   UNL A   1      46.030  24.075  26.269  1.00  0.00     0.031 C 
ATOM     40  C   UNL A   1      41.320  24.920  27.807  1.00  0.00     0.029 A 
ATOM     41  N   UNL A   1      42.741  26.645  27.877  1.00  0.00    -0.354 N 
ATOM     42  C   UNL A   1      46.890  26.140  26.740  1.00  0.00     0.074 A 
ATOM     43  C   UNL A   1      47.150  24.782  26.315  1.00  0.00     0.031 C 
ATOM     44  C   UNL A   1      40.646  25.977  28.288  1.00  0.00     0.029 A 
ATOM     45  C   UNL A   1      41.550  27.120  28.365  1.00  0.00     0.049 A 
ATOM     46  H   UNL A   1      43.550  27.200  27.795  1.00  0.00     0.167 HD
ATOM     47  C   UNL A   1      47.820  27.123  26.774  1.00  0.00     0.037 A 
ATOM     48  C   UNL A   1      41.226  28.343  28.827  1.00  0.00     0.037 A 
ATOM     49  C   UNL A   1      47.546  28.480  27.163  1.00  0.00     0.049 A 
ATOM     50  C   UNL A   1      42.274  29.422  28.832  1.00  0.00     0.074 A 
ATOM     51  C   UNL A   1      48.402  29.567  27.165  1.00  0.00     0.029 A 
ATOM     52  N   UNL A   1      46.317  28.936  27.617  1.00  0.00    -0.354 N 
ATOM     53  N   UNL A   1      43.529  29.358  28.460  1.00  0.00    -0.248 NA
ATOM     54  C   UNL A   1      41.858  30.746  29.317  1.00  0.00     0.031 C 
ATOM     55  C   UNL A   1      47.699  30.674  27.653  1.00  0.00     0.029 A 
ATOM     56  C   UNL A   1      46.395  30.285  27.917  1.00  0.00     0.049 A 
ATOM     57  H   UNL A   1      45.509  28.381  27.712  1.00  0.00     0.167 HD
ATOM     58  C   UNL A   1      44.045  30.634  28.638  1.00  0.00     0.074 A 
ATOM     59  C   UNL A   1      42.964  31.456  29.142  1.00  0.00     0.031 C 
ATOM     60  C   UNL A   1      45.302  31.085  28.407  1.00  0.00     0.037 A 
BRANCH  47  61
ATOM     61  C   UNL A   1      49.218  26.763  26.368  1.00  0.00     0.064 A 
ATOM     62  C   UNL A   1      50.139  26.242  27.290  1.00  0.00     0.173 A 
ATOM     63  C   UNL A   1      49.636  26.917  25.038  1.00  0.00     0.173 A 
ATOM     64  F   UNL A   1      49.792  26.091  28.578  1.00  0.00    -0.203 F 
ATOM     65  C   UNL A   1      51.436  25.916  26.902  1.00  0.00     0.198 A 
ATOM     66  C   UNL A   1      50.925  26.562  24.647  1.00  0.00     0.198 A 
ATOM     67  F   UNL A   1      48.794  27.407  24.117  1.00  0.00    -0.203 F 
ATOM     68  F   UNL A   1      52.312  25.468  27.811  1.00  0.00    -0.200 F 
ATOM     69  C   UNL A   1      51.825  26.071  25.581  1.00  0.00     0.200 A 
ATOM     70  F   UNL A   1      51.298  26.703  23.368  1.00  0.00    -0.200 F 
ATOM     71  F   UNL A   1      53.073  25.752  25.207  1.00  0.00    -0.200 F 
ENDBRANCH  47  61
BRANCH  48  72
ATOM     72  C   UNL A   1      39.843  28.619  29.290  1.00  0.00     0.064 A 
ATOM     73  C   UNL A   1      39.468  28.365  30.617  1.00  0.00     0.173 A 
ATOM     74  C   UNL A   1      38.872  29.141  28.425  1.00  0.00     0.173 A 
ATOM     75  F   UNL A   1      40.358  27.847  31.476  1.00  0.00    -0.203 F 
ATOM     76  C   UNL A   1      38.167  28.606  31.056  1.00  0.00     0.198 A 
ATOM     77  C   UNL A   1      37.578  29.404  28.871  1.00  0.00     0.198 A 
ATOM     78  F   UNL A   1      39.183  29.407  27.148  1.00  0.00    -0.203 F 
ATOM     79  F   UNL A   1      37.825  28.316  32.318  1.00  0.00    -0.200 F 
ATOM     80  C   UNL A   1      37.225  29.130  30.184  1.00  0.00     0.200 A 
ATOM     81  F   UNL A   1      36.674  29.923  28.029  1.00  0.00    -0.200 F 
ATOM     82  F   UNL A   1      35.976  29.364  30.607  1.00  0.00    -0.200 F 
ENDBRANCH  48  72
BRANCH  60  83
ATOM     83  C   UNL A   1      45.567  32.538  28.665  1.00  0.00     0.064 A 
ATOM     84  C   UNL A   1      45.337  33.510  27.682  1.00  0.00     0.173 A 
ATOM     85  C   UNL A   1      46.014  32.964  29.924  1.00  0.00     0.173 A 
ATOM     86  F   UNL A   1      44.925  33.149  26.457  1.00  0.00    -0.203 F 
ATOM     87  C   UNL A   1      45.565  34.858  27.944  1.00  0.00     0.198 A 
ATOM     88  C   UNL A   1      46.216  34.315  30.192  1.00  0.00     0.198 A 
ATOM     89  F   UNL A   1      46.244  32.071  30.899  1.00  0.00    -0.203 F 
ATOM     90  F   UNL A   1      45.377  35.768  26.979  1.00  0.00    -0.200 F 
ATOM     91  C   UNL A   1      45.996  35.260  29.200  1.00  0.00     0.200 A 
ATOM     92  F   UNL A   1      46.621  34.703  31.408  1.00  0.00    -0.200 F 
ATOM     93  F   UNL A   1      46.206  36.559  29.454  1.00  0.00    -0.200 F 
ENDBRANCH  60  83
ENDBRANCH  34  35
ENDBRANCH  26  29
ENDBRANCH  24  25
ENDBRANCH  23  24
ENDBRANCH   1  23
TORSDOF 14
ENDMDL
