MODEL 1
REMARK VINA RESULT:     -12.2      0.000      0.000
REMARK SMILES CC(C)N1C(=O)C[C@@H](Sc2csc(C(=O)NCCCCNC(=O)c3ccc(-c4c5nc(c(-c6c(F)c(F)c(F)c(F)c6F)c6ccc([nH]6)c(-c6c(F)c(F)c(F)c(F)c6F)c6nc(c(-c7c(F)c(F)c(F)c(F)c7F)c7ccc4[nH]7)C=C6)C=C5)cc3)c2)C1=O
REMARK SMILES IDX 18 1 17 2 16 3 14 4 15 5 13 7 10 8 11 9 87 10 12 11 9 12
REMARK SMILES IDX 8 13 4 14 5 15 88 16 6 17 7 18 89 19 2 20 1 21 3 22 19 23
REMARK SMILES IDX 20 24 21 25 22 26 23 28 24 29 25 30 86 31 26 32 85 33 27 34
REMARK SMILES IDX 28 35 29 36 79 37 30 38 84 39 78 40 80 41 31 42 83 43 77 44
REMARK SMILES IDX 76 45 32 47 64 48 44 49 63 50 45 51 48 52 62 53 81 54 46 55
REMARK SMILES IDX 47 56 61 58 82 59 49 60 33 61 34 62 42 63 35 64 36 65 40 66
REMARK SMILES IDX 43 67 37 68 38 69 41 70 39 71 65 72 66 73 74 74 67 75 68 76
REMARK SMILES IDX 72 77 75 78 69 79 70 80 73 81 71 82 50 83 51 84 59 85 52 86
REMARK SMILES IDX 53 87 57 88 60 89 54 90 55 91 58 92 56 93
REMARK H PARENT 16 6 21 27 80 46 48 57
REMARK Flexibility Score: inf
ROOT
ATOM      1  C   UNL A   1      31.774  30.441  26.628  1.00  0.00     0.023 C 
ENDROOT
BRANCH   1   2
ATOM      2  C   UNL A   1      31.423  29.921  25.234  1.00  0.00     0.116 C 
BRANCH   2   3
ATOM      3  N   UNL A   1      32.620  29.707  24.452  1.00  0.00    -0.351 N 
ATOM      4  C   UNL A   1      33.234  28.553  24.028  1.00  0.00     0.261 C 
ATOM      5  O   UNL A   1      34.246  28.730  23.344  1.00  0.00    -0.268 OA
ATOM      6  H   UNL A   1      33.075  30.534  24.174  1.00  0.00     0.163 HD
BRANCH   4   7
ATOM      7  C   UNL A   1      32.705  27.233  24.357  1.00  0.00     0.093 A 
ATOM      8  C   UNL A   1      31.759  25.071  24.347  1.00  0.00     0.020 A 
ATOM      9  C   UNL A   1      32.107  25.211  25.664  1.00  0.00     0.080 A 
ATOM     10  C   UNL A   1      32.036  26.269  23.621  1.00  0.00     0.040 A 
ATOM     11  S   UNL A   1      32.878  26.700  25.986  1.00  0.00    -0.137 S 
BRANCH   8  12
ATOM     12  S   UNL A   1      30.999  23.720  23.518  1.00  0.00    -0.111 SA
BRANCH  12  13
ATOM     13  C   UNL A   1      32.247  22.434  23.275  1.00  0.00     0.150 C 
ATOM     14  N   UNL A   1      34.454  22.327  24.039  1.00  0.00    -0.279 N 
ATOM     15  C   UNL A   1      33.754  21.418  24.791  1.00  0.00     0.231 C 
ATOM     16  C   UNL A   1      33.651  22.961  23.125  1.00  0.00     0.243 C 
ATOM     17  O   UNL A   1      34.199  20.724  25.694  1.00  0.00    -0.274 OA
ATOM     18  C   UNL A   1      32.310  21.419  24.395  1.00  0.00     0.125 C 
ATOM     19  O   UNL A   1      33.988  23.788  22.291  1.00  0.00    -0.273 OA
BRANCH  14  20
ATOM     20  C   UNL A   1      35.874  22.597  24.306  1.00  0.00     0.087 C 
ATOM     21  C   UNL A   1      36.765  22.699  23.069  1.00  0.00     0.031 C 
ATOM     22  C   UNL A   1      36.042  23.865  25.154  1.00  0.00     0.031 C 
ENDBRANCH  14  20
ENDBRANCH  12  13
ENDBRANCH   8  12
ENDBRANCH   4   7
ENDBRANCH   2   3
ENDBRANCH   1   2
BRANCH   1  23
ATOM     23  C   UNL A   1      31.498  31.936  26.818  1.00  0.00     0.023 C 
BRANCH  23  24
ATOM     24  C   UNL A   1      32.727  32.775  27.149  1.00  0.00     0.116 C 
BRANCH  24  25
ATOM     25  N   UNL A   1      32.399  34.117  27.604  1.00  0.00    -0.352 N 
ATOM     26  C   UNL A   1      32.997  34.861  28.589  1.00  0.00     0.251 C 
ATOM     27  H   UNL A   1      31.645  34.550  27.142  1.00  0.00     0.163 HD
ATOM     28  O   UNL A   1      32.513  35.934  28.935  1.00  0.00    -0.269 OA
BRANCH  26  29
ATOM     29  C   UNL A   1      34.205  34.342  29.261  1.00  0.00     0.039 A 
ATOM     30  C   UNL A   1      34.042  33.505  30.366  1.00  0.00     0.014 A 
ATOM     31  C   UNL A   1      35.484  34.659  28.795  1.00  0.00     0.014 A 
ATOM     32  C   UNL A   1      35.165  32.941  30.969  1.00  0.00     0.010 A 
ATOM     33  C   UNL A   1      36.596  34.029  29.345  1.00  0.00     0.010 A 
ATOM     34  C   UNL A   1      36.448  33.169  30.442  1.00  0.00    -0.014 A 
BRANCH  34  35
ATOM     35  C   UNL A   1      37.629  32.490  31.033  1.00  0.00     0.031 A 
ATOM     36  C   UNL A   1      38.118  32.854  32.405  1.00  0.00     0.074 A 
ATOM     37  C   UNL A   1      38.272  31.551  30.311  1.00  0.00     0.049 A 
ATOM     38  N   UNL A   1      39.092  32.323  33.104  1.00  0.00    -0.248 NA
ATOM     39  C   UNL A   1      37.447  33.977  33.077  1.00  0.00     0.031 C 
ATOM     40  C   UNL A   1      37.937  31.166  28.939  1.00  0.00     0.029 A 
ATOM     41  N   UNL A   1      39.331  30.741  30.634  1.00  0.00    -0.354 N 
ATOM     42  C   UNL A   1      39.146  33.044  34.288  1.00  0.00     0.074 A 
ATOM     43  C   UNL A   1      38.158  34.094  34.188  1.00  0.00     0.031 C 
ATOM     44  C   UNL A   1      38.741  30.163  28.555  1.00  0.00     0.029 A 
ATOM     45  C   UNL A   1      39.667  29.855  29.640  1.00  0.00     0.049 A 
ATOM     46  H   UNL A   1      39.804  30.790  31.496  1.00  0.00     0.167 HD
ATOM     47  C   UNL A   1      39.929  32.830  35.373  1.00  0.00     0.037 A 
ATOM     48  C   UNL A   1      40.608  28.894  29.613  1.00  0.00     0.037 A 
ATOM     49  C   UNL A   1      40.905  31.776  35.468  1.00  0.00     0.049 A 
ATOM     50  C   UNL A   1      41.456  28.671  30.836  1.00  0.00     0.074 A 
ATOM     51  C   UNL A   1      41.710  31.437  36.542  1.00  0.00     0.029 A 
ATOM     52  N   UNL A   1      41.218  30.893  34.444  1.00  0.00    -0.354 N 
ATOM     53  N   UNL A   1      41.435  29.297  31.987  1.00  0.00    -0.248 NA
ATOM     54  C   UNL A   1      42.448  27.590  30.758  1.00  0.00     0.031 C 
ATOM     55  C   UNL A   1      42.548  30.388  36.149  1.00  0.00     0.029 A 
ATOM     56  C   UNL A   1      42.222  30.028  34.851  1.00  0.00     0.049 A 
ATOM     57  H   UNL A   1      40.790  30.882  33.557  1.00  0.00     0.167 HD
ATOM     58  C   UNL A   1      42.390  28.676  32.778  1.00  0.00     0.074 A 
ATOM     59  C   UNL A   1      42.949  27.600  31.984  1.00  0.00     0.031 C 
ATOM     60  C   UNL A   1      42.776  28.969  34.045  1.00  0.00     0.037 A 
BRANCH  47  61
ATOM     61  C   UNL A   1      39.757  33.755  36.545  1.00  0.00     0.064 A 
ATOM     62  C   UNL A   1      40.406  34.998  36.606  1.00  0.00     0.173 A 
ATOM     63  C   UNL A   1      38.908  33.410  37.607  1.00  0.00     0.173 A 
ATOM     64  F   UNL A   1      41.239  35.375  35.623  1.00  0.00    -0.203 F 
ATOM     65  C   UNL A   1      40.237  35.845  37.699  1.00  0.00     0.198 A 
ATOM     66  C   UNL A   1      38.715  34.274  38.683  1.00  0.00     0.198 A 
ATOM     67  F   UNL A   1      38.258  32.236  37.601  1.00  0.00    -0.203 F 
ATOM     68  F   UNL A   1      40.912  37.002  37.759  1.00  0.00    -0.200 F 
ATOM     69  C   UNL A   1      39.386  35.486  38.732  1.00  0.00     0.200 A 
ATOM     70  F   UNL A   1      37.879  33.931  39.673  1.00  0.00    -0.200 F 
ATOM     71  F   UNL A   1      39.218  36.305  39.779  1.00  0.00    -0.200 F 
ENDBRANCH  47  61
BRANCH  48  72
ATOM     72  C   UNL A   1      40.772  28.047  28.403  1.00  0.00     0.064 A 
ATOM     73  C   UNL A   1      40.118  26.811  28.290  1.00  0.00     0.173 A 
ATOM     74  C   UNL A   1      41.591  28.449  27.337  1.00  0.00     0.173 A 
ATOM     75  F   UNL A   1      39.339  26.373  29.290  1.00  0.00    -0.203 F 
ATOM     76  C   UNL A   1      40.300  25.999  27.174  1.00  0.00     0.198 A 
ATOM     77  C   UNL A   1      41.744  27.651  26.205  1.00  0.00     0.198 A 
ATOM     78  F   UNL A   1      42.232  29.626  27.389  1.00  0.00    -0.203 F 
ATOM     79  F   UNL A   1      39.705  24.799  27.117  1.00  0.00    -0.200 F 
ATOM     80  C   UNL A   1      41.107  26.422  26.129  1.00  0.00     0.200 A 
ATOM     81  F   UNL A   1      42.511  28.072  25.190  1.00  0.00    -0.200 F 
ATOM     82  F   UNL A   1      41.278  25.642  25.052  1.00  0.00    -0.200 F 
ENDBRANCH  48  72
BRANCH  60  83
ATOM     83  C   UNL A   1      43.838  28.094  34.652  1.00  0.00     0.064 A 
ATOM     84  C   UNL A   1      45.201  28.423  34.575  1.00  0.00     0.173 A 
ATOM     85  C   UNL A   1      43.488  26.905  35.312  1.00  0.00     0.173 A 
ATOM     86  F   UNL A   1      45.590  29.542  33.945  1.00  0.00    -0.203 F 
ATOM     87  C   UNL A   1      46.174  27.569  35.088  1.00  0.00     0.198 A 
ATOM     88  C   UNL A   1      44.462  26.075  35.859  1.00  0.00     0.198 A 
ATOM     89  F   UNL A   1      42.200  26.547  35.425  1.00  0.00    -0.203 F 
ATOM     90  F   UNL A   1      47.471  27.867  34.932  1.00  0.00    -0.200 F 
ATOM     91  C   UNL A   1      45.804  26.400  35.732  1.00  0.00     0.200 A 
ATOM     92  F   UNL A   1      44.102  24.953  36.497  1.00  0.00    -0.200 F 
ATOM     93  F   UNL A   1      46.743  25.576  36.221  1.00  0.00    -0.200 F 
ENDBRANCH  60  83
ENDBRANCH  34  35
ENDBRANCH  26  29
ENDBRANCH  24  25
ENDBRANCH  23  24
ENDBRANCH   1  23
TORSDOF 14
ENDMDL
MODEL 2
REMARK VINA RESULT:     -12.2      0.100      1.595
REMARK SMILES CC(C)N1C(=O)C[C@@H](Sc2csc(C(=O)NCCCCNC(=O)c3ccc(-c4c5nc(c(-c6c(F)c(F)c(F)c(F)c6F)c6ccc([nH]6)c(-c6c(F)c(F)c(F)c(F)c6F)c6nc(c(-c7c(F)c(F)c(F)c(F)c7F)c7ccc4[nH]7)C=C6)C=C5)cc3)c2)C1=O
REMARK SMILES IDX 18 1 17 2 16 3 14 4 15 5 13 7 10 8 11 9 87 10 12 11 9 12
REMARK SMILES IDX 8 13 4 14 5 15 88 16 6 17 7 18 89 19 2 20 1 21 3 22 19 23
REMARK SMILES IDX 20 24 21 25 22 26 23 28 24 29 25 30 86 31 26 32 85 33 27 34
REMARK SMILES IDX 28 35 29 36 79 37 30 38 84 39 78 40 80 41 31 42 83 43 77 44
REMARK SMILES IDX 76 45 32 47 64 48 44 49 63 50 45 51 48 52 62 53 81 54 46 55
REMARK SMILES IDX 47 56 61 58 82 59 49 60 33 61 34 62 42 63 35 64 36 65 40 66
REMARK SMILES IDX 43 67 37 68 38 69 41 70 39 71 65 72 66 73 74 74 67 75 68 76
REMARK SMILES IDX 72 77 75 78 69 79 70 80 73 81 71 82 50 83 51 84 59 85 52 86
REMARK SMILES IDX 53 87 57 88 60 89 54 90 55 91 58 92 56 93
REMARK H PARENT 16 6 21 27 80 46 48 57
REMARK Flexibility Score: inf
ROOT
ATOM      1  C   UNL A   1      31.814  30.488  26.708  1.00  0.00     0.023 C 
ENDROOT
BRANCH   1   2
ATOM      2  C   UNL A   1      31.468  29.914  25.333  1.00  0.00     0.116 C 
BRANCH   2   3
ATOM      3  N   UNL A   1      32.664  29.707  24.550  1.00  0.00    -0.351 N 
ATOM      4  C   UNL A   1      33.266  28.558  24.097  1.00  0.00     0.261 C 
ATOM      5  O   UNL A   1      34.283  28.741  23.421  1.00  0.00    -0.268 OA
ATOM      6  H   UNL A   1      33.129  30.536  24.294  1.00  0.00     0.163 HD
BRANCH   4   7
ATOM      7  C   UNL A   1      32.722  27.235  24.390  1.00  0.00     0.093 A 
ATOM      8  C   UNL A   1      31.757  25.084  24.321  1.00  0.00     0.020 A 
ATOM      9  C   UNL A   1      32.091  25.191  25.644  1.00  0.00     0.080 A 
ATOM     10  C   UNL A   1      32.053  26.295  23.626  1.00  0.00     0.040 A 
ATOM     11  S   UNL A   1      32.871  26.665  26.009  1.00  0.00    -0.137 S 
BRANCH   8  12
ATOM     12  S   UNL A   1      30.994  23.758  23.453  1.00  0.00    -0.111 SA
BRANCH  12  13
ATOM     13  C   UNL A   1      32.224  22.451  23.228  1.00  0.00     0.150 C 
ATOM     14  N   UNL A   1      34.424  22.316  24.005  1.00  0.00    -0.279 N 
ATOM     15  C   UNL A   1      33.706  21.426  24.761  1.00  0.00     0.231 C 
ATOM     16  C   UNL A   1      33.637  22.954  23.081  1.00  0.00     0.243 C 
ATOM     17  O   UNL A   1      34.136  20.733  25.673  1.00  0.00    -0.274 OA
ATOM     18  C   UNL A   1      32.264  21.445  24.358  1.00  0.00     0.125 C 
ATOM     19  O   UNL A   1      33.990  23.768  22.241  1.00  0.00    -0.273 OA
BRANCH  14  20
ATOM     20  C   UNL A   1      35.847  22.567  24.277  1.00  0.00     0.087 C 
ATOM     21  C   UNL A   1      36.737  22.696  23.042  1.00  0.00     0.031 C 
ATOM     22  C   UNL A   1      36.028  23.809  25.160  1.00  0.00     0.031 C 
ENDBRANCH  14  20
ENDBRANCH  12  13
ENDBRANCH   8  12
ENDBRANCH   4   7
ENDBRANCH   2   3
ENDBRANCH   1   2
BRANCH   1  23
ATOM     23  C   UNL A   1      31.547  31.991  26.835  1.00  0.00     0.023 C 
BRANCH  23  24
ATOM     24  C   UNL A   1      32.771  32.830  27.184  1.00  0.00     0.116 C 
BRANCH  24  25
ATOM     25  N   UNL A   1      32.436  34.165  27.653  1.00  0.00    -0.352 N 
ATOM     26  C   UNL A   1      33.024  34.898  28.652  1.00  0.00     0.251 C 
ATOM     27  H   UNL A   1      31.685  34.603  27.191  1.00  0.00     0.163 HD
ATOM     28  O   UNL A   1      32.535  35.965  29.008  1.00  0.00    -0.269 OA
BRANCH  26  29
ATOM     29  C   UNL A   1      34.228  34.373  29.328  1.00  0.00     0.039 A 
ATOM     30  C   UNL A   1      34.059  33.489  30.394  1.00  0.00     0.014 A 
ATOM     31  C   UNL A   1      35.510  34.731  28.901  1.00  0.00     0.014 A 
ATOM     32  C   UNL A   1      35.180  32.921  30.997  1.00  0.00     0.010 A 
ATOM     33  C   UNL A   1      36.623  34.099  29.447  1.00  0.00     0.010 A 
ATOM     34  C   UNL A   1      36.469  33.192  30.505  1.00  0.00    -0.014 A 
BRANCH  34  35
ATOM     35  C   UNL A   1      37.651  32.511  31.092  1.00  0.00     0.031 A 
ATOM     36  C   UNL A   1      38.152  32.881  32.458  1.00  0.00     0.074 A 
ATOM     37  C   UNL A   1      38.282  31.562  30.372  1.00  0.00     0.049 A 
ATOM     38  N   UNL A   1      39.128  32.349  33.152  1.00  0.00    -0.248 NA
ATOM     39  C   UNL A   1      37.493  34.013  33.126  1.00  0.00     0.031 C 
ATOM     40  C   UNL A   1      37.934  31.170  29.005  1.00  0.00     0.029 A 
ATOM     41  N   UNL A   1      39.339  30.749  30.693  1.00  0.00    -0.354 N 
ATOM     42  C   UNL A   1      39.195  33.078  34.331  1.00  0.00     0.074 A 
ATOM     43  C   UNL A   1      38.213  34.134  34.231  1.00  0.00     0.031 C 
ATOM     44  C   UNL A   1      38.729  30.159  28.623  1.00  0.00     0.029 A 
ATOM     45  C   UNL A   1      39.661  29.853  29.703  1.00  0.00     0.049 A 
ATOM     46  H   UNL A   1      39.818  30.801  31.551  1.00  0.00     0.167 HD
ATOM     47  C   UNL A   1      39.986  32.868  35.411  1.00  0.00     0.037 A 
ATOM     48  C   UNL A   1      40.597  28.887  29.676  1.00  0.00     0.037 A 
ATOM     49  C   UNL A   1      40.957  31.809  35.507  1.00  0.00     0.049 A 
ATOM     50  C   UNL A   1      41.453  28.667  30.893  1.00  0.00     0.074 A 
ATOM     51  C   UNL A   1      41.767  31.472  36.577  1.00  0.00     0.029 A 
ATOM     52  N   UNL A   1      41.256  30.916  34.487  1.00  0.00    -0.354 N 
ATOM     53  N   UNL A   1      41.444  29.302  32.040  1.00  0.00    -0.248 NA
ATOM     54  C   UNL A   1      42.438  27.580  30.816  1.00  0.00     0.031 C 
ATOM     55  C   UNL A   1      42.596  30.416  36.185  1.00  0.00     0.029 A 
ATOM     56  C   UNL A   1      42.258  30.048  34.893  1.00  0.00     0.049 A 
ATOM     57  H   UNL A   1      40.821  30.902  33.604  1.00  0.00     0.167 HD
ATOM     58  C   UNL A   1      42.402  28.680  32.828  1.00  0.00     0.074 A 
ATOM     59  C   UNL A   1      42.948  27.596  32.038  1.00  0.00     0.031 C 
ATOM     60  C   UNL A   1      42.799  28.981  34.091  1.00  0.00     0.037 A 
BRANCH  47  61
ATOM     61  C   UNL A   1      39.828  33.802  36.579  1.00  0.00     0.064 A 
ATOM     62  C   UNL A   1      40.509  35.029  36.639  1.00  0.00     0.173 A 
ATOM     63  C   UNL A   1      38.962  33.484  37.635  1.00  0.00     0.173 A 
ATOM     64  F   UNL A   1      41.359  35.379  35.661  1.00  0.00    -0.203 F 
ATOM     65  C   UNL A   1      40.353  35.885  37.727  1.00  0.00     0.198 A 
ATOM     66  C   UNL A   1      38.782  34.358  38.706  1.00  0.00     0.198 A 
ATOM     67  F   UNL A   1      38.282  32.328  37.629  1.00  0.00    -0.203 F 
ATOM     68  F   UNL A   1      41.057  37.024  37.788  1.00  0.00    -0.200 F 
ATOM     69  C   UNL A   1      39.484  35.552  38.755  1.00  0.00     0.200 A 
ATOM     70  F   UNL A   1      37.930  34.041  39.690  1.00  0.00    -0.200 F 
ATOM     71  F   UNL A   1      39.330  36.380  39.797  1.00  0.00    -0.200 F 
ENDBRANCH  47  61
BRANCH  48  72
ATOM     72  C   UNL A   1      40.747  28.029  28.470  1.00  0.00     0.064 A 
ATOM     73  C   UNL A   1      41.551  28.429  27.394  1.00  0.00     0.173 A 
ATOM     74  C   UNL A   1      40.084  26.797  28.366  1.00  0.00     0.173 A 
ATOM     75  F   UNL A   1      42.191  29.606  27.437  1.00  0.00    -0.203 F 
ATOM     76  C   UNL A   1      41.664  27.644  26.248  1.00  0.00     0.198 A 
ATOM     77  C   UNL A   1      40.226  25.997  27.234  1.00  0.00     0.198 A 
ATOM     78  F   UNL A   1      39.310  26.363  29.371  1.00  0.00    -0.203 F 
ATOM     79  F   UNL A   1      42.397  28.076  25.212  1.00  0.00    -0.200 F 
ATOM     80  C   UNL A   1      41.007  26.425  26.172  1.00  0.00     0.200 A 
ATOM     81  F   UNL A   1      39.603  24.812  27.172  1.00  0.00    -0.200 F 
ATOM     82  F   UNL A   1      41.119  25.669  25.071  1.00  0.00    -0.200 F 
ENDBRANCH  48  72
BRANCH  60  83
ATOM     83  C   UNL A   1      43.861  28.103  34.696  1.00  0.00     0.064 A 
ATOM     84  C   UNL A   1      43.538  26.933  35.402  1.00  0.00     0.173 A 
ATOM     85  C   UNL A   1      45.217  28.442  34.574  1.00  0.00     0.173 A 
ATOM     86  F   UNL A   1      42.256  26.570  35.558  1.00  0.00    -0.203 F 
ATOM     87  C   UNL A   1      44.530  26.167  36.008  1.00  0.00     0.198 A 
ATOM     88  C   UNL A   1      46.209  27.650  35.148  1.00  0.00     0.198 A 
ATOM     89  F   UNL A   1      45.583  29.542  33.900  1.00  0.00    -0.203 F 
ATOM     90  F   UNL A   1      44.191  25.099  36.744  1.00  0.00    -0.200 F 
ATOM     91  C   UNL A   1      45.863  26.523  35.877  1.00  0.00     0.200 A 
ATOM     92  F   UNL A   1      47.497  27.986  35.005  1.00  0.00    -0.200 F 
ATOM     93  F   UNL A   1      46.816  25.787  36.466  1.00  0.00    -0.200 F 
ENDBRANCH  60  83
ENDBRANCH  34  35
ENDBRANCH  26  29
ENDBRANCH  24  25
ENDBRANCH  23  24
ENDBRANCH   1  23
TORSDOF 14
ENDMDL
MODEL 3
REMARK VINA RESULT:     -12.1      0.689      7.431
REMARK SMILES CC(C)N1C(=O)C[C@@H](Sc2csc(C(=O)NCCCCNC(=O)c3ccc(-c4c5nc(c(-c6c(F)c(F)c(F)c(F)c6F)c6ccc([nH]6)c(-c6c(F)c(F)c(F)c(F)c6F)c6nc(c(-c7c(F)c(F)c(F)c(F)c7F)c7ccc4[nH]7)C=C6)C=C5)cc3)c2)C1=O
REMARK SMILES IDX 18 1 17 2 16 3 14 4 15 5 13 7 10 8 11 9 87 10 12 11 9 12
REMARK SMILES IDX 8 13 4 14 5 15 88 16 6 17 7 18 89 19 2 20 1 21 3 22 19 23
REMARK SMILES IDX 20 24 21 25 22 26 23 28 24 29 25 30 86 31 26 32 85 33 27 34
REMARK SMILES IDX 28 35 29 36 79 37 30 38 84 39 78 40 80 41 31 42 83 43 77 44
REMARK SMILES IDX 76 45 32 47 64 48 44 49 63 50 45 51 48 52 62 53 81 54 46 55
REMARK SMILES IDX 47 56 61 58 82 59 49 60 33 61 34 62 42 63 35 64 36 65 40 66
REMARK SMILES IDX 43 67 37 68 38 69 41 70 39 71 65 72 66 73 74 74 67 75 68 76
REMARK SMILES IDX 72 77 75 78 69 79 70 80 73 81 71 82 50 83 51 84 59 85 52 86
REMARK SMILES IDX 53 87 57 88 60 89 54 90 55 91 58 92 56 93
REMARK H PARENT 16 6 21 27 80 46 48 57
REMARK Flexibility Score: inf
ROOT
ATOM      1  C   UNL A   1      31.686  30.530  26.643  1.00  0.00     0.023 C 
ENDROOT
BRANCH   1   2
ATOM      2  C   UNL A   1      31.419  29.953  25.252  1.00  0.00     0.116 C 
BRANCH   2   3
ATOM      3  N   UNL A   1      32.660  29.724  24.547  1.00  0.00    -0.351 N 
ATOM      4  C   UNL A   1      33.287  28.561  24.167  1.00  0.00     0.261 C 
ATOM      5  O   UNL A   1      34.342  28.724  23.548  1.00  0.00    -0.268 OA
ATOM      6  H   UNL A   1      33.140  30.544  24.295  1.00  0.00     0.163 HD
BRANCH   4   7
ATOM      7  C   UNL A   1      32.725  27.248  24.469  1.00  0.00     0.093 A 
ATOM      8  C   UNL A   1      31.741  25.104  24.411  1.00  0.00     0.020 A 
ATOM      9  C   UNL A   1      32.049  25.228  25.739  1.00  0.00     0.080 A 
ATOM     10  C   UNL A   1      32.063  26.302  23.704  1.00  0.00     0.040 A 
ATOM     11  S   UNL A   1      32.835  26.700  26.098  1.00  0.00    -0.137 S 
BRANCH   8  12
ATOM     12  S   UNL A   1      30.985  23.773  23.546  1.00  0.00    -0.111 SA
BRANCH  12  13
ATOM     13  C   UNL A   1      32.215  22.463  23.341  1.00  0.00     0.150 C 
ATOM     14  N   UNL A   1      34.423  22.351  24.101  1.00  0.00    -0.279 N 
ATOM     15  C   UNL A   1      33.714  21.477  24.885  1.00  0.00     0.231 C 
ATOM     16  C   UNL A   1      33.626  22.965  23.169  1.00  0.00     0.243 C 
ATOM     17  O   UNL A   1      34.154  20.807  25.809  1.00  0.00    -0.274 OA
ATOM     18  C   UNL A   1      32.269  21.484  24.494  1.00  0.00     0.125 C 
ATOM     19  O   UNL A   1      33.970  23.759  22.307  1.00  0.00    -0.273 OA
BRANCH  14  20
ATOM     20  C   UNL A   1      35.848  22.611  24.355  1.00  0.00     0.087 C 
ATOM     21  C   UNL A   1      36.721  22.739  23.107  1.00  0.00     0.031 C 
ATOM     22  C   UNL A   1      36.033  23.858  25.229  1.00  0.00     0.031 C 
ENDBRANCH  14  20
ENDBRANCH  12  13
ENDBRANCH   8  12
ENDBRANCH   4   7
ENDBRANCH   2   3
ENDBRANCH   1   2
BRANCH   1  23
ATOM     23  C   UNL A   1      31.499  32.048  26.729  1.00  0.00     0.023 C 
BRANCH  23  24
ATOM     24  C   UNL A   1      32.729  32.817  27.197  1.00  0.00     0.116 C 
BRANCH  24  25
ATOM     25  N   UNL A   1      32.434  34.185  27.591  1.00  0.00    -0.352 N 
ATOM     26  C   UNL A   1      33.003  34.934  28.589  1.00  0.00     0.251 C 
ATOM     27  H   UNL A   1      31.729  34.636  27.072  1.00  0.00     0.163 HD
ATOM     28  O   UNL A   1      32.547  36.037  28.874  1.00  0.00    -0.269 OA
BRANCH  26  29
ATOM     29  C   UNL A   1      34.145  34.386  29.350  1.00  0.00     0.039 A 
ATOM     30  C   UNL A   1      33.882  33.675  30.521  1.00  0.00     0.014 A 
ATOM     31  C   UNL A   1      35.458  34.552  28.901  1.00  0.00     0.014 A 
ATOM     32  C   UNL A   1      34.937  33.083  31.214  1.00  0.00     0.010 A 
ATOM     33  C   UNL A   1      36.498  33.891  29.546  1.00  0.00     0.010 A 
ATOM     34  C   UNL A   1      36.249  33.155  30.713  1.00  0.00    -0.014 A 
BRANCH  34  35
ATOM     35  C   UNL A   1      37.352  32.442  31.406  1.00  0.00     0.031 A 
ATOM     36  C   UNL A   1      38.070  31.304  30.739  1.00  0.00     0.074 A 
ATOM     37  C   UNL A   1      37.693  32.820  32.653  1.00  0.00     0.049 A 
ATOM     38  N   UNL A   1      39.096  30.610  31.167  1.00  0.00    -0.248 NA
ATOM     39  C   UNL A   1      37.556  30.864  29.433  1.00  0.00     0.031 C 
ATOM     40  C   UNL A   1      37.019  33.861  33.432  1.00  0.00     0.029 A 
ATOM     41  N   UNL A   1      38.695  32.382  33.481  1.00  0.00    -0.354 N 
ATOM     42  C   UNL A   1      39.347  29.661  30.186  1.00  0.00     0.074 A 
ATOM     43  C   UNL A   1      38.325  29.818  29.175  1.00  0.00     0.031 C 
ATOM     44  C   UNL A   1      37.656  34.016  34.603  1.00  0.00     0.029 A 
ATOM     45  C   UNL A   1      38.762  33.065  34.670  1.00  0.00     0.049 A 
ATOM     46  H   UNL A   1      39.308  31.650  33.243  1.00  0.00     0.167 HD
ATOM     47  C   UNL A   1      40.356  28.760  30.121  1.00  0.00     0.037 A 
ATOM     48  C   UNL A   1      39.626  32.945  35.695  1.00  0.00     0.037 A 
ATOM     49  C   UNL A   1      41.375  28.614  31.128  1.00  0.00     0.049 A 
ATOM     50  C   UNL A   1      40.744  31.944  35.591  1.00  0.00     0.074 A 
ATOM     51  C   UNL A   1      42.474  27.772  31.132  1.00  0.00     0.029 A 
ATOM     52  N   UNL A   1      41.416  29.325  32.320  1.00  0.00    -0.354 N 
ATOM     53  N   UNL A   1      41.029  31.116  34.616  1.00  0.00    -0.248 NA
ATOM     54  C   UNL A   1      41.673  31.877  36.727  1.00  0.00     0.031 C 
ATOM     55  C   UNL A   1      43.145  27.932  32.349  1.00  0.00     0.029 A 
ATOM     56  C   UNL A   1      42.504  28.921  33.078  1.00  0.00     0.049 A 
ATOM     57  H   UNL A   1      40.766  30.015  32.588  1.00  0.00     0.167 HD
ATOM     58  C   UNL A   1      42.179  30.445  35.008  1.00  0.00     0.074 A 
ATOM     59  C   UNL A   1      42.557  30.990  36.296  1.00  0.00     0.031 C 
ATOM     60  C   UNL A   1      42.860  29.464  34.364  1.00  0.00     0.037 A 
BRANCH  47  61
ATOM     61  C   UNL A   1      40.408  27.862  28.916  1.00  0.00     0.064 A 
ATOM     62  C   UNL A   1      39.695  26.653  28.865  1.00  0.00     0.173 A 
ATOM     63  C   UNL A   1      41.152  28.228  27.785  1.00  0.00     0.173 A 
ATOM     64  F   UNL A   1      38.976  26.247  29.923  1.00  0.00    -0.203 F 
ATOM     65  C   UNL A   1      39.752  25.832  27.741  1.00  0.00     0.198 A 
ATOM     66  C   UNL A   1      41.180  27.421  26.649  1.00  0.00     0.198 A 
ATOM     67  F   UNL A   1      41.849  29.375  27.775  1.00  0.00    -0.203 F 
ATOM     68  F   UNL A   1      39.108  24.656  27.739  1.00  0.00    -0.200 F 
ATOM     69  C   UNL A   1      40.488  26.220  26.632  1.00  0.00     0.200 A 
ATOM     70  F   UNL A   1      41.879  27.806  25.573  1.00  0.00    -0.200 F 
ATOM     71  F   UNL A   1      40.535  25.432  25.549  1.00  0.00    -0.200 F 
ENDBRANCH  47  61
BRANCH  48  72
ATOM     72  C   UNL A   1      39.492  33.821  36.889  1.00  0.00     0.064 A 
ATOM     73  C   UNL A   1      38.791  33.393  38.025  1.00  0.00     0.173 A 
ATOM     74  C   UNL A   1      40.053  35.106  36.916  1.00  0.00     0.173 A 
ATOM     75  F   UNL A   1      38.220  32.179  38.042  1.00  0.00    -0.203 F 
ATOM     76  C   UNL A   1      38.633  34.226  39.131  1.00  0.00     0.198 A 
ATOM     77  C   UNL A   1      39.924  35.925  38.037  1.00  0.00     0.198 A 
ATOM     78  F   UNL A   1      40.742  35.561  35.859  1.00  0.00    -0.203 F 
ATOM     79  F   UNL A   1      37.913  33.810  40.182  1.00  0.00    -0.200 F 
ATOM     80  C   UNL A   1      39.205  35.488  39.138  1.00  0.00     0.200 A 
ATOM     81  F   UNL A   1      40.494  37.138  38.046  1.00  0.00    -0.200 F 
ATOM     82  F   UNL A   1      39.056  36.288  40.204  1.00  0.00    -0.200 F 
ENDBRANCH  48  72
BRANCH  60  83
ATOM     83  C   UNL A   1      44.097  28.939  35.041  1.00  0.00     0.064 A 
ATOM     84  C   UNL A   1      44.048  27.859  35.936  1.00  0.00     0.173 A 
ATOM     85  C   UNL A   1      45.346  29.531  34.797  1.00  0.00     0.173 A 
ATOM     86  F   UNL A   1      42.877  27.264  36.213  1.00  0.00    -0.203 F 
ATOM     87  C   UNL A   1      45.192  27.427  36.600  1.00  0.00     0.198 A 
ATOM     88  C   UNL A   1      46.495  29.069  35.433  1.00  0.00     0.198 A 
ATOM     89  F   UNL A   1      45.453  30.559  33.942  1.00  0.00    -0.203 F 
ATOM     90  F   UNL A   1      45.105  26.445  37.509  1.00  0.00    -0.200 F 
ATOM     91  C   UNL A   1      46.414  28.029  36.346  1.00  0.00     0.200 A 
ATOM     92  F   UNL A   1      47.678  29.641  35.173  1.00  0.00    -0.200 F 
ATOM     93  F   UNL A   1      47.514  27.615  36.991  1.00  0.00    -0.200 F 
ENDBRANCH  60  83
ENDBRANCH  34  35
ENDBRANCH  26  29
ENDBRANCH  24  25
ENDBRANCH  23  24
ENDBRANCH   1  23
TORSDOF 14
ENDMDL
