MODEL 1
REMARK VINA RESULT:     -11.0      0.000      0.000
REMARK SMILES CCOc1ccc(CC)cc1[C@@H]([NH3+])CC(=O)NCCCCNC(=O)c1ccc(-c2c3nc(c(-c4c(F)c(F)c(F)c(F)c4F)c4ccc([nH]4)c(-c4c(F)c(F)c(F)c(F)c4F)c4nc(c(-c5c(F)c(F)c(F)c(F)c5F)c5ccc2[nH]5)C=C4)C=C3)cc1
REMARK SMILES IDX 18 1 17 2 15 3 16 4 14 6 12 7 11 8 4 9 5 10 6 11 10 12 7 13
REMARK SMILES IDX 3 14 2 15 1 16 8 17 9 18 13 19 19 23 20 24 21 25 22 26 23 27
REMARK SMILES IDX 24 29 25 30 26 31 87 32 27 33 86 34 28 35 29 36 30 37 80 38
REMARK SMILES IDX 31 39 85 40 79 41 81 42 32 43 84 44 78 45 77 46 33 48 65 49
REMARK SMILES IDX 45 50 64 51 46 52 49 53 63 54 82 55 47 56 48 57 62 59 83 60
REMARK SMILES IDX 50 61 34 62 35 63 43 64 36 65 37 66 41 67 44 68 38 69 39 70
REMARK SMILES IDX 42 71 40 72 66 73 67 74 75 75 68 76 69 77 73 78 76 79 70 80
REMARK SMILES IDX 71 81 74 82 72 83 51 84 52 85 60 86 53 87 54 88 58 89 61 90
REMARK SMILES IDX 55 91 56 92 59 93 57 94
REMARK H PARENT 17 5 13 20 13 21 13 22 22 28 81 47 49 58
REMARK Flexibility Score: inf
ROOT
ATOM      1  C   UNL A   1      34.410  31.536  27.675  1.00  0.00     0.116 C 
ENDROOT
BRANCH   1   2
ATOM      2  N   UNL A   1      33.694  30.290  27.880  1.00  0.00    -0.356 N 
ATOM      3  C   UNL A   1      32.611  29.787  27.224  1.00  0.00     0.226 C 
ATOM      4  O   UNL A   1      32.034  28.822  27.732  1.00  0.00    -0.275 OA
ATOM      5  H   UNL A   1      34.045  29.722  28.604  1.00  0.00     0.163 HD
BRANCH   3   6
ATOM      6  C   UNL A   1      32.150  30.351  25.894  1.00  0.00     0.170 C 
BRANCH   6   7
ATOM      7  C   UNL A   1      32.083  29.289  24.778  1.00  0.00     0.225 C 
BRANCH   7   8
ATOM      8  C   UNL A   1      30.727  29.223  24.101  1.00  0.00     0.052 A 
ATOM      9  C   UNL A   1      30.161  28.013  23.676  1.00  0.00     0.128 A 
ATOM     10  C   UNL A   1      28.902  27.999  23.066  1.00  0.00     0.047 A 
ATOM     11  C   UNL A   1      28.177  29.190  22.900  1.00  0.00     0.007 A 
ATOM     12  C   UNL A   1      30.006  30.413  23.868  1.00  0.00     0.017 A 
ATOM     13  C   UNL A   1      28.724  30.416  23.298  1.00  0.00    -0.048 A 
BRANCH   9  14
ATOM     14  O   UNL A   1      30.886  26.851  23.733  1.00  0.00    -0.493 OA
BRANCH  14  15
ATOM     15  C   UNL A   1      30.158  25.750  24.289  1.00  0.00     0.226 C 
ATOM     16  C   UNL A   1      30.363  25.740  25.796  1.00  0.00     0.049 C 
ENDBRANCH  14  15
ENDBRANCH   9  14
BRANCH  13  17
ATOM     17  C   UNL A   1      27.950  31.716  23.284  1.00  0.00     0.032 C 
ATOM     18  C   UNL A   1      28.734  32.960  22.903  1.00  0.00     0.009 C 
ENDBRANCH  13  17
ENDBRANCH   7   8
BRANCH   7  19
ATOM     19  N   UNL A   1      33.107  29.570  23.754  1.00  0.00    -0.351 N 
ATOM     20  H   UNL A   1      32.877  30.439  23.273  1.00  0.00     0.345 HD
ATOM     21  H   UNL A   1      33.132  28.805  23.080  1.00  0.00     0.345 HD
ATOM     22  H   UNL A   1      34.019  29.660  24.201  1.00  0.00     0.345 HD
ENDBRANCH   7  19
ENDBRANCH   6   7
ENDBRANCH   3   6
ENDBRANCH   1   2
BRANCH   1  23
ATOM     23  C   UNL A   1      34.043  32.535  28.768  1.00  0.00     0.023 C 
BRANCH  23  24
ATOM     24  C   UNL A   1      33.370  33.817  28.312  1.00  0.00     0.023 C 
BRANCH  24  25
ATOM     25  C   UNL A   1      33.835  35.050  29.071  1.00  0.00     0.116 C 
BRANCH  25  26
ATOM     26  N   UNL A   1      32.877  35.549  30.055  1.00  0.00    -0.352 N 
ATOM     27  C   UNL A   1      32.925  35.494  31.427  1.00  0.00     0.251 C 
ATOM     28  H   UNL A   1      32.080  35.989  29.679  1.00  0.00     0.163 HD
ATOM     29  O   UNL A   1      32.002  35.943  32.099  1.00  0.00    -0.269 OA
BRANCH  27  30
ATOM     30  C   UNL A   1      34.068  34.828  32.082  1.00  0.00     0.039 A 
ATOM     31  C   UNL A   1      33.932  33.498  32.488  1.00  0.00     0.014 A 
ATOM     32  C   UNL A   1      35.296  35.479  32.210  1.00  0.00     0.014 A 
ATOM     33  C   UNL A   1      35.054  32.794  32.925  1.00  0.00     0.010 A 
ATOM     34  C   UNL A   1      36.429  34.747  32.527  1.00  0.00     0.010 A 
ATOM     35  C   UNL A   1      36.322  33.398  32.891  1.00  0.00    -0.014 A 
BRANCH  35  36
ATOM     36  C   UNL A   1      37.553  32.646  33.242  1.00  0.00     0.031 A 
ATOM     37  C   UNL A   1      38.260  32.937  34.536  1.00  0.00     0.074 A 
ATOM     38  C   UNL A   1      38.081  31.776  32.359  1.00  0.00     0.049 A 
ATOM     39  N   UNL A   1      39.399  32.473  34.981  1.00  0.00    -0.248 NA
ATOM     40  C   UNL A   1      37.626  33.922  35.429  1.00  0.00     0.031 C 
ATOM     41  C   UNL A   1      37.533  31.469  31.036  1.00  0.00     0.029 A 
ATOM     42  N   UNL A   1      39.206  30.995  32.438  1.00  0.00    -0.354 N 
ATOM     43  C   UNL A   1      39.630  33.132  36.181  1.00  0.00     0.074 A 
ATOM     44  C   UNL A   1      38.551  34.076  36.364  1.00  0.00     0.031 C 
ATOM     45  C   UNL A   1      38.300  30.538  30.446  1.00  0.00     0.029 A 
ATOM     46  C   UNL A   1      39.412  30.209  31.332  1.00  0.00     0.049 A 
ATOM     47  H   UNL A   1      39.809  30.997  33.217  1.00  0.00     0.167 HD
ATOM     48  C   UNL A   1      40.633  32.943  37.069  1.00  0.00     0.037 A 
ATOM     49  C   UNL A   1      40.386  29.319  31.067  1.00  0.00     0.037 A 
ATOM     50  C   UNL A   1      41.668  31.959  36.914  1.00  0.00     0.049 A 
ATOM     51  C   UNL A   1      41.458  29.084  32.096  1.00  0.00     0.074 A 
ATOM     52  C   UNL A   1      42.682  31.623  37.793  1.00  0.00     0.029 A 
ATOM     53  N   UNL A   1      41.812  31.140  35.803  1.00  0.00    -0.354 N 
ATOM     54  N   UNL A   1      41.624  29.658  33.264  1.00  0.00    -0.248 NA
ATOM     55  C   UNL A   1      42.473  28.070  31.776  1.00  0.00     0.031 C 
ATOM     56  C   UNL A   1      43.458  30.619  37.201  1.00  0.00     0.029 A 
ATOM     57  C   UNL A   1      42.905  30.306  35.969  1.00  0.00     0.049 A 
ATOM     58  H   UNL A   1      41.224  31.151  35.012  1.00  0.00     0.167 HD
ATOM     59  C   UNL A   1      42.744  29.063  33.826  1.00  0.00     0.074 A 
ATOM     60  C   UNL A   1      43.208  28.069  32.879  1.00  0.00     0.031 C 
ATOM     61  C   UNL A   1      43.340  29.318  35.017  1.00  0.00     0.037 A 
BRANCH  48  62
ATOM     62  C   UNL A   1      40.639  33.805  38.298  1.00  0.00     0.064 A 
ATOM     63  C   UNL A   1      41.447  34.949  38.389  1.00  0.00     0.173 A 
ATOM     64  C   UNL A   1      39.820  33.492  39.393  1.00  0.00     0.173 A 
ATOM     65  F   UNL A   1      42.261  35.282  37.376  1.00  0.00    -0.203 F 
ATOM     66  C   UNL A   1      41.463  35.725  39.544  1.00  0.00     0.198 A 
ATOM     67  C   UNL A   1      39.815  34.289  40.534  1.00  0.00     0.198 A 
ATOM     68  F   UNL A   1      39.026  32.410  39.358  1.00  0.00    -0.203 F 
ATOM     69  F   UNL A   1      42.288  36.778  39.630  1.00  0.00    -0.200 F 
ATOM     70  C   UNL A   1      40.643  35.400  40.613  1.00  0.00     0.200 A 
ATOM     71  F   UNL A   1      39.014  33.979  41.564  1.00  0.00    -0.200 F 
ATOM     72  F   UNL A   1      40.658  36.150  41.724  1.00  0.00    -0.200 F 
ENDBRANCH  48  62
BRANCH  49  73
ATOM     73  C   UNL A   1      40.367  28.549  29.797  1.00  0.00     0.064 A 
ATOM     74  C   UNL A   1      41.072  29.005  28.674  1.00  0.00     0.173 A 
ATOM     75  C   UNL A   1      39.652  27.349  29.676  1.00  0.00     0.173 A 
ATOM     76  F   UNL A   1      41.756  30.157  28.736  1.00  0.00    -0.203 F 
ATOM     77  C   UNL A   1      41.045  28.303  27.471  1.00  0.00     0.198 A 
ATOM     78  C   UNL A   1      39.646  26.634  28.479  1.00  0.00     0.198 A 
ATOM     79  F   UNL A   1      38.968  26.866  30.723  1.00  0.00    -0.203 F 
ATOM     80  F   UNL A   1      41.691  28.785  26.402  1.00  0.00    -0.200 F 
ATOM     81  C   UNL A   1      40.335  27.115  27.376  1.00  0.00     0.200 A 
ATOM     82  F   UNL A   1      38.969  25.481  28.394  1.00  0.00    -0.200 F 
ATOM     83  F   UNL A   1      40.310  26.438  26.219  1.00  0.00    -0.200 F 
ENDBRANCH  49  73
BRANCH  61  84
ATOM     84  C   UNL A   1      44.539  28.493  35.371  1.00  0.00     0.064 A 
ATOM     85  C   UNL A   1      45.838  28.911  35.047  1.00  0.00     0.173 A 
ATOM     86  C   UNL A   1      44.389  27.292  36.080  1.00  0.00     0.173 A 
ATOM     87  F   UNL A   1      46.029  30.046  34.356  1.00  0.00    -0.203 F 
ATOM     88  C   UNL A   1      46.943  28.143  35.400  1.00  0.00     0.198 A 
ATOM     89  C   UNL A   1      45.499  26.540  36.455  1.00  0.00     0.198 A 
ATOM     90  F   UNL A   1      43.168  26.853  36.418  1.00  0.00    -0.203 F 
ATOM     91  F   UNL A   1      48.173  28.540  35.044  1.00  0.00    -0.200 F 
ATOM     92  C   UNL A   1      46.774  26.964  36.111  1.00  0.00     0.200 A 
ATOM     93  F   UNL A   1      45.335  25.407  37.151  1.00  0.00    -0.200 F 
ATOM     94  F   UNL A   1      47.841  26.230  36.456  1.00  0.00    -0.200 F 
ENDBRANCH  61  84
ENDBRANCH  35  36
ENDBRANCH  27  30
ENDBRANCH  25  26
ENDBRANCH  24  25
ENDBRANCH  23  24
ENDBRANCH   1  23
TORSDOF 17
ENDMDL
MODEL 2
REMARK VINA RESULT:     -10.9      5.739     11.886
REMARK SMILES CCOc1ccc(CC)cc1[C@@H]([NH3+])CC(=O)NCCCCNC(=O)c1ccc(-c2c3nc(c(-c4c(F)c(F)c(F)c(F)c4F)c4ccc([nH]4)c(-c4c(F)c(F)c(F)c(F)c4F)c4nc(c(-c5c(F)c(F)c(F)c(F)c5F)c5ccc2[nH]5)C=C4)C=C3)cc1
REMARK SMILES IDX 18 1 17 2 15 3 16 4 14 6 12 7 11 8 4 9 5 10 6 11 10 12 7 13
REMARK SMILES IDX 3 14 2 15 1 16 8 17 9 18 13 19 19 23 20 24 21 25 22 26 23 27
REMARK SMILES IDX 24 29 25 30 26 31 87 32 27 33 86 34 28 35 29 36 30 37 80 38
REMARK SMILES IDX 31 39 85 40 79 41 81 42 32 43 84 44 78 45 77 46 33 48 65 49
REMARK SMILES IDX 45 50 64 51 46 52 49 53 63 54 82 55 47 56 48 57 62 59 83 60
REMARK SMILES IDX 50 61 34 62 35 63 43 64 36 65 37 66 41 67 44 68 38 69 39 70
REMARK SMILES IDX 42 71 40 72 66 73 67 74 75 75 68 76 69 77 73 78 76 79 70 80
REMARK SMILES IDX 71 81 74 82 72 83 51 84 52 85 60 86 53 87 54 88 58 89 61 90
REMARK SMILES IDX 55 91 56 92 59 93 57 94
REMARK H PARENT 17 5 13 20 13 21 13 22 22 28 81 47 49 58
REMARK Flexibility Score: inf
ROOT
ATOM      1  C   UNL A   1      43.389  20.822  25.995  1.00  0.00     0.116 C 
ENDROOT
BRANCH   1   2
ATOM      2  N   UNL A   1      43.896  21.080  24.660  1.00  0.00    -0.356 N 
ATOM      3  C   UNL A   1      44.031  22.259  23.989  1.00  0.00     0.226 C 
ATOM      4  O   UNL A   1      44.263  22.203  22.778  1.00  0.00    -0.275 OA
ATOM      5  H   UNL A   1      44.187  20.281  24.163  1.00  0.00     0.163 HD
BRANCH   3   6
ATOM      6  C   UNL A   1      43.951  23.596  24.700  1.00  0.00     0.170 C 
BRANCH   6   7
ATOM      7  C   UNL A   1      45.332  24.243  24.926  1.00  0.00     0.225 C 
BRANCH   7   8
ATOM      8  C   UNL A   1      45.664  24.439  26.394  1.00  0.00     0.052 A 
ATOM      9  C   UNL A   1      46.715  25.263  26.819  1.00  0.00     0.128 A 
ATOM     10  C   UNL A   1      46.977  25.423  28.184  1.00  0.00     0.047 A 
ATOM     11  C   UNL A   1      46.174  24.787  29.144  1.00  0.00     0.007 A 
ATOM     12  C   UNL A   1      44.909  23.763  27.375  1.00  0.00     0.017 A 
ATOM     13  C   UNL A   1      45.127  23.945  28.749  1.00  0.00    -0.048 A 
BRANCH   9  14
ATOM     14  O   UNL A   1      47.577  25.813  25.907  1.00  0.00    -0.493 OA
BRANCH  14  15
ATOM     15  C   UNL A   1      47.551  27.246  25.888  1.00  0.00     0.226 C 
ATOM     16  C   UNL A   1      47.174  27.709  24.489  1.00  0.00     0.049 C 
ENDBRANCH  14  15
ENDBRANCH   9  14
BRANCH  13  17
ATOM     17  C   UNL A   1      44.132  23.343  29.717  1.00  0.00     0.032 C 
ATOM     18  C   UNL A   1      42.773  22.980  29.144  1.00  0.00     0.009 C 
ENDBRANCH  13  17
ENDBRANCH   7   8
BRANCH   7  19
ATOM     19  N   UNL A   1      46.384  23.411  24.313  1.00  0.00    -0.351 N 
ATOM     20  H   UNL A   1      46.192  22.427  24.503  1.00  0.00     0.345 HD
ATOM     21  H   UNL A   1      47.289  23.663  24.708  1.00  0.00     0.345 HD
ATOM     22  H   UNL A   1      46.396  23.567  23.305  1.00  0.00     0.345 HD
ENDBRANCH   7  19
ENDBRANCH   6   7
ENDBRANCH   3   6
ENDBRANCH   1   2
BRANCH   1  23
ATOM     23  C   UNL A   1      42.330  19.724  25.949  1.00  0.00     0.023 C 
BRANCH  23  24
ATOM     24  C   UNL A   1      40.925  20.124  26.359  1.00  0.00     0.023 C 
BRANCH  24  25
ATOM     25  C   UNL A   1      40.657  21.615  26.232  1.00  0.00     0.116 C 
BRANCH  25  26
ATOM     26  N   UNL A   1      39.269  21.954  25.924  1.00  0.00    -0.352 N 
ATOM     27  C   UNL A   1      38.593  23.133  26.124  1.00  0.00     0.251 C 
ATOM     28  H   UNL A   1      38.742  21.231  25.513  1.00  0.00     0.163 HD
ATOM     29  O   UNL A   1      37.406  23.226  25.829  1.00  0.00    -0.269 OA
BRANCH  27  30
ATOM     30  C   UNL A   1      39.293  24.267  26.760  1.00  0.00     0.039 A 
ATOM     31  C   UNL A   1      39.985  25.173  25.953  1.00  0.00     0.014 A 
ATOM     32  C   UNL A   1      39.188  24.488  28.134  1.00  0.00     0.014 A 
ATOM     33  C   UNL A   1      40.482  26.351  26.510  1.00  0.00     0.010 A 
ATOM     34  C   UNL A   1      39.574  25.711  28.662  1.00  0.00     0.010 A 
ATOM     35  C   UNL A   1      40.228  26.655  27.858  1.00  0.00    -0.014 A 
BRANCH  35  36
ATOM     36  C   UNL A   1      40.643  27.948  28.457  1.00  0.00     0.031 A 
ATOM     37  C   UNL A   1      42.079  28.160  28.848  1.00  0.00     0.074 A 
ATOM     38  C   UNL A   1      39.716  28.886  28.734  1.00  0.00     0.049 A 
ATOM     39  N   UNL A   1      42.626  29.167  29.479  1.00  0.00    -0.248 NA
ATOM     40  C   UNL A   1      43.018  27.071  28.533  1.00  0.00     0.031 C 
ATOM     41  C   UNL A   1      38.280  28.764  28.477  1.00  0.00     0.029 A 
ATOM     42  N   UNL A   1      39.845  30.128  29.302  1.00  0.00    -0.354 N 
ATOM     43  C   UNL A   1      43.957  28.817  29.662  1.00  0.00     0.074 A 
ATOM     44  C   UNL A   1      44.122  27.480  29.139  1.00  0.00     0.031 C 
ATOM     45  C   UNL A   1      37.667  29.899  28.850  1.00  0.00     0.029 A 
ATOM     46  C   UNL A   1      38.660  30.814  29.404  1.00  0.00     0.049 A 
ATOM     47  H   UNL A   1      40.707  30.494  29.607  1.00  0.00     0.167 HD
ATOM     48  C   UNL A   1      44.960  29.557  30.188  1.00  0.00     0.037 A 
ATOM     49  C   UNL A   1      38.407  32.046  29.885  1.00  0.00     0.037 A 
ATOM     50  C   UNL A   1      44.804  30.909  30.648  1.00  0.00     0.049 A 
ATOM     51  C   UNL A   1      39.550  32.871  30.410  1.00  0.00     0.074 A 
ATOM     52  C   UNL A   1      45.772  31.780  31.117  1.00  0.00     0.029 A 
ATOM     53  N   UNL A   1      43.597  31.592  30.684  1.00  0.00    -0.354 N 
ATOM     54  N   UNL A   1      40.820  32.559  30.508  1.00  0.00    -0.248 NA
ATOM     55  C   UNL A   1      39.227  34.225  30.882  1.00  0.00     0.031 C 
ATOM     56  C   UNL A   1      45.144  32.982  31.464  1.00  0.00     0.029 A 
ATOM     57  C   UNL A   1      43.792  32.871  31.177  1.00  0.00     0.049 A 
ATOM     58  H   UNL A   1      42.730  31.221  30.401  1.00  0.00     0.167 HD
ATOM     59  C   UNL A   1      41.449  33.679  31.031  1.00  0.00     0.074 A 
ATOM     60  C   UNL A   1      40.424  34.688  31.211  1.00  0.00     0.031 C 
ATOM     61  C   UNL A   1      42.758  33.859  31.338  1.00  0.00     0.037 A 
BRANCH  48  62
ATOM     62  C   UNL A   1      46.318  28.922  30.268  1.00  0.00     0.064 A 
ATOM     63  C   UNL A   1      46.692  28.124  31.360  1.00  0.00     0.173 A 
ATOM     64  C   UNL A   1      47.252  29.103  29.237  1.00  0.00     0.173 A 
ATOM     65  F   UNL A   1      45.842  27.933  32.379  1.00  0.00    -0.203 F 
ATOM     66  C   UNL A   1      47.963  27.561  31.435  1.00  0.00     0.198 A 
ATOM     67  C   UNL A   1      48.511  28.512  29.301  1.00  0.00     0.198 A 
ATOM     68  F   UNL A   1      46.945  29.855  28.169  1.00  0.00    -0.203 F 
ATOM     69  F   UNL A   1      48.317  26.853  32.516  1.00  0.00    -0.200 F 
ATOM     70  C   UNL A   1      48.870  27.750  30.403  1.00  0.00     0.200 A 
ATOM     71  F   UNL A   1      49.384  28.688  28.298  1.00  0.00    -0.200 F 
ATOM     72  F   UNL A   1      50.092  27.206  30.476  1.00  0.00    -0.200 F 
ENDBRANCH  48  62
BRANCH  49  73
ATOM     73  C   UNL A   1      37.027  32.592  29.847  1.00  0.00     0.064 A 
ATOM     74  C   UNL A   1      36.167  32.439  30.944  1.00  0.00     0.173 A 
ATOM     75  C   UNL A   1      36.536  33.274  28.725  1.00  0.00     0.173 A 
ATOM     76  F   UNL A   1      36.586  31.777  32.034  1.00  0.00    -0.203 F 
ATOM     77  C   UNL A   1      34.864  32.928  30.913  1.00  0.00     0.198 A 
ATOM     78  C   UNL A   1      35.239  33.785  28.704  1.00  0.00     0.198 A 
ATOM     79  F   UNL A   1      37.321  33.453  27.652  1.00  0.00    -0.203 F 
ATOM     80  F   UNL A   1      34.051  32.729  31.959  1.00  0.00    -0.200 F 
ATOM     81  C   UNL A   1      34.402  33.604  29.794  1.00  0.00     0.200 A 
ATOM     82  F   UNL A   1      34.801  34.449  27.626  1.00  0.00    -0.200 F 
ATOM     83  F   UNL A   1      33.148  34.077  29.765  1.00  0.00    -0.200 F 
ENDBRANCH  49  73
BRANCH  61  84
ATOM     84  C   UNL A   1      43.155  35.200  31.876  1.00  0.00     0.064 A 
ATOM     85  C   UNL A   1      43.052  35.501  33.242  1.00  0.00     0.173 A 
ATOM     86  C   UNL A   1      43.685  36.178  31.021  1.00  0.00     0.173 A 
ATOM     87  F   UNL A   1      42.537  34.602  34.094  1.00  0.00    -0.203 F 
ATOM     88  C   UNL A   1      43.444  36.744  33.729  1.00  0.00     0.198 A 
ATOM     89  C   UNL A   1      44.101  37.410  31.516  1.00  0.00     0.198 A 
ATOM     90  F   UNL A   1      43.809  35.934  29.708  1.00  0.00    -0.203 F 
ATOM     91  F   UNL A   1      43.298  37.027  35.031  1.00  0.00    -0.200 F 
ATOM     92  C   UNL A   1      43.975  37.694  32.868  1.00  0.00     0.200 A 
ATOM     93  F   UNL A   1      44.624  38.322  30.687  1.00  0.00    -0.200 F 
ATOM     94  F   UNL A   1      44.358  38.887  33.342  1.00  0.00    -0.200 F 
ENDBRANCH  61  84
ENDBRANCH  35  36
ENDBRANCH  27  30
ENDBRANCH  25  26
ENDBRANCH  24  25
ENDBRANCH  23  24
ENDBRANCH   1  23
TORSDOF 17
ENDMDL
MODEL 3
REMARK VINA RESULT:     -10.9      3.208      5.383
REMARK SMILES CCOc1ccc(CC)cc1[C@@H]([NH3+])CC(=O)NCCCCNC(=O)c1ccc(-c2c3nc(c(-c4c(F)c(F)c(F)c(F)c4F)c4ccc([nH]4)c(-c4c(F)c(F)c(F)c(F)c4F)c4nc(c(-c5c(F)c(F)c(F)c(F)c5F)c5ccc2[nH]5)C=C4)C=C3)cc1
REMARK SMILES IDX 18 1 17 2 15 3 16 4 14 6 12 7 11 8 4 9 5 10 6 11 10 12 7 13
REMARK SMILES IDX 3 14 2 15 1 16 8 17 9 18 13 19 19 23 20 24 21 25 22 26 23 27
REMARK SMILES IDX 24 29 25 30 26 31 87 32 27 33 86 34 28 35 29 36 30 37 80 38
REMARK SMILES IDX 31 39 85 40 79 41 81 42 32 43 84 44 78 45 77 46 33 48 65 49
REMARK SMILES IDX 45 50 64 51 46 52 49 53 63 54 82 55 47 56 48 57 62 59 83 60
REMARK SMILES IDX 50 61 34 62 35 63 43 64 36 65 37 66 41 67 44 68 38 69 39 70
REMARK SMILES IDX 42 71 40 72 66 73 67 74 75 75 68 76 69 77 73 78 76 79 70 80
REMARK SMILES IDX 71 81 74 82 72 83 51 84 52 85 60 86 53 87 54 88 58 89 61 90
REMARK SMILES IDX 55 91 56 92 59 93 57 94
REMARK H PARENT 17 5 13 20 13 21 13 22 22 28 81 47 49 58
REMARK Flexibility Score: inf
ROOT
ATOM      1  C   UNL A   1      31.051  26.800  24.361  1.00  0.00     0.116 C 
ENDROOT
BRANCH   1   2
ATOM      2  N   UNL A   1      30.441  26.098  25.476  1.00  0.00    -0.356 N 
ATOM      3  C   UNL A   1      30.831  24.956  26.109  1.00  0.00     0.226 C 
ATOM      4  O   UNL A   1      30.022  24.423  26.873  1.00  0.00    -0.275 OA
ATOM      5  H   UNL A   1      29.619  26.511  25.828  1.00  0.00     0.163 HD
BRANCH   3   6
ATOM      6  C   UNL A   1      32.221  24.378  25.927  1.00  0.00     0.170 C 
BRANCH   6   7
ATOM      7  C   UNL A   1      32.221  22.846  25.757  1.00  0.00     0.225 C 
BRANCH   7   8
ATOM      8  C   UNL A   1      33.603  22.275  25.501  1.00  0.00     0.052 A 
ATOM      9  C   UNL A   1      33.815  20.914  25.242  1.00  0.00     0.128 A 
ATOM     10  C   UNL A   1      35.107  20.435  25.001  1.00  0.00     0.047 A 
ATOM     11  C   UNL A   1      36.202  21.313  24.983  1.00  0.00     0.007 A 
ATOM     12  C   UNL A   1      34.726  23.128  25.539  1.00  0.00     0.017 A 
ATOM     13  C   UNL A   1      36.024  22.675  25.256  1.00  0.00    -0.048 A 
BRANCH   9  14
ATOM     14  O   UNL A   1      32.783  20.019  25.353  1.00  0.00    -0.493 OA
BRANCH  14  15
ATOM     15  C   UNL A   1      33.085  18.728  24.808  1.00  0.00     0.226 C 
ATOM     16  C   UNL A   1      32.457  18.621  23.428  1.00  0.00     0.049 C 
ENDBRANCH  14  15
ENDBRANCH   9  14
BRANCH  13  17
ATOM     17  C   UNL A   1      37.125  23.703  25.115  1.00  0.00     0.032 C 
ATOM     18  C   UNL A   1      38.006  23.916  26.335  1.00  0.00     0.009 C 
ENDBRANCH  13  17
ENDBRANCH   7   8
BRANCH   7  19
ATOM     19  N   UNL A   1      31.664  22.206  26.964  1.00  0.00    -0.351 N 
ATOM     20  H   UNL A   1      32.174  21.344  27.157  1.00  0.00     0.345 HD
ATOM     21  H   UNL A   1      30.679  21.992  26.812  1.00  0.00     0.345 HD
ATOM     22  H   UNL A   1      31.757  22.840  27.758  1.00  0.00     0.345 HD
ENDBRANCH   7  19
ENDBRANCH   6   7
ENDBRANCH   3   6
ENDBRANCH   1   2
BRANCH   1  23
ATOM     23  C   UNL A   1      31.118  28.295  24.658  1.00  0.00     0.023 C 
BRANCH  23  24
ATOM     24  C   UNL A   1      31.787  28.694  25.961  1.00  0.00     0.023 C 
BRANCH  24  25
ATOM     25  C   UNL A   1      32.881  29.736  25.787  1.00  0.00     0.116 C 
BRANCH  25  26
ATOM     26  N   UNL A   1      32.577  31.034  26.384  1.00  0.00    -0.352 N 
ATOM     27  C   UNL A   1      33.323  31.792  27.255  1.00  0.00     0.251 C 
ATOM     28  H   UNL A   1      31.711  31.424  26.125  1.00  0.00     0.163 HD
ATOM     29  O   UNL A   1      32.888  32.855  27.683  1.00  0.00    -0.269 OA
BRANCH  27  30
ATOM     30  C   UNL A   1      34.626  31.277  27.724  1.00  0.00     0.039 A 
ATOM     31  C   UNL A   1      35.656  32.184  27.983  1.00  0.00     0.014 A 
ATOM     32  C   UNL A   1      34.798  29.920  27.999  1.00  0.00     0.014 A 
ATOM     33  C   UNL A   1      36.820  31.741  28.612  1.00  0.00     0.010 A 
ATOM     34  C   UNL A   1      35.900  29.504  28.731  1.00  0.00     0.010 A 
ATOM     35  C   UNL A   1      36.925  30.408  29.042  1.00  0.00    -0.014 A 
BRANCH  35  36
ATOM     36  C   UNL A   1      38.100  29.928  29.812  1.00  0.00     0.031 A 
ATOM     37  C   UNL A   1      38.313  30.406  31.221  1.00  0.00     0.074 A 
ATOM     38  C   UNL A   1      39.016  29.141  29.214  1.00  0.00     0.049 A 
ATOM     39  N   UNL A   1      39.324  30.193  32.025  1.00  0.00    -0.248 NA
ATOM     40  C   UNL A   1      37.276  31.285  31.785  1.00  0.00     0.031 C 
ATOM     41  C   UNL A   1      38.962  28.677  27.826  1.00  0.00     0.029 A 
ATOM     42  N   UNL A   1      40.180  28.600  29.698  1.00  0.00    -0.354 N 
ATOM     43  C   UNL A   1      39.056  30.935  33.167  1.00  0.00     0.074 A 
ATOM     44  C   UNL A   1      37.827  31.656  32.931  1.00  0.00     0.031 C 
ATOM     45  C   UNL A   1      40.023  27.890  27.583  1.00  0.00     0.029 A 
ATOM     46  C   UNL A   1      40.848  27.823  28.784  1.00  0.00     0.049 A 
ATOM     47  H   UNL A   1      40.505  28.752  30.614  1.00  0.00     0.167 HD
ATOM     48  C   UNL A   1      39.755  30.983  34.325  1.00  0.00     0.037 A 
ATOM     49  C   UNL A   1      41.996  27.129  28.907  1.00  0.00     0.037 A 
ATOM     50  C   UNL A   1      40.943  30.214  34.579  1.00  0.00     0.049 A 
ATOM     51  C   UNL A   1      42.723  27.153  30.223  1.00  0.00     0.074 A 
ATOM     52  C   UNL A   1      41.680  30.121  35.746  1.00  0.00     0.029 A 
ATOM     53  N   UNL A   1      41.560  29.393  33.647  1.00  0.00    -0.354 N 
ATOM     54  N   UNL A   1      42.421  27.797  31.325  1.00  0.00    -0.248 NA
ATOM     55  C   UNL A   1      43.947  26.344  30.318  1.00  0.00     0.031 C 
ATOM     56  C   UNL A   1      42.761  29.264  35.511  1.00  0.00     0.029 A 
ATOM     57  C   UNL A   1      42.676  28.797  34.208  1.00  0.00     0.049 A 
ATOM     58  H   UNL A   1      41.251  29.256  32.721  1.00  0.00     0.167 HD
ATOM     59  C   UNL A   1      43.400  27.457  32.247  1.00  0.00     0.074 A 
ATOM     60  C   UNL A   1      44.297  26.533  31.582  1.00  0.00     0.031 C 
ATOM     61  C   UNL A   1      43.547  27.874  33.529  1.00  0.00     0.037 A 
BRANCH  48  62
ATOM     62  C   UNL A   1      39.234  31.881  35.409  1.00  0.00     0.064 A 
ATOM     63  C   UNL A   1      39.569  33.243  35.459  1.00  0.00     0.173 A 
ATOM     64  C   UNL A   1      38.382  31.378  36.404  1.00  0.00     0.173 A 
ATOM     65  F   UNL A   1      40.394  33.768  34.542  1.00  0.00    -0.203 F 
ATOM     66  C   UNL A   1      39.100  34.059  36.485  1.00  0.00     0.198 A 
ATOM     67  C   UNL A   1      37.889  32.205  37.409  1.00  0.00     0.198 A 
ATOM     68  F   UNL A   1      38.028  30.083  36.401  1.00  0.00    -0.203 F 
ATOM     69  F   UNL A   1      39.482  35.342  36.544  1.00  0.00    -0.200 F 
ATOM     70  C   UNL A   1      38.255  33.542  37.455  1.00  0.00     0.200 A 
ATOM     71  F   UNL A   1      37.065  31.706  38.342  1.00  0.00    -0.200 F 
ATOM     72  F   UNL A   1      37.803  34.330  38.440  1.00  0.00    -0.200 F 
ENDBRANCH  48  62
BRANCH  49  73
ATOM     73  C   UNL A   1      42.502  26.318  27.771  1.00  0.00     0.064 A 
ATOM     74  C   UNL A   1      43.490  26.823  26.915  1.00  0.00     0.173 A 
ATOM     75  C   UNL A   1      42.014  25.028  27.515  1.00  0.00     0.173 A 
ATOM     76  F   UNL A   1      43.975  28.059  27.110  1.00  0.00    -0.203 F 
ATOM     77  C   UNL A   1      43.958  26.080  25.834  1.00  0.00     0.198 A 
ATOM     78  C   UNL A   1      42.500  24.275  26.447  1.00  0.00     0.198 A 
ATOM     79  F   UNL A   1      41.073  24.496  28.308  1.00  0.00    -0.203 F 
ATOM     80  F   UNL A   1      44.872  26.606  25.007  1.00  0.00    -0.200 F 
ATOM     81  C   UNL A   1      43.465  24.804  25.603  1.00  0.00     0.200 A 
ATOM     82  F   UNL A   1      42.031  23.038  26.234  1.00  0.00    -0.200 F 
ATOM     83  F   UNL A   1      43.916  24.088  24.564  1.00  0.00    -0.200 F 
ENDBRANCH  49  73
BRANCH  61  84
ATOM     84  C   UNL A   1      44.704  27.314  34.300  1.00  0.00     0.064 A 
ATOM     85  C   UNL A   1      44.598  26.106  35.005  1.00  0.00     0.173 A 
ATOM     86  C   UNL A   1      45.943  27.972  34.298  1.00  0.00     0.173 A 
ATOM     87  F   UNL A   1      43.428  25.450  35.047  1.00  0.00    -0.203 F 
ATOM     88  C   UNL A   1      45.687  25.589  35.700  1.00  0.00     0.198 A 
ATOM     89  C   UNL A   1      47.037  27.437  34.972  1.00  0.00     0.198 A 
ATOM     90  F   UNL A   1      46.095  29.127  33.633  1.00  0.00    -0.203 F 
ATOM     91  F   UNL A   1      45.553  24.455  36.402  1.00  0.00    -0.200 F 
ATOM     92  C   UNL A   1      46.906  26.249  35.676  1.00  0.00     0.200 A 
ATOM     93  F   UNL A   1      48.217  28.070  34.939  1.00  0.00    -0.200 F 
ATOM     94  F   UNL A   1      47.955  25.745  36.341  1.00  0.00    -0.200 F 
ENDBRANCH  61  84
ENDBRANCH  35  36
ENDBRANCH  27  30
ENDBRANCH  25  26
ENDBRANCH  24  25
ENDBRANCH  23  24
ENDBRANCH   1  23
TORSDOF 17
ENDMDL
