MODEL 1
REMARK VINA RESULT:     -13.0      0.000      0.000
REMARK SMILES Cc1cc2c(c(C)c1Br)C=C(C(=O)NCCCCNC(=O)c1ccc(-c3c4nc(c(-c5c(F)c(F)c(F)c(F)c5F)c5ccc([nH]5)c(-c5c(F)c(F)c(F)c(F)c5F)c5nc(c(-c6c(F)c(F)c(F)c(F)c6F)c6ccc3[nH]6)C=C5)C=C4)cc1)[C@@H](C(F)(F)F)O2
REMARK SMILES IDX 17 1 16 2 15 3 14 4 12 5 13 6 11 8 1 9 2 10 3 11 8 12 4 13
REMARK SMILES IDX 6 14 9 15 5 16 90 17 7 18 10 19 85 20 86 21 87 22 88 23
REMARK SMILES IDX 89 24 18 25 19 26 20 27 21 29 22 30 23 31 84 32 24 33 83 34
REMARK SMILES IDX 25 35 26 36 27 37 77 38 28 39 82 40 76 41 78 42 29 43 81 44
REMARK SMILES IDX 75 45 74 46 30 48 62 49 42 50 61 51 43 52 46 53 60 54 79 55
REMARK SMILES IDX 44 56 45 57 59 59 80 60 47 61 31 62 32 63 40 64 33 65 34 66
REMARK SMILES IDX 38 67 41 68 35 69 36 70 39 71 37 72 63 73 64 74 72 75 65 76
REMARK SMILES IDX 66 77 70 78 73 79 67 80 68 81 71 82 69 83 48 84 49 85 57 86
REMARK SMILES IDX 50 87 51 88 55 89 58 90 52 91 53 92 56 93 54 94
REMARK H PARENT 14 7 19 28 78 47 46 58
REMARK Flexibility Score: inf
ROOT
ATOM      1  C   UNL A   1      31.836  31.574  26.566  1.00  0.00     0.023 C 
ENDROOT
BRANCH   1   2
ATOM      2  C   UNL A   1      31.872  30.072  26.865  1.00  0.00     0.023 C 
BRANCH   2   3
ATOM      3  C   UNL A   1      33.243  29.431  26.668  1.00  0.00     0.116 C 
BRANCH   3   4
ATOM      4  N   UNL A   1      33.640  29.423  25.272  1.00  0.00    -0.352 N 
ATOM      5  C   UNL A   1      33.637  28.538  24.248  1.00  0.00     0.251 C 
ATOM      6  O   UNL A   1      34.096  28.970  23.186  1.00  0.00    -0.270 OA
ATOM      7  H   UNL A   1      34.008  30.293  24.996  1.00  0.00     0.163 HD
BRANCH   5   8
ATOM      8  C   UNL A   1      33.133  27.133  24.317  1.00  0.00     0.067 C 
ATOM      9  C   UNL A   1      32.153  20.731  25.004  1.00  0.00     0.046 C 
ATOM     10  C   UNL A   1      32.716  22.125  24.931  1.00  0.00    -0.033 A 
ATOM     11  C   UNL A   1      31.824  23.185  24.743  1.00  0.00     0.051 A 
ATOM     12  C   UNL A   1      34.096  22.408  25.036  1.00  0.00     0.024 A 
ATOM     13  C   UNL A   1      32.286  24.492  24.652  1.00  0.00     0.128 A 
ATOM     14  C   UNL A   1      34.579  23.740  24.960  1.00  0.00    -0.026 A 
ATOM     15  Br  UNL A   1      35.299  20.940  25.294  1.00  0.00    -0.050 Br
ATOM     16  C   UNL A   1      33.646  24.791  24.766  1.00  0.00     0.021 A 
ATOM     17  O   UNL A   1      31.318  25.443  24.493  1.00  0.00    -0.475 OA
ATOM     18  C   UNL A   1      36.047  24.078  25.078  1.00  0.00     0.046 C 
ATOM     19  C   UNL A   1      34.029  26.208  24.709  1.00  0.00     0.026 C 
ATOM     20  C   UNL A   1      31.743  26.715  23.944  1.00  0.00     0.314 C 
BRANCH  20  21
ATOM     21  C   UNL A   1      31.505  26.719  22.422  1.00  0.00     0.429 C 
ATOM     22  F   UNL A   1      30.726  25.667  22.063  1.00  0.00    -0.167 F 
ATOM     23  F   UNL A   1      30.857  27.832  22.002  1.00  0.00    -0.167 F 
ATOM     24  F   UNL A   1      32.651  26.639  21.711  1.00  0.00    -0.167 F 
ENDBRANCH  20  21
ENDBRANCH   5   8
ENDBRANCH   3   4
ENDBRANCH   2   3
ENDBRANCH   1   2
BRANCH   1  25
ATOM     25  C   UNL A   1      32.921  32.404  27.251  1.00  0.00     0.116 C 
BRANCH  25  26
ATOM     26  N   UNL A   1      32.507  33.762  27.570  1.00  0.00    -0.352 N 
ATOM     27  C   UNL A   1      33.036  34.613  28.511  1.00  0.00     0.251 C 
ATOM     28  H   UNL A   1      31.752  34.117  27.046  1.00  0.00     0.163 HD
ATOM     29  O   UNL A   1      32.528  35.707  28.726  1.00  0.00    -0.269 OA
BRANCH  27  30
ATOM     30  C   UNL A   1      34.205  34.170  29.291  1.00  0.00     0.039 A 
ATOM     31  C   UNL A   1      33.993  33.464  30.477  1.00  0.00     0.014 A 
ATOM     32  C   UNL A   1      35.499  34.407  28.822  1.00  0.00     0.014 A 
ATOM     33  C   UNL A   1      35.085  32.929  31.162  1.00  0.00     0.010 A 
ATOM     34  C   UNL A   1      36.580  33.826  29.474  1.00  0.00     0.010 A 
ATOM     35  C   UNL A   1      36.382  33.077  30.644  1.00  0.00    -0.014 A 
BRANCH  35  36
ATOM     36  C   UNL A   1      37.553  32.463  31.309  1.00  0.00     0.031 A 
ATOM     37  C   UNL A   1      38.285  31.340  30.637  1.00  0.00     0.074 A 
ATOM     38  C   UNL A   1      37.903  32.862  32.546  1.00  0.00     0.049 A 
ATOM     39  N   UNL A   1      39.248  30.584  31.099  1.00  0.00    -0.248 NA
ATOM     40  C   UNL A   1      37.858  31.005  29.269  1.00  0.00     0.031 C 
ATOM     41  C   UNL A   1      37.249  33.925  33.309  1.00  0.00     0.029 A 
ATOM     42  N   UNL A   1      38.890  32.409  33.385  1.00  0.00    -0.354 N 
ATOM     43  C   UNL A   1      39.529  29.677  30.088  1.00  0.00     0.074 A 
ATOM     44  C   UNL A   1      38.608  29.945  29.005  1.00  0.00     0.031 C 
ATOM     45  C   UNL A   1      37.861  34.053  34.497  1.00  0.00     0.029 A 
ATOM     46  C   UNL A   1      38.926  33.059  34.594  1.00  0.00     0.049 A 
ATOM     47  H   UNL A   1      39.514  31.687  33.143  1.00  0.00     0.167 HD
ATOM     48  C   UNL A   1      40.485  28.719  30.060  1.00  0.00     0.037 A 
ATOM     49  C   UNL A   1      39.722  32.865  35.662  1.00  0.00     0.037 A 
ATOM     50  C   UNL A   1      41.414  28.473  31.130  1.00  0.00     0.049 A 
ATOM     51  C   UNL A   1      40.772  31.789  35.609  1.00  0.00     0.074 A 
ATOM     52  C   UNL A   1      42.443  27.549  31.186  1.00  0.00     0.029 A 
ATOM     53  N   UNL A   1      41.429  29.162  32.335  1.00  0.00    -0.354 N 
ATOM     54  N   UNL A   1      41.047  30.952  34.640  1.00  0.00    -0.248 NA
ATOM     55  C   UNL A   1      41.621  31.633  36.798  1.00  0.00     0.031 C 
ATOM     56  C   UNL A   1      43.060  27.656  32.437  1.00  0.00     0.029 A 
ATOM     57  C   UNL A   1      42.443  28.676  33.145  1.00  0.00     0.049 A 
ATOM     58  H   UNL A   1      40.811  29.888  32.579  1.00  0.00     0.167 HD
ATOM     59  C   UNL A   1      42.111  30.183  35.090  1.00  0.00     0.074 A 
ATOM     60  C   UNL A   1      42.441  30.664  36.416  1.00  0.00     0.031 C 
ATOM     61  C   UNL A   1      42.757  29.170  34.462  1.00  0.00     0.037 A 
BRANCH  48  62
ATOM     62  C   UNL A   1      40.577  27.870  28.828  1.00  0.00     0.064 A 
ATOM     63  C   UNL A   1      39.841  26.681  28.702  1.00  0.00     0.173 A 
ATOM     64  C   UNL A   1      41.379  28.264  27.747  1.00  0.00     0.173 A 
ATOM     65  F   UNL A   1      39.072  26.253  29.715  1.00  0.00    -0.203 F 
ATOM     66  C   UNL A   1      39.925  25.906  27.549  1.00  0.00     0.198 A 
ATOM     67  C   UNL A   1      41.438  27.500  26.584  1.00  0.00     0.198 A 
ATOM     68  F   UNL A   1      42.100  29.393  27.816  1.00  0.00    -0.203 F 
ATOM     69  F   UNL A   1      39.247  24.753  27.469  1.00  0.00    -0.200 F 
ATOM     70  C   UNL A   1      40.716  26.320  26.489  1.00  0.00     0.200 A 
ATOM     71  F   UNL A   1      42.196  27.907  25.556  1.00  0.00    -0.200 F 
ATOM     72  F   UNL A   1      40.788  25.578  25.375  1.00  0.00    -0.200 F 
ENDBRANCH  48  62
BRANCH  49  73
ATOM     73  C   UNL A   1      39.573  33.734  36.855  1.00  0.00     0.064 A 
ATOM     74  C   UNL A   1      40.222  34.976  36.919  1.00  0.00     0.173 A 
ATOM     75  C   UNL A   1      38.766  33.361  37.939  1.00  0.00     0.173 A 
ATOM     76  F   UNL A   1      41.021  35.365  35.915  1.00  0.00    -0.203 F 
ATOM     77  C   UNL A   1      40.072  35.809  38.025  1.00  0.00     0.198 A 
ATOM     78  C   UNL A   1      38.599  34.206  39.035  1.00  0.00     0.198 A 
ATOM     79  F   UNL A   1      38.122  32.186  37.923  1.00  0.00    -0.203 F 
ATOM     80  F   UNL A   1      40.724  36.979  38.074  1.00  0.00    -0.200 F 
ATOM     81  C   UNL A   1      39.255  35.427  39.079  1.00  0.00     0.200 A 
ATOM     82  F   UNL A   1      37.798  33.840  40.045  1.00  0.00    -0.200 F 
ATOM     83  F   UNL A   1      39.101  36.235  40.137  1.00  0.00    -0.200 F 
ENDBRANCH  49  73
BRANCH  61  84
ATOM     84  C   UNL A   1      43.898  28.525  35.188  1.00  0.00     0.064 A 
ATOM     85  C   UNL A   1      43.706  27.403  36.006  1.00  0.00     0.173 A 
ATOM     86  C   UNL A   1      45.208  29.002  35.018  1.00  0.00     0.173 A 
ATOM     87  F   UNL A   1      42.471  26.920  36.210  1.00  0.00    -0.203 F 
ATOM     88  C   UNL A   1      44.783  26.791  36.643  1.00  0.00     0.198 A 
ATOM     89  C   UNL A   1      46.284  28.372  35.635  1.00  0.00     0.198 A 
ATOM     90  F   UNL A   1      45.443  30.069  34.240  1.00  0.00    -0.203 F 
ATOM     91  F   UNL A   1      44.573  25.742  37.449  1.00  0.00    -0.200 F 
ATOM     92  C   UNL A   1      46.070  27.270  36.451  1.00  0.00     0.200 A 
ATOM     93  F   UNL A   1      47.528  28.827  35.439  1.00  0.00    -0.200 F 
ATOM     94  F   UNL A   1      47.106  26.673  37.056  1.00  0.00    -0.200 F 
ENDBRANCH  61  84
ENDBRANCH  35  36
ENDBRANCH  27  30
ENDBRANCH  25  26
ENDBRANCH   1  25
TORSDOF 12
ENDMDL
MODEL 2
REMARK VINA RESULT:     -12.9      3.875      8.797
REMARK SMILES Cc1cc2c(c(C)c1Br)C=C(C(=O)NCCCCNC(=O)c1ccc(-c3c4nc(c(-c5c(F)c(F)c(F)c(F)c5F)c5ccc([nH]5)c(-c5c(F)c(F)c(F)c(F)c5F)c5nc(c(-c6c(F)c(F)c(F)c(F)c6F)c6ccc3[nH]6)C=C5)C=C4)cc1)[C@@H](C(F)(F)F)O2
REMARK SMILES IDX 17 1 16 2 15 3 14 4 12 5 13 6 11 8 1 9 2 10 3 11 8 12 4 13
REMARK SMILES IDX 6 14 9 15 5 16 90 17 7 18 10 19 85 20 86 21 87 22 88 23
REMARK SMILES IDX 89 24 18 25 19 26 20 27 21 29 22 30 23 31 84 32 24 33 83 34
REMARK SMILES IDX 25 35 26 36 27 37 77 38 28 39 82 40 76 41 78 42 29 43 81 44
REMARK SMILES IDX 75 45 74 46 30 48 62 49 42 50 61 51 43 52 46 53 60 54 79 55
REMARK SMILES IDX 44 56 45 57 59 59 80 60 47 61 31 62 32 63 40 64 33 65 34 66
REMARK SMILES IDX 38 67 41 68 35 69 36 70 39 71 37 72 63 73 64 74 72 75 65 76
REMARK SMILES IDX 66 77 70 78 73 79 67 80 68 81 71 82 69 83 48 84 49 85 57 86
REMARK SMILES IDX 50 87 51 88 55 89 58 90 52 91 53 92 56 93 54 94
REMARK H PARENT 14 7 19 28 78 47 46 58
REMARK Flexibility Score: inf
ROOT
ATOM      1  C   UNL A   1      33.584  28.570  25.315  1.00  0.00     0.023 C 
ENDROOT
BRANCH   1   2
ATOM      2  C   UNL A   1      33.691  27.207  24.626  1.00  0.00     0.023 C 
BRANCH   2   3
ATOM      3  C   UNL A   1      32.350  26.622  24.189  1.00  0.00     0.116 C 
BRANCH   3   4
ATOM      4  N   UNL A   1      31.630  26.032  25.303  1.00  0.00    -0.352 N 
ATOM      5  C   UNL A   1      31.608  24.842  25.946  1.00  0.00     0.251 C 
ATOM      6  O   UNL A   1      30.798  24.769  26.876  1.00  0.00    -0.270 OA
ATOM      7  H   UNL A   1      30.988  26.667  25.694  1.00  0.00     0.163 HD
BRANCH   5   8
ATOM      8  C   UNL A   1      32.465  23.663  25.620  1.00  0.00     0.067 C 
ATOM      9  C   UNL A   1      37.151  19.220  24.768  1.00  0.00     0.046 C 
ATOM     10  C   UNL A   1      36.336  20.441  25.101  1.00  0.00    -0.033 A 
ATOM     11  C   UNL A   1      34.948  20.367  24.949  1.00  0.00     0.051 A 
ATOM     12  C   UNL A   1      36.907  21.653  25.549  1.00  0.00     0.024 A 
ATOM     13  C   UNL A   1      34.145  21.466  25.225  1.00  0.00     0.128 A 
ATOM     14  C   UNL A   1      36.096  22.778  25.849  1.00  0.00    -0.026 A 
ATOM     15  Br  UNL A   1      38.810  21.732  25.751  1.00  0.00    -0.050 Br
ATOM     16  C   UNL A   1      34.692  22.668  25.681  1.00  0.00     0.021 A 
ATOM     17  O   UNL A   1      32.804  21.263  25.063  1.00  0.00    -0.475 OA
ATOM     18  C   UNL A   1      36.673  24.086  26.340  1.00  0.00     0.046 C 
ATOM     19  C   UNL A   1      33.755  23.754  25.996  1.00  0.00     0.026 C 
ATOM     20  C   UNL A   1      31.987  22.447  24.886  1.00  0.00     0.314 C 
BRANCH  20  21
ATOM     21  C   UNL A   1      31.775  22.702  23.381  1.00  0.00     0.429 C 
ATOM     22  F   UNL A   1      32.777  23.473  22.887  1.00  0.00    -0.167 F 
ATOM     23  F   UNL A   1      31.784  21.558  22.656  1.00  0.00    -0.167 F 
ATOM     24  F   UNL A   1      30.609  23.328  23.114  1.00  0.00    -0.167 F 
ENDBRANCH  20  21
ENDBRANCH   5   8
ENDBRANCH   3   4
ENDBRANCH   2   3
ENDBRANCH   1   2
BRANCH   1  25
ATOM     25  C   UNL A   1      33.991  28.593  26.787  1.00  0.00     0.116 C 
BRANCH  25  26
ATOM     26  N   UNL A   1      33.829  29.894  27.421  1.00  0.00    -0.352 N 
ATOM     27  C   UNL A   1      34.732  30.577  28.200  1.00  0.00     0.251 C 
ATOM     28  H   UNL A   1      32.964  30.340  27.272  1.00  0.00     0.163 HD
ATOM     29  O   UNL A   1      34.425  31.635  28.737  1.00  0.00    -0.269 OA
BRANCH  27  30
ATOM     30  C   UNL A   1      36.069  29.995  28.415  1.00  0.00     0.039 A 
ATOM     31  C   UNL A   1      37.030  30.131  27.411  1.00  0.00     0.014 A 
ATOM     32  C   UNL A   1      36.379  29.366  29.622  1.00  0.00     0.014 A 
ATOM     33  C   UNL A   1      38.334  29.697  27.648  1.00  0.00     0.010 A 
ATOM     34  C   UNL A   1      37.691  28.985  29.878  1.00  0.00     0.010 A 
ATOM     35  C   UNL A   1      38.680  29.154  28.896  1.00  0.00    -0.014 A 
BRANCH  35  36
ATOM     36  C   UNL A   1      40.071  28.748  29.202  1.00  0.00     0.031 A 
ATOM     37  C   UNL A   1      40.971  29.687  29.949  1.00  0.00     0.074 A 
ATOM     38  C   UNL A   1      40.541  27.575  28.740  1.00  0.00     0.049 A 
ATOM     39  N   UNL A   1      42.250  29.580  30.205  1.00  0.00    -0.248 NA
ATOM     40  C   UNL A   1      40.356  30.925  30.453  1.00  0.00     0.031 C 
ATOM     41  C   UNL A   1      39.766  26.594  27.979  1.00  0.00     0.029 A 
ATOM     42  N   UNL A   1      41.790  27.015  28.831  1.00  0.00    -0.354 N 
ATOM     43  C   UNL A   1      42.593  30.741  30.883  1.00  0.00     0.074 A 
ATOM     44  C   UNL A   1      41.402  31.558  30.961  1.00  0.00     0.031 C 
ATOM     45  C   UNL A   1      40.552  25.546  27.687  1.00  0.00     0.029 A 
ATOM     46  C   UNL A   1      41.894  25.797  28.206  1.00  0.00     0.049 A 
ATOM     47  H   UNL A   1      42.541  27.445  29.301  1.00  0.00     0.167 HD
ATOM     48  C   UNL A   1      43.792  31.083  31.411  1.00  0.00     0.037 A 
ATOM     49  C   UNL A   1      42.955  24.982  28.060  1.00  0.00     0.037 A 
ATOM     50  C   UNL A   1      44.966  30.255  31.351  1.00  0.00     0.049 A 
ATOM     51  C   UNL A   1      44.278  25.388  28.649  1.00  0.00     0.074 A 
ATOM     52  C   UNL A   1      46.221  30.496  31.886  1.00  0.00     0.029 A 
ATOM     53  N   UNL A   1      45.030  29.020  30.722  1.00  0.00    -0.354 N 
ATOM     54  N   UNL A   1      44.588  26.476  29.310  1.00  0.00    -0.248 NA
ATOM     55  C   UNL A   1      45.397  24.452  28.472  1.00  0.00     0.031 C 
ATOM     56  C   UNL A   1      47.051  29.421  31.551  1.00  0.00     0.029 A 
ATOM     57  C   UNL A   1      46.304  28.491  30.845  1.00  0.00     0.049 A 
ATOM     58  H   UNL A   1      44.280  28.584  30.256  1.00  0.00     0.167 HD
ATOM     59  C   UNL A   1      45.929  26.350  29.646  1.00  0.00     0.074 A 
ATOM     60  C   UNL A   1      46.370  25.071  29.128  1.00  0.00     0.031 C 
ATOM     61  C   UNL A   1      46.723  27.215  30.323  1.00  0.00     0.037 A 
BRANCH  48  62
ATOM     62  C   UNL A   1      43.888  32.408  32.105  1.00  0.00     0.064 A 
ATOM     63  C   UNL A   1      44.232  33.577  31.406  1.00  0.00     0.173 A 
ATOM     64  C   UNL A   1      43.602  32.521  33.473  1.00  0.00     0.173 A 
ATOM     65  F   UNL A   1      44.530  33.518  30.099  1.00  0.00    -0.203 F 
ATOM     66  C   UNL A   1      44.307  34.804  32.057  1.00  0.00     0.198 A 
ATOM     67  C   UNL A   1      43.652  33.756  34.115  1.00  0.00     0.198 A 
ATOM     68  F   UNL A   1      43.267  31.436  34.186  1.00  0.00    -0.203 F 
ATOM     69  F   UNL A   1      44.679  35.898  31.379  1.00  0.00    -0.200 F 
ATOM     70  C   UNL A   1      44.009  34.894  33.408  1.00  0.00     0.200 A 
ATOM     71  F   UNL A   1      43.354  33.843  35.419  1.00  0.00    -0.200 F 
ATOM     72  F   UNL A   1      44.073  36.079  34.032  1.00  0.00    -0.200 F 
ENDBRANCH  48  62
BRANCH  49  73
ATOM     73  C   UNL A   1      42.795  23.686  27.354  1.00  0.00     0.064 A 
ATOM     74  C   UNL A   1      43.179  23.552  26.013  1.00  0.00     0.173 A 
ATOM     75  C   UNL A   1      42.284  22.554  28.005  1.00  0.00     0.173 A 
ATOM     76  F   UNL A   1      43.654  24.614  25.344  1.00  0.00    -0.203 F 
ATOM     77  C   UNL A   1      43.053  22.336  25.347  1.00  0.00     0.198 A 
ATOM     78  C   UNL A   1      42.179  21.332  27.344  1.00  0.00     0.198 A 
ATOM     79  F   UNL A   1      41.907  22.631  29.289  1.00  0.00    -0.203 F 
ATOM     80  F   UNL A   1      43.402  22.241  24.056  1.00  0.00    -0.200 F 
ATOM     81  C   UNL A   1      42.560  21.224  26.015  1.00  0.00     0.200 A 
ATOM     82  F   UNL A   1      41.715  20.257  27.996  1.00  0.00    -0.200 F 
ATOM     83  F   UNL A   1      42.451  20.051  25.377  1.00  0.00    -0.200 F 
ENDBRANCH  49  73
BRANCH  61  84
ATOM     84  C   UNL A   1      48.144  26.803  30.562  1.00  0.00     0.064 A 
ATOM     85  C   UNL A   1      48.497  25.977  31.638  1.00  0.00     0.173 A 
ATOM     86  C   UNL A   1      49.156  27.192  29.670  1.00  0.00     0.173 A 
ATOM     87  F   UNL A   1      47.567  25.591  32.525  1.00  0.00    -0.203 F 
ATOM     88  C   UNL A   1      49.815  25.570  31.824  1.00  0.00     0.198 A 
ATOM     89  C   UNL A   1      50.467  26.762  29.844  1.00  0.00     0.198 A 
ATOM     90  F   UNL A   1      48.867  27.976  28.620  1.00  0.00    -0.203 F 
ATOM     91  F   UNL A   1      50.137  24.811  32.880  1.00  0.00    -0.200 F 
ATOM     92  C   UNL A   1      50.797  25.955  30.923  1.00  0.00     0.200 A 
ATOM     93  F   UNL A   1      51.413  27.124  28.966  1.00  0.00    -0.200 F 
ATOM     94  F   UNL A   1      52.063  25.554  31.098  1.00  0.00    -0.200 F 
ENDBRANCH  61  84
ENDBRANCH  35  36
ENDBRANCH  27  30
ENDBRANCH  25  26
ENDBRANCH   1  25
TORSDOF 12
ENDMDL
MODEL 3
REMARK VINA RESULT:     -12.9      5.622     10.563
REMARK SMILES Cc1cc2c(c(C)c1Br)C=C(C(=O)NCCCCNC(=O)c1ccc(-c3c4nc(c(-c5c(F)c(F)c(F)c(F)c5F)c5ccc([nH]5)c(-c5c(F)c(F)c(F)c(F)c5F)c5nc(c(-c6c(F)c(F)c(F)c(F)c6F)c6ccc3[nH]6)C=C5)C=C4)cc1)[C@@H](C(F)(F)F)O2
REMARK SMILES IDX 17 1 16 2 15 3 14 4 12 5 13 6 11 8 1 9 2 10 3 11 8 12 4 13
REMARK SMILES IDX 6 14 9 15 5 16 90 17 7 18 10 19 85 20 86 21 87 22 88 23
REMARK SMILES IDX 89 24 18 25 19 26 20 27 21 29 22 30 23 31 84 32 24 33 83 34
REMARK SMILES IDX 25 35 26 36 27 37 77 38 28 39 82 40 76 41 78 42 29 43 81 44
REMARK SMILES IDX 75 45 74 46 30 48 62 49 42 50 61 51 43 52 46 53 60 54 79 55
REMARK SMILES IDX 44 56 45 57 59 59 80 60 47 61 31 62 32 63 40 64 33 65 34 66
REMARK SMILES IDX 38 67 41 68 35 69 36 70 39 71 37 72 63 73 64 74 72 75 65 76
REMARK SMILES IDX 66 77 70 78 73 79 67 80 68 81 71 82 69 83 48 84 49 85 57 86
REMARK SMILES IDX 50 87 51 88 55 89 58 90 52 91 53 92 56 93 54 94
REMARK H PARENT 14 7 19 28 78 47 46 58
REMARK Flexibility Score: inf
ROOT
ATOM      1  C   UNL A   1      37.715  20.442  24.995  1.00  0.00     0.023 C 
ENDROOT
BRANCH   1   2
ATOM      2  C   UNL A   1      37.157  21.701  24.326  1.00  0.00     0.023 C 
BRANCH   2   3
ATOM      3  C   UNL A   1      37.010  22.894  25.267  1.00  0.00     0.116 C 
BRANCH   3   4
ATOM      4  N   UNL A   1      36.068  22.624  26.338  1.00  0.00    -0.352 N 
ATOM      5  C   UNL A   1      34.791  22.956  26.639  1.00  0.00     0.251 C 
ATOM      6  O   UNL A   1      34.371  22.492  27.704  1.00  0.00    -0.270 OA
ATOM      7  H   UNL A   1      36.464  22.045  27.029  1.00  0.00     0.163 HD
BRANCH   5   8
ATOM      8  C   UNL A   1      33.895  23.808  25.800  1.00  0.00     0.067 C 
ATOM      9  C   UNL A   1      30.493  28.506  22.839  1.00  0.00     0.046 C 
ATOM     10  C   UNL A   1      31.398  27.691  23.725  1.00  0.00    -0.033 A 
ATOM     11  C   UNL A   1      31.588  26.343  23.407  1.00  0.00     0.051 A 
ATOM     12  C   UNL A   1      32.053  28.222  24.858  1.00  0.00     0.024 A 
ATOM     13  C   UNL A   1      32.399  25.537  24.196  1.00  0.00     0.128 A 
ATOM     14  C   UNL A   1      32.895  27.413  25.663  1.00  0.00    -0.026 A 
ATOM     15  Br  UNL A   1      31.778  30.071  25.273  1.00  0.00    -0.050 Br
ATOM     16  C   UNL A   1      33.064  26.049  25.314  1.00  0.00     0.021 A 
ATOM     17  O   UNL A   1      32.527  24.245  23.771  1.00  0.00    -0.475 OA
ATOM     18  C   UNL A   1      33.618  27.951  26.877  1.00  0.00     0.046 C 
ATOM     19  C   UNL A   1      33.939  25.130  26.052  1.00  0.00     0.026 C 
ATOM     20  C   UNL A   1      32.956  23.277  24.761  1.00  0.00     0.314 C 
BRANCH  20  21
ATOM     21  C   UNL A   1      31.720  22.587  25.368  1.00  0.00     0.429 C 
ATOM     22  F   UNL A   1      30.613  22.871  24.637  1.00  0.00    -0.167 F 
ATOM     23  F   UNL A   1      31.832  21.236  25.377  1.00  0.00    -0.167 F 
ATOM     24  F   UNL A   1      31.477  22.969  26.640  1.00  0.00    -0.167 F 
ENDBRANCH  20  21
ENDBRANCH   5   8
ENDBRANCH   3   4
ENDBRANCH   2   3
ENDBRANCH   1   2
BRANCH   1  25
ATOM     25  C   UNL A   1      38.997  20.644  25.802  1.00  0.00     0.116 C 
BRANCH  25  26
ATOM     26  N   UNL A   1      39.908  19.509  25.750  1.00  0.00    -0.352 N 
ATOM     27  C   UNL A   1      41.262  19.495  25.984  1.00  0.00     0.251 C 
ATOM     28  H   UNL A   1      39.503  18.642  25.518  1.00  0.00     0.163 HD
ATOM     29  O   UNL A   1      41.917  18.473  25.823  1.00  0.00    -0.269 OA
BRANCH  27  30
ATOM     30  C   UNL A   1      41.924  20.747  26.394  1.00  0.00     0.039 A 
ATOM     31  C   UNL A   1      42.332  21.646  25.407  1.00  0.00     0.014 A 
ATOM     32  C   UNL A   1      42.090  21.047  27.748  1.00  0.00     0.014 A 
ATOM     33  C   UNL A   1      42.846  22.888  25.781  1.00  0.00     0.010 A 
ATOM     34  C   UNL A   1      42.548  22.305  28.119  1.00  0.00     0.010 A 
ATOM     35  C   UNL A   1      42.923  23.238  27.139  1.00  0.00    -0.014 A 
BRANCH  35  36
ATOM     36  C   UNL A   1      43.398  24.574  27.565  1.00  0.00     0.031 A 
ATOM     37  C   UNL A   1      42.404  25.629  27.947  1.00  0.00     0.074 A 
ATOM     38  C   UNL A   1      44.714  24.857  27.530  1.00  0.00     0.049 A 
ATOM     39  N   UNL A   1      42.601  26.892  28.224  1.00  0.00    -0.248 NA
ATOM     40  C   UNL A   1      40.993  25.213  27.999  1.00  0.00     0.031 C 
ATOM     41  C   UNL A   1      45.771  23.919  27.150  1.00  0.00     0.029 A 
ATOM     42  N   UNL A   1      45.384  26.021  27.807  1.00  0.00    -0.354 N 
ATOM     43  C   UNL A   1      41.342  27.423  28.466  1.00  0.00     0.074 A 
ATOM     44  C   UNL A   1      40.384  26.360  28.261  1.00  0.00     0.031 C 
ATOM     45  C   UNL A   1      46.958  24.540  27.233  1.00  0.00     0.029 A 
ATOM     46  C   UNL A   1      46.744  25.928  27.635  1.00  0.00     0.049 A 
ATOM     47  H   UNL A   1      44.934  26.846  28.102  1.00  0.00     0.167 HD
ATOM     48  C   UNL A   1      41.019  28.682  28.845  1.00  0.00     0.037 A 
ATOM     49  C   UNL A   1      47.704  26.860  27.776  1.00  0.00     0.037 A 
ATOM     50  C   UNL A   1      41.979  29.729  29.071  1.00  0.00     0.049 A 
ATOM     51  C   UNL A   1      47.319  28.254  28.191  1.00  0.00     0.074 A 
ATOM     52  C   UNL A   1      41.756  31.029  29.491  1.00  0.00     0.029 A 
ATOM     53  N   UNL A   1      43.350  29.592  28.901  1.00  0.00    -0.354 N 
ATOM     54  N   UNL A   1      46.129  28.741  28.441  1.00  0.00    -0.248 NA
ATOM     55  C   UNL A   1      48.411  29.225  28.344  1.00  0.00     0.031 C 
ATOM     56  C   UNL A   1      42.989  31.688  29.543  1.00  0.00     0.029 A 
ATOM     57  C   UNL A   1      43.984  30.788  29.197  1.00  0.00     0.049 A 
ATOM     58  H   UNL A   1      43.804  28.769  28.611  1.00  0.00     0.167 HD
ATOM     59  C   UNL A   1      46.326  30.066  28.800  1.00  0.00     0.074 A 
ATOM     60  C   UNL A   1      47.754  30.304  28.749  1.00  0.00     0.031 C 
ATOM     61  C   UNL A   1      45.408  31.003  29.141  1.00  0.00     0.037 A 
BRANCH  48  62
ATOM     62  C   UNL A   1      39.566  28.992  29.045  1.00  0.00     0.064 A 
ATOM     63  C   UNL A   1      38.748  29.386  27.975  1.00  0.00     0.173 A 
ATOM     64  C   UNL A   1      38.975  28.861  30.310  1.00  0.00     0.173 A 
ATOM     65  F   UNL A   1      39.270  29.541  26.748  1.00  0.00    -0.203 F 
ATOM     66  C   UNL A   1      37.397  29.660  28.169  1.00  0.00     0.198 A 
ATOM     67  C   UNL A   1      37.618  29.109  30.495  1.00  0.00     0.198 A 
ATOM     68  F   UNL A   1      39.712  28.485  31.365  1.00  0.00    -0.203 F 
ATOM     69  F   UNL A   1      36.646  30.076  27.141  1.00  0.00    -0.200 F 
ATOM     70  C   UNL A   1      36.832  29.513  29.426  1.00  0.00     0.200 A 
ATOM     71  F   UNL A   1      37.070  28.957  31.709  1.00  0.00    -0.200 F 
ATOM     72  F   UNL A   1      35.529  29.769  29.610  1.00  0.00    -0.200 F 
ENDBRANCH  48  62
BRANCH  49  73
ATOM     73  C   UNL A   1      49.124  26.491  27.554  1.00  0.00     0.064 A 
ATOM     74  C   UNL A   1      49.641  26.392  26.255  1.00  0.00     0.173 A 
ATOM     75  C   UNL A   1      49.998  26.256  28.625  1.00  0.00     0.173 A 
ATOM     76  F   UNL A   1      48.838  26.588  25.199  1.00  0.00    -0.203 F 
ATOM     77  C   UNL A   1      50.978  26.067  26.035  1.00  0.00     0.198 A 
ATOM     78  C   UNL A   1      51.340  25.953  28.405  1.00  0.00     0.198 A 
ATOM     79  F   UNL A   1      49.552  26.342  29.886  1.00  0.00    -0.203 F 
ATOM     80  F   UNL A   1      51.441  25.953  24.783  1.00  0.00    -0.200 F 
ATOM     81  C   UNL A   1      51.828  25.855  27.111  1.00  0.00     0.200 A 
ATOM     82  F   UNL A   1      52.162  25.762  29.446  1.00  0.00    -0.200 F 
ATOM     83  F   UNL A   1      53.117  25.555  26.899  1.00  0.00    -0.200 F 
ENDBRANCH  49  73
BRANCH  61  84
ATOM     84  C   UNL A   1      45.916  32.365  29.506  1.00  0.00     0.064 A 
ATOM     85  C   UNL A   1      46.029  33.385  28.552  1.00  0.00     0.173 A 
ATOM     86  C   UNL A   1      46.240  32.669  30.838  1.00  0.00     0.173 A 
ATOM     87  F   UNL A   1      45.745  33.139  27.264  1.00  0.00    -0.203 F 
ATOM     88  C   UNL A   1      46.465  34.657  28.914  1.00  0.00     0.198 A 
ATOM     89  C   UNL A   1      46.650  33.948  31.200  1.00  0.00     0.198 A 
ATOM     90  F   UNL A   1      46.141  31.728  31.789  1.00  0.00    -0.203 F 
ATOM     91  F   UNL A   1      46.601  35.608  27.979  1.00  0.00    -0.200 F 
ATOM     92  C   UNL A   1      46.767  34.940  30.238  1.00  0.00     0.200 A 
ATOM     93  F   UNL A   1      46.929  34.223  32.482  1.00  0.00    -0.200 F 
ATOM     94  F   UNL A   1      47.175  36.167  30.586  1.00  0.00    -0.200 F 
ENDBRANCH  61  84
ENDBRANCH  35  36
ENDBRANCH  27  30
ENDBRANCH  25  26
ENDBRANCH   1  25
TORSDOF 12
ENDMDL
