MODEL 1
REMARK VINA RESULT:     -12.7      0.000      0.000
REMARK SMILES O=C(NCCCCNC(=O)c1nc2c(F)cccc2s1)c1ccc(-c2c3nc(c(-c4c(F)c(F)c(F)c(F)c4F)c4ccc([nH]4)c(-c4c(F)c(F)c(F)c(F)c4F)c4nc(c(-c5c(F)c(F)c(F)c(F)c5F)c5ccc2[nH]5)C=C4)C=C3)cc1
REMARK SMILES IDX 4 1 3 2 1 3 2 4 21 6 22 7 83 8 23 9 82 10 24 11 25 12 26 13
REMARK SMILES IDX 76 14 27 15 81 16 75 17 77 18 28 19 80 20 74 21 73 22 29 24
REMARK SMILES IDX 61 25 41 26 60 27 42 28 45 29 59 30 78 31 43 32 44 33 58 35
REMARK SMILES IDX 79 36 46 37 30 38 31 39 39 40 32 41 33 42 37 43 40 44 34 45
REMARK SMILES IDX 35 46 38 47 36 48 62 49 63 50 71 51 64 52 65 53 69 54 72 55
REMARK SMILES IDX 66 56 67 57 70 58 68 59 47 60 48 61 56 62 49 63 50 64 54 65
REMARK SMILES IDX 57 66 51 67 52 68 55 69 53 70 5 71 6 72 7 73 8 74 9 75 10 77
REMARK SMILES IDX 11 78 12 79 20 80 13 81 19 82 14 83 18 84 15 85 16 86 17 87
REMARK H PARENT 3 5 77 23 45 34 8 76
REMARK Flexibility Score: inf
ROOT
ATOM      1  C   UNL A   1      39.651  21.680  26.533  1.00  0.00     0.116 C 
ENDROOT
BRANCH   1   2
ATOM      2  N   UNL A   1      40.932  21.966  25.916  1.00  0.00    -0.352 N 
ATOM      3  O   UNL A   1      42.923  22.840  25.472  1.00  0.00    -0.269 OA
ATOM      4  C   UNL A   1      41.828  22.999  26.013  1.00  0.00     0.251 C 
ATOM      5  H   UNL A   1      41.223  21.265  25.291  1.00  0.00     0.163 HD
BRANCH   4   6
ATOM      6  C   UNL A   1      41.532  24.311  26.648  1.00  0.00     0.039 A 
ATOM      7  C   UNL A   1      40.749  25.313  26.078  1.00  0.00     0.014 A 
ATOM      8  C   UNL A   1      42.123  24.551  27.903  1.00  0.00     0.014 A 
ATOM      9  C   UNL A   1      40.677  26.567  26.669  1.00  0.00     0.010 A 
ATOM     10  C   UNL A   1      42.019  25.794  28.523  1.00  0.00     0.010 A 
ATOM     11  C   UNL A   1      41.332  26.817  27.877  1.00  0.00    -0.014 A 
BRANCH  11  12
ATOM     12  C   UNL A   1      41.177  28.152  28.445  1.00  0.00     0.031 A 
ATOM     13  C   UNL A   1      42.271  29.118  28.141  1.00  0.00     0.074 A 
ATOM     14  C   UNL A   1      40.109  28.553  29.159  1.00  0.00     0.049 A 
ATOM     15  N   UNL A   1      43.067  29.718  28.968  1.00  0.00    -0.248 NA
ATOM     16  C   UNL A   1      42.546  29.405  26.727  1.00  0.00     0.031 C 
ATOM     17  C   UNL A   1      38.820  27.885  29.328  1.00  0.00     0.029 A 
ATOM     18  N   UNL A   1      39.949  29.725  29.837  1.00  0.00    -0.354 N 
ATOM     19  C   UNL A   1      43.863  30.565  28.198  1.00  0.00     0.074 A 
ATOM     20  C   UNL A   1      43.559  30.266  26.821  1.00  0.00     0.031 C 
ATOM     21  C   UNL A   1      37.946  28.748  29.895  1.00  0.00     0.029 A 
ATOM     22  C   UNL A   1      38.651  29.969  30.249  1.00  0.00     0.049 A 
ATOM     23  H   UNL A   1      40.693  30.345  30.019  1.00  0.00     0.167 HD
ATOM     24  C   UNL A   1      44.606  31.563  28.752  1.00  0.00     0.037 A 
ATOM     25  C   UNL A   1      38.185  31.123  30.783  1.00  0.00     0.037 A 
ATOM     26  C   UNL A   1      44.831  31.343  30.155  1.00  0.00     0.049 A 
ATOM     27  C   UNL A   1      39.340  31.875  31.329  1.00  0.00     0.074 A 
ATOM     28  C   UNL A   1      45.474  30.376  30.901  1.00  0.00     0.029 A 
ATOM     29  N   UNL A   1      44.110  32.080  31.059  1.00  0.00    -0.354 N 
ATOM     30  N   UNL A   1      40.023  31.521  32.380  1.00  0.00    -0.248 NA
ATOM     31  C   UNL A   1      39.976  32.870  30.477  1.00  0.00     0.031 C 
ATOM     32  C   UNL A   1      44.732  30.285  32.115  1.00  0.00     0.029 A 
ATOM     33  C   UNL A   1      43.694  31.212  32.033  1.00  0.00     0.049 A 
ATOM     34  H   UNL A   1      43.927  33.046  31.016  1.00  0.00     0.167 HD
ATOM     35  C   UNL A   1      41.320  31.926  32.111  1.00  0.00     0.074 A 
ATOM     36  C   UNL A   1      41.207  32.849  30.989  1.00  0.00     0.031 C 
ATOM     37  C   UNL A   1      42.387  31.264  32.643  1.00  0.00     0.037 A 
BRANCH  24  38
ATOM     38  C   UNL A   1      44.882  32.900  28.102  1.00  0.00     0.064 A 
ATOM     39  C   UNL A   1      46.206  33.229  27.735  1.00  0.00     0.173 A 
ATOM     40  C   UNL A   1      43.972  33.977  28.110  1.00  0.00     0.173 A 
ATOM     41  F   UNL A   1      47.162  32.288  27.699  1.00  0.00    -0.203 F 
ATOM     42  C   UNL A   1      46.602  34.547  27.493  1.00  0.00     0.198 A 
ATOM     43  C   UNL A   1      44.360  35.283  27.813  1.00  0.00     0.198 A 
ATOM     44  F   UNL A   1      42.702  33.832  28.508  1.00  0.00    -0.203 F 
ATOM     45  F   UNL A   1      47.896  34.824  27.283  1.00  0.00    -0.200 F 
ATOM     46  C   UNL A   1      45.680  35.576  27.542  1.00  0.00     0.200 A 
ATOM     47  F   UNL A   1      43.455  36.270  27.877  1.00  0.00    -0.200 F 
ATOM     48  F   UNL A   1      46.069  36.846  27.377  1.00  0.00    -0.200 F 
ENDBRANCH  24  38
BRANCH  25  49
ATOM     49  C   UNL A   1      36.855  31.746  30.596  1.00  0.00     0.064 A 
ATOM     50  C   UNL A   1      35.972  31.901  31.676  1.00  0.00     0.173 A 
ATOM     51  C   UNL A   1      36.544  32.460  29.423  1.00  0.00     0.173 A 
ATOM     52  F   UNL A   1      36.220  31.292  32.845  1.00  0.00    -0.203 F 
ATOM     53  C   UNL A   1      34.860  32.746  31.597  1.00  0.00     0.198 A 
ATOM     54  C   UNL A   1      35.429  33.294  29.341  1.00  0.00     0.198 A 
ATOM     55  F   UNL A   1      37.368  32.440  28.365  1.00  0.00    -0.203 F 
ATOM     56  F   UNL A   1      34.078  32.924  32.672  1.00  0.00    -0.200 F 
ATOM     57  C   UNL A   1      34.597  33.449  30.433  1.00  0.00     0.200 A 
ATOM     58  F   UNL A   1      35.205  33.996  28.221  1.00  0.00    -0.200 F 
ATOM     59  F   UNL A   1      33.569  34.308  30.378  1.00  0.00    -0.200 F 
ENDBRANCH  25  49
BRANCH  37  60
ATOM     60  C   UNL A   1      42.128  30.297  33.759  1.00  0.00     0.064 A 
ATOM     61  C   UNL A   1      41.714  28.970  33.553  1.00  0.00     0.173 A 
ATOM     62  C   UNL A   1      42.461  30.678  35.065  1.00  0.00     0.173 A 
ATOM     63  F   UNL A   1      41.480  28.504  32.319  1.00  0.00    -0.203 F 
ATOM     64  C   UNL A   1      41.599  28.079  34.618  1.00  0.00     0.198 A 
ATOM     65  C   UNL A   1      42.380  29.775  36.122  1.00  0.00     0.198 A 
ATOM     66  F   UNL A   1      42.920  31.916  35.308  1.00  0.00    -0.203 F 
ATOM     67  F   UNL A   1      41.196  26.819  34.400  1.00  0.00    -0.200 F 
ATOM     68  C   UNL A   1      41.940  28.481  35.900  1.00  0.00     0.200 A 
ATOM     69  F   UNL A   1      42.760  30.152  37.351  1.00  0.00    -0.200 F 
ATOM     70  F   UNL A   1      41.875  27.610  36.917  1.00  0.00    -0.200 F 
ENDBRANCH  37  60
ENDBRANCH  11  12
ENDBRANCH   4   6
ENDBRANCH   1   2
BRANCH   1  71
ATOM     71  C   UNL A   1      38.426  21.889  25.641  1.00  0.00     0.023 C 
BRANCH  71  72
ATOM     72  C   UNL A   1      37.703  23.225  25.816  1.00  0.00     0.023 C 
BRANCH  72  73
ATOM     73  C   UNL A   1      36.213  23.214  25.502  1.00  0.00     0.116 C 
BRANCH  73  74
ATOM     74  N   UNL A   1      35.378  23.024  26.675  1.00  0.00    -0.350 N 
ATOM     75  C   UNL A   1      34.369  22.089  26.860  1.00  0.00     0.280 C 
ATOM     76  H   UNL A   1      35.549  23.632  27.430  1.00  0.00     0.163 HD
ATOM     77  O   UNL A   1      33.771  22.106  27.931  1.00  0.00    -0.267 OA
BRANCH  75  78
ATOM     78  C   UNL A   1      34.076  21.171  25.769  1.00  0.00     0.182 A 
ATOM     79  N   UNL A   1      34.724  20.041  25.588  1.00  0.00    -0.228 NA
ATOM     80  S   UNL A   1      32.803  21.496  24.668  1.00  0.00    -0.109 S 
ATOM     81  C   UNL A   1      34.086  19.293  24.608  1.00  0.00     0.118 A 
ATOM     82  C   UNL A   1      32.966  19.904  24.033  1.00  0.00     0.058 A 
ATOM     83  C   UNL A   1      34.424  17.995  24.172  1.00  0.00     0.150 A 
ATOM     84  C   UNL A   1      32.156  19.244  23.093  1.00  0.00     0.021 A 
ATOM     85  F   UNL A   1      35.499  17.367  24.671  1.00  0.00    -0.205 F 
ATOM     86  C   UNL A   1      33.632  17.327  23.238  1.00  0.00     0.041 A 
ATOM     87  C   UNL A   1      32.499  17.942  22.715  1.00  0.00     0.005 A 
ENDBRANCH  75  78
ENDBRANCH  73  74
ENDBRANCH  72  73
ENDBRANCH  71  72
ENDBRANCH   1  71
TORSDOF 11
ENDMDL
MODEL 2
REMARK VINA RESULT:     -12.6      3.636      5.602
REMARK SMILES O=C(NCCCCNC(=O)c1nc2c(F)cccc2s1)c1ccc(-c2c3nc(c(-c4c(F)c(F)c(F)c(F)c4F)c4ccc([nH]4)c(-c4c(F)c(F)c(F)c(F)c4F)c4nc(c(-c5c(F)c(F)c(F)c(F)c5F)c5ccc2[nH]5)C=C4)C=C3)cc1
REMARK SMILES IDX 4 1 3 2 1 3 2 4 21 6 22 7 83 8 23 9 82 10 24 11 25 12 26 13
REMARK SMILES IDX 76 14 27 15 81 16 75 17 77 18 28 19 80 20 74 21 73 22 29 24
REMARK SMILES IDX 61 25 41 26 60 27 42 28 45 29 59 30 78 31 43 32 44 33 58 35
REMARK SMILES IDX 79 36 46 37 30 38 31 39 39 40 32 41 33 42 37 43 40 44 34 45
REMARK SMILES IDX 35 46 38 47 36 48 62 49 63 50 71 51 64 52 65 53 69 54 72 55
REMARK SMILES IDX 66 56 67 57 70 58 68 59 47 60 48 61 56 62 49 63 50 64 54 65
REMARK SMILES IDX 57 66 51 67 52 68 55 69 53 70 5 71 6 72 7 73 8 74 9 75 10 77
REMARK SMILES IDX 11 78 12 79 20 80 13 81 19 82 14 83 18 84 15 85 16 86 17 87
REMARK H PARENT 3 5 77 23 45 34 8 76
REMARK Flexibility Score: inf
ROOT
ATOM      1  C   UNL A   1      41.971  20.650  26.844  1.00  0.00     0.116 C 
ENDROOT
BRANCH   1   2
ATOM      2  N   UNL A   1      40.573  20.880  26.530  1.00  0.00    -0.352 N 
ATOM      3  O   UNL A   1      38.657  21.853  25.979  1.00  0.00    -0.269 OA
ATOM      4  C   UNL A   1      39.785  21.998  26.454  1.00  0.00     0.251 C 
ATOM      5  H   UNL A   1      40.085  20.051  26.325  1.00  0.00     0.163 HD
BRANCH   4   6
ATOM      6  C   UNL A   1      40.169  23.335  26.980  1.00  0.00     0.039 A 
ATOM      7  C   UNL A   1      41.323  23.600  27.714  1.00  0.00     0.014 A 
ATOM      8  C   UNL A   1      39.270  24.390  26.735  1.00  0.00     0.014 A 
ATOM      9  C   UNL A   1      41.505  24.840  28.311  1.00  0.00     0.010 A 
ATOM     10  C   UNL A   1      39.467  25.650  27.295  1.00  0.00     0.010 A 
ATOM     11  C   UNL A   1      40.565  25.857  28.124  1.00  0.00    -0.014 A 
BRANCH  11  12
ATOM     12  C   UNL A   1      40.850  27.139  28.759  1.00  0.00     0.031 A 
ATOM     13  C   UNL A   1      41.943  27.943  28.139  1.00  0.00     0.074 A 
ATOM     14  C   UNL A   1      40.166  27.636  29.805  1.00  0.00     0.049 A 
ATOM     15  N   UNL A   1      43.060  28.326  28.670  1.00  0.00    -0.248 NA
ATOM     16  C   UNL A   1      41.789  28.316  26.727  1.00  0.00     0.031 C 
ATOM     17  C   UNL A   1      38.903  27.170  30.376  1.00  0.00     0.029 A 
ATOM     18  N   UNL A   1      40.453  28.749  30.540  1.00  0.00    -0.354 N 
ATOM     19  C   UNL A   1      43.702  29.105  27.708  1.00  0.00     0.074 A 
ATOM     20  C   UNL A   1      42.917  28.991  26.504  1.00  0.00     0.031 C 
ATOM     21  C   UNL A   1      38.434  28.105  31.235  1.00  0.00     0.029 A 
ATOM     22  C   UNL A   1      39.427  29.157  31.375  1.00  0.00     0.049 A 
ATOM     23  H   UNL A   1      41.315  29.221  30.483  1.00  0.00     0.167 HD
ATOM     24  C   UNL A   1      44.754  29.914  28.014  1.00  0.00     0.037 A 
ATOM     25  C   UNL A   1      39.379  30.314  32.076  1.00  0.00     0.037 A 
ATOM     26  C   UNL A   1      45.380  29.527  29.250  1.00  0.00     0.049 A 
ATOM     27  C   UNL A   1      40.766  30.817  32.227  1.00  0.00     0.074 A 
ATOM     28  C   UNL A   1      46.043  28.403  29.700  1.00  0.00     0.029 A 
ATOM     29  N   UNL A   1      45.140  30.280  30.370  1.00  0.00    -0.354 N 
ATOM     30  N   UNL A   1      41.678  30.259  32.972  1.00  0.00    -0.248 NA
ATOM     31  C   UNL A   1      41.260  31.774  31.247  1.00  0.00     0.031 C 
ATOM     32  C   UNL A   1      45.733  28.316  31.089  1.00  0.00     0.029 A 
ATOM     33  C   UNL A   1      44.913  29.401  31.396  1.00  0.00     0.049 A 
ATOM     34  H   UNL A   1      45.133  31.262  30.427  1.00  0.00     0.167 HD
ATOM     35  C   UNL A   1      42.867  30.475  32.296  1.00  0.00     0.074 A 
ATOM     36  C   UNL A   1      42.565  31.507  31.313  1.00  0.00     0.031 C 
ATOM     37  C   UNL A   1      43.910  29.603  32.413  1.00  0.00     0.037 A 
BRANCH  24  38
ATOM     38  C   UNL A   1      45.043  31.245  27.358  1.00  0.00     0.064 A 
ATOM     39  C   UNL A   1      46.318  31.475  26.796  1.00  0.00     0.173 A 
ATOM     40  C   UNL A   1      44.243  32.393  27.533  1.00  0.00     0.173 A 
ATOM     41  F   UNL A   1      47.171  30.460  26.590  1.00  0.00    -0.203 F 
ATOM     42  C   UNL A   1      46.786  32.763  26.523  1.00  0.00     0.198 A 
ATOM     43  C   UNL A   1      44.694  33.672  27.207  1.00  0.00     0.198 A 
ATOM     44  F   UNL A   1      43.042  32.340  28.121  1.00  0.00    -0.203 F 
ATOM     45  F   UNL A   1      48.052  32.939  26.119  1.00  0.00    -0.200 F 
ATOM     46  C   UNL A   1      45.977  33.863  26.738  1.00  0.00     0.200 A 
ATOM     47  F   UNL A   1      43.899  34.728  27.434  1.00  0.00    -0.200 F 
ATOM     48  F   UNL A   1      46.445  35.101  26.543  1.00  0.00    -0.200 F 
ENDBRANCH  24  38
BRANCH  25  49
ATOM     49  C   UNL A   1      38.199  31.158  32.372  1.00  0.00     0.064 A 
ATOM     50  C   UNL A   1      37.844  31.464  33.695  1.00  0.00     0.173 A 
ATOM     51  C   UNL A   1      37.572  31.912  31.362  1.00  0.00     0.173 A 
ATOM     52  F   UNL A   1      38.428  30.823  34.718  1.00  0.00    -0.203 F 
ATOM     53  C   UNL A   1      36.938  32.488  33.991  1.00  0.00     0.198 A 
ATOM     54  C   UNL A   1      36.660  32.926  31.658  1.00  0.00     0.198 A 
ATOM     55  F   UNL A   1      37.903  31.750  30.073  1.00  0.00    -0.203 F 
ATOM     56  F   UNL A   1      36.676  32.799  35.269  1.00  0.00    -0.200 F 
ATOM     57  C   UNL A   1      36.356  33.224  32.973  1.00  0.00     0.200 A 
ATOM     58  F   UNL A   1      36.131  33.654  30.665  1.00  0.00    -0.200 F 
ATOM     59  F   UNL A   1      35.539  34.247  33.257  1.00  0.00    -0.200 F 
ENDBRANCH  25  49
BRANCH  37  60
ATOM     60  C   UNL A   1      43.856  28.587  33.514  1.00  0.00     0.064 A 
ATOM     61  C   UNL A   1      43.401  27.270  33.333  1.00  0.00     0.173 A 
ATOM     62  C   UNL A   1      44.429  28.911  34.751  1.00  0.00     0.173 A 
ATOM     63  F   UNL A   1      42.937  26.859  32.145  1.00  0.00    -0.203 F 
ATOM     64  C   UNL A   1      43.480  26.334  34.361  1.00  0.00     0.198 A 
ATOM     65  C   UNL A   1      44.540  27.963  35.764  1.00  0.00     0.198 A 
ATOM     66  F   UNL A   1      44.935  30.138  34.957  1.00  0.00    -0.203 F 
ATOM     67  F   UNL A   1      43.034  25.084  34.167  1.00  0.00    -0.200 F 
ATOM     68  C   UNL A   1      44.056  26.679  35.573  1.00  0.00     0.200 A 
ATOM     69  F   UNL A   1      45.145  28.287  36.916  1.00  0.00    -0.200 F 
ATOM     70  F   UNL A   1      44.176  25.765  36.546  1.00  0.00    -0.200 F 
ENDBRANCH  37  60
ENDBRANCH  11  12
ENDBRANCH   4   6
ENDBRANCH   1   2
BRANCH   1  71
ATOM     71  C   UNL A   1      42.321  19.233  27.302  1.00  0.00     0.023 C 
BRANCH  71  72
ATOM     72  C   UNL A   1      43.216  18.435  26.353  1.00  0.00     0.023 C 
BRANCH  72  73
ATOM     73  C   UNL A   1      43.608  19.146  25.064  1.00  0.00     0.116 C 
BRANCH  73  74
ATOM     74  N   UNL A   1      45.032  19.082  24.781  1.00  0.00    -0.350 N 
ATOM     75  C   UNL A   1      45.958  20.114  24.826  1.00  0.00     0.280 C 
ATOM     76  H   UNL A   1      45.382  18.197  24.526  1.00  0.00     0.163 HD
ATOM     77  O   UNL A   1      47.118  19.847  24.535  1.00  0.00    -0.267 OA
BRANCH  75  78
ATOM     78  C   UNL A   1      45.486  21.442  25.193  1.00  0.00     0.182 A 
ATOM     79  N   UNL A   1      45.492  21.888  26.430  1.00  0.00    -0.228 NA
ATOM     80  S   UNL A   1      44.937  22.539  23.997  1.00  0.00    -0.109 S 
ATOM     81  C   UNL A   1      45.187  23.243  26.435  1.00  0.00     0.118 A 
ATOM     82  C   UNL A   1      44.918  23.793  25.177  1.00  0.00     0.058 A 
ATOM     83  C   UNL A   1      45.161  24.106  27.550  1.00  0.00     0.150 A 
ATOM     84  C   UNL A   1      44.683  25.167  24.998  1.00  0.00     0.021 A 
ATOM     85  F   UNL A   1      45.390  23.633  28.784  1.00  0.00    -0.205 F 
ATOM     86  C   UNL A   1      44.927  25.472  27.389  1.00  0.00     0.041 A 
ATOM     87  C   UNL A   1      44.705  25.999  26.121  1.00  0.00     0.005 A 
ENDBRANCH  75  78
ENDBRANCH  73  74
ENDBRANCH  72  73
ENDBRANCH  71  72
ENDBRANCH   1  71
TORSDOF 11
ENDMDL
MODEL 3
REMARK VINA RESULT:     -12.5      3.607      8.889
REMARK SMILES O=C(NCCCCNC(=O)c1nc2c(F)cccc2s1)c1ccc(-c2c3nc(c(-c4c(F)c(F)c(F)c(F)c4F)c4ccc([nH]4)c(-c4c(F)c(F)c(F)c(F)c4F)c4nc(c(-c5c(F)c(F)c(F)c(F)c5F)c5ccc2[nH]5)C=C4)C=C3)cc1
REMARK SMILES IDX 4 1 3 2 1 3 2 4 21 6 22 7 83 8 23 9 82 10 24 11 25 12 26 13
REMARK SMILES IDX 76 14 27 15 81 16 75 17 77 18 28 19 80 20 74 21 73 22 29 24
REMARK SMILES IDX 61 25 41 26 60 27 42 28 45 29 59 30 78 31 43 32 44 33 58 35
REMARK SMILES IDX 79 36 46 37 30 38 31 39 39 40 32 41 33 42 37 43 40 44 34 45
REMARK SMILES IDX 35 46 38 47 36 48 62 49 63 50 71 51 64 52 65 53 69 54 72 55
REMARK SMILES IDX 66 56 67 57 70 58 68 59 47 60 48 61 56 62 49 63 50 64 54 65
REMARK SMILES IDX 57 66 51 67 52 68 55 69 53 70 5 71 6 72 7 73 8 74 9 75 10 77
REMARK SMILES IDX 11 78 12 79 20 80 13 81 19 82 14 83 18 84 15 85 16 86 17 87
REMARK H PARENT 3 5 77 23 45 34 8 76
REMARK Flexibility Score: inf
ROOT
ATOM      1  C   UNL A   1      33.461  30.584  26.860  1.00  0.00     0.116 C 
ENDROOT
BRANCH   1   2
ATOM      2  N   UNL A   1      33.710  31.517  27.942  1.00  0.00    -0.352 N 
ATOM      3  O   UNL A   1      34.719  32.835  29.416  1.00  0.00    -0.269 OA
ATOM      4  C   UNL A   1      34.819  31.857  28.672  1.00  0.00     0.251 C 
ATOM      5  H   UNL A   1      32.906  32.017  28.210  1.00  0.00     0.163 HD
BRANCH   4   6
ATOM      6  C   UNL A   1      36.086  31.079  28.687  1.00  0.00     0.039 A 
ATOM      7  C   UNL A   1      36.172  29.695  28.556  1.00  0.00     0.014 A 
ATOM      8  C   UNL A   1      37.272  31.813  28.881  1.00  0.00     0.014 A 
ATOM      9  C   UNL A   1      37.383  29.046  28.759  1.00  0.00     0.010 A 
ATOM     10  C   UNL A   1      38.498  31.171  29.043  1.00  0.00     0.010 A 
ATOM     11  C   UNL A   1      38.541  29.781  29.028  1.00  0.00    -0.014 A 
BRANCH  11  12
ATOM     12  C   UNL A   1      39.776  29.022  29.195  1.00  0.00     0.031 A 
ATOM     13  C   UNL A   1      40.226  28.816  30.602  1.00  0.00     0.074 A 
ATOM     14  C   UNL A   1      40.473  28.475  28.183  1.00  0.00     0.049 A 
ATOM     15  N   UNL A   1      41.324  29.216  31.161  1.00  0.00    -0.248 NA
ATOM     16  C   UNL A   1      39.304  28.126  31.513  1.00  0.00     0.031 C 
ATOM     17  C   UNL A   1      40.074  28.303  26.787  1.00  0.00     0.029 A 
ATOM     18  N   UNL A   1      41.698  27.877  28.238  1.00  0.00    -0.354 N 
ATOM     19  C   UNL A   1      41.302  28.715  32.463  1.00  0.00     0.074 A 
ATOM     20  C   UNL A   1      39.999  28.130  32.651  1.00  0.00     0.031 C 
ATOM     21  C   UNL A   1      40.952  27.473  26.176  1.00  0.00     0.029 A 
ATOM     22  C   UNL A   1      42.037  27.174  27.096  1.00  0.00     0.049 A 
ATOM     23  H   UNL A   1      42.289  27.940  29.023  1.00  0.00     0.167 HD
ATOM     24  C   UNL A   1      42.417  28.684  33.245  1.00  0.00     0.037 A 
ATOM     25  C   UNL A   1      43.104  26.354  26.949  1.00  0.00     0.037 A 
ATOM     26  C   UNL A   1      43.421  29.600  32.778  1.00  0.00     0.049 A 
ATOM     27  C   UNL A   1      44.108  26.718  27.978  1.00  0.00     0.074 A 
ATOM     28  C   UNL A   1      43.501  30.970  32.627  1.00  0.00     0.029 A 
ATOM     29  N   UNL A   1      44.506  29.097  32.107  1.00  0.00    -0.354 N 
ATOM     30  N   UNL A   1      44.800  27.821  27.979  1.00  0.00    -0.248 NA
ATOM     31  C   UNL A   1      44.093  25.990  29.239  1.00  0.00     0.031 C 
ATOM     32  C   UNL A   1      44.333  31.173  31.488  1.00  0.00     0.029 A 
ATOM     33  C   UNL A   1      44.717  29.914  31.029  1.00  0.00     0.049 A 
ATOM     34  H   UNL A   1      45.032  28.303  32.353  1.00  0.00     0.167 HD
ATOM     35  C   UNL A   1      44.962  28.136  29.318  1.00  0.00     0.074 A 
ATOM     36  C   UNL A   1      44.614  26.919  30.040  1.00  0.00     0.031 C 
ATOM     37  C   UNL A   1      45.098  29.431  29.723  1.00  0.00     0.037 A 
BRANCH  24  38
ATOM     38  C   UNL A   1      42.730  27.609  34.262  1.00  0.00     0.064 A 
ATOM     39  C   UNL A   1      43.270  26.381  33.824  1.00  0.00     0.173 A 
ATOM     40  C   UNL A   1      42.240  27.617  35.585  1.00  0.00     0.173 A 
ATOM     41  F   UNL A   1      43.760  26.250  32.581  1.00  0.00    -0.203 F 
ATOM     42  C   UNL A   1      43.232  25.229  34.615  1.00  0.00     0.198 A 
ATOM     43  C   UNL A   1      42.254  26.479  36.391  1.00  0.00     0.198 A 
ATOM     44  F   UNL A   1      41.633  28.687  36.112  1.00  0.00    -0.203 F 
ATOM     45  F   UNL A   1      43.632  24.057  34.104  1.00  0.00    -0.200 F 
ATOM     46  C   UNL A   1      42.714  25.277  35.896  1.00  0.00     0.200 A 
ATOM     47  F   UNL A   1      41.737  26.541  37.626  1.00  0.00    -0.200 F 
ATOM     48  F   UNL A   1      42.613  24.163  36.631  1.00  0.00    -0.200 F 
ENDBRANCH  24  38
BRANCH  25  49
ATOM     49  C   UNL A   1      43.193  25.097  26.171  1.00  0.00     0.064 A 
ATOM     50  C   UNL A   1      44.219  24.898  25.235  1.00  0.00     0.173 A 
ATOM     51  C   UNL A   1      42.448  23.960  26.539  1.00  0.00     0.173 A 
ATOM     52  F   UNL A   1      45.004  25.921  24.865  1.00  0.00    -0.203 F 
ATOM     53  C   UNL A   1      44.504  23.629  24.720  1.00  0.00     0.198 A 
ATOM     54  C   UNL A   1      42.727  22.696  26.017  1.00  0.00     0.198 A 
ATOM     55  F   UNL A   1      41.501  24.032  27.485  1.00  0.00    -0.203 F 
ATOM     56  F   UNL A   1      45.538  23.466  23.881  1.00  0.00    -0.200 F 
ATOM     57  C   UNL A   1      43.765  22.529  25.120  1.00  0.00     0.200 A 
ATOM     58  F   UNL A   1      42.027  21.634  26.439  1.00  0.00    -0.200 F 
ATOM     59  F   UNL A   1      44.079  21.304  24.678  1.00  0.00    -0.200 F 
ENDBRANCH  25  49
BRANCH  37  60
ATOM     60  C   UNL A   1      45.378  30.469  28.678  1.00  0.00     0.064 A 
ATOM     61  C   UNL A   1      44.375  31.079  27.905  1.00  0.00     0.173 A 
ATOM     62  C   UNL A   1      46.680  30.972  28.567  1.00  0.00     0.173 A 
ATOM     63  F   UNL A   1      43.090  30.723  28.036  1.00  0.00    -0.203 F 
ATOM     64  C   UNL A   1      44.677  32.120  27.029  1.00  0.00     0.198 A 
ATOM     65  C   UNL A   1      46.972  32.036  27.718  1.00  0.00     0.198 A 
ATOM     66  F   UNL A   1      47.664  30.465  29.327  1.00  0.00    -0.203 F 
ATOM     67  F   UNL A   1      43.705  32.685  26.298  1.00  0.00    -0.200 F 
ATOM     68  C   UNL A   1      45.973  32.602  26.943  1.00  0.00     0.200 A 
ATOM     69  F   UNL A   1      48.216  32.534  27.676  1.00  0.00    -0.200 F 
ATOM     70  F   UNL A   1      46.253  33.636  26.136  1.00  0.00    -0.200 F 
ENDBRANCH  37  60
ENDBRANCH  11  12
ENDBRANCH   4   6
ENDBRANCH   1   2
BRANCH   1  71
ATOM     71  C   UNL A   1      32.200  29.729  27.000  1.00  0.00     0.023 C 
BRANCH  71  72
ATOM     72  C   UNL A   1      32.436  28.252  27.313  1.00  0.00     0.023 C 
BRANCH  72  73
ATOM     73  C   UNL A   1      31.960  27.268  26.252  1.00  0.00     0.116 C 
BRANCH  73  74
ATOM     74  N   UNL A   1      31.342  26.077  26.806  1.00  0.00    -0.350 N 
ATOM     75  C   UNL A   1      31.740  24.757  26.647  1.00  0.00     0.280 C 
ATOM     76  H   UNL A   1      30.543  26.224  27.363  1.00  0.00     0.163 HD
ATOM     77  O   UNL A   1      31.065  23.892  27.193  1.00  0.00    -0.267 OA
BRANCH  75  78
ATOM     78  C   UNL A   1      32.913  24.489  25.827  1.00  0.00     0.182 A 
ATOM     79  N   UNL A   1      34.134  24.448  26.314  1.00  0.00    -0.228 NA
ATOM     80  S   UNL A   1      32.756  24.151  24.155  1.00  0.00    -0.109 S 
ATOM     81  C   UNL A   1      35.004  23.968  25.344  1.00  0.00     0.118 A 
ATOM     82  C   UNL A   1      34.413  23.684  24.109  1.00  0.00     0.058 A 
ATOM     83  C   UNL A   1      36.383  23.708  25.490  1.00  0.00     0.150 A 
ATOM     84  C   UNL A   1      35.136  23.106  23.051  1.00  0.00     0.021 A 
ATOM     85  F   UNL A   1      37.009  23.980  26.645  1.00  0.00    -0.205 F 
ATOM     86  C   UNL A   1      37.114  23.136  24.449  1.00  0.00     0.041 A 
ATOM     87  C   UNL A   1      36.491  22.825  23.246  1.00  0.00     0.005 A 
ENDBRANCH  75  78
ENDBRANCH  73  74
ENDBRANCH  72  73
ENDBRANCH  71  72
ENDBRANCH   1  71
TORSDOF 11
ENDMDL
