MODEL 1
REMARK VINA RESULT:     -13.2      0.000      0.000
REMARK SMILES CCn1c(CC2CC[NH+](Cc3cn[nH]c3C(=O)NCCCCNC(=O)c3ccc(-c4c5nc(c(-c6c(F)c(F)c(F)c(F)c6F)c6ccc([nH]6)c(-c6c(F)c(F)c(F)c(F)c6F)c6nc(c(-c7c(F)c(F)c(F)c(F)c7F)c7ccc4[nH]7)C=C6)C=C5)cc3)CC2)nn(C)c1=O
REMARK SMILES IDX 19 1 18 2 16 3 17 4 15 6 11 7 12 8 13 9 14 10 10 12 9 13
REMARK SMILES IDX 6 14 7 15 90 16 8 17 89 18 5 20 4 21 3 22 94 23 91 24 92 25
REMARK SMILES IDX 95 26 93 27 2 28 1 29 20 30 21 31 22 32 23 33 24 34 25 36
REMARK SMILES IDX 26 37 27 38 88 39 28 40 87 41 29 42 30 43 31 44 81 45 32 46
REMARK SMILES IDX 86 47 80 48 82 49 33 50 85 51 79 52 78 53 34 55 66 56 46 57
REMARK SMILES IDX 65 58 47 59 50 60 64 61 83 62 48 63 49 64 63 66 84 67 51 68
REMARK SMILES IDX 35 69 36 70 44 71 37 72 38 73 42 74 45 75 39 76 40 77 43 78
REMARK SMILES IDX 41 79 67 80 68 81 76 82 69 83 70 84 74 85 77 86 71 87 72 88
REMARK SMILES IDX 75 89 73 90 52 91 53 92 61 93 54 94 55 95 59 96 62 97 56 98
REMARK SMILES IDX 57 99 60 100 58 101
REMARK H PARENT 18 5 14 11 9 19 23 35 82 54 50 65
REMARK Flexibility Score: inf
ROOT
ATOM      1  C   UNL A   1      32.976  29.453  25.724  1.00  0.00     0.116 C 
ENDROOT
BRANCH   1   2
ATOM      2  N   UNL A   1      33.688  29.314  24.480  1.00  0.00    -0.351 N 
ATOM      3  C   UNL A   1      33.260  28.898  23.250  1.00  0.00     0.269 C 
ATOM      4  O   UNL A   1      34.136  28.794  22.388  1.00  0.00    -0.268 OA
ATOM      5  H   UNL A   1      34.640  29.558  24.522  1.00  0.00     0.163 HD
BRANCH   3   6
ATOM      6  C   UNL A   1      31.865  28.745  22.912  1.00  0.00     0.131 A 
ATOM      7  C   UNL A   1      30.759  27.947  23.231  1.00  0.00     0.057 A 
ATOM      8  C   UNL A   1      29.680  28.613  22.593  1.00  0.00     0.145 A 
ATOM      9  N   UNL A   1      30.057  29.647  21.852  1.00  0.00    -0.183 NA
ATOM     10  N   UNL A   1      31.389  29.604  21.939  1.00  0.00    -0.272 N 
ATOM     11  H   UNL A   1      31.981  30.137  21.362  1.00  0.00     0.190 HD
BRANCH   7  12
ATOM     12  C   UNL A   1      30.523  26.741  24.089  1.00  0.00     0.303 C 
BRANCH  12  13
ATOM     13  N   UNL A   1      31.705  25.975  24.520  1.00  0.00    -0.331 N 
ATOM     14  C   UNL A   1      33.208  23.611  25.488  1.00  0.00     0.008 C 
ATOM     15  C   UNL A   1      32.766  24.731  26.432  1.00  0.00     0.065 C 
ATOM     16  C   UNL A   1      33.408  24.203  24.098  1.00  0.00     0.065 C 
ATOM     17  C   UNL A   1      31.581  25.545  25.916  1.00  0.00     0.262 C 
ATOM     18  C   UNL A   1      32.172  24.946  23.599  1.00  0.00     0.262 C 
ATOM     19  H   UNL A   1      32.485  26.633  24.482  1.00  0.00     0.348 HD
BRANCH  14  20
ATOM     20  C   UNL A   1      32.365  22.319  25.544  1.00  0.00     0.081 C 
BRANCH  20  21
ATOM     21  C   UNL A   1      32.908  21.002  25.031  1.00  0.00     0.133 A 
ATOM     22  N   UNL A   1      34.181  20.572  25.171  1.00  0.00    -0.279 N 
ATOM     23  C   UNL A   1      34.200  19.299  24.622  1.00  0.00     0.345 A 
ATOM     24  N   UNL A   1      32.105  20.142  24.464  1.00  0.00    -0.155 NA
ATOM     25  N   UNL A   1      32.902  19.065  24.186  1.00  0.00    -0.216 N 
ATOM     26  O   UNL A   1      35.163  18.550  24.547  1.00  0.00    -0.246 OA
ATOM     27  C   UNL A   1      32.426  17.890  23.507  1.00  0.00     0.179 C 
BRANCH  22  28
ATOM     28  C   UNL A   1      35.431  21.180  25.613  1.00  0.00     0.125 C 
ATOM     29  C   UNL A   1      36.285  21.830  24.547  1.00  0.00     0.028 C 
ENDBRANCH  22  28
ENDBRANCH  20  21
ENDBRANCH  14  20
ENDBRANCH  12  13
ENDBRANCH   7  12
ENDBRANCH   3   6
ENDBRANCH   1   2
BRANCH   1  30
ATOM     30  C   UNL A   1      33.909  30.052  26.779  1.00  0.00     0.023 C 
BRANCH  30  31
ATOM     31  C   UNL A   1      33.354  31.234  27.560  1.00  0.00     0.023 C 
BRANCH  31  32
ATOM     32  C   UNL A   1      34.416  32.267  27.908  1.00  0.00     0.116 C 
BRANCH  32  33
ATOM     33  N   UNL A   1      34.434  32.602  29.330  1.00  0.00    -0.352 N 
ATOM     34  C   UNL A   1      35.217  32.031  30.305  1.00  0.00     0.251 C 
ATOM     35  H   UNL A   1      33.817  33.313  29.621  1.00  0.00     0.163 HD
ATOM     36  O   UNL A   1      34.908  32.066  31.492  1.00  0.00    -0.269 OA
BRANCH  34  37
ATOM     37  C   UNL A   1      36.464  31.384  29.880  1.00  0.00     0.039 A 
ATOM     38  C   UNL A   1      37.654  32.102  29.831  1.00  0.00     0.014 A 
ATOM     39  C   UNL A   1      36.432  30.006  29.644  1.00  0.00     0.014 A 
ATOM     40  C   UNL A   1      38.837  31.402  29.625  1.00  0.00     0.010 A 
ATOM     41  C   UNL A   1      37.614  29.303  29.538  1.00  0.00     0.010 A 
ATOM     42  C   UNL A   1      38.821  29.995  29.520  1.00  0.00    -0.014 A 
BRANCH  42  43
ATOM     43  C   UNL A   1      40.092  29.270  29.583  1.00  0.00     0.031 A 
ATOM     44  C   UNL A   1      40.594  29.057  30.969  1.00  0.00     0.074 A 
ATOM     45  C   UNL A   1      40.729  28.701  28.537  1.00  0.00     0.049 A 
ATOM     46  N   UNL A   1      41.628  29.613  31.504  1.00  0.00    -0.248 NA
ATOM     47  C   UNL A   1      39.788  28.266  31.915  1.00  0.00     0.031 C 
ATOM     48  C   UNL A   1      40.272  28.552  27.156  1.00  0.00     0.029 A 
ATOM     49  N   UNL A   1      41.928  28.049  28.523  1.00  0.00    -0.354 N 
ATOM     50  C   UNL A   1      41.728  29.098  32.790  1.00  0.00     0.074 A 
ATOM     51  C   UNL A   1      40.489  28.408  33.045  1.00  0.00     0.031 C 
ATOM     52  C   UNL A   1      41.061  27.664  26.510  1.00  0.00     0.029 A 
ATOM     53  C   UNL A   1      42.169  27.301  27.376  1.00  0.00     0.049 A 
ATOM     54  H   UNL A   1      42.572  28.106  29.265  1.00  0.00     0.167 HD
ATOM     55  C   UNL A   1      42.931  29.078  33.429  1.00  0.00     0.037 A 
ATOM     56  C   UNL A   1      43.190  26.430  27.162  1.00  0.00     0.037 A 
ATOM     57  C   UNL A   1      43.852  30.014  32.829  1.00  0.00     0.049 A 
ATOM     58  C   UNL A   1      44.280  26.786  28.105  1.00  0.00     0.074 A 
ATOM     59  C   UNL A   1      43.798  31.369  32.546  1.00  0.00     0.029 A 
ATOM     60  N   UNL A   1      44.869  29.526  32.044  1.00  0.00    -0.354 N 
ATOM     61  N   UNL A   1      44.988  27.877  28.011  1.00  0.00    -0.248 NA
ATOM     62  C   UNL A   1      44.260  26.166  29.422  1.00  0.00     0.031 C 
ATOM     63  C   UNL A   1      44.379  31.494  31.249  1.00  0.00     0.029 A 
ATOM     64  C   UNL A   1      44.843  30.236  30.870  1.00  0.00     0.049 A 
ATOM     65  H   UNL A   1      45.495  28.803  32.279  1.00  0.00     0.167 HD
ATOM     66  C   UNL A   1      45.090  28.332  29.314  1.00  0.00     0.074 A 
ATOM     67  C   UNL A   1      44.696  27.197  30.149  1.00  0.00     0.031 C 
ATOM     68  C   UNL A   1      45.194  29.664  29.594  1.00  0.00     0.037 A 
BRANCH  55  69
ATOM     69  C   UNL A   1      43.394  27.937  34.302  1.00  0.00     0.064 A 
ATOM     70  C   UNL A   1      43.358  26.624  33.788  1.00  0.00     0.173 A 
ATOM     71  C   UNL A   1      43.555  28.037  35.701  1.00  0.00     0.173 A 
ATOM     72  F   UNL A   1      43.187  26.410  32.476  1.00  0.00    -0.203 F 
ATOM     73  C   UNL A   1      43.383  25.505  34.624  1.00  0.00     0.198 A 
ATOM     74  C   UNL A   1      43.635  26.917  36.526  1.00  0.00     0.198 A 
ATOM     75  F   UNL A   1      43.520  29.210  36.343  1.00  0.00    -0.203 F 
ATOM     76  F   UNL A   1      43.200  24.284  34.104  1.00  0.00    -0.200 F 
ATOM     77  C   UNL A   1      43.513  25.653  35.992  1.00  0.00     0.200 A 
ATOM     78  F   UNL A   1      43.737  27.085  37.852  1.00  0.00    -0.200 F 
ATOM     79  F   UNL A   1      43.468  24.586  36.801  1.00  0.00    -0.200 F 
ENDBRANCH  55  69
BRANCH  56  80
ATOM     80  C   UNL A   1      43.185  25.151  26.404  1.00  0.00     0.064 A 
ATOM     81  C   UNL A   1      44.083  24.933  25.343  1.00  0.00     0.173 A 
ATOM     82  C   UNL A   1      42.508  24.013  26.884  1.00  0.00     0.173 A 
ATOM     83  F   UNL A   1      44.806  25.948  24.847  1.00  0.00    -0.203 F 
ATOM     84  C   UNL A   1      44.314  23.652  24.823  1.00  0.00     0.198 A 
ATOM     85  C   UNL A   1      42.734  22.739  26.360  1.00  0.00     0.198 A 
ATOM     86  F   UNL A   1      41.686  24.095  27.940  1.00  0.00    -0.203 F 
ATOM     87  F   UNL A   1      45.231  23.476  23.862  1.00  0.00    -0.200 F 
ATOM     88  C   UNL A   1      43.649  22.555  25.342  1.00  0.00     0.200 A 
ATOM     89  F   UNL A   1      42.108  21.682  26.897  1.00  0.00    -0.200 F 
ATOM     90  F   UNL A   1      43.919  21.322  24.893  1.00  0.00    -0.200 F 
ENDBRANCH  56  80
BRANCH  68  91
ATOM     91  C   UNL A   1      45.477  30.621  28.468  1.00  0.00     0.064 A 
ATOM     92  C   UNL A   1      44.505  31.141  27.595  1.00  0.00     0.173 A 
ATOM     93  C   UNL A   1      46.778  31.133  28.356  1.00  0.00     0.173 A 
ATOM     94  F   UNL A   1      43.215  30.793  27.701  1.00  0.00    -0.203 F 
ATOM     95  C   UNL A   1      44.837  32.087  26.624  1.00  0.00     0.198 A 
ATOM     96  C   UNL A   1      47.097  32.109  27.416  1.00  0.00     0.198 A 
ATOM     97  F   UNL A   1      47.740  30.716  29.194  1.00  0.00    -0.203 F 
ATOM     98  F   UNL A   1      43.896  32.552  25.789  1.00  0.00    -0.200 F 
ATOM     99  C   UNL A   1      46.131  32.574  26.540  1.00  0.00     0.200 A 
ATOM    100  F   UNL A   1      48.337  32.613  27.375  1.00  0.00    -0.200 F 
ATOM    101  F   UNL A   1      46.442  33.511  25.633  1.00  0.00    -0.200 F 
ENDBRANCH  68  91
ENDBRANCH  42  43
ENDBRANCH  34  37
ENDBRANCH  32  33
ENDBRANCH  31  32
ENDBRANCH  30  31
ENDBRANCH   1  30
TORSDOF 16
ENDMDL
MODEL 2
REMARK VINA RESULT:     -13.0      1.353      2.038
REMARK SMILES CCn1c(CC2CC[NH+](Cc3cn[nH]c3C(=O)NCCCCNC(=O)c3ccc(-c4c5nc(c(-c6c(F)c(F)c(F)c(F)c6F)c6ccc([nH]6)c(-c6c(F)c(F)c(F)c(F)c6F)c6nc(c(-c7c(F)c(F)c(F)c(F)c7F)c7ccc4[nH]7)C=C6)C=C5)cc3)CC2)nn(C)c1=O
REMARK SMILES IDX 19 1 18 2 16 3 17 4 15 6 11 7 12 8 13 9 14 10 10 12 9 13
REMARK SMILES IDX 6 14 7 15 90 16 8 17 89 18 5 20 4 21 3 22 94 23 91 24 92 25
REMARK SMILES IDX 95 26 93 27 2 28 1 29 20 30 21 31 22 32 23 33 24 34 25 36
REMARK SMILES IDX 26 37 27 38 88 39 28 40 87 41 29 42 30 43 31 44 81 45 32 46
REMARK SMILES IDX 86 47 80 48 82 49 33 50 85 51 79 52 78 53 34 55 66 56 46 57
REMARK SMILES IDX 65 58 47 59 50 60 64 61 83 62 48 63 49 64 63 66 84 67 51 68
REMARK SMILES IDX 35 69 36 70 44 71 37 72 38 73 42 74 45 75 39 76 40 77 43 78
REMARK SMILES IDX 41 79 67 80 68 81 76 82 69 83 70 84 74 85 77 86 71 87 72 88
REMARK SMILES IDX 75 89 73 90 52 91 53 92 61 93 54 94 55 95 59 96 62 97 56 98
REMARK SMILES IDX 57 99 60 100 58 101
REMARK H PARENT 18 5 14 11 9 19 23 35 82 54 50 65
REMARK Flexibility Score: inf
ROOT
ATOM      1  C   UNL A   1      33.369  29.481  25.132  1.00  0.00     0.116 C 
ENDROOT
BRANCH   1   2
ATOM      2  N   UNL A   1      33.987  29.183  23.866  1.00  0.00    -0.351 N 
ATOM      3  C   UNL A   1      33.459  28.669  22.715  1.00  0.00     0.269 C 
ATOM      4  O   UNL A   1      34.268  28.436  21.814  1.00  0.00    -0.268 OA
ATOM      5  H   UNL A   1      34.950  29.381  23.823  1.00  0.00     0.163 HD
BRANCH   3   6
ATOM      6  C   UNL A   1      32.038  28.554  22.484  1.00  0.00     0.131 A 
ATOM      7  C   UNL A   1      30.994  27.630  22.622  1.00  0.00     0.057 A 
ATOM      8  C   UNL A   1      29.835  28.405  22.355  1.00  0.00     0.145 A 
ATOM      9  N   UNL A   1      30.102  29.647  21.974  1.00  0.00    -0.183 NA
ATOM     10  N   UNL A   1      31.436  29.658  21.910  1.00  0.00    -0.272 N 
ATOM     11  H   UNL A   1      31.947  30.388  21.492  1.00  0.00     0.190 HD
BRANCH   7  12
ATOM     12  C   UNL A   1      30.884  26.196  23.041  1.00  0.00     0.303 C 
BRANCH  12  13
ATOM     13  N   UNL A   1      31.373  25.845  24.386  1.00  0.00    -0.331 N 
ATOM     14  C   UNL A   1      32.548  24.114  26.485  1.00  0.00     0.008 C 
ATOM     15  C   UNL A   1      31.038  24.327  26.365  1.00  0.00     0.065 C 
ATOM     16  C   UNL A   1      33.254  25.353  25.946  1.00  0.00     0.065 C 
ATOM     17  C   UNL A   1      30.583  24.757  24.971  1.00  0.00     0.262 C 
ATOM     18  C   UNL A   1      32.816  25.699  24.526  1.00  0.00     0.262 C 
ATOM     19  H   UNL A   1      31.208  26.672  24.960  1.00  0.00     0.348 HD
BRANCH  14  20
ATOM     20  C   UNL A   1      33.076  22.764  25.954  1.00  0.00     0.081 C 
BRANCH  20  21
ATOM     21  C   UNL A   1      34.420  22.662  25.263  1.00  0.00     0.133 A 
ATOM     22  N   UNL A   1      34.640  22.860  23.945  1.00  0.00    -0.279 N 
ATOM     23  C   UNL A   1      36.011  22.739  23.780  1.00  0.00     0.345 A 
ATOM     24  N   UNL A   1      35.499  22.440  25.965  1.00  0.00    -0.155 NA
ATOM     25  N   UNL A   1      36.514  22.471  25.048  1.00  0.00    -0.216 N 
ATOM     26  O   UNL A   1      36.634  22.850  22.735  1.00  0.00    -0.246 OA
ATOM     27  C   UNL A   1      37.889  22.223  25.389  1.00  0.00     0.179 C 
BRANCH  22  28
ATOM     28  C   UNL A   1      33.789  23.019  22.771  1.00  0.00     0.125 C 
ATOM     29  C   UNL A   1      32.581  22.113  22.680  1.00  0.00     0.028 C 
ENDBRANCH  22  28
ENDBRANCH  20  21
ENDBRANCH  14  20
ENDBRANCH  12  13
ENDBRANCH   7  12
ENDBRANCH   3   6
ENDBRANCH   1   2
BRANCH   1  30
ATOM     30  C   UNL A   1      34.203  28.873  26.262  1.00  0.00     0.023 C 
BRANCH  30  31
ATOM     31  C   UNL A   1      34.212  29.650  27.571  1.00  0.00     0.023 C 
BRANCH  31  32
ATOM     32  C   UNL A   1      35.119  30.871  27.530  1.00  0.00     0.116 C 
BRANCH  32  33
ATOM     33  N   UNL A   1      34.742  31.887  28.509  1.00  0.00    -0.352 N 
ATOM     34  C   UNL A   1      35.153  31.969  29.819  1.00  0.00     0.251 C 
ATOM     35  H   UNL A   1      34.126  32.590  28.197  1.00  0.00     0.163 HD
ATOM     36  O   UNL A   1      34.510  32.580  30.666  1.00  0.00    -0.269 OA
BRANCH  34  37
ATOM     37  C   UNL A   1      36.414  31.308  30.176  1.00  0.00     0.039 A 
ATOM     38  C   UNL A   1      36.430  29.969  30.554  1.00  0.00     0.014 A 
ATOM     39  C   UNL A   1      37.596  32.034  30.009  1.00  0.00     0.014 A 
ATOM     40  C   UNL A   1      37.660  29.337  30.680  1.00  0.00     0.010 A 
ATOM     41  C   UNL A   1      38.811  31.380  30.040  1.00  0.00     0.010 A 
ATOM     42  C   UNL A   1      38.851  30.032  30.382  1.00  0.00    -0.014 A 
BRANCH  42  43
ATOM     43  C   UNL A   1      40.097  29.273  30.255  1.00  0.00     0.031 A 
ATOM     44  C   UNL A   1      40.775  29.009  31.556  1.00  0.00     0.074 A 
ATOM     45  C   UNL A   1      40.571  28.716  29.120  1.00  0.00     0.049 A 
ATOM     46  N   UNL A   1      41.888  29.524  31.958  1.00  0.00    -0.248 NA
ATOM     47  C   UNL A   1      40.082  28.215  32.584  1.00  0.00     0.031 C 
ATOM     48  C   UNL A   1      39.927  28.617  27.810  1.00  0.00     0.029 A 
ATOM     49  N   UNL A   1      41.738  28.034  28.928  1.00  0.00    -0.354 N 
ATOM     50  C   UNL A   1      42.145  28.972  33.206  1.00  0.00     0.074 A 
ATOM     51  C   UNL A   1      40.933  28.308  33.611  1.00  0.00     0.031 C 
ATOM     52  C   UNL A   1      40.596  27.726  27.043  1.00  0.00     0.029 A 
ATOM     53  C   UNL A   1      41.799  27.311  27.742  1.00  0.00     0.049 A 
ATOM     54  H   UNL A   1      42.478  28.054  29.578  1.00  0.00     0.167 HD
ATOM     55  C   UNL A   1      43.422  28.904  33.676  1.00  0.00     0.037 A 
ATOM     56  C   UNL A   1      42.757  26.420  27.372  1.00  0.00     0.037 A 
ATOM     57  C   UNL A   1      44.281  29.832  32.978  1.00  0.00     0.049 A 
ATOM     58  C   UNL A   1      43.974  26.722  28.166  1.00  0.00     0.074 A 
ATOM     59  C   UNL A   1      44.229  31.195  32.737  1.00  0.00     0.029 A 
ATOM     60  N   UNL A   1      45.168  29.339  32.052  1.00  0.00    -0.354 N 
ATOM     61  N   UNL A   1      44.694  27.797  28.002  1.00  0.00    -0.248 NA
ATOM     62  C   UNL A   1      44.113  26.068  29.459  1.00  0.00     0.031 C 
ATOM     63  C   UNL A   1      44.633  31.340  31.377  1.00  0.00     0.029 A 
ATOM     64  C   UNL A   1      45.006  30.081  30.909  1.00  0.00     0.049 A 
ATOM     65  H   UNL A   1      45.799  28.594  32.183  1.00  0.00     0.167 HD
ATOM     66  C   UNL A   1      44.985  28.214  29.290  1.00  0.00     0.074 A 
ATOM     67  C   UNL A   1      44.674  27.067  30.144  1.00  0.00     0.031 C 
ATOM     68  C   UNL A   1      45.164  29.535  29.585  1.00  0.00     0.037 A 
BRANCH  55  69
ATOM     69  C   UNL A   1      43.965  27.729  34.451  1.00  0.00     0.064 A 
ATOM     70  C   UNL A   1      44.722  27.969  35.617  1.00  0.00     0.173 A 
ATOM     71  C   UNL A   1      44.054  26.420  33.929  1.00  0.00     0.173 A 
ATOM     72  F   UNL A   1      44.730  29.183  36.186  1.00  0.00    -0.203 F 
ATOM     73  C   UNL A   1      45.574  27.000  36.155  1.00  0.00     0.198 A 
ATOM     74  C   UNL A   1      44.863  25.440  34.502  1.00  0.00     0.198 A 
ATOM     75  F   UNL A   1      43.465  26.065  32.782  1.00  0.00    -0.203 F 
ATOM     76  F   UNL A   1      46.381  27.320  37.176  1.00  0.00    -0.200 F 
ATOM     77  C   UNL A   1      45.650  25.741  35.593  1.00  0.00     0.200 A 
ATOM     78  F   UNL A   1      44.939  24.232  33.925  1.00  0.00    -0.200 F 
ATOM     79  F   UNL A   1      46.515  24.834  36.064  1.00  0.00    -0.200 F 
ENDBRANCH  55  69
BRANCH  56  80
ATOM     80  C   UNL A   1      42.613  25.163  26.592  1.00  0.00     0.064 A 
ATOM     81  C   UNL A   1      43.447  24.890  25.493  1.00  0.00     0.173 A 
ATOM     82  C   UNL A   1      41.857  24.078  27.078  1.00  0.00     0.173 A 
ATOM     83  F   UNL A   1      44.237  25.849  24.987  1.00  0.00    -0.203 F 
ATOM     84  C   UNL A   1      43.547  23.606  24.942  1.00  0.00     0.198 A 
ATOM     85  C   UNL A   1      41.952  22.801  26.523  1.00  0.00     0.198 A 
ATOM     86  F   UNL A   1      41.085  24.207  28.166  1.00  0.00    -0.203 F 
ATOM     87  F   UNL A   1      44.409  23.372  23.943  1.00  0.00    -0.200 F 
ATOM     88  C   UNL A   1      42.809  22.559  25.466  1.00  0.00     0.200 A 
ATOM     89  F   UNL A   1      41.257  21.789  27.065  1.00  0.00    -0.200 F 
ATOM     90  F   UNL A   1      42.953  21.317  24.985  1.00  0.00    -0.200 F 
ENDBRANCH  56  80
BRANCH  68  91
ATOM     91  C   UNL A   1      45.320  30.514  28.453  1.00  0.00     0.064 A 
ATOM     92  C   UNL A   1      44.254  31.112  27.757  1.00  0.00     0.173 A 
ATOM     93  C   UNL A   1      46.614  30.964  28.151  1.00  0.00     0.173 A 
ATOM     94  F   UNL A   1      42.980  30.826  28.057  1.00  0.00    -0.203 F 
ATOM     95  C   UNL A   1      44.483  32.072  26.772  1.00  0.00     0.198 A 
ATOM     96  C   UNL A   1      46.836  31.953  27.198  1.00  0.00     0.198 A 
ATOM     97  F   UNL A   1      47.670  30.470  28.816  1.00  0.00    -0.203 F 
ATOM     98  F   UNL A   1      43.450  32.613  26.107  1.00  0.00    -0.200 F 
ATOM     99  C   UNL A   1      45.773  32.496  26.497  1.00  0.00     0.200 A 
ATOM    100  F   UNL A   1      48.081  32.395  26.975  1.00  0.00    -0.200 F 
ATOM    101  F   UNL A   1      45.990  33.446  25.577  1.00  0.00    -0.200 F 
ENDBRANCH  68  91
ENDBRANCH  42  43
ENDBRANCH  34  37
ENDBRANCH  32  33
ENDBRANCH  31  32
ENDBRANCH  30  31
ENDBRANCH   1  30
TORSDOF 16
ENDMDL
MODEL 3
REMARK VINA RESULT:     -12.9      3.008      9.081
REMARK SMILES CCn1c(CC2CC[NH+](Cc3cn[nH]c3C(=O)NCCCCNC(=O)c3ccc(-c4c5nc(c(-c6c(F)c(F)c(F)c(F)c6F)c6ccc([nH]6)c(-c6c(F)c(F)c(F)c(F)c6F)c6nc(c(-c7c(F)c(F)c(F)c(F)c7F)c7ccc4[nH]7)C=C6)C=C5)cc3)CC2)nn(C)c1=O
REMARK SMILES IDX 19 1 18 2 16 3 17 4 15 6 11 7 12 8 13 9 14 10 10 12 9 13
REMARK SMILES IDX 6 14 7 15 90 16 8 17 89 18 5 20 4 21 3 22 94 23 91 24 92 25
REMARK SMILES IDX 95 26 93 27 2 28 1 29 20 30 21 31 22 32 23 33 24 34 25 36
REMARK SMILES IDX 26 37 27 38 88 39 28 40 87 41 29 42 30 43 31 44 81 45 32 46
REMARK SMILES IDX 86 47 80 48 82 49 33 50 85 51 79 52 78 53 34 55 66 56 46 57
REMARK SMILES IDX 65 58 47 59 50 60 64 61 83 62 48 63 49 64 63 66 84 67 51 68
REMARK SMILES IDX 35 69 36 70 44 71 37 72 38 73 42 74 45 75 39 76 40 77 43 78
REMARK SMILES IDX 41 79 67 80 68 81 76 82 69 83 70 84 74 85 77 86 71 87 72 88
REMARK SMILES IDX 75 89 73 90 52 91 53 92 61 93 54 94 55 95 59 96 62 97 56 98
REMARK SMILES IDX 57 99 60 100 58 101
REMARK H PARENT 18 5 14 11 9 19 23 35 82 54 50 65
REMARK Flexibility Score: inf
ROOT
ATOM      1  C   UNL A   1      36.206  20.665  25.001  1.00  0.00     0.116 C 
ENDROOT
BRANCH   1   2
ATOM      2  N   UNL A   1      35.401  21.062  26.128  1.00  0.00    -0.351 N 
ATOM      3  C   UNL A   1      34.071  20.877  26.382  1.00  0.00     0.269 C 
ATOM      4  O   UNL A   1      33.643  21.419  27.404  1.00  0.00    -0.268 OA
ATOM      5  H   UNL A   1      35.890  21.546  26.831  1.00  0.00     0.163 HD
BRANCH   3   6
ATOM      6  C   UNL A   1      33.240  19.979  25.616  1.00  0.00     0.131 A 
ATOM      7  C   UNL A   1      32.586  19.905  24.379  1.00  0.00     0.057 A 
ATOM      8  C   UNL A   1      32.153  18.555  24.318  1.00  0.00     0.145 A 
ATOM      9  N   UNL A   1      32.392  17.870  25.428  1.00  0.00    -0.183 NA
ATOM     10  N   UNL A   1      32.903  18.795  26.244  1.00  0.00    -0.272 N 
ATOM     11  H   UNL A   1      33.029  18.648  27.209  1.00  0.00     0.190 HD
BRANCH   7  12
ATOM     12  C   UNL A   1      32.377  20.836  23.223  1.00  0.00     0.303 C 
BRANCH  12  13
ATOM     13  N   UNL A   1      32.833  22.228  23.384  1.00  0.00    -0.331 N 
ATOM     14  C   UNL A   1      32.641  25.183  23.262  1.00  0.00     0.008 C 
ATOM     15  C   UNL A   1      33.356  24.374  22.179  1.00  0.00     0.065 C 
ATOM     16  C   UNL A   1      32.732  24.415  24.577  1.00  0.00     0.065 C 
ATOM     17  C   UNL A   1      32.902  22.917  22.093  1.00  0.00     0.262 C 
ATOM     18  C   UNL A   1      32.202  22.989  24.454  1.00  0.00     0.262 C 
ATOM     19  H   UNL A   1      33.789  22.162  23.736  1.00  0.00     0.348 HD
BRANCH  14  20
ATOM     20  C   UNL A   1      31.235  25.699  22.891  1.00  0.00     0.081 C 
BRANCH  20  21
ATOM     21  C   UNL A   1      30.858  27.154  23.073  1.00  0.00     0.133 A 
ATOM     22  N   UNL A   1      31.066  27.885  24.190  1.00  0.00    -0.279 N 
ATOM     23  C   UNL A   1      30.637  29.165  23.877  1.00  0.00     0.345 A 
ATOM     24  N   UNL A   1      30.354  27.828  22.073  1.00  0.00    -0.155 NA
ATOM     25  N   UNL A   1      30.194  29.095  22.562  1.00  0.00    -0.216 N 
ATOM     26  O   UNL A   1      30.654  30.141  24.612  1.00  0.00    -0.246 OA
ATOM     27  C   UNL A   1      29.615  30.166  21.796  1.00  0.00     0.179 C 
BRANCH  22  28
ATOM     28  C   UNL A   1      31.479  27.581  25.556  1.00  0.00     0.125 C 
ATOM     29  C   UNL A   1      32.923  27.866  25.908  1.00  0.00     0.028 C 
ENDBRANCH  22  28
ENDBRANCH  20  21
ENDBRANCH  14  20
ENDBRANCH  12  13
ENDBRANCH   7  12
ENDBRANCH   3   6
ENDBRANCH   1   2
BRANCH   1  30
ATOM     30  C   UNL A   1      37.089  21.837  24.569  1.00  0.00     0.023 C 
BRANCH  30  31
ATOM     31  C   UNL A   1      36.788  23.173  25.232  1.00  0.00     0.023 C 
BRANCH  31  32
ATOM     32  C   UNL A   1      37.822  23.563  26.277  1.00  0.00     0.116 C 
BRANCH  32  33
ATOM     33  N   UNL A   1      38.906  22.589  26.390  1.00  0.00    -0.352 N 
ATOM     34  C   UNL A   1      40.255  22.853  26.437  1.00  0.00     0.251 C 
ATOM     35  H   UNL A   1      38.641  21.642  26.437  1.00  0.00     0.163 HD
ATOM     36  O   UNL A   1      41.093  22.011  26.132  1.00  0.00    -0.269 OA
BRANCH  34  37
ATOM     37  C   UNL A   1      40.669  24.187  26.887  1.00  0.00     0.039 A 
ATOM     38  C   UNL A   1      40.241  25.327  26.215  1.00  0.00     0.014 A 
ATOM     39  C   UNL A   1      41.406  24.271  28.072  1.00  0.00     0.014 A 
ATOM     40  C   UNL A   1      40.486  26.564  26.797  1.00  0.00     0.010 A 
ATOM     41  C   UNL A   1      41.563  25.492  28.695  1.00  0.00     0.010 A 
ATOM     42  C   UNL A   1      41.112  26.645  28.059  1.00  0.00    -0.014 A 
BRANCH  42  43
ATOM     43  C   UNL A   1      41.108  27.928  28.766  1.00  0.00     0.031 A 
ATOM     44  C   UNL A   1      42.178  28.863  28.320  1.00  0.00     0.074 A 
ATOM     45  C   UNL A   1      40.172  28.341  29.648  1.00  0.00     0.049 A 
ATOM     46  N   UNL A   1      43.212  29.227  29.002  1.00  0.00    -0.248 NA
ATOM     47  C   UNL A   1      42.194  29.329  26.923  1.00  0.00     0.031 C 
ATOM     48  C   UNL A   1      38.907  27.701  30.008  1.00  0.00     0.029 A 
ATOM     49  N   UNL A   1      40.132  29.500  30.366  1.00  0.00    -0.354 N 
ATOM     50  C   UNL A   1      43.911  30.123  28.203  1.00  0.00     0.074 A 
ATOM     51  C   UNL A   1      43.336  30.023  26.886  1.00  0.00     0.031 C 
ATOM     52  C   UNL A   1      38.131  28.579  30.682  1.00  0.00     0.029 A 
ATOM     53  C   UNL A   1      38.898  29.785  30.940  1.00  0.00     0.049 A 
ATOM     54  H   UNL A   1      40.915  30.088  30.471  1.00  0.00     0.167 HD
ATOM     55  C   UNL A   1      44.735  31.047  28.770  1.00  0.00     0.037 A 
ATOM     56  C   UNL A   1      38.526  30.937  31.560  1.00  0.00     0.037 A 
ATOM     57  C   UNL A   1      45.101  30.662  30.113  1.00  0.00     0.049 A 
ATOM     58  C   UNL A   1      39.767  31.626  31.995  1.00  0.00     0.074 A 
ATOM     59  C   UNL A   1      45.665  29.524  30.667  1.00  0.00     0.029 A 
ATOM     60  N   UNL A   1      44.520  31.323  31.168  1.00  0.00    -0.354 N 
ATOM     61  N   UNL A   1      40.543  31.183  32.945  1.00  0.00    -0.248 NA
ATOM     62  C   UNL A   1      40.393  32.542  31.053  1.00  0.00     0.031 C 
ATOM     63  C   UNL A   1      44.929  29.301  31.868  1.00  0.00     0.029 A 
ATOM     64  C   UNL A   1      44.042  30.364  32.026  1.00  0.00     0.049 A 
ATOM     65  H   UNL A   1      44.459  32.299  31.286  1.00  0.00     0.167 HD
ATOM     66  C   UNL A   1      41.824  31.366  32.454  1.00  0.00     0.074 A 
ATOM     67  C   UNL A   1      41.674  32.282  31.323  1.00  0.00     0.031 C 
ATOM     68  C   UNL A   1      42.846  30.535  32.812  1.00  0.00     0.037 A 
BRANCH  55  69
ATOM     69  C   UNL A   1      44.863  32.467  28.275  1.00  0.00     0.064 A 
ATOM     70  C   UNL A   1      46.146  32.984  28.003  1.00  0.00     0.173 A 
ATOM     71  C   UNL A   1      43.831  33.426  28.372  1.00  0.00     0.173 A 
ATOM     72  F   UNL A   1      47.206  32.166  27.912  1.00  0.00    -0.203 F 
ATOM     73  C   UNL A   1      46.388  34.359  27.932  1.00  0.00     0.198 A 
ATOM     74  C   UNL A   1      44.067  34.793  28.245  1.00  0.00     0.198 A 
ATOM     75  F   UNL A   1      42.579  33.099  28.712  1.00  0.00    -0.203 F 
ATOM     76  F   UNL A   1      47.646  34.806  27.816  1.00  0.00    -0.200 F 
ATOM     77  C   UNL A   1      45.350  35.262  28.061  1.00  0.00     0.200 A 
ATOM     78  F   UNL A   1      43.049  35.652  28.398  1.00  0.00    -0.200 F 
ATOM     79  F   UNL A   1      45.588  36.580  28.062  1.00  0.00    -0.200 F 
ENDBRANCH  55  69
BRANCH  56  80
ATOM     80  C   UNL A   1      37.203  31.615  31.559  1.00  0.00     0.064 A 
ATOM     81  C   UNL A   1      36.534  31.903  32.762  1.00  0.00     0.173 A 
ATOM     82  C   UNL A   1      36.704  32.252  30.406  1.00  0.00     0.173 A 
ATOM     83  F   UNL A   1      36.963  31.377  33.919  1.00  0.00    -0.203 F 
ATOM     84  C   UNL A   1      35.459  32.801  32.812  1.00  0.00     0.198 A 
ATOM     85  C   UNL A   1      35.628  33.140  30.456  1.00  0.00     0.198 A 
ATOM     86  F   UNL A   1      37.311  32.106  29.219  1.00  0.00    -0.203 F 
ATOM     87  F   UNL A   1      34.896  33.105  33.990  1.00  0.00    -0.200 F 
ATOM     88  C   UNL A   1      35.016  33.428  31.661  1.00  0.00     0.200 A 
ATOM     89  F   UNL A   1      35.234  33.767  29.338  1.00  0.00    -0.200 F 
ATOM     90  F   UNL A   1      34.034  34.338  31.717  1.00  0.00    -0.200 F 
ENDBRANCH  56  80
BRANCH  68  91
ATOM     91  C   UNL A   1      42.639  29.585  33.960  1.00  0.00     0.064 A 
ATOM     92  C   UNL A   1      41.981  28.346  33.866  1.00  0.00     0.173 A 
ATOM     93  C   UNL A   1      43.253  29.892  35.183  1.00  0.00     0.173 A 
ATOM     94  F   UNL A   1      41.460  27.920  32.707  1.00  0.00    -0.203 F 
ATOM     95  C   UNL A   1      41.899  27.486  34.962  1.00  0.00     0.198 A 
ATOM     96  C   UNL A   1      43.208  29.014  36.261  1.00  0.00     0.198 A 
ATOM     97  F   UNL A   1      43.942  31.037  35.321  1.00  0.00    -0.203 F 
ATOM     98  F   UNL A   1      41.247  26.318  34.854  1.00  0.00    -0.200 F 
ATOM     99  C   UNL A   1      42.519  27.818  36.156  1.00  0.00     0.200 A 
ATOM    100  F   UNL A   1      43.854  29.318  37.395  1.00  0.00    -0.200 F 
ATOM    101  F   UNL A   1      42.474  26.975  37.197  1.00  0.00    -0.200 F 
ENDBRANCH  68  91
ENDBRANCH  42  43
ENDBRANCH  34  37
ENDBRANCH  32  33
ENDBRANCH  31  32
ENDBRANCH  30  31
ENDBRANCH   1  30
TORSDOF 16
ENDMDL
