MODEL 1
REMARK VINA RESULT:     -13.9      0.000      0.000
REMARK SMILES O=C(NCCCCNC(=O)c1ccc(-c2c3nc(c(-c4c(F)c(F)c(F)c(F)c4F)c4ccc([nH]4)c(-c4c(F)c(F)c(F)c(F)c4F)c4nc(c(-c5c(F)c(F)c(F)c(F)c5F)c5ccc2[nH]5)C=C4)C=C3)cc1)C1=Cc2cc(Cl)cc(-c3ccccc3)c2O[C@@H]1C(F)(F)F
REMARK SMILES IDX 6 1 5 2 4 3 3 4 1 5 2 6 74 8 75 9 90 10 76 11 89 12 77 13
REMARK SMILES IDX 88 14 78 15 81 16 79 17 80 18 91 19 92 20 93 21 94 22 82 23
REMARK SMILES IDX 83 24 87 25 84 26 86 27 85 28 7 29 8 30 9 31 10 33 11 34
REMARK SMILES IDX 12 35 73 36 13 37 72 38 14 39 15 40 16 41 66 42 17 43 71 44
REMARK SMILES IDX 65 45 67 46 18 47 70 48 64 49 63 50 19 52 51 53 31 54 50 55
REMARK SMILES IDX 32 56 35 57 49 58 68 59 33 60 34 61 48 63 69 64 36 65 20 66
REMARK SMILES IDX 21 67 29 68 22 69 23 70 27 71 30 72 24 73 25 74 28 75 26 76
REMARK SMILES IDX 52 77 53 78 61 79 54 80 55 81 59 82 62 83 56 84 57 85 60 86
REMARK SMILES IDX 58 87 37 88 38 89 46 90 39 91 40 92 44 93 47 94 41 95 42 96
REMARK SMILES IDX 45 97 43 98
REMARK H PARENT 3 7 8 32 67 51 35 62
REMARK Flexibility Score: inf
ROOT
ATOM      1  C   UNL A   1      31.987  29.931  25.035  1.00  0.00     0.023 C 
ENDROOT
BRANCH   1   2
ATOM      2  C   UNL A   1      32.933  29.315  24.006  1.00  0.00     0.023 C 
BRANCH   2   3
ATOM      3  C   UNL A   1      32.297  28.677  22.775  1.00  0.00     0.116 C 
BRANCH   3   4
ATOM      4  N   UNL A   1      33.058  27.619  22.133  1.00  0.00    -0.352 N 
ATOM      5  O   UNL A   1      33.732  25.528  21.685  1.00  0.00    -0.270 OA
ATOM      6  C   UNL A   1      33.160  26.293  22.462  1.00  0.00     0.251 C 
ATOM      7  H   UNL A   1      33.579  27.897  21.346  1.00  0.00     0.163 HD
BRANCH   6   8
ATOM      8  C   UNL A   1      32.542  25.707  23.693  1.00  0.00     0.067 C 
ATOM      9  C   UNL A   1      31.775  24.602  23.666  1.00  0.00     0.025 C 
ATOM     10  C   UNL A   1      33.372  25.951  24.935  1.00  0.00     0.314 C 
ATOM     11  C   UNL A   1      32.527  23.421  24.173  1.00  0.00     0.019 A 
ATOM     12  O   UNL A   1      34.259  24.824  25.168  1.00  0.00    -0.475 OA
ATOM     13  C   UNL A   1      32.089  22.154  23.774  1.00  0.00     0.032 A 
ATOM     14  C   UNL A   1      33.796  23.587  24.770  1.00  0.00     0.135 A 
ATOM     15  C   UNL A   1      32.954  21.072  23.883  1.00  0.00     0.042 A 
ATOM     16  C   UNL A   1      34.681  22.498  24.853  1.00  0.00     0.026 A 
ATOM     17  Cl  UNL A   1      32.486  19.548  23.237  1.00  0.00    -0.084 Cl
ATOM     18  C   UNL A   1      34.238  21.239  24.401  1.00  0.00     0.033 A 
BRANCH  10  19
ATOM     19  C   UNL A   1      32.518  26.285  26.173  1.00  0.00     0.429 C 
ATOM     20  F   UNL A   1      33.150  27.152  26.997  1.00  0.00    -0.167 F 
ATOM     21  F   UNL A   1      31.343  26.862  25.821  1.00  0.00    -0.167 F 
ATOM     22  F   UNL A   1      32.211  25.188  26.908  1.00  0.00    -0.167 F 
ENDBRANCH  10  19
BRANCH  16  23
ATOM     23  C   UNL A   1      36.095  22.646  25.227  1.00  0.00    -0.015 A 
ATOM     24  C   UNL A   1      36.985  21.569  25.061  1.00  0.00     0.009 A 
ATOM     25  C   UNL A   1      36.568  23.810  25.841  1.00  0.00     0.009 A 
ATOM     26  C   UNL A   1      38.293  21.632  25.544  1.00  0.00     0.001 A 
ATOM     27  C   UNL A   1      37.883  23.882  26.309  1.00  0.00     0.001 A 
ATOM     28  C   UNL A   1      38.739  22.788  26.176  1.00  0.00     0.000 A 
ENDBRANCH  16  23
ENDBRANCH   6   8
ENDBRANCH   3   4
ENDBRANCH   2   3
ENDBRANCH   1   2
BRANCH   1  29
ATOM     29  C   UNL A   1      32.500  30.113  26.464  1.00  0.00     0.116 C 
BRANCH  29  30
ATOM     30  N   UNL A   1      32.433  31.462  27.009  1.00  0.00    -0.352 N 
ATOM     31  C   UNL A   1      33.457  32.209  27.564  1.00  0.00     0.251 C 
ATOM     32  H   UNL A   1      31.551  31.897  26.978  1.00  0.00     0.163 HD
ATOM     33  O   UNL A   1      33.260  33.357  27.951  1.00  0.00    -0.269 OA
BRANCH  31  34
ATOM     34  C   UNL A   1      34.781  31.582  27.775  1.00  0.00     0.039 A 
ATOM     35  C   UNL A   1      35.889  32.416  27.942  1.00  0.00     0.014 A 
ATOM     36  C   UNL A   1      34.905  30.200  27.945  1.00  0.00     0.014 A 
ATOM     37  C   UNL A   1      37.084  31.885  28.433  1.00  0.00     0.010 A 
ATOM     38  C   UNL A   1      36.078  29.682  28.496  1.00  0.00     0.010 A 
ATOM     39  C   UNL A   1      37.156  30.529  28.797  1.00  0.00    -0.014 A 
BRANCH  39  40
ATOM     40  C   UNL A   1      38.285  30.032  29.628  1.00  0.00     0.031 A 
ATOM     41  C   UNL A   1      38.516  30.537  31.020  1.00  0.00     0.074 A 
ATOM     42  C   UNL A   1      39.167  29.175  29.074  1.00  0.00     0.049 A 
ATOM     43  N   UNL A   1      39.471  30.225  31.861  1.00  0.00    -0.248 NA
ATOM     44  C   UNL A   1      37.567  31.538  31.526  1.00  0.00     0.031 C 
ATOM     45  C   UNL A   1      39.102  28.670  27.701  1.00  0.00     0.029 A 
ATOM     46  N   UNL A   1      40.301  28.591  29.587  1.00  0.00    -0.354 N 
ATOM     47  C   UNL A   1      39.238  30.987  32.996  1.00  0.00     0.074 A 
ATOM     48  C   UNL A   1      38.082  31.815  32.716  1.00  0.00     0.031 C 
ATOM     49  C   UNL A   1      40.138  27.845  27.486  1.00  0.00     0.029 A 
ATOM     50  C   UNL A   1      40.958  27.785  28.691  1.00  0.00     0.049 A 
ATOM     51  H   UNL A   1      40.611  28.738  30.510  1.00  0.00     0.167 HD
ATOM     52  C   UNL A   1      39.915  30.981  34.170  1.00  0.00     0.037 A 
ATOM     53  C   UNL A   1      42.098  27.079  28.818  1.00  0.00     0.037 A 
ATOM     54  C   UNL A   1      41.061  30.155  34.449  1.00  0.00     0.049 A 
ATOM     55  C   UNL A   1      42.834  27.092  30.128  1.00  0.00     0.074 A 
ATOM     56  C   UNL A   1      41.755  30.015  35.639  1.00  0.00     0.029 A 
ATOM     57  N   UNL A   1      41.694  29.341  33.522  1.00  0.00    -0.354 N 
ATOM     58  N   UNL A   1      42.542  27.736  31.231  1.00  0.00    -0.248 NA
ATOM     59  C   UNL A   1      44.054  26.276  30.213  1.00  0.00     0.031 C 
ATOM     60  C   UNL A   1      42.836  29.155  35.418  1.00  0.00     0.029 A 
ATOM     61  C   UNL A   1      42.793  28.725  34.103  1.00  0.00     0.049 A 
ATOM     62  H   UNL A   1      41.407  29.218  32.588  1.00  0.00     0.167 HD
ATOM     63  C   UNL A   1      43.532  27.401  32.141  1.00  0.00     0.074 A 
ATOM     64  C   UNL A   1      44.424  26.478  31.470  1.00  0.00     0.031 C 
ATOM     65  C   UNL A   1      43.687  27.824  33.420  1.00  0.00     0.037 A 
BRANCH  52  66
ATOM     66  C   UNL A   1      39.424  31.902  35.248  1.00  0.00     0.064 A 
ATOM     67  C   UNL A   1      38.545  31.457  36.248  1.00  0.00     0.173 A 
ATOM     68  C   UNL A   1      39.858  33.236  35.301  1.00  0.00     0.173 A 
ATOM     69  F   UNL A   1      38.097  30.194  36.237  1.00  0.00    -0.203 F 
ATOM     70  C   UNL A   1      38.091  32.323  37.240  1.00  0.00     0.198 A 
ATOM     71  C   UNL A   1      39.423  34.091  36.309  1.00  0.00     0.198 A 
ATOM     72  F   UNL A   1      40.705  33.709  34.374  1.00  0.00    -0.203 F 
ATOM     73  F   UNL A   1      37.212  31.889  38.153  1.00  0.00    -0.200 F 
ATOM     74  C   UNL A   1      38.533  33.637  37.273  1.00  0.00     0.200 A 
ATOM     75  F   UNL A   1      39.858  35.358  36.347  1.00  0.00    -0.200 F 
ATOM     76  F   UNL A   1      38.094  34.469  38.226  1.00  0.00    -0.200 F 
ENDBRANCH  52  66
BRANCH  53  77
ATOM     77  C   UNL A   1      42.602  26.293  27.664  1.00  0.00     0.064 A 
ATOM     78  C   UNL A   1      42.102  25.013  27.388  1.00  0.00     0.173 A 
ATOM     79  C   UNL A   1      43.570  26.819  26.796  1.00  0.00     0.173 A 
ATOM     80  F   UNL A   1      41.189  24.463  28.202  1.00  0.00    -0.203 F 
ATOM     81  C   UNL A   1      42.555  24.286  26.290  1.00  0.00     0.198 A 
ATOM     82  C   UNL A   1      44.006  26.099  25.685  1.00  0.00     0.198 A 
ATOM     83  F   UNL A   1      44.075  28.042  27.014  1.00  0.00    -0.203 F 
ATOM     84  F   UNL A   1      42.081  23.053  26.064  1.00  0.00    -0.200 F 
ATOM     85  C   UNL A   1      43.501  24.832  25.435  1.00  0.00     0.200 A 
ATOM     86  F   UNL A   1      44.909  26.638  24.853  1.00  0.00    -0.200 F 
ATOM     87  F   UNL A   1      43.927  24.137  24.372  1.00  0.00    -0.200 F 
ENDBRANCH  53  77
BRANCH  65  88
ATOM     88  C   UNL A   1      44.872  27.299  34.177  1.00  0.00     0.064 A 
ATOM     89  C   UNL A   1      44.806  26.091  34.887  1.00  0.00     0.173 A 
ATOM     90  C   UNL A   1      46.095  27.986  34.159  1.00  0.00     0.173 A 
ATOM     91  F   UNL A   1      43.654  25.407  34.949  1.00  0.00    -0.203 F 
ATOM     92  C   UNL A   1      45.918  25.598  35.564  1.00  0.00     0.198 A 
ATOM     93  C   UNL A   1      47.211  27.478  34.817  1.00  0.00     0.198 A 
ATOM     94  F   UNL A   1      46.210  29.145  33.493  1.00  0.00    -0.203 F 
ATOM     95  F   UNL A   1      45.822  24.461  36.267  1.00  0.00    -0.200 F 
ATOM     96  C   UNL A   1      47.121  26.287  35.523  1.00  0.00     0.200 A 
ATOM     97  F   UNL A   1      48.375  28.140  34.768  1.00  0.00    -0.200 F 
ATOM     98  F   UNL A   1      48.192  25.807  36.169  1.00  0.00    -0.200 F 
ENDBRANCH  65  88
ENDBRANCH  39  40
ENDBRANCH  31  34
ENDBRANCH  29  30
ENDBRANCH   1  29
TORSDOF 13
ENDMDL
MODEL 2
REMARK VINA RESULT:     -13.9      0.094      1.601
REMARK SMILES O=C(NCCCCNC(=O)c1ccc(-c2c3nc(c(-c4c(F)c(F)c(F)c(F)c4F)c4ccc([nH]4)c(-c4c(F)c(F)c(F)c(F)c4F)c4nc(c(-c5c(F)c(F)c(F)c(F)c5F)c5ccc2[nH]5)C=C4)C=C3)cc1)C1=Cc2cc(Cl)cc(-c3ccccc3)c2O[C@@H]1C(F)(F)F
REMARK SMILES IDX 6 1 5 2 4 3 3 4 1 5 2 6 74 8 75 9 90 10 76 11 89 12 77 13
REMARK SMILES IDX 88 14 78 15 81 16 79 17 80 18 91 19 92 20 93 21 94 22 82 23
REMARK SMILES IDX 83 24 87 25 84 26 86 27 85 28 7 29 8 30 9 31 10 33 11 34
REMARK SMILES IDX 12 35 73 36 13 37 72 38 14 39 15 40 16 41 66 42 17 43 71 44
REMARK SMILES IDX 65 45 67 46 18 47 70 48 64 49 63 50 19 52 51 53 31 54 50 55
REMARK SMILES IDX 32 56 35 57 49 58 68 59 33 60 34 61 48 63 69 64 36 65 20 66
REMARK SMILES IDX 21 67 29 68 22 69 23 70 27 71 30 72 24 73 25 74 28 75 26 76
REMARK SMILES IDX 52 77 53 78 61 79 54 80 55 81 59 82 62 83 56 84 57 85 60 86
REMARK SMILES IDX 58 87 37 88 38 89 46 90 39 91 40 92 44 93 47 94 41 95 42 96
REMARK SMILES IDX 45 97 43 98
REMARK H PARENT 3 7 8 32 67 51 35 62
REMARK Flexibility Score: inf
ROOT
ATOM      1  C   UNL A   1      31.946  29.941  25.161  1.00  0.00     0.023 C 
ENDROOT
BRANCH   1   2
ATOM      2  C   UNL A   1      32.909  29.331  24.144  1.00  0.00     0.023 C 
BRANCH   2   3
ATOM      3  C   UNL A   1      32.300  28.781  22.858  1.00  0.00     0.116 C 
BRANCH   3   4
ATOM      4  N   UNL A   1      33.052  27.735  22.186  1.00  0.00    -0.352 N 
ATOM      5  O   UNL A   1      33.701  25.651  21.673  1.00  0.00    -0.270 OA
ATOM      6  C   UNL A   1      33.135  26.397  22.472  1.00  0.00     0.251 C 
ATOM      7  H   UNL A   1      33.581  28.032  21.411  1.00  0.00     0.163 HD
BRANCH   6   8
ATOM      8  C   UNL A   1      32.501  25.779  23.678  1.00  0.00     0.067 C 
ATOM      9  C   UNL A   1      31.720  24.687  23.610  1.00  0.00     0.025 C 
ATOM     10  C   UNL A   1      33.326  25.971  24.933  1.00  0.00     0.314 C 
ATOM     11  C   UNL A   1      32.453  23.479  24.083  1.00  0.00     0.019 A 
ATOM     12  O   UNL A   1      34.197  24.826  25.134  1.00  0.00    -0.475 OA
ATOM     13  C   UNL A   1      32.001  22.232  23.640  1.00  0.00     0.032 A 
ATOM     14  C   UNL A   1      33.720  23.610  24.693  1.00  0.00     0.135 A 
ATOM     15  C   UNL A   1      32.851  21.136  23.718  1.00  0.00     0.042 A 
ATOM     16  C   UNL A   1      34.591  22.506  24.746  1.00  0.00     0.026 A 
ATOM     17  Cl  UNL A   1      32.368  19.641  23.019  1.00  0.00    -0.084 Cl
ATOM     18  C   UNL A   1      34.134  21.269  24.249  1.00  0.00     0.033 A 
BRANCH  10  19
ATOM     19  C   UNL A   1      32.467  26.276  26.176  1.00  0.00     0.429 C 
ATOM     20  F   UNL A   1      32.210  25.156  26.891  1.00  0.00    -0.167 F 
ATOM     21  F   UNL A   1      33.095  27.140  27.011  1.00  0.00    -0.167 F 
ATOM     22  F   UNL A   1      31.272  26.832  25.862  1.00  0.00    -0.167 F 
ENDBRANCH  10  19
BRANCH  16  23
ATOM     23  C   UNL A   1      36.004  22.623  25.132  1.00  0.00    -0.015 A 
ATOM     24  C   UNL A   1      36.870  21.525  24.982  1.00  0.00     0.009 A 
ATOM     25  C   UNL A   1      36.498  23.780  25.744  1.00  0.00     0.009 A 
ATOM     26  C   UNL A   1      38.174  21.561  25.478  1.00  0.00     0.001 A 
ATOM     27  C   UNL A   1      37.810  23.824  26.226  1.00  0.00     0.001 A 
ATOM     28  C   UNL A   1      38.641  22.710  26.108  1.00  0.00     0.000 A 
ENDBRANCH  16  23
ENDBRANCH   6   8
ENDBRANCH   3   4
ENDBRANCH   2   3
ENDBRANCH   1   2
BRANCH   1  29
ATOM     29  C   UNL A   1      32.450  30.151  26.589  1.00  0.00     0.116 C 
BRANCH  29  30
ATOM     30  N   UNL A   1      32.421  31.518  27.092  1.00  0.00    -0.352 N 
ATOM     31  C   UNL A   1      33.470  32.262  27.602  1.00  0.00     0.251 C 
ATOM     32  H   UNL A   1      31.547  31.969  27.064  1.00  0.00     0.163 HD
ATOM     33  O   UNL A   1      33.304  33.425  27.956  1.00  0.00    -0.269 OA
BRANCH  31  34
ATOM     34  C   UNL A   1      34.786  31.615  27.807  1.00  0.00     0.039 A 
ATOM     35  C   UNL A   1      35.909  32.433  27.956  1.00  0.00     0.014 A 
ATOM     36  C   UNL A   1      34.889  30.233  27.988  1.00  0.00     0.014 A 
ATOM     37  C   UNL A   1      37.100  31.886  28.441  1.00  0.00     0.010 A 
ATOM     38  C   UNL A   1      36.058  29.701  28.534  1.00  0.00     0.010 A 
ATOM     39  C   UNL A   1      37.153  30.533  28.816  1.00  0.00    -0.014 A 
BRANCH  39  40
ATOM     40  C   UNL A   1      38.281  30.026  29.642  1.00  0.00     0.031 A 
ATOM     41  C   UNL A   1      38.523  30.527  31.033  1.00  0.00     0.074 A 
ATOM     42  C   UNL A   1      39.153  29.161  29.084  1.00  0.00     0.049 A 
ATOM     43  N   UNL A   1      39.480  30.206  31.869  1.00  0.00    -0.248 NA
ATOM     44  C   UNL A   1      37.587  31.537  31.544  1.00  0.00     0.031 C 
ATOM     45  C   UNL A   1      39.077  28.656  27.711  1.00  0.00     0.029 A 
ATOM     46  N   UNL A   1      40.283  28.566  29.591  1.00  0.00    -0.354 N 
ATOM     47  C   UNL A   1      39.260  30.971  33.006  1.00  0.00     0.074 A 
ATOM     48  C   UNL A   1      38.110  31.809  32.731  1.00  0.00     0.031 C 
ATOM     49  C   UNL A   1      40.104  27.822  27.490  1.00  0.00     0.029 A 
ATOM     50  C   UNL A   1      40.928  27.754  28.692  1.00  0.00     0.049 A 
ATOM     51  H   UNL A   1      40.599  28.709  30.512  1.00  0.00     0.167 HD
ATOM     52  C   UNL A   1      39.942  30.958  34.176  1.00  0.00     0.037 A 
ATOM     53  C   UNL A   1      42.063  27.038  28.812  1.00  0.00     0.037 A 
ATOM     54  C   UNL A   1      41.082  30.121  34.450  1.00  0.00     0.049 A 
ATOM     55  C   UNL A   1      42.805  27.043  30.118  1.00  0.00     0.074 A 
ATOM     56  C   UNL A   1      41.780  29.974  35.636  1.00  0.00     0.029 A 
ATOM     57  N   UNL A   1      41.703  29.301  33.519  1.00  0.00    -0.354 N 
ATOM     58  N   UNL A   1      42.524  27.690  31.223  1.00  0.00    -0.248 NA
ATOM     59  C   UNL A   1      44.018  26.216  30.198  1.00  0.00     0.031 C 
ATOM     60  C   UNL A   1      42.853  29.104  35.410  1.00  0.00     0.029 A 
ATOM     61  C   UNL A   1      42.799  28.675  34.094  1.00  0.00     0.049 A 
ATOM     62  H   UNL A   1      41.410  29.181  32.587  1.00  0.00     0.167 HD
ATOM     63  C   UNL A   1      43.516  27.345  32.129  1.00  0.00     0.074 A 
ATOM     64  C   UNL A   1      44.396  26.414  31.453  1.00  0.00     0.031 C 
ATOM     65  C   UNL A   1      43.681  27.766  33.407  1.00  0.00     0.037 A 
BRANCH  52  66
ATOM     66  C   UNL A   1      39.466  31.883  35.257  1.00  0.00     0.064 A 
ATOM     67  C   UNL A   1      39.892  33.218  35.319  1.00  0.00     0.173 A 
ATOM     68  C   UNL A   1      38.552  31.440  36.226  1.00  0.00     0.173 A 
ATOM     69  F   UNL A   1      40.770  33.688  34.420  1.00  0.00    -0.203 F 
ATOM     70  C   UNL A   1      39.450  34.067  36.331  1.00  0.00     0.198 A 
ATOM     71  C   UNL A   1      38.092  32.298  37.220  1.00  0.00     0.198 A 
ATOM     72  F   UNL A   1      38.107  30.174  36.207  1.00  0.00    -0.203 F 
ATOM     73  F   UNL A   1      39.911  35.322  36.399  1.00  0.00    -0.200 F 
ATOM     74  C   UNL A   1      38.547  33.608  37.278  1.00  0.00     0.200 A 
ATOM     75  F   UNL A   1      37.210  31.857  38.130  1.00  0.00    -0.200 F 
ATOM     76  F   UNL A   1      38.123  34.424  38.252  1.00  0.00    -0.200 F 
ENDBRANCH  52  66
BRANCH  53  77
ATOM     77  C   UNL A   1      42.554  26.247  27.656  1.00  0.00     0.064 A 
ATOM     78  C   UNL A   1      42.038  24.973  27.380  1.00  0.00     0.173 A 
ATOM     79  C   UNL A   1      43.525  26.763  26.785  1.00  0.00     0.173 A 
ATOM     80  F   UNL A   1      41.121  24.433  28.196  1.00  0.00    -0.203 F 
ATOM     81  C   UNL A   1      42.479  24.242  26.279  1.00  0.00     0.198 A 
ATOM     82  C   UNL A   1      43.949  26.040  25.672  1.00  0.00     0.198 A 
ATOM     83  F   UNL A   1      44.045  27.979  27.003  1.00  0.00    -0.203 F 
ATOM     84  F   UNL A   1      41.990  23.016  26.054  1.00  0.00    -0.200 F 
ATOM     85  C   UNL A   1      43.428  24.779  25.422  1.00  0.00     0.200 A 
ATOM     86  F   UNL A   1      44.855  26.569  24.838  1.00  0.00    -0.200 F 
ATOM     87  F   UNL A   1      43.843  24.080  24.357  1.00  0.00    -0.200 F 
ENDBRANCH  53  77
BRANCH  65  88
ATOM     88  C   UNL A   1      44.865  27.230  34.157  1.00  0.00     0.064 A 
ATOM     89  C   UNL A   1      46.085  27.922  34.183  1.00  0.00     0.173 A 
ATOM     90  C   UNL A   1      44.768  26.038  34.891  1.00  0.00     0.173 A 
ATOM     91  F   UNL A   1      46.233  29.056  33.483  1.00  0.00    -0.203 F 
ATOM     92  C   UNL A   1      47.171  27.431  34.904  1.00  0.00     0.198 A 
ATOM     93  C   UNL A   1      45.848  25.562  35.630  1.00  0.00     0.198 A 
ATOM     94  F   UNL A   1      43.623  25.341  34.900  1.00  0.00    -0.203 F 
ATOM     95  F   UNL A   1      48.338  28.088  34.884  1.00  0.00    -0.200 F 
ATOM     96  C   UNL A   1      47.049  26.257  35.633  1.00  0.00     0.200 A 
ATOM     97  F   UNL A   1      45.726  24.434  36.340  1.00  0.00    -0.200 F 
ATOM     98  F   UNL A   1      48.092  25.790  36.331  1.00  0.00    -0.200 F 
ENDBRANCH  65  88
ENDBRANCH  39  40
ENDBRANCH  31  34
ENDBRANCH  29  30
ENDBRANCH   1  29
TORSDOF 13
ENDMDL
MODEL 3
REMARK VINA RESULT:     -13.8      3.258      4.676
REMARK SMILES O=C(NCCCCNC(=O)c1ccc(-c2c3nc(c(-c4c(F)c(F)c(F)c(F)c4F)c4ccc([nH]4)c(-c4c(F)c(F)c(F)c(F)c4F)c4nc(c(-c5c(F)c(F)c(F)c(F)c5F)c5ccc2[nH]5)C=C4)C=C3)cc1)C1=Cc2cc(Cl)cc(-c3ccccc3)c2O[C@@H]1C(F)(F)F
REMARK SMILES IDX 6 1 5 2 4 3 3 4 1 5 2 6 74 8 75 9 90 10 76 11 89 12 77 13
REMARK SMILES IDX 88 14 78 15 81 16 79 17 80 18 91 19 92 20 93 21 94 22 82 23
REMARK SMILES IDX 83 24 87 25 84 26 86 27 85 28 7 29 8 30 9 31 10 33 11 34
REMARK SMILES IDX 12 35 73 36 13 37 72 38 14 39 15 40 16 41 66 42 17 43 71 44
REMARK SMILES IDX 65 45 67 46 18 47 70 48 64 49 63 50 19 52 51 53 31 54 50 55
REMARK SMILES IDX 32 56 35 57 49 58 68 59 33 60 34 61 48 63 69 64 36 65 20 66
REMARK SMILES IDX 21 67 29 68 22 69 23 70 27 71 30 72 24 73 25 74 28 75 26 76
REMARK SMILES IDX 52 77 53 78 61 79 54 80 55 81 59 82 62 83 56 84 57 85 60 86
REMARK SMILES IDX 58 87 37 88 38 89 46 90 39 91 40 92 44 93 47 94 41 95 42 96
REMARK SMILES IDX 45 97 43 98
REMARK H PARENT 3 7 8 32 67 51 35 62
REMARK Flexibility Score: inf
ROOT
ATOM      1  C   UNL A   1      33.241  28.379  27.297  1.00  0.00     0.023 C 
ENDROOT
BRANCH   1   2
ATOM      2  C   UNL A   1      31.754  28.030  27.254  1.00  0.00     0.023 C 
BRANCH   2   3
ATOM      3  C   UNL A   1      31.338  26.891  26.329  1.00  0.00     0.116 C 
BRANCH   3   4
ATOM      4  N   UNL A   1      31.485  25.546  26.860  1.00  0.00    -0.352 N 
ATOM      5  O   UNL A   1      32.385  23.510  27.133  1.00  0.00    -0.270 OA
ATOM      6  C   UNL A   1      32.291  24.522  26.437  1.00  0.00     0.251 C 
ATOM      7  H   UNL A   1      30.919  25.340  27.639  1.00  0.00     0.163 HD
BRANCH   6   8
ATOM      8  C   UNL A   1      33.130  24.601  25.201  1.00  0.00     0.067 C 
ATOM      9  C   UNL A   1      34.449  24.860  25.232  1.00  0.00     0.025 C 
ATOM     10  C   UNL A   1      32.621  23.704  24.092  1.00  0.00     0.314 C 
ATOM     11  C   UNL A   1      35.241  23.620  25.001  1.00  0.00     0.019 A 
ATOM     12  O   UNL A   1      33.295  22.419  24.145  1.00  0.00    -0.475 OA
ATOM     13  C   UNL A   1      36.558  23.594  25.470  1.00  0.00     0.032 A 
ATOM     14  C   UNL A   1      34.595  22.427  24.606  1.00  0.00     0.135 A 
ATOM     15  C   UNL A   1      37.195  22.371  25.636  1.00  0.00     0.042 A 
ATOM     16  C   UNL A   1      35.230  21.188  24.801  1.00  0.00     0.026 A 
ATOM     17  Cl  UNL A   1      38.748  22.320  26.374  1.00  0.00    -0.084 Cl
ATOM     18  C   UNL A   1      36.539  21.181  25.321  1.00  0.00     0.033 A 
BRANCH  10  19
ATOM     19  C   UNL A   1      32.718  24.356  22.700  1.00  0.00     0.429 C 
ATOM     20  F   UNL A   1      33.738  25.244  22.635  1.00  0.00    -0.167 F 
ATOM     21  F   UNL A   1      32.942  23.430  21.735  1.00  0.00    -0.167 F 
ATOM     22  F   UNL A   1      31.589  25.020  22.353  1.00  0.00    -0.167 F 
ENDBRANCH  10  19
BRANCH  16  23
ATOM     23  C   UNL A   1      34.533  19.902  24.651  1.00  0.00    -0.015 A 
ATOM     24  C   UNL A   1      35.264  18.701  24.626  1.00  0.00     0.009 A 
ATOM     25  C   UNL A   1      33.152  19.844  24.431  1.00  0.00     0.009 A 
ATOM     26  C   UNL A   1      34.645  17.485  24.336  1.00  0.00     0.001 A 
ATOM     27  C   UNL A   1      32.528  18.624  24.159  1.00  0.00     0.001 A 
ATOM     28  C   UNL A   1      33.276  17.448  24.094  1.00  0.00     0.000 A 
ENDBRANCH  16  23
ENDBRANCH   6   8
ENDBRANCH   3   4
ENDBRANCH   2   3
ENDBRANCH   1   2
BRANCH   1  29
ATOM     29  C   UNL A   1      33.674  29.744  26.760  1.00  0.00     0.116 C 
BRANCH  29  30
ATOM     30  N   UNL A   1      33.751  30.827  27.731  1.00  0.00    -0.352 N 
ATOM     31  C   UNL A   1      34.807  31.152  28.564  1.00  0.00     0.251 C 
ATOM     32  H   UNL A   1      32.954  31.400  27.803  1.00  0.00     0.163 HD
ATOM     33  O   UNL A   1      34.744  32.125  29.310  1.00  0.00    -0.269 OA
BRANCH  31  34
ATOM     34  C   UNL A   1      35.988  30.262  28.619  1.00  0.00     0.039 A 
ATOM     35  C   UNL A   1      36.886  30.288  27.549  1.00  0.00     0.014 A 
ATOM     36  C   UNL A   1      36.279  29.520  29.767  1.00  0.00     0.014 A 
ATOM     37  C   UNL A   1      38.145  29.699  27.691  1.00  0.00     0.010 A 
ATOM     38  C   UNL A   1      37.559  28.989  29.933  1.00  0.00     0.010 A 
ATOM     39  C   UNL A   1      38.520  29.124  28.918  1.00  0.00    -0.014 A 
BRANCH  39  40
ATOM     40  C   UNL A   1      39.946  28.809  29.196  1.00  0.00     0.031 A 
ATOM     41  C   UNL A   1      40.854  29.799  29.860  1.00  0.00     0.074 A 
ATOM     42  C   UNL A   1      40.447  27.636  28.755  1.00  0.00     0.049 A 
ATOM     43  N   UNL A   1      42.127  29.687  30.145  1.00  0.00    -0.248 NA
ATOM     44  C   UNL A   1      40.262  31.091  30.231  1.00  0.00     0.031 C 
ATOM     45  C   UNL A   1      39.690  26.619  28.023  1.00  0.00     0.029 A 
ATOM     46  N   UNL A   1      41.713  27.108  28.840  1.00  0.00    -0.354 N 
ATOM     47  C   UNL A   1      42.491  30.891  30.731  1.00  0.00     0.074 A 
ATOM     48  C   UNL A   1      41.315  31.738  30.713  1.00  0.00     0.031 C 
ATOM     49  C   UNL A   1      40.499  25.587  27.738  1.00  0.00     0.029 A 
ATOM     50  C   UNL A   1      41.838  25.880  28.238  1.00  0.00     0.049 A 
ATOM     51  H   UNL A   1      42.459  27.567  29.290  1.00  0.00     0.167 HD
ATOM     52  C   UNL A   1      43.689  31.247  31.254  1.00  0.00     0.037 A 
ATOM     53  C   UNL A   1      42.911  25.078  28.094  1.00  0.00     0.037 A 
ATOM     54  C   UNL A   1      44.856  30.403  31.275  1.00  0.00     0.049 A 
ATOM     55  C   UNL A   1      44.231  25.496  28.678  1.00  0.00     0.074 A 
ATOM     56  C   UNL A   1      46.085  30.644  31.864  1.00  0.00     0.029 A 
ATOM     57  N   UNL A   1      44.944  29.160  30.666  1.00  0.00    -0.354 N 
ATOM     58  N   UNL A   1      44.534  26.595  29.325  1.00  0.00    -0.248 NA
ATOM     59  C   UNL A   1      45.355  24.564  28.516  1.00  0.00     0.031 C 
ATOM     60  C   UNL A   1      46.933  29.570  31.568  1.00  0.00     0.029 A 
ATOM     61  C   UNL A   1      46.219  28.639  30.832  1.00  0.00     0.049 A 
ATOM     62  H   UNL A   1      44.211  28.712  30.185  1.00  0.00     0.167 HD
ATOM     63  C   UNL A   1      45.876  26.485  29.654  1.00  0.00     0.074 A 
ATOM     64  C   UNL A   1      46.327  25.202  29.154  1.00  0.00     0.031 C 
ATOM     65  C   UNL A   1      46.665  27.371  30.312  1.00  0.00     0.037 A 
BRANCH  52  66
ATOM     66  C   UNL A   1      43.795  32.619  31.852  1.00  0.00     0.064 A 
ATOM     67  C   UNL A   1      44.192  33.724  31.083  1.00  0.00     0.173 A 
ATOM     68  C   UNL A   1      43.471  32.838  33.199  1.00  0.00     0.173 A 
ATOM     69  F   UNL A   1      44.520  33.565  29.792  1.00  0.00    -0.203 F 
ATOM     70  C   UNL A   1      44.295  34.992  31.651  1.00  0.00     0.198 A 
ATOM     71  C   UNL A   1      43.549  34.111  33.756  1.00  0.00     0.198 A 
ATOM     72  F   UNL A   1      43.078  31.816  33.975  1.00  0.00    -0.203 F 
ATOM     73  F   UNL A   1      44.725  36.022  30.910  1.00  0.00    -0.200 F 
ATOM     74  C   UNL A   1      43.969  35.185  32.985  1.00  0.00     0.200 A 
ATOM     75  F   UNL A   1      43.223  34.300  35.043  1.00  0.00    -0.200 F 
ATOM     76  F   UNL A   1      44.069  36.405  33.529  1.00  0.00    -0.200 F 
ENDBRANCH  52  66
BRANCH  53  77
ATOM     77  C   UNL A   1      42.768  23.790  27.371  1.00  0.00     0.064 A 
ATOM     78  C   UNL A   1      43.146  23.670  26.027  1.00  0.00     0.173 A 
ATOM     79  C   UNL A   1      42.279  22.646  28.018  1.00  0.00     0.173 A 
ATOM     80  F   UNL A   1      43.600  24.742  25.363  1.00  0.00    -0.203 F 
ATOM     81  C   UNL A   1      43.037  22.454  25.355  1.00  0.00     0.198 A 
ATOM     82  C   UNL A   1      42.192  21.425  27.352  1.00  0.00     0.198 A 
ATOM     83  F   UNL A   1      41.910  22.708  29.306  1.00  0.00    -0.203 F 
ATOM     84  F   UNL A   1      43.380  22.372  24.063  1.00  0.00    -0.200 F 
ATOM     85  C   UNL A   1      42.568  21.331  26.021  1.00  0.00     0.200 A 
ATOM     86  F   UNL A   1      41.752  20.339  28.003  1.00  0.00    -0.200 F 
ATOM     87  F   UNL A   1      42.474  20.159  25.378  1.00  0.00    -0.200 F 
ENDBRANCH  53  77
BRANCH  65  88
ATOM     88  C   UNL A   1      48.100  26.988  30.521  1.00  0.00     0.064 A 
ATOM     89  C   UNL A   1      48.483  26.142  31.573  1.00  0.00     0.173 A 
ATOM     90  C   UNL A   1      49.096  27.434  29.639  1.00  0.00     0.173 A 
ATOM     91  F   UNL A   1      47.570  25.704  32.452  1.00  0.00    -0.203 F 
ATOM     92  C   UNL A   1      49.814  25.770  31.743  1.00  0.00     0.198 A 
ATOM     93  C   UNL A   1      50.422  27.041  29.799  1.00  0.00     0.198 A 
ATOM     94  F   UNL A   1      48.781  28.243  28.617  1.00  0.00    -0.203 F 
ATOM     95  F   UNL A   1      50.163  24.992  32.777  1.00  0.00    -0.200 F 
ATOM     96  C   UNL A   1      50.781  26.213  30.853  1.00  0.00     0.200 A 
ATOM     97  F   UNL A   1      51.353  27.462  28.933  1.00  0.00    -0.200 F 
ATOM     98  F   UNL A   1      52.059  25.848  31.014  1.00  0.00    -0.200 F 
ENDBRANCH  65  88
ENDBRANCH  39  40
ENDBRANCH  31  34
ENDBRANCH  29  30
ENDBRANCH   1  29
TORSDOF 13
ENDMDL
