MODEL 1
REMARK VINA RESULT:     -11.2      0.000      0.000
REMARK SMILES Cn1nnnc1Sc1csc(C(=O)NCCCCNC(=O)c2ccc(-c3c4nc(c(-c5c(F)c(F)c(F)c(F)c5F)c5ccc([nH]5)c(-c5c(F)c(F)c(F)c(F)c5F)c5nc(c(-c6c(F)c(F)c(F)c(F)c6F)c6ccc3[nH]6)C=C5)C=C4)cc2)c1
REMARK SMILES IDX 16 1 15 2 14 3 12 4 13 5 11 7 8 8 9 9 85 10 10 11 7 12 6 13
REMARK SMILES IDX 1 14 2 15 3 16 4 17 5 18 17 19 18 20 19 21 20 22 21 24 22 25
REMARK SMILES IDX 23 26 84 27 24 28 83 29 25 30 26 31 27 32 77 33 28 34 82 35
REMARK SMILES IDX 76 36 78 37 29 38 81 39 75 40 74 41 30 43 62 44 42 45 61 46
REMARK SMILES IDX 43 47 46 48 60 49 79 50 44 51 45 52 59 54 80 55 47 56 31 57
REMARK SMILES IDX 32 58 40 59 33 60 34 61 38 62 41 63 35 64 36 65 39 66 37 67
REMARK SMILES IDX 63 68 64 69 72 70 65 71 66 72 70 73 73 74 67 75 68 76 71 77
REMARK SMILES IDX 69 78 48 79 49 80 57 81 50 82 51 83 55 84 58 85 52 86 53 87
REMARK SMILES IDX 56 88 54 89
REMARK H PARENT 14 6 19 23 78 42 46 53
REMARK Flexibility Score: inf
ROOT
ATOM      1  C   UNL A   1      42.521  23.431  28.719  1.00  0.00     0.023 C 
ENDROOT
BRANCH   1   2
ATOM      2  C   UNL A   1      43.734  22.905  29.486  1.00  0.00     0.116 C 
BRANCH   2   3
ATOM      3  N   UNL A   1      44.734  23.942  29.627  1.00  0.00    -0.351 N 
ATOM      4  C   UNL A   1      45.688  24.436  28.771  1.00  0.00     0.261 C 
ATOM      5  O   UNL A   1      46.374  25.350  29.240  1.00  0.00    -0.268 OA
ATOM      6  H   UNL A   1      44.729  24.378  30.510  1.00  0.00     0.163 HD
BRANCH   4   7
ATOM      7  C   UNL A   1      45.849  23.937  27.409  1.00  0.00     0.093 A 
ATOM      8  C   UNL A   1      45.727  22.806  25.359  1.00  0.00     0.027 A 
ATOM      9  C   UNL A   1      46.504  23.883  25.011  1.00  0.00     0.081 A 
ATOM     10  C   UNL A   1      45.378  22.814  26.744  1.00  0.00     0.041 A 
ATOM     11  S   UNL A   1      46.838  24.883  26.350  1.00  0.00    -0.137 S 
BRANCH   8  12
ATOM     12  S   UNL A   1      45.092  21.670  24.198  1.00  0.00    -0.047 SA
BRANCH  12  13
ATOM     13  C   UNL A   1      45.553  20.102  24.755  1.00  0.00     0.213 A 
ATOM     14  C   UNL A   1      43.393  18.841  25.345  1.00  0.00     0.179 C 
ATOM     15  N   UNL A   1      44.805  19.051  25.212  1.00  0.00    -0.223 N 
ATOM     16  N   UNL A   1      45.629  18.060  25.613  1.00  0.00    -0.045 NA
ATOM     17  N   UNL A   1      46.853  18.509  25.400  1.00  0.00    -0.023 NA
ATOM     18  N   UNL A   1      46.824  19.768  24.869  1.00  0.00    -0.101 NA
ENDBRANCH  12  13
ENDBRANCH   8  12
ENDBRANCH   4   7
ENDBRANCH   2   3
ENDBRANCH   1   2
BRANCH   1  19
ATOM     19  C   UNL A   1      41.726  22.341  27.987  1.00  0.00     0.023 C 
BRANCH  19  20
ATOM     20  C   UNL A   1      41.606  22.530  26.476  1.00  0.00     0.116 C 
BRANCH  20  21
ATOM     21  N   UNL A   1      40.234  22.503  25.999  1.00  0.00    -0.352 N 
ATOM     22  C   UNL A   1      39.225  23.413  26.216  1.00  0.00     0.251 C 
ATOM     23  H   UNL A   1      39.993  21.726  25.444  1.00  0.00     0.163 HD
ATOM     24  O   UNL A   1      38.092  23.182  25.827  1.00  0.00    -0.269 OA
BRANCH  22  25
ATOM     25  C   UNL A   1      39.515  24.659  26.959  1.00  0.00     0.039 A 
ATOM     26  C   UNL A   1      39.056  24.776  28.273  1.00  0.00     0.014 A 
ATOM     27  C   UNL A   1      40.234  25.702  26.369  1.00  0.00     0.014 A 
ATOM     28  C   UNL A   1      39.365  25.918  29.015  1.00  0.00     0.010 A 
ATOM     29  C   UNL A   1      40.601  26.807  27.130  1.00  0.00     0.010 A 
ATOM     30  C   UNL A   1      40.165  26.929  28.459  1.00  0.00    -0.014 A 
BRANCH  30  31
ATOM     31  C   UNL A   1      40.532  28.134  29.244  1.00  0.00     0.031 A 
ATOM     32  C   UNL A   1      41.905  28.247  29.849  1.00  0.00     0.074 A 
ATOM     33  C   UNL A   1      39.619  29.102  29.453  1.00  0.00     0.049 A 
ATOM     34  N   UNL A   1      42.398  29.184  30.619  1.00  0.00    -0.248 NA
ATOM     35  C   UNL A   1      42.842  27.147  29.569  1.00  0.00     0.031 C 
ATOM     36  C   UNL A   1      38.241  29.088  28.958  1.00  0.00     0.029 A 
ATOM     37  N   UNL A   1      39.709  30.283  30.146  1.00  0.00    -0.354 N 
ATOM     38  C   UNL A   1      43.694  28.784  30.917  1.00  0.00     0.074 A 
ATOM     39  C   UNL A   1      43.891  27.489  30.301  1.00  0.00     0.031 C 
ATOM     40  C   UNL A   1      37.623  30.215  29.345  1.00  0.00     0.029 A 
ATOM     41  C   UNL A   1      38.547  31.016  30.143  1.00  0.00     0.049 A 
ATOM     42  H   UNL A   1      40.530  30.579  30.601  1.00  0.00     0.167 HD
ATOM     43  C   UNL A   1      44.647  29.450  31.612  1.00  0.00     0.037 A 
ATOM     44  C   UNL A   1      38.261  32.197  30.723  1.00  0.00     0.037 A 
ATOM     45  C   UNL A   1      44.455  30.744  32.211  1.00  0.00     0.049 A 
ATOM     46  C   UNL A   1      39.338  32.912  31.497  1.00  0.00     0.074 A 
ATOM     47  C   UNL A   1      45.359  31.509  32.928  1.00  0.00     0.029 A 
ATOM     48  N   UNL A   1      43.275  31.470  32.152  1.00  0.00    -0.354 N 
ATOM     49  N   UNL A   1      40.575  32.544  31.730  1.00  0.00    -0.248 NA
ATOM     50  C   UNL A   1      38.982  34.215  32.075  1.00  0.00     0.031 C 
ATOM     51  C   UNL A   1      44.717  32.684  33.329  1.00  0.00     0.029 A 
ATOM     52  C   UNL A   1      43.428  32.675  32.821  1.00  0.00     0.049 A 
ATOM     53  H   UNL A   1      42.451  31.174  31.703  1.00  0.00     0.167 HD
ATOM     54  C   UNL A   1      41.154  33.586  32.443  1.00  0.00     0.074 A 
ATOM     55  C   UNL A   1      40.136  34.605  32.593  1.00  0.00     0.031 C 
ATOM     56  C   UNL A   1      42.413  33.690  32.932  1.00  0.00     0.037 A 
BRANCH  43  57
ATOM     57  C   UNL A   1      45.992  28.797  31.742  1.00  0.00     0.064 A 
ATOM     58  C   UNL A   1      46.294  27.962  32.829  1.00  0.00     0.173 A 
ATOM     59  C   UNL A   1      46.977  28.975  30.759  1.00  0.00     0.173 A 
ATOM     60  F   UNL A   1      45.393  27.770  33.804  1.00  0.00    -0.203 F 
ATOM     61  C   UNL A   1      47.541  27.351  32.939  1.00  0.00     0.198 A 
ATOM     62  C   UNL A   1      48.211  28.337  30.857  1.00  0.00     0.198 A 
ATOM     63  F   UNL A   1      46.740  29.760  29.697  1.00  0.00    -0.203 F 
ATOM     64  F   UNL A   1      47.822  26.597  34.011  1.00  0.00    -0.200 F 
ATOM     65  C   UNL A   1      48.494  27.532  31.950  1.00  0.00     0.200 A 
ATOM     66  F   UNL A   1      49.128  28.503  29.893  1.00  0.00    -0.200 F 
ATOM     67  F   UNL A   1      49.690  26.935  32.053  1.00  0.00    -0.200 F 
ENDBRANCH  43  57
BRANCH  44  68
ATOM     68  C   UNL A   1      36.909  32.798  30.578  1.00  0.00     0.064 A 
ATOM     69  C   UNL A   1      36.567  33.536  29.435  1.00  0.00     0.173 A 
ATOM     70  C   UNL A   1      35.946  32.684  31.591  1.00  0.00     0.173 A 
ATOM     71  F   UNL A   1      37.460  33.691  28.447  1.00  0.00    -0.203 F 
ATOM     72  C   UNL A   1      35.330  34.169  29.329  1.00  0.00     0.198 A 
ATOM     73  C   UNL A   1      34.697  33.290  31.469  1.00  0.00     0.198 A 
ATOM     74  F   UNL A   1      36.219  31.982  32.701  1.00  0.00    -0.203 F 
ATOM     75  F   UNL A   1      35.056  34.922  28.255  1.00  0.00    -0.200 F 
ATOM     76  C   UNL A   1      34.395  34.043  30.345  1.00  0.00     0.200 A 
ATOM     77  F   UNL A   1      33.791  33.153  32.447  1.00  0.00    -0.200 F 
ATOM     78  F   UNL A   1      33.209  34.656  30.245  1.00  0.00    -0.200 F 
ENDBRANCH  44  68
BRANCH  56  79
ATOM     79  C   UNL A   1      42.782  34.975  33.615  1.00  0.00     0.064 A 
ATOM     80  C   UNL A   1      42.696  35.127  35.006  1.00  0.00     0.173 A 
ATOM     81  C   UNL A   1      43.253  36.063  32.862  1.00  0.00     0.173 A 
ATOM     82  F   UNL A   1      42.239  34.122  35.768  1.00  0.00    -0.203 F 
ATOM     83  C   UNL A   1      43.037  36.332  35.616  1.00  0.00     0.198 A 
ATOM     84  C   UNL A   1      43.622  37.254  33.479  1.00  0.00     0.198 A 
ATOM     85  F   UNL A   1      43.361  35.966  31.528  1.00  0.00    -0.203 F 
ATOM     86  F   UNL A   1      42.893  36.473  36.941  1.00  0.00    -0.200 F 
ATOM     87  C   UNL A   1      43.504  37.391  34.853  1.00  0.00     0.200 A 
ATOM     88  F   UNL A   1      44.087  38.272  32.741  1.00  0.00    -0.200 F 
ATOM     89  F   UNL A   1      43.834  38.549  35.443  1.00  0.00    -0.200 F 
ENDBRANCH  56  79
ENDBRANCH  30  31
ENDBRANCH  22  25
ENDBRANCH  20  21
ENDBRANCH  19  20
ENDBRANCH   1  19
TORSDOF 13
ENDMDL
MODEL 2
REMARK VINA RESULT:     -11.1      5.490      9.699
REMARK SMILES Cn1nnnc1Sc1csc(C(=O)NCCCCNC(=O)c2ccc(-c3c4nc(c(-c5c(F)c(F)c(F)c(F)c5F)c5ccc([nH]5)c(-c5c(F)c(F)c(F)c(F)c5F)c5nc(c(-c6c(F)c(F)c(F)c(F)c6F)c6ccc3[nH]6)C=C5)C=C4)cc2)c1
REMARK SMILES IDX 16 1 15 2 14 3 12 4 13 5 11 7 8 8 9 9 85 10 10 11 7 12 6 13
REMARK SMILES IDX 1 14 2 15 3 16 4 17 5 18 17 19 18 20 19 21 20 22 21 24 22 25
REMARK SMILES IDX 23 26 84 27 24 28 83 29 25 30 26 31 27 32 77 33 28 34 82 35
REMARK SMILES IDX 76 36 78 37 29 38 81 39 75 40 74 41 30 43 62 44 42 45 61 46
REMARK SMILES IDX 43 47 46 48 60 49 79 50 44 51 45 52 59 54 80 55 47 56 31 57
REMARK SMILES IDX 32 58 40 59 33 60 34 61 38 62 41 63 35 64 36 65 39 66 37 67
REMARK SMILES IDX 63 68 64 69 72 70 65 71 66 72 70 73 73 74 67 75 68 76 71 77
REMARK SMILES IDX 69 78 48 79 49 80 57 81 50 82 51 83 55 84 58 85 52 86 53 87
REMARK SMILES IDX 56 88 54 89
REMARK H PARENT 14 6 19 23 78 42 46 53
REMARK Flexibility Score: inf
ROOT
ATOM      1  C   UNL A   1      31.611  30.868  26.141  1.00  0.00     0.023 C 
ENDROOT
BRANCH   1   2
ATOM      2  C   UNL A   1      31.899  29.827  27.222  1.00  0.00     0.116 C 
BRANCH   2   3
ATOM      3  N   UNL A   1      33.323  29.702  27.441  1.00  0.00    -0.351 N 
ATOM      4  C   UNL A   1      34.283  28.894  26.882  1.00  0.00     0.261 C 
ATOM      5  O   UNL A   1      35.425  29.076  27.316  1.00  0.00    -0.268 OA
ATOM      6  H   UNL A   1      33.674  30.317  28.126  1.00  0.00     0.163 HD
BRANCH   4   7
ATOM      7  C   UNL A   1      33.974  27.924  25.836  1.00  0.00     0.093 A 
ATOM      8  C   UNL A   1      33.401  26.042  24.559  1.00  0.00     0.027 A 
ATOM      9  C   UNL A   1      33.346  27.026  23.603  1.00  0.00     0.081 A 
ATOM     10  C   UNL A   1      33.796  26.548  25.835  1.00  0.00     0.041 A 
ATOM     11  S   UNL A   1      33.797  28.545  24.231  1.00  0.00    -0.137 S 
BRANCH   8  12
ATOM     12  S   UNL A   1      32.868  24.406  24.279  1.00  0.00    -0.047 SA
BRANCH  12  13
ATOM     13  C   UNL A   1      32.110  23.888  25.742  1.00  0.00     0.213 A 
ATOM     14  C   UNL A   1      33.894  22.666  27.129  1.00  0.00     0.179 C 
ATOM     15  N   UNL A   1      32.595  23.181  26.808  1.00  0.00    -0.223 N 
ATOM     16  N   UNL A   1      31.593  22.947  27.681  1.00  0.00    -0.045 NA
ATOM     17  N   UNL A   1      30.520  23.506  27.146  1.00  0.00    -0.023 NA
ATOM     18  N   UNL A   1      30.823  24.092  25.949  1.00  0.00    -0.101 NA
ENDBRANCH  12  13
ENDBRANCH   8  12
ENDBRANCH   4   7
ENDBRANCH   2   3
ENDBRANCH   1   2
BRANCH   1  19
ATOM     19  C   UNL A   1      31.357  32.280  26.687  1.00  0.00     0.023 C 
BRANCH  19  20
ATOM     20  C   UNL A   1      32.582  32.981  27.270  1.00  0.00     0.116 C 
BRANCH  20  21
ATOM     21  N   UNL A   1      32.323  34.352  27.674  1.00  0.00    -0.352 N 
ATOM     22  C   UNL A   1      32.955  35.104  28.638  1.00  0.00     0.251 C 
ATOM     23  H   UNL A   1      31.595  34.806  27.190  1.00  0.00     0.163 HD
ATOM     24  O   UNL A   1      32.539  36.214  28.924  1.00  0.00    -0.269 OA
BRANCH  22  25
ATOM     25  C   UNL A   1      34.122  34.541  29.351  1.00  0.00     0.039 A 
ATOM     26  C   UNL A   1      33.918  33.946  30.599  1.00  0.00     0.014 A 
ATOM     27  C   UNL A   1      35.404  34.597  28.798  1.00  0.00     0.014 A 
ATOM     28  C   UNL A   1      34.994  33.357  31.268  1.00  0.00     0.010 A 
ATOM     29  C   UNL A   1      36.459  33.949  29.431  1.00  0.00     0.010 A 
ATOM     30  C   UNL A   1      36.266  33.328  30.675  1.00  0.00    -0.014 A 
BRANCH  30  31
ATOM     31  C   UNL A   1      37.414  32.677  31.356  1.00  0.00     0.031 A 
ATOM     32  C   UNL A   1      38.135  31.538  30.688  1.00  0.00     0.074 A 
ATOM     33  C   UNL A   1      37.775  33.076  32.591  1.00  0.00     0.049 A 
ATOM     34  N   UNL A   1      39.114  30.797  31.141  1.00  0.00    -0.248 NA
ATOM     35  C   UNL A   1      37.678  31.168  29.339  1.00  0.00     0.031 C 
ATOM     36  C   UNL A   1      37.126  34.138  33.362  1.00  0.00     0.029 A 
ATOM     37  N   UNL A   1      38.773  32.628  33.420  1.00  0.00    -0.354 N 
ATOM     38  C   UNL A   1      39.385  29.875  30.138  1.00  0.00     0.074 A 
ATOM     39  C   UNL A   1      38.425  30.105  29.080  1.00  0.00     0.031 C 
ATOM     40  C   UNL A   1      37.754  34.272  34.541  1.00  0.00     0.029 A 
ATOM     41  C   UNL A   1      38.828  33.286  34.624  1.00  0.00     0.049 A 
ATOM     42  H   UNL A   1      39.392  31.903  33.174  1.00  0.00     0.167 HD
ATOM     43  C   UNL A   1      40.366  28.944  30.087  1.00  0.00     0.037 A 
ATOM     44  C   UNL A   1      39.649  33.110  35.676  1.00  0.00     0.037 A 
ATOM     45  C   UNL A   1      41.330  28.726  31.132  1.00  0.00     0.049 A 
ATOM     46  C   UNL A   1      40.727  32.060  35.594  1.00  0.00     0.074 A 
ATOM     47  C   UNL A   1      42.370  27.813  31.176  1.00  0.00     0.029 A 
ATOM     48  N   UNL A   1      41.377  29.440  32.320  1.00  0.00    -0.354 N 
ATOM     49  N   UNL A   1      41.002  31.227  34.620  1.00  0.00    -0.248 NA
ATOM     50  C   UNL A   1      41.619  31.937  36.756  1.00  0.00     0.031 C 
ATOM     51  C   UNL A   1      43.027  27.955  32.401  1.00  0.00     0.029 A 
ATOM     52  C   UNL A   1      42.428  28.988  33.102  1.00  0.00     0.049 A 
ATOM     53  H   UNL A   1      40.754  30.160  32.571  1.00  0.00     0.167 HD
ATOM     54  C   UNL A   1      42.120  30.514  35.032  1.00  0.00     0.074 A 
ATOM     55  C   UNL A   1      42.480  31.021  36.340  1.00  0.00     0.031 C 
ATOM     56  C   UNL A   1      42.789  29.527  34.388  1.00  0.00     0.037 A 
BRANCH  43  57
ATOM     57  C   UNL A   1      40.459  28.103  28.846  1.00  0.00     0.064 A 
ATOM     58  C   UNL A   1      41.249  28.500  27.755  1.00  0.00     0.173 A 
ATOM     59  C   UNL A   1      39.785  26.876  28.756  1.00  0.00     0.173 A 
ATOM     60  F   UNL A   1      41.901  29.671  27.785  1.00  0.00    -0.203 F 
ATOM     61  C   UNL A   1      41.339  27.711  26.611  1.00  0.00     0.198 A 
ATOM     62  C   UNL A   1      39.903  26.075  27.622  1.00  0.00     0.198 A 
ATOM     63  F   UNL A   1      39.020  26.447  29.771  1.00  0.00    -0.203 F 
ATOM     64  F   UNL A   1      42.061  28.135  25.564  1.00  0.00    -0.200 F 
ATOM     65  C   UNL A   1      40.673  26.497  26.549  1.00  0.00     0.200 A 
ATOM     66  F   UNL A   1      39.269  24.896  27.568  1.00  0.00    -0.200 F 
ATOM     67  F   UNL A   1      40.769  25.735  25.451  1.00  0.00    -0.200 F 
ENDBRANCH  43  57
BRANCH  44  68
ATOM     68  C   UNL A   1      39.510  33.957  36.890  1.00  0.00     0.064 A 
ATOM     69  C   UNL A   1      40.119  35.219  36.962  1.00  0.00     0.173 A 
ATOM     70  C   UNL A   1      38.804  33.511  38.016  1.00  0.00     0.173 A 
ATOM     71  F   UNL A   1      40.823  35.683  35.918  1.00  0.00    -0.203 F 
ATOM     72  C   UNL A   1      40.060  35.984  38.125  1.00  0.00     0.198 A 
ATOM     73  C   UNL A   1      38.717  34.290  39.167  1.00  0.00     0.198 A 
ATOM     74  F   UNL A   1      38.196  32.315  37.997  1.00  0.00    -0.203 F 
ATOM     75  F   UNL A   1      40.705  37.156  38.187  1.00  0.00    -0.200 F 
ATOM     76  C   UNL A   1      39.356  35.520  39.226  1.00  0.00     0.200 A 
ATOM     77  F   UNL A   1      38.024  33.845  40.224  1.00  0.00    -0.200 F 
ATOM     78  F   UNL A   1      39.304  36.252  40.347  1.00  0.00    -0.200 F 
ENDBRANCH  44  68
BRANCH  56  79
ATOM     79  C   UNL A   1      44.015  28.977  35.056  1.00  0.00     0.064 A 
ATOM     80  C   UNL A   1      45.293  29.500  34.808  1.00  0.00     0.173 A 
ATOM     81  C   UNL A   1      43.904  27.926  35.980  1.00  0.00     0.173 A 
ATOM     82  F   UNL A   1      45.454  30.495  33.923  1.00  0.00    -0.203 F 
ATOM     83  C   UNL A   1      46.417  28.969  35.434  1.00  0.00     0.198 A 
ATOM     84  C   UNL A   1      45.025  27.419  36.627  1.00  0.00     0.198 A 
ATOM     85  F   UNL A   1      42.703  27.396  36.259  1.00  0.00    -0.203 F 
ATOM     86  F   UNL A   1      47.633  29.446  35.139  1.00  0.00    -0.200 F 
ATOM     87  C   UNL A   1      46.282  27.934  36.347  1.00  0.00     0.200 A 
ATOM     88  F   UNL A   1      44.891  26.428  37.520  1.00  0.00    -0.200 F 
ATOM     89  F   UNL A   1      47.365  27.425  36.951  1.00  0.00    -0.200 F 
ENDBRANCH  56  79
ENDBRANCH  30  31
ENDBRANCH  22  25
ENDBRANCH  20  21
ENDBRANCH  19  20
ENDBRANCH   1  19
TORSDOF 13
ENDMDL
MODEL 3
REMARK VINA RESULT:     -11.0      4.593     11.779
REMARK SMILES Cn1nnnc1Sc1csc(C(=O)NCCCCNC(=O)c2ccc(-c3c4nc(c(-c5c(F)c(F)c(F)c(F)c5F)c5ccc([nH]5)c(-c5c(F)c(F)c(F)c(F)c5F)c5nc(c(-c6c(F)c(F)c(F)c(F)c6F)c6ccc3[nH]6)C=C5)C=C4)cc2)c1
REMARK SMILES IDX 16 1 15 2 14 3 12 4 13 5 11 7 8 8 9 9 85 10 10 11 7 12 6 13
REMARK SMILES IDX 1 14 2 15 3 16 4 17 5 18 17 19 18 20 19 21 20 22 21 24 22 25
REMARK SMILES IDX 23 26 84 27 24 28 83 29 25 30 26 31 27 32 77 33 28 34 82 35
REMARK SMILES IDX 76 36 78 37 29 38 81 39 75 40 74 41 30 43 62 44 42 45 61 46
REMARK SMILES IDX 43 47 46 48 60 49 79 50 44 51 45 52 59 54 80 55 47 56 31 57
REMARK SMILES IDX 32 58 40 59 33 60 34 61 38 62 41 63 35 64 36 65 39 66 37 67
REMARK SMILES IDX 63 68 64 69 72 70 65 71 66 72 70 73 73 74 67 75 68 76 71 77
REMARK SMILES IDX 69 78 48 79 49 80 57 81 50 82 51 83 55 84 58 85 52 86 53 87
REMARK SMILES IDX 56 88 54 89
REMARK H PARENT 14 6 19 23 78 42 46 53
REMARK Flexibility Score: inf
ROOT
ATOM      1  C   UNL A   1      37.622  33.207  29.291  1.00  0.00     0.023 C 
ENDROOT
BRANCH   1   2
ATOM      2  C   UNL A   1      38.199  34.606  29.505  1.00  0.00     0.116 C 
BRANCH   2   3
ATOM      3  N   UNL A   1      38.953  34.662  30.739  1.00  0.00    -0.351 N 
ATOM      4  C   UNL A   1      38.602  34.466  32.052  1.00  0.00     0.261 C 
ATOM      5  O   UNL A   1      39.531  34.587  32.856  1.00  0.00    -0.268 OA
ATOM      6  H   UNL A   1      39.904  34.885  30.612  1.00  0.00     0.163 HD
BRANCH   4   7
ATOM      7  C   UNL A   1      37.244  34.109  32.453  1.00  0.00     0.093 A 
ATOM      8  C   UNL A   1      34.943  34.003  32.891  1.00  0.00     0.027 A 
ATOM      9  C   UNL A   1      35.311  32.703  33.137  1.00  0.00     0.081 A 
ATOM     10  C   UNL A   1      36.056  34.822  32.533  1.00  0.00     0.041 A 
ATOM     11  S   UNL A   1      36.991  32.477  32.967  1.00  0.00    -0.137 S 
BRANCH   8  12
ATOM     12  S   UNL A   1      33.283  34.534  32.843  1.00  0.00    -0.047 SA
BRANCH  12  13
ATOM     13  C   UNL A   1      33.137  35.534  31.443  1.00  0.00     0.213 A 
ATOM     14  C   UNL A   1      33.655  37.943  32.172  1.00  0.00     0.179 C 
ATOM     15  N   UNL A   1      33.282  36.885  31.279  1.00  0.00    -0.223 N 
ATOM     16  N   UNL A   1      32.985  37.213  30.004  1.00  0.00    -0.045 NA
ATOM     17  N   UNL A   1      32.665  36.076  29.411  1.00  0.00    -0.023 NA
ATOM     18  N   UNL A   1      32.755  35.030  30.285  1.00  0.00    -0.101 NA
ENDBRANCH  12  13
ENDBRANCH   8  12
ENDBRANCH   4   7
ENDBRANCH   2   3
ENDBRANCH   1   2
BRANCH   1  19
ATOM     19  C   UNL A   1      36.231  33.199  28.644  1.00  0.00     0.023 C 
BRANCH  19  20
ATOM     20  C   UNL A   1      35.136  32.521  29.466  1.00  0.00     0.116 C 
BRANCH  20  21
ATOM     21  N   UNL A   1      34.359  31.558  28.706  1.00  0.00    -0.352 N 
ATOM     22  C   UNL A   1      34.766  30.369  28.143  1.00  0.00     0.251 C 
ATOM     23  H   UNL A   1      33.410  31.786  28.576  1.00  0.00     0.163 HD
ATOM     24  O   UNL A   1      34.002  29.727  27.442  1.00  0.00    -0.269 OA
BRANCH  22  25
ATOM     25  C   UNL A   1      36.149  29.895  28.364  1.00  0.00     0.039 A 
ATOM     26  C   UNL A   1      37.073  30.023  27.323  1.00  0.00     0.014 A 
ATOM     27  C   UNL A   1      36.534  29.331  29.583  1.00  0.00     0.014 A 
ATOM     28  C   UNL A   1      38.399  29.635  27.525  1.00  0.00     0.010 A 
ATOM     29  C   UNL A   1      37.869  29.011  29.805  1.00  0.00     0.010 A 
ATOM     30  C   UNL A   1      38.814  29.153  28.777  1.00  0.00    -0.014 A 
BRANCH  30  31
ATOM     31  C   UNL A   1      40.227  28.768  29.020  1.00  0.00     0.031 A 
ATOM     32  C   UNL A   1      41.156  29.723  29.719  1.00  0.00     0.074 A 
ATOM     33  C   UNL A   1      40.686  27.583  28.571  1.00  0.00     0.049 A 
ATOM     34  N   UNL A   1      42.436  29.602  29.968  1.00  0.00    -0.248 NA
ATOM     35  C   UNL A   1      40.573  30.993  30.180  1.00  0.00     0.031 C 
ATOM     36  C   UNL A   1      39.896  26.591  27.840  1.00  0.00     0.029 A 
ATOM     37  N   UNL A   1      41.932  27.017  28.655  1.00  0.00    -0.354 N 
ATOM     38  C   UNL A   1      42.808  30.778  30.607  1.00  0.00     0.074 A 
ATOM     39  C   UNL A   1      41.637  31.627  30.649  1.00  0.00     0.031 C 
ATOM     40  C   UNL A   1      40.671  25.531  27.561  1.00  0.00     0.029 A 
ATOM     41  C   UNL A   1      42.019  25.781  28.062  1.00  0.00     0.049 A 
ATOM     42  H   UNL A   1      42.694  27.454  29.100  1.00  0.00     0.167 HD
ATOM     43  C   UNL A   1      44.008  31.108  31.141  1.00  0.00     0.037 A 
ATOM     44  C   UNL A   1      43.069  24.947  27.935  1.00  0.00     0.037 A 
ATOM     45  C   UNL A   1      45.167  30.257  31.113  1.00  0.00     0.049 A 
ATOM     46  C   UNL A   1      44.394  25.344  28.533  1.00  0.00     0.074 A 
ATOM     47  C   UNL A   1      46.428  30.493  31.632  1.00  0.00     0.029 A 
ATOM     48  N   UNL A   1      45.203  28.996  30.536  1.00  0.00    -0.354 N 
ATOM     49  N   UNL A   1      44.719  26.439  29.176  1.00  0.00    -0.248 NA
ATOM     50  C   UNL A   1      45.494  24.380  28.398  1.00  0.00     0.031 C 
ATOM     51  C   UNL A   1      47.235  29.388  31.345  1.00  0.00     0.029 A 
ATOM     52  C   UNL A   1      46.465  28.443  30.689  1.00  0.00     0.049 A 
ATOM     53  H   UNL A   1      44.445  28.559  30.085  1.00  0.00     0.167 HD
ATOM     54  C   UNL A   1      46.045  26.277  29.558  1.00  0.00     0.074 A 
ATOM     55  C   UNL A   1      46.459  24.972  29.086  1.00  0.00     0.031 C 
ATOM     56  C   UNL A   1      46.848  27.130  30.238  1.00  0.00     0.037 A 
BRANCH  43  57
ATOM     57  C   UNL A   1      44.119  32.441  31.824  1.00  0.00     0.064 A 
ATOM     58  C   UNL A   1      44.498  33.592  31.115  1.00  0.00     0.173 A 
ATOM     59  C   UNL A   1      43.809  32.580  33.185  1.00  0.00     0.173 A 
ATOM     60  F   UNL A   1      44.819  33.510  29.816  1.00  0.00    -0.203 F 
ATOM     61  C   UNL A   1      44.590  34.827  31.751  1.00  0.00     0.198 A 
ATOM     62  C   UNL A   1      43.872  33.824  33.810  1.00  0.00     0.198 A 
ATOM     63  F   UNL A   1      43.437  31.513  33.908  1.00  0.00    -0.203 F 
ATOM     64  F   UNL A   1      45.002  35.902  31.065  1.00  0.00    -0.200 F 
ATOM     65  C   UNL A   1      44.269  34.944  33.095  1.00  0.00     0.200 A 
ATOM     66  F   UNL A   1      43.549  33.937  35.105  1.00  0.00    -0.200 F 
ATOM     67  F   UNL A   1      44.349  36.135  33.703  1.00  0.00    -0.200 F 
ENDBRANCH  43  57
BRANCH  44  68
ATOM     68  C   UNL A   1      42.914  23.643  27.238  1.00  0.00     0.064 A 
ATOM     69  C   UNL A   1      42.339  22.542  27.889  1.00  0.00     0.173 A 
ATOM     70  C   UNL A   1      43.373  23.457  25.926  1.00  0.00     0.173 A 
ATOM     71  F   UNL A   1      41.903  22.664  29.152  1.00  0.00    -0.203 F 
ATOM     72  C   UNL A   1      42.264  21.296  27.269  1.00  0.00     0.198 A 
ATOM     73  C   UNL A   1      43.267  22.219  25.296  1.00  0.00     0.198 A 
ATOM     74  F   UNL A   1      43.924  24.479  25.256  1.00  0.00    -0.203 F 
ATOM     75  F   UNL A   1      41.769  20.246  27.939  1.00  0.00    -0.200 F 
ATOM     76  C   UNL A   1      42.726  21.136  25.972  1.00  0.00     0.200 A 
ATOM     77  F   UNL A   1      43.702  22.072  24.036  1.00  0.00    -0.200 F 
ATOM     78  F   UNL A   1      42.660  19.937  25.378  1.00  0.00    -0.200 F 
ENDBRANCH  44  68
BRANCH  56  79
ATOM     79  C   UNL A   1      48.233  26.655  30.570  1.00  0.00     0.064 A 
ATOM     80  C   UNL A   1      48.505  25.914  31.730  1.00  0.00     0.173 A 
ATOM     81  C   UNL A   1      49.299  26.925  29.697  1.00  0.00     0.173 A 
ATOM     82  F   UNL A   1      47.523  25.642  32.602  1.00  0.00    -0.203 F 
ATOM     83  C   UNL A   1      49.799  25.490  32.020  1.00  0.00     0.198 A 
ATOM     84  C   UNL A   1      50.584  26.473  29.975  1.00  0.00     0.198 A 
ATOM     85  F   UNL A   1      49.090  27.623  28.570  1.00  0.00    -0.203 F 
ATOM     86  F   UNL A   1      50.046  24.833  33.161  1.00  0.00    -0.200 F 
ATOM     87  C   UNL A   1      50.836  25.764  31.140  1.00  0.00     0.200 A 
ATOM     88  F   UNL A   1      51.583  26.726  29.117  1.00  0.00    -0.200 F 
ATOM     89  F   UNL A   1      52.080  25.353  31.420  1.00  0.00    -0.200 F 
ENDBRANCH  56  79
ENDBRANCH  30  31
ENDBRANCH  22  25
ENDBRANCH  20  21
ENDBRANCH  19  20
ENDBRANCH   1  19
TORSDOF 13
ENDMDL
