MODEL 1
REMARK VINA RESULT:     -13.1      0.000      0.000
REMARK SMILES O=C(CC1(CN2CC3(CCCCC3)CC2=O)CCCCC1)NCCCCNC(=O)c1ccc(-c2c3nc(c(-c4c(F)c(F)c(F)c(F)c4F)c4ccc([nH]4)c(-c4c(F)c(F)c(F)c(F)c4F)c4nc(c(-c5c(F)c(F)c(F)c(F)c5F)c5ccc2[nH]5)C=C4)C=C3)cc1
REMARK SMILES IDX 24 1 23 2 22 3 1 4 2 5 3 7 4 8 17 9 21 10 18 11 20 12 19 13
REMARK SMILES IDX 5 14 6 15 7 16 15 17 8 18 14 19 16 20 9 21 13 22 10 23 12 24
REMARK SMILES IDX 11 25 25 26 26 27 27 28 28 29 29 31 30 32 31 33 92 34 32 35
REMARK SMILES IDX 91 36 33 37 34 38 35 39 85 40 36 41 90 42 84 43 86 44 37 45
REMARK SMILES IDX 89 46 83 47 82 48 38 50 70 51 50 52 69 53 51 54 54 55 68 56
REMARK SMILES IDX 87 57 52 58 53 59 67 61 88 62 55 63 39 64 40 65 48 66 41 67
REMARK SMILES IDX 42 68 46 69 49 70 43 71 44 72 47 73 45 74 71 75 72 76 80 77
REMARK SMILES IDX 73 78 74 79 78 80 81 81 75 82 76 83 79 84 77 85 56 86 57 87
REMARK SMILES IDX 65 88 58 89 59 90 63 91 66 92 60 93 61 94 64 95 62 96
REMARK H PARENT 22 6 27 30 86 49 54 60
REMARK Flexibility Score: inf
ROOT
ATOM      1  C   UNL A   1      31.544  30.783  26.657  1.00  0.00     0.023 C 
ENDROOT
BRANCH   1   2
ATOM      2  C   UNL A   1      32.955  30.261  26.398  1.00  0.00     0.116 C 
BRANCH   2   3
ATOM      3  N   UNL A   1      33.016  29.341  25.281  1.00  0.00    -0.356 N 
ATOM      4  O   UNL A   1      34.191  27.699  26.377  1.00  0.00    -0.275 OA
ATOM      5  C   UNL A   1      33.548  28.076  25.406  1.00  0.00     0.220 C 
ATOM      6  H   UNL A   1      32.668  29.628  24.407  1.00  0.00     0.163 HD
BRANCH   5   7
ATOM      7  C   UNL A   1      33.237  27.163  24.230  1.00  0.00     0.108 C 
BRANCH   7   8
ATOM      8  C   UNL A   1      31.927  26.331  24.372  1.00  0.00    -0.003 C 
ATOM      9  C   UNL A   1      31.753  25.344  23.160  1.00  0.00     0.009 C 
ATOM     10  C   UNL A   1      32.107  25.418  25.618  1.00  0.00     0.009 C 
ATOM     11  C   UNL A   1      30.662  24.280  23.344  1.00  0.00     0.001 C 
ATOM     12  C   UNL A   1      31.008  24.378  25.813  1.00  0.00     0.001 C 
ATOM     13  C   UNL A   1      30.886  23.463  24.606  1.00  0.00     0.000 C 
BRANCH   8  14
ATOM     14  C   UNL A   1      30.680  27.278  24.347  1.00  0.00     0.127 C 
BRANCH  14  15
ATOM     15  N   UNL A   1      29.890  27.598  23.158  1.00  0.00    -0.342 N 
ATOM     16  C   UNL A   1      30.176  28.620  22.180  1.00  0.00     0.127 C 
ATOM     17  C   UNL A   1      28.483  27.564  23.342  1.00  0.00     0.223 C 
ATOM     18  C   UNL A   1      29.093  29.679  22.423  1.00  0.00    -0.003 C 
ATOM     19  C   UNL A   1      27.879  28.747  22.600  1.00  0.00     0.109 C 
ATOM     20  O   UNL A   1      27.858  26.815  24.079  1.00  0.00    -0.275 OA
ATOM     21  C   UNL A   1      29.443  30.451  23.721  1.00  0.00     0.009 C 
ATOM     22  C   UNL A   1      28.974  30.644  21.230  1.00  0.00     0.009 C 
ATOM     23  C   UNL A   1      28.618  31.694  23.983  1.00  0.00     0.001 C 
ATOM     24  C   UNL A   1      28.220  31.943  21.540  1.00  0.00     0.001 C 
ATOM     25  C   UNL A   1      28.735  32.632  22.798  1.00  0.00     0.000 C 
ENDBRANCH  14  15
ENDBRANCH   8  14
ENDBRANCH   7   8
ENDBRANCH   5   7
ENDBRANCH   2   3
ENDBRANCH   1   2
BRANCH   1  26
ATOM     26  C   UNL A   1      31.410  32.305  26.807  1.00  0.00     0.023 C 
BRANCH  26  27
ATOM     27  C   UNL A   1      32.700  33.057  27.131  1.00  0.00     0.116 C 
BRANCH  27  28
ATOM     28  N   UNL A   1      32.447  34.385  27.665  1.00  0.00    -0.352 N 
ATOM     29  C   UNL A   1      33.017  35.036  28.733  1.00  0.00     0.251 C 
ATOM     30  H   UNL A   1      31.759  34.900  27.186  1.00  0.00     0.163 HD
ATOM     31  O   UNL A   1      32.529  36.092  29.130  1.00  0.00    -0.269 OA
BRANCH  29  32
ATOM     32  C   UNL A   1      34.200  34.478  29.430  1.00  0.00     0.039 A 
ATOM     33  C   UNL A   1      34.009  33.818  30.650  1.00  0.00     0.014 A 
ATOM     34  C   UNL A   1      35.494  34.643  28.929  1.00  0.00     0.014 A 
ATOM     35  C   UNL A   1      35.101  33.266  31.328  1.00  0.00     0.010 A 
ATOM     36  C   UNL A   1      36.576  34.043  29.577  1.00  0.00     0.010 A 
ATOM     37  C   UNL A   1      36.390  33.344  30.780  1.00  0.00    -0.014 A 
BRANCH  37  38
ATOM     38  C   UNL A   1      37.550  32.693  31.445  1.00  0.00     0.031 A 
ATOM     39  C   UNL A   1      38.259  31.539  30.790  1.00  0.00     0.074 A 
ATOM     40  C   UNL A   1      37.927  33.096  32.675  1.00  0.00     0.049 A 
ATOM     41  N   UNL A   1      39.231  30.793  31.253  1.00  0.00    -0.248 NA
ATOM     42  C   UNL A   1      37.799  31.160  29.446  1.00  0.00     0.031 C 
ATOM     43  C   UNL A   1      37.301  34.178  33.436  1.00  0.00     0.029 A 
ATOM     44  N   UNL A   1      38.918  32.635  33.505  1.00  0.00    -0.354 N 
ATOM     45  C   UNL A   1      39.487  29.848  30.268  1.00  0.00     0.074 A 
ATOM     46  C   UNL A   1      38.542  30.090  29.198  1.00  0.00     0.031 C 
ATOM     47  C   UNL A   1      37.932  34.307  34.615  1.00  0.00     0.029 A 
ATOM     48  C   UNL A   1      38.982  33.296  34.708  1.00  0.00     0.049 A 
ATOM     49  H   UNL A   1      39.526  31.900  33.262  1.00  0.00     0.167 HD
ATOM     50  C   UNL A   1      40.432  28.878  30.250  1.00  0.00     0.037 A 
ATOM     51  C   UNL A   1      39.787  33.104  35.770  1.00  0.00     0.037 A 
ATOM     52  C   UNL A   1      41.395  28.657  31.298  1.00  0.00     0.049 A 
ATOM     53  C   UNL A   1      40.829  32.021  35.723  1.00  0.00     0.074 A 
ATOM     54  C   UNL A   1      42.433  27.741  31.338  1.00  0.00     0.029 A 
ATOM     55  N   UNL A   1      41.439  29.361  32.491  1.00  0.00    -0.354 N 
ATOM     56  N   UNL A   1      41.098  31.172  34.761  1.00  0.00    -0.248 NA
ATOM     57  C   UNL A   1      41.683  31.872  36.910  1.00  0.00     0.031 C 
ATOM     58  C   UNL A   1      43.080  27.864  32.572  1.00  0.00     0.029 A 
ATOM     59  C   UNL A   1      42.473  28.887  33.283  1.00  0.00     0.049 A 
ATOM     60  H   UNL A   1      40.826  30.091  32.740  1.00  0.00     0.167 HD
ATOM     61  C   UNL A   1      42.166  30.410  35.213  1.00  0.00     0.074 A 
ATOM     62  C   UNL A   1      42.505  30.903  36.531  1.00  0.00     0.031 C 
ATOM     63  C   UNL A   1      42.807  29.392  34.589  1.00  0.00     0.037 A 
BRANCH  50  64
ATOM     64  C   UNL A   1      40.480  27.976  29.052  1.00  0.00     0.064 A 
ATOM     65  C   UNL A   1      39.718  26.801  28.987  1.00  0.00     0.173 A 
ATOM     66  C   UNL A   1      41.259  28.316  27.935  1.00  0.00     0.173 A 
ATOM     67  F   UNL A   1      38.963  26.427  30.032  1.00  0.00    -0.203 F 
ATOM     68  C   UNL A   1      39.752  25.986  27.858  1.00  0.00     0.198 A 
ATOM     69  C   UNL A   1      41.270  27.513  26.798  1.00  0.00     0.198 A 
ATOM     70  F   UNL A   1      42.000  29.434  27.943  1.00  0.00    -0.203 F 
ATOM     71  F   UNL A   1      39.047  24.846  27.835  1.00  0.00    -0.200 F 
ATOM     72  C   UNL A   1      40.522  26.346  26.763  1.00  0.00     0.200 A 
ATOM     73  F   UNL A   1      42.005  27.870  25.735  1.00  0.00    -0.200 F 
ATOM     74  F   UNL A   1      40.548  25.565  25.674  1.00  0.00    -0.200 F 
ENDBRANCH  50  64
BRANCH  51  75
ATOM     75  C   UNL A   1      39.655  33.975  36.967  1.00  0.00     0.064 A 
ATOM     76  C   UNL A   1      40.318  35.207  37.034  1.00  0.00     0.173 A 
ATOM     77  C   UNL A   1      38.875  33.590  38.067  1.00  0.00     0.173 A 
ATOM     78  F   UNL A   1      41.094  35.606  36.016  1.00  0.00    -0.203 F 
ATOM     79  C   UNL A   1      40.221  36.016  38.165  1.00  0.00     0.198 A 
ATOM     80  C   UNL A   1      38.757  34.411  39.186  1.00  0.00     0.198 A 
ATOM     81  F   UNL A   1      38.218  32.421  38.049  1.00  0.00    -0.203 F 
ATOM     82  F   UNL A   1      40.901  37.169  38.221  1.00  0.00    -0.200 F 
ATOM     83  C   UNL A   1      39.436  35.619  39.237  1.00  0.00     0.200 A 
ATOM     84  F   UNL A   1      37.989  34.031  40.215  1.00  0.00    -0.200 F 
ATOM     85  F   UNL A   1      39.341  36.398  40.324  1.00  0.00    -0.200 F 
ENDBRANCH  51  75
BRANCH  63  86
ATOM     86  C   UNL A   1      43.965  28.765  35.309  1.00  0.00     0.064 A 
ATOM     87  C   UNL A   1      45.277  29.231  35.137  1.00  0.00     0.173 A 
ATOM     88  C   UNL A   1      43.753  27.712  36.211  1.00  0.00     0.173 A 
ATOM     89  F   UNL A   1      45.532  30.225  34.274  1.00  0.00    -0.203 F 
ATOM     90  C   UNL A   1      46.337  28.649  35.826  1.00  0.00     0.198 A 
ATOM     91  C   UNL A   1      44.812  27.150  36.918  1.00  0.00     0.198 A 
ATOM     92  F   UNL A   1      42.516  27.234  36.414  1.00  0.00    -0.203 F 
ATOM     93  F   UNL A   1      47.588  29.080  35.615  1.00  0.00    -0.200 F 
ATOM     94  C   UNL A   1      46.104  27.614  36.720  1.00  0.00     0.200 A 
ATOM     95  F   UNL A   1      44.584  26.157  37.789  1.00  0.00    -0.200 F 
ATOM     96  F   UNL A   1      47.126  27.058  37.386  1.00  0.00    -0.200 F 
ENDBRANCH  63  86
ENDBRANCH  37  38
ENDBRANCH  29  32
ENDBRANCH  27  28
ENDBRANCH  26  27
ENDBRANCH   1  26
TORSDOF 14
ENDMDL
MODEL 2
REMARK VINA RESULT:     -12.9      6.434     11.739
REMARK SMILES O=C(CC1(CN2CC3(CCCCC3)CC2=O)CCCCC1)NCCCCNC(=O)c1ccc(-c2c3nc(c(-c4c(F)c(F)c(F)c(F)c4F)c4ccc([nH]4)c(-c4c(F)c(F)c(F)c(F)c4F)c4nc(c(-c5c(F)c(F)c(F)c(F)c5F)c5ccc2[nH]5)C=C4)C=C3)cc1
REMARK SMILES IDX 24 1 23 2 22 3 1 4 2 5 3 7 4 8 17 9 21 10 18 11 20 12 19 13
REMARK SMILES IDX 5 14 6 15 7 16 15 17 8 18 14 19 16 20 9 21 13 22 10 23 12 24
REMARK SMILES IDX 11 25 25 26 26 27 27 28 28 29 29 31 30 32 31 33 92 34 32 35
REMARK SMILES IDX 91 36 33 37 34 38 35 39 85 40 36 41 90 42 84 43 86 44 37 45
REMARK SMILES IDX 89 46 83 47 82 48 38 50 70 51 50 52 69 53 51 54 54 55 68 56
REMARK SMILES IDX 87 57 52 58 53 59 67 61 88 62 55 63 39 64 40 65 48 66 41 67
REMARK SMILES IDX 42 68 46 69 49 70 43 71 44 72 47 73 45 74 71 75 72 76 80 77
REMARK SMILES IDX 73 78 74 79 78 80 81 81 75 82 76 83 79 84 77 85 56 86 57 87
REMARK SMILES IDX 65 88 58 89 59 90 63 91 66 92 60 93 61 94 64 95 62 96
REMARK H PARENT 22 6 27 30 86 49 54 60
REMARK Flexibility Score: inf
ROOT
ATOM      1  C   UNL A   1      37.301  20.592  24.746  1.00  0.00     0.023 C 
ENDROOT
BRANCH   1   2
ATOM      2  C   UNL A   1      37.783  22.018  25.003  1.00  0.00     0.116 C 
BRANCH   2   3
ATOM      3  N   UNL A   1      36.706  22.985  24.981  1.00  0.00    -0.356 N 
ATOM      4  O   UNL A   1      36.391  22.953  22.706  1.00  0.00    -0.275 OA
ATOM      5  C   UNL A   1      36.025  23.293  23.823  1.00  0.00     0.220 C 
ATOM      6  H   UNL A   1      36.454  23.437  25.817  1.00  0.00     0.163 HD
BRANCH   5   7
ATOM      7  C   UNL A   1      34.743  24.077  24.058  1.00  0.00     0.108 C 
BRANCH   7   8
ATOM      8  C   UNL A   1      33.609  23.283  24.773  1.00  0.00    -0.003 C 
ATOM      9  C   UNL A   1      33.627  23.549  26.323  1.00  0.00     0.009 C 
ATOM     10  C   UNL A   1      32.260  23.874  24.274  1.00  0.00     0.009 C 
ATOM     11  C   UNL A   1      32.386  23.056  27.079  1.00  0.00     0.001 C 
ATOM     12  C   UNL A   1      31.026  23.363  25.010  1.00  0.00     0.001 C 
ATOM     13  C   UNL A   1      31.109  23.644  26.501  1.00  0.00     0.000 C 
BRANCH   8  14
ATOM     14  C   UNL A   1      33.830  21.743  24.592  1.00  0.00     0.127 C 
BRANCH  14  15
ATOM     15  N   UNL A   1      32.792  20.722  24.730  1.00  0.00    -0.342 N 
ATOM     16  C   UNL A   1      32.727  19.685  25.732  1.00  0.00     0.127 C 
ATOM     17  C   UNL A   1      32.327  20.165  23.509  1.00  0.00     0.223 C 
ATOM     18  C   UNL A   1      33.018  18.397  24.952  1.00  0.00    -0.003 C 
ATOM     19  C   UNL A   1      32.153  18.667  23.707  1.00  0.00     0.109 C 
ATOM     20  O   UNL A   1      32.218  20.741  22.436  1.00  0.00    -0.275 OA
ATOM     21  C   UNL A   1      34.533  18.352  24.625  1.00  0.00     0.009 C 
ATOM     22  C   UNL A   1      32.597  17.150  25.750  1.00  0.00     0.009 C 
ATOM     23  C   UNL A   1      35.043  17.036  24.074  1.00  0.00     0.001 C 
ATOM     24  C   UNL A   1      33.201  15.837  25.239  1.00  0.00     0.001 C 
ATOM     25  C   UNL A   1      34.710  15.924  25.048  1.00  0.00     0.000 C 
ENDBRANCH  14  15
ENDBRANCH   8  14
ENDBRANCH   7   8
ENDBRANCH   5   7
ENDBRANCH   2   3
ENDBRANCH   1   2
BRANCH   1  26
ATOM     26  C   UNL A   1      38.329  19.481  25.000  1.00  0.00     0.023 C 
BRANCH  26  27
ATOM     27  C   UNL A   1      39.353  19.762  26.100  1.00  0.00     0.116 C 
BRANCH  27  28
ATOM     28  N   UNL A   1      40.485  18.852  26.047  1.00  0.00    -0.352 N 
ATOM     29  C   UNL A   1      41.835  19.109  26.082  1.00  0.00     0.251 C 
ATOM     30  H   UNL A   1      40.247  17.899  25.977  1.00  0.00     0.163 HD
ATOM     31  O   UNL A   1      42.631  18.205  25.841  1.00  0.00    -0.269 OA
BRANCH  29  32
ATOM     32  C   UNL A   1      42.350  20.466  26.385  1.00  0.00     0.039 A 
ATOM     33  C   UNL A   1      42.762  21.278  25.321  1.00  0.00     0.014 A 
ATOM     34  C   UNL A   1      42.483  20.925  27.697  1.00  0.00     0.014 A 
ATOM     35  C   UNL A   1      43.240  22.569  25.569  1.00  0.00     0.010 A 
ATOM     36  C   UNL A   1      42.905  22.234  27.940  1.00  0.00     0.010 A 
ATOM     37  C   UNL A   1      43.284  23.071  26.878  1.00  0.00    -0.014 A 
BRANCH  37  38
ATOM     38  C   UNL A   1      43.711  24.469  27.153  1.00  0.00     0.031 A 
ATOM     39  C   UNL A   1      42.725  25.484  27.663  1.00  0.00     0.074 A 
ATOM     40  C   UNL A   1      44.976  24.846  26.880  1.00  0.00     0.049 A 
ATOM     41  N   UNL A   1      42.891  26.766  27.879  1.00  0.00    -0.248 NA
ATOM     42  C   UNL A   1      41.366  24.999  27.947  1.00  0.00     0.031 C 
ATOM     43  C   UNL A   1      46.020  23.970  26.348  1.00  0.00     0.029 A 
ATOM     44  N   UNL A   1      45.593  26.067  26.999  1.00  0.00    -0.354 N 
ATOM     45  C   UNL A   1      41.658  27.242  28.305  1.00  0.00     0.074 A 
ATOM     46  C   UNL A   1      40.742  26.121  28.281  1.00  0.00     0.031 C 
ATOM     47  C   UNL A   1      47.153  24.677  26.201  1.00  0.00     0.029 A 
ATOM     48  C   UNL A   1      46.905  26.062  26.594  1.00  0.00     0.049 A 
ATOM     49  H   UNL A   1      45.139  26.869  27.343  1.00  0.00     0.167 HD
ATOM     50  C   UNL A   1      41.324  28.495  28.696  1.00  0.00     0.037 A 
ATOM     51  C   UNL A   1      47.806  27.062  26.534  1.00  0.00     0.037 A 
ATOM     52  C   UNL A   1      42.241  29.605  28.752  1.00  0.00     0.049 A 
ATOM     53  C   UNL A   1      47.408  28.444  26.975  1.00  0.00     0.074 A 
ATOM     54  C   UNL A   1      42.008  30.895  29.198  1.00  0.00     0.029 A 
ATOM     55  N   UNL A   1      43.567  29.554  28.352  1.00  0.00    -0.354 N 
ATOM     56  N   UNL A   1      46.255  28.867  27.431  1.00  0.00    -0.248 NA
ATOM     57  C   UNL A   1      48.441  29.487  26.897  1.00  0.00     0.031 C 
ATOM     58  C   UNL A   1      43.183  31.636  29.030  1.00  0.00     0.029 A 
ATOM     59  C   UNL A   1      44.159  30.796  28.521  1.00  0.00     0.049 A 
ATOM     60  H   UNL A   1      44.020  28.755  27.999  1.00  0.00     0.167 HD
ATOM     61  C   UNL A   1      46.430  30.213  27.719  1.00  0.00     0.074 A 
ATOM     62  C   UNL A   1      47.805  30.536  27.398  1.00  0.00     0.031 C 
ATOM     63  C   UNL A   1      45.531  31.102  28.207  1.00  0.00     0.037 A 
BRANCH  50  64
ATOM     64  C   UNL A   1      39.900  28.741  29.100  1.00  0.00     0.064 A 
ATOM     65  C   UNL A   1      39.479  28.600  30.431  1.00  0.00     0.173 A 
ATOM     66  C   UNL A   1      38.955  29.170  28.154  1.00  0.00     0.173 A 
ATOM     67  F   UNL A   1      40.342  28.184  31.371  1.00  0.00    -0.203 F 
ATOM     68  C   UNL A   1      38.160  28.856  30.796  1.00  0.00     0.198 A 
ATOM     69  C   UNL A   1      37.644  29.451  28.529  1.00  0.00     0.198 A 
ATOM     70  F   UNL A   1      39.308  29.328  26.870  1.00  0.00    -0.203 F 
ATOM     71  F   UNL A   1      37.771  28.675  32.066  1.00  0.00    -0.200 F 
ATOM     72  C   UNL A   1      37.246  29.288  29.847  1.00  0.00     0.200 A 
ATOM     73  F   UNL A   1      36.765  29.880  27.612  1.00  0.00    -0.200 F 
ATOM     74  F   UNL A   1      35.979  29.542  30.202  1.00  0.00    -0.200 F 
ENDBRANCH  50  64
BRANCH  51  75
ATOM     75  C   UNL A   1      49.186  26.789  26.055  1.00  0.00     0.064 A 
ATOM     76  C   UNL A   1      49.532  26.992  24.712  1.00  0.00     0.173 A 
ATOM     77  C   UNL A   1      50.179  26.312  26.922  1.00  0.00     0.173 A 
ATOM     78  F   UNL A   1      48.609  27.425  23.842  1.00  0.00    -0.203 F 
ATOM     79  C   UNL A   1      50.816  26.712  24.250  1.00  0.00     0.198 A 
ATOM     80  C   UNL A   1      51.470  26.056  26.465  1.00  0.00     0.198 A 
ATOM     81  F   UNL A   1      49.897  26.103  28.217  1.00  0.00    -0.203 F 
ATOM     82  F   UNL A   1      51.109  26.874  22.953  1.00  0.00    -0.200 F 
ATOM     83  C   UNL A   1      51.785  26.249  25.129  1.00  0.00     0.200 A 
ATOM     84  F   UNL A   1      52.407  25.621  27.318  1.00  0.00    -0.200 F 
ATOM     85  F   UNL A   1      53.021  25.982  24.684  1.00  0.00    -0.200 F 
ENDBRANCH  51  75
BRANCH  63  86
ATOM     86  C   UNL A   1      46.013  32.501  28.457  1.00  0.00     0.064 A 
ATOM     87  C   UNL A   1      45.915  33.498  27.477  1.00  0.00     0.173 A 
ATOM     88  C   UNL A   1      46.544  32.855  29.707  1.00  0.00     0.173 A 
ATOM     89  F   UNL A   1      45.429  33.205  26.262  1.00  0.00    -0.203 F 
ATOM     90  C   UNL A   1      46.351  34.795  27.731  1.00  0.00     0.198 A 
ATOM     91  C   UNL A   1      46.955  34.159  29.966  1.00  0.00     0.198 A 
ATOM     92  F   UNL A   1      46.654  31.938  30.679  1.00  0.00    -0.203 F 
ATOM     93  F   UNL A   1      46.288  35.723  26.766  1.00  0.00    -0.200 F 
ATOM     94  C   UNL A   1      46.865  35.127  28.976  1.00  0.00     0.200 A 
ATOM     95  F   UNL A   1      47.442  34.480  31.173  1.00  0.00    -0.200 F 
ATOM     96  F   UNL A   1      47.280  36.377  29.221  1.00  0.00    -0.200 F 
ENDBRANCH  63  86
ENDBRANCH  37  38
ENDBRANCH  29  32
ENDBRANCH  27  28
ENDBRANCH  26  27
ENDBRANCH   1  26
TORSDOF 14
ENDMDL
MODEL 3
REMARK VINA RESULT:     -12.9      6.421     11.748
REMARK SMILES O=C(CC1(CN2CC3(CCCCC3)CC2=O)CCCCC1)NCCCCNC(=O)c1ccc(-c2c3nc(c(-c4c(F)c(F)c(F)c(F)c4F)c4ccc([nH]4)c(-c4c(F)c(F)c(F)c(F)c4F)c4nc(c(-c5c(F)c(F)c(F)c(F)c5F)c5ccc2[nH]5)C=C4)C=C3)cc1
REMARK SMILES IDX 24 1 23 2 22 3 1 4 2 5 3 7 4 8 17 9 21 10 18 11 20 12 19 13
REMARK SMILES IDX 5 14 6 15 7 16 15 17 8 18 14 19 16 20 9 21 13 22 10 23 12 24
REMARK SMILES IDX 11 25 25 26 26 27 27 28 28 29 29 31 30 32 31 33 92 34 32 35
REMARK SMILES IDX 91 36 33 37 34 38 35 39 85 40 36 41 90 42 84 43 86 44 37 45
REMARK SMILES IDX 89 46 83 47 82 48 38 50 70 51 50 52 69 53 51 54 54 55 68 56
REMARK SMILES IDX 87 57 52 58 53 59 67 61 88 62 55 63 39 64 40 65 48 66 41 67
REMARK SMILES IDX 42 68 46 69 49 70 43 71 44 72 47 73 45 74 71 75 72 76 80 77
REMARK SMILES IDX 73 78 74 79 78 80 81 81 75 82 76 83 79 84 77 85 56 86 57 87
REMARK SMILES IDX 65 88 58 89 59 90 63 91 66 92 60 93 61 94 64 95 62 96
REMARK H PARENT 22 6 27 30 86 49 54 60
REMARK Flexibility Score: inf
ROOT
ATOM      1  C   UNL A   1      37.317  20.659  24.828  1.00  0.00     0.023 C 
ENDROOT
BRANCH   1   2
ATOM      2  C   UNL A   1      37.780  22.087  25.108  1.00  0.00     0.116 C 
BRANCH   2   3
ATOM      3  N   UNL A   1      36.703  23.052  25.022  1.00  0.00    -0.356 N 
ATOM      4  O   UNL A   1      36.493  22.985  22.736  1.00  0.00    -0.275 OA
ATOM      5  C   UNL A   1      36.075  23.341  23.830  1.00  0.00     0.220 C 
ATOM      6  H   UNL A   1      36.412  23.515  25.840  1.00  0.00     0.163 HD
BRANCH   5   7
ATOM      7  C   UNL A   1      34.782  24.124  23.994  1.00  0.00     0.108 C 
BRANCH   7   8
ATOM      8  C   UNL A   1      33.625  23.345  24.688  1.00  0.00    -0.003 C 
ATOM      9  C   UNL A   1      33.627  23.600  26.240  1.00  0.00     0.009 C 
ATOM     10  C   UNL A   1      32.294  23.964  24.175  1.00  0.00     0.009 C 
ATOM     11  C   UNL A   1      32.367  23.122  26.975  1.00  0.00     0.001 C 
ATOM     12  C   UNL A   1      31.040  23.469  24.891  1.00  0.00     0.001 C 
ATOM     13  C   UNL A   1      31.109  23.738  26.384  1.00  0.00     0.000 C 
BRANCH   8  14
ATOM     14  C   UNL A   1      33.822  21.803  24.498  1.00  0.00     0.127 C 
BRANCH  14  15
ATOM     15  N   UNL A   1      32.769  20.797  24.637  1.00  0.00    -0.342 N 
ATOM     16  C   UNL A   1      32.693  19.757  25.635  1.00  0.00     0.127 C 
ATOM     17  C   UNL A   1      32.291  20.253  23.416  1.00  0.00     0.223 C 
ATOM     18  C   UNL A   1      32.961  18.468  24.849  1.00  0.00    -0.003 C 
ATOM     19  C   UNL A   1      32.095  18.756  23.608  1.00  0.00     0.109 C 
ATOM     20  O   UNL A   1      32.185  20.834  22.346  1.00  0.00    -0.275 OA
ATOM     21  C   UNL A   1      34.473  18.402  24.515  1.00  0.00     0.009 C 
ATOM     22  C   UNL A   1      32.524  17.225  25.644  1.00  0.00     0.009 C 
ATOM     23  C   UNL A   1      34.961  17.081  23.957  1.00  0.00     0.001 C 
ATOM     24  C   UNL A   1      33.107  15.905  25.125  1.00  0.00     0.001 C 
ATOM     25  C   UNL A   1      34.616  15.969  24.927  1.00  0.00     0.000 C 
ENDBRANCH  14  15
ENDBRANCH   8  14
ENDBRANCH   7   8
ENDBRANCH   5   7
ENDBRANCH   2   3
ENDBRANCH   1   2
BRANCH   1  26
ATOM     26  C   UNL A   1      38.384  19.567  24.986  1.00  0.00     0.023 C 
BRANCH  26  27
ATOM     27  C   UNL A   1      39.403  19.789  26.102  1.00  0.00     0.116 C 
BRANCH  27  28
ATOM     28  N   UNL A   1      40.530  18.876  26.013  1.00  0.00    -0.352 N 
ATOM     29  C   UNL A   1      41.882  19.126  26.035  1.00  0.00     0.251 C 
ATOM     30  H   UNL A   1      40.287  17.926  25.923  1.00  0.00     0.163 HD
ATOM     31  O   UNL A   1      42.670  18.224  25.762  1.00  0.00    -0.269 OA
BRANCH  29  32
ATOM     32  C   UNL A   1      42.408  20.473  26.363  1.00  0.00     0.039 A 
ATOM     33  C   UNL A   1      42.799  21.312  25.313  1.00  0.00     0.014 A 
ATOM     34  C   UNL A   1      42.569  20.897  27.684  1.00  0.00     0.014 A 
ATOM     35  C   UNL A   1      43.287  22.595  25.584  1.00  0.00     0.010 A 
ATOM     36  C   UNL A   1      43.000  22.198  27.952  1.00  0.00     0.010 A 
ATOM     37  C   UNL A   1      43.360  23.062  26.905  1.00  0.00    -0.014 A 
BRANCH  37  38
ATOM     38  C   UNL A   1      43.797  24.451  27.207  1.00  0.00     0.031 A 
ATOM     39  C   UNL A   1      42.815  25.466  27.727  1.00  0.00     0.074 A 
ATOM     40  C   UNL A   1      45.067  24.821  26.952  1.00  0.00     0.049 A 
ATOM     41  N   UNL A   1      42.991  26.742  27.966  1.00  0.00    -0.248 NA
ATOM     42  C   UNL A   1      41.450  24.989  27.990  1.00  0.00     0.031 C 
ATOM     43  C   UNL A   1      46.108  23.945  26.414  1.00  0.00     0.029 A 
ATOM     44  N   UNL A   1      45.695  26.034  27.098  1.00  0.00    -0.354 N 
ATOM     45  C   UNL A   1      41.759  27.222  28.390  1.00  0.00     0.074 A 
ATOM     46  C   UNL A   1      40.833  26.110  28.338  1.00  0.00     0.031 C 
ATOM     47  C   UNL A   1      47.249  24.644  26.289  1.00  0.00     0.029 A 
ATOM     48  C   UNL A   1      47.010  26.024  26.703  1.00  0.00     0.049 A 
ATOM     49  H   UNL A   1      45.244  26.834  27.452  1.00  0.00     0.167 HD
ATOM     50  C   UNL A   1      41.433  28.471  28.799  1.00  0.00     0.037 A 
ATOM     51  C   UNL A   1      47.920  27.016  26.669  1.00  0.00     0.037 A 
ATOM     52  C   UNL A   1      42.359  29.572  28.883  1.00  0.00     0.049 A 
ATOM     53  C   UNL A   1      47.531  28.394  27.130  1.00  0.00     0.074 A 
ATOM     54  C   UNL A   1      42.134  30.856  29.349  1.00  0.00     0.029 A 
ATOM     55  N   UNL A   1      43.688  29.516  28.493  1.00  0.00    -0.354 N 
ATOM     56  N   UNL A   1      46.378  28.820  27.584  1.00  0.00    -0.248 NA
ATOM     57  C   UNL A   1      48.574  29.428  27.079  1.00  0.00     0.031 C 
ATOM     58  C   UNL A   1      43.317  31.589  29.204  1.00  0.00     0.029 A 
ATOM     59  C   UNL A   1      44.290  30.749  28.689  1.00  0.00     0.049 A 
ATOM     60  H   UNL A   1      44.137  28.718  28.130  1.00  0.00     0.167 HD
ATOM     61  C   UNL A   1      46.563  30.159  27.896  1.00  0.00     0.074 A 
ATOM     62  C   UNL A   1      47.943  30.474  27.593  1.00  0.00     0.031 C 
ATOM     63  C   UNL A   1      45.667  31.047  28.392  1.00  0.00     0.037 A 
BRANCH  50  64
ATOM     64  C   UNL A   1      40.007  28.723  29.196  1.00  0.00     0.064 A 
ATOM     65  C   UNL A   1      39.049  29.142  28.262  1.00  0.00     0.173 A 
ATOM     66  C   UNL A   1      39.585  28.494  30.515  1.00  0.00     0.173 A 
ATOM     67  F   UNL A   1      39.404  29.383  26.991  1.00  0.00    -0.203 F 
ATOM     68  C   UNL A   1      37.724  29.347  28.639  1.00  0.00     0.198 A 
ATOM     69  C   UNL A   1      38.253  28.674  30.881  1.00  0.00     0.198 A 
ATOM     70  F   UNL A   1      40.460  28.084  31.444  1.00  0.00    -0.203 F 
ATOM     71  F   UNL A   1      36.833  29.787  27.739  1.00  0.00    -0.200 F 
ATOM     72  C   UNL A   1      37.326  29.106  29.946  1.00  0.00     0.200 A 
ATOM     73  F   UNL A   1      37.869  28.429  32.142  1.00  0.00    -0.200 F 
ATOM     74  F   UNL A   1      36.049  29.296  30.305  1.00  0.00    -0.200 F 
ENDBRANCH  50  64
BRANCH  51  75
ATOM     75  C   UNL A   1      49.302  26.739  26.197  1.00  0.00     0.064 A 
ATOM     76  C   UNL A   1      49.662  26.965  24.862  1.00  0.00     0.173 A 
ATOM     77  C   UNL A   1      50.282  26.235  27.064  1.00  0.00     0.173 A 
ATOM     78  F   UNL A   1      48.751  27.423  23.991  1.00  0.00    -0.203 F 
ATOM     79  C   UNL A   1      50.948  26.681  24.406  1.00  0.00     0.198 A 
ATOM     80  C   UNL A   1      51.575  25.976  26.613  1.00  0.00     0.198 A 
ATOM     81  F   UNL A   1      49.986  26.005  28.352  1.00  0.00    -0.203 F 
ATOM     82  F   UNL A   1      51.254  26.864  23.115  1.00  0.00    -0.200 F 
ATOM     83  C   UNL A   1      51.904  26.192  25.284  1.00  0.00     0.200 A 
ATOM     84  F   UNL A   1      52.499  25.515  27.466  1.00  0.00    -0.200 F 
ATOM     85  F   UNL A   1      53.142  25.921  24.845  1.00  0.00    -0.200 F 
ENDBRANCH  51  75
BRANCH  63  86
ATOM     86  C   UNL A   1      46.160  32.437  28.671  1.00  0.00     0.064 A 
ATOM     87  C   UNL A   1      46.733  32.780  29.903  1.00  0.00     0.173 A 
ATOM     88  C   UNL A   1      46.091  33.426  27.678  1.00  0.00     0.173 A 
ATOM     89  F   UNL A   1      46.807  31.874  30.889  1.00  0.00    -0.203 F 
ATOM     90  C   UNL A   1      47.201  34.070  30.139  1.00  0.00     0.198 A 
ATOM     91  C   UNL A   1      46.583  34.708  27.909  1.00  0.00     0.198 A 
ATOM     92  F   UNL A   1      45.555  33.147  26.481  1.00  0.00    -0.203 F 
ATOM     93  F   UNL A   1      47.707  34.389  31.339  1.00  0.00    -0.200 F 
ATOM     94  C   UNL A   1      47.132  35.031  29.141  1.00  0.00     0.200 A 
ATOM     95  F   UNL A   1      46.525  35.632  26.939  1.00  0.00    -0.200 F 
ATOM     96  F   UNL A   1      47.587  36.270  29.368  1.00  0.00    -0.200 F 
ENDBRANCH  63  86
ENDBRANCH  37  38
ENDBRANCH  29  32
ENDBRANCH  27  28
ENDBRANCH  26  27
ENDBRANCH   1  26
TORSDOF 14
ENDMDL
