MODEL 1
REMARK VINA RESULT:     -12.2      0.000      0.000
REMARK SMILES CC[NH2+][C@@]1(C(=O)NCCCCNC(=O)c2ccc(-c3c4nc(c(-c5c(F)c(F)c(F)c(F)c5F)c5ccc([nH]5)c(-c5c(F)c(F)c(F)c(F)c5F)c5nc(c(-c6c(F)c(F)c(F)c(F)c6F)c6ccc3[nH]6)C=C5)C=C4)cc2)CC[C@@H](Oc2cccc(OC)c2)C1
REMARK SMILES IDX 9 1 8 2 7 3 5 4 6 5 4 7 78 8 90 9 79 10 80 11 3 12 2 15 1 16
REMARK SMILES IDX 81 17 82 18 83 19 89 20 84 21 86 22 85 23 87 24 88 25 10 26
REMARK SMILES IDX 11 27 12 28 13 29 14 31 15 32 16 33 77 34 17 35 76 36 18 37
REMARK SMILES IDX 19 38 20 39 70 40 21 41 75 42 69 43 71 44 22 45 74 46 68 47
REMARK SMILES IDX 67 48 23 50 55 51 35 52 54 53 36 54 39 55 53 56 72 57 37 58
REMARK SMILES IDX 38 59 52 61 73 62 40 63 24 64 25 65 33 66 26 67 27 68 31 69
REMARK SMILES IDX 34 70 28 71 29 72 32 73 30 74 56 75 57 76 65 77 58 78 59 79
REMARK SMILES IDX 63 80 66 81 60 82 61 83 64 84 62 85 41 86 42 87 50 88 43 89
REMARK SMILES IDX 44 90 48 91 51 92 45 93 46 94 49 95 47 96
REMARK H PARENT 7 6 3 13 3 14 12 30 71 49 39 60
REMARK Flexibility Score: inf
ROOT
ATOM      1  C   UNL A   1      31.871  30.469  26.788  1.00  0.00     0.023 C 
ENDROOT
BRANCH   1   2
ATOM      2  C   UNL A   1      33.227  29.926  26.345  1.00  0.00     0.116 C 
BRANCH   2   3
ATOM      3  N   UNL A   1      33.313  29.851  24.905  1.00  0.00    -0.351 N 
ATOM      4  C   UNL A   1      33.208  28.818  24.029  1.00  0.00     0.281 C 
ATOM      5  O   UNL A   1      33.532  29.095  22.865  1.00  0.00    -0.268 OA
ATOM      6  H   UNL A   1      33.480  30.720  24.473  1.00  0.00     0.163 HD
BRANCH   4   7
ATOM      7  C   UNL A   1      32.797  27.342  24.427  1.00  0.00     0.179 C 
ATOM      8  C   UNL A   1      33.668  26.750  25.549  1.00  0.00     0.083 C 
ATOM      9  C   UNL A   1      32.943  26.425  23.196  1.00  0.00     0.124 C 
ATOM     10  C   UNL A   1      34.278  25.456  25.012  1.00  0.00     0.052 C 
ATOM     11  C   UNL A   1      34.111  25.484  23.489  1.00  0.00     0.180 C 
BRANCH   7  12
ATOM     12  N   UNL A   1      31.380  27.458  24.862  1.00  0.00    -0.334 N 
ATOM     13  H   UNL A   1      31.176  28.454  24.954  1.00  0.00     0.347 HD
ATOM     14  H   UNL A   1      30.863  26.951  24.145  1.00  0.00     0.347 HD
BRANCH  12  15
ATOM     15  C   UNL A   1      30.968  26.823  26.103  1.00  0.00     0.257 C 
ATOM     16  C   UNL A   1      30.098  25.612  25.790  1.00  0.00     0.071 C 
ENDBRANCH  12  15
ENDBRANCH   7  12
BRANCH  11  17
ATOM     17  O   UNL A   1      34.052  24.235  22.779  1.00  0.00    -0.490 OA
BRANCH  17  18
ATOM     18  C   UNL A   1      34.676  23.188  23.393  1.00  0.00     0.123 A 
ATOM     19  C   UNL A   1      36.068  23.147  23.412  1.00  0.00     0.047 A 
ATOM     20  C   UNL A   1      33.924  22.161  23.961  1.00  0.00     0.092 A 
ATOM     21  C   UNL A   1      36.712  22.123  24.103  1.00  0.00     0.008 A 
ATOM     22  C   UNL A   1      34.562  21.147  24.671  1.00  0.00     0.122 A 
ATOM     23  C   UNL A   1      35.957  21.139  24.746  1.00  0.00     0.046 A 
BRANCH  22  24
ATOM     24  O   UNL A   1      33.938  20.128  25.337  1.00  0.00    -0.497 OA
ATOM     25  C   UNL A   1      33.864  18.875  24.666  1.00  0.00     0.278 C 
ENDBRANCH  22  24
ENDBRANCH  17  18
ENDBRANCH  11  17
ENDBRANCH   4   7
ENDBRANCH   2   3
ENDBRANCH   1   2
BRANCH   1  26
ATOM     26  C   UNL A   1      31.736  31.986  26.670  1.00  0.00     0.023 C 
BRANCH  26  27
ATOM     27  C   UNL A   1      32.814  32.780  27.400  1.00  0.00     0.116 C 
BRANCH  27  28
ATOM     28  N   UNL A   1      32.444  34.159  27.685  1.00  0.00    -0.352 N 
ATOM     29  C   UNL A   1      33.004  35.006  28.611  1.00  0.00     0.251 C 
ATOM     30  H   UNL A   1      31.703  34.528  27.152  1.00  0.00     0.163 HD
ATOM     31  O   UNL A   1      32.540  36.123  28.807  1.00  0.00    -0.269 OA
BRANCH  29  32
ATOM     32  C   UNL A   1      34.150  34.524  29.404  1.00  0.00     0.039 A 
ATOM     33  C   UNL A   1      33.905  33.911  30.633  1.00  0.00     0.014 A 
ATOM     34  C   UNL A   1      35.447  34.609  28.893  1.00  0.00     0.014 A 
ATOM     35  C   UNL A   1      34.963  33.322  31.325  1.00  0.00     0.010 A 
ATOM     36  C   UNL A   1      36.483  33.950  29.541  1.00  0.00     0.010 A 
ATOM     37  C   UNL A   1      36.252  33.307  30.766  1.00  0.00    -0.014 A 
BRANCH  37  38
ATOM     38  C   UNL A   1      37.376  32.635  31.461  1.00  0.00     0.031 A 
ATOM     39  C   UNL A   1      38.088  31.490  30.800  1.00  0.00     0.074 A 
ATOM     40  C   UNL A   1      37.715  33.019  32.707  1.00  0.00     0.049 A 
ATOM     41  N   UNL A   1      39.069  30.752  31.252  1.00  0.00    -0.248 NA
ATOM     42  C   UNL A   1      37.610  31.097  29.464  1.00  0.00     0.031 C 
ATOM     43  C   UNL A   1      37.051  34.071  33.479  1.00  0.00     0.029 A 
ATOM     44  N   UNL A   1      38.701  32.564  33.545  1.00  0.00    -0.354 N 
ATOM     45  C   UNL A   1      39.313  29.804  30.268  1.00  0.00     0.074 A 
ATOM     46  C   UNL A   1      38.338  30.017  29.221  1.00  0.00     0.031 C 
ATOM     47  C   UNL A   1      37.670  34.202  34.664  1.00  0.00     0.029 A 
ATOM     48  C   UNL A   1      38.752  33.227  34.746  1.00  0.00     0.049 A 
ATOM     49  H   UNL A   1      39.314  31.830  33.308  1.00  0.00     0.167 HD
ATOM     50  C   UNL A   1      40.284  28.862  30.224  1.00  0.00     0.037 A 
ATOM     51  C   UNL A   1      39.588  33.070  35.790  1.00  0.00     0.037 A 
ATOM     52  C   UNL A   1      41.275  28.678  31.250  1.00  0.00     0.049 A 
ATOM     53  C   UNL A   1      40.679  32.037  35.703  1.00  0.00     0.074 A 
ATOM     54  C   UNL A   1      42.343  27.799  31.274  1.00  0.00     0.029 A 
ATOM     55  N   UNL A   1      41.319  29.395  32.438  1.00  0.00    -0.354 N 
ATOM     56  N   UNL A   1      40.952  31.201  34.731  1.00  0.00    -0.248 NA
ATOM     57  C   UNL A   1      41.587  31.936  36.854  1.00  0.00     0.031 C 
ATOM     58  C   UNL A   1      43.012  27.958  32.491  1.00  0.00     0.029 A 
ATOM     59  C   UNL A   1      42.388  28.967  33.207  1.00  0.00     0.049 A 
ATOM     60  H   UNL A   1      40.685  30.102  32.695  1.00  0.00     0.167 HD
ATOM     61  C   UNL A   1      42.075  30.494  35.140  1.00  0.00     0.074 A 
ATOM     62  C   UNL A   1      42.443  31.014  36.440  1.00  0.00     0.031 C 
ATOM     63  C   UNL A   1      42.741  29.503  34.497  1.00  0.00     0.037 A 
BRANCH  50  64
ATOM     64  C   UNL A   1      40.325  27.968  29.019  1.00  0.00     0.064 A 
ATOM     65  C   UNL A   1      39.620  26.756  28.979  1.00  0.00     0.173 A 
ATOM     66  C   UNL A   1      41.060  28.338  27.882  1.00  0.00     0.173 A 
ATOM     67  F   UNL A   1      38.915  26.349  30.045  1.00  0.00    -0.203 F 
ATOM     68  C   UNL A   1      39.677  25.929  27.859  1.00  0.00     0.198 A 
ATOM     69  C   UNL A   1      41.089  27.524  26.752  1.00  0.00     0.198 A 
ATOM     70  F   UNL A   1      41.749  29.488  27.866  1.00  0.00    -0.203 F 
ATOM     71  F   UNL A   1      39.041  24.749  27.867  1.00  0.00    -0.200 F 
ATOM     72  C   UNL A   1      40.405  26.317  26.745  1.00  0.00     0.200 A 
ATOM     73  F   UNL A   1      41.784  27.905  25.672  1.00  0.00    -0.200 F 
ATOM     74  F   UNL A   1      40.455  25.523  25.667  1.00  0.00    -0.200 F 
ENDBRANCH  50  64
BRANCH  51  75
ATOM     75  C   UNL A   1      39.456  33.941  36.986  1.00  0.00     0.064 A 
ATOM     76  C   UNL A   1      40.056  35.208  37.021  1.00  0.00     0.173 A 
ATOM     77  C   UNL A   1      38.737  33.528  38.117  1.00  0.00     0.173 A 
ATOM     78  F   UNL A   1      40.771  35.639  35.971  1.00  0.00    -0.203 F 
ATOM     79  C   UNL A   1      39.961  36.019  38.150  1.00  0.00     0.198 A 
ATOM     80  C   UNL A   1      38.620  34.352  39.235  1.00  0.00     0.198 A 
ATOM     81  F   UNL A   1      38.139  32.328  38.130  1.00  0.00    -0.203 F 
ATOM     82  F   UNL A   1      40.583  37.206  38.173  1.00  0.00    -0.200 F 
ATOM     83  C   UNL A   1      39.240  35.593  39.254  1.00  0.00     0.200 A 
ATOM     84  F   UNL A   1      37.911  33.941  40.295  1.00  0.00    -0.200 F 
ATOM     85  F   UNL A   1      39.147  36.373  40.338  1.00  0.00    -0.200 F 
ENDBRANCH  51  75
BRANCH  63  86
ATOM     86  C   UNL A   1      43.952  28.939  35.180  1.00  0.00     0.064 A 
ATOM     87  C   UNL A   1      43.864  27.841  36.047  1.00  0.00     0.173 A 
ATOM     88  C   UNL A   1      45.221  29.487  34.936  1.00  0.00     0.173 A 
ATOM     89  F   UNL A   1      42.670  27.294  36.323  1.00  0.00    -0.203 F 
ATOM     90  C   UNL A   1      44.998  27.329  36.669  1.00  0.00     0.198 A 
ATOM     91  C   UNL A   1      46.357  28.953  35.537  1.00  0.00     0.198 A 
ATOM     92  F   UNL A   1      45.360  30.533  34.108  1.00  0.00    -0.203 F 
ATOM     93  F   UNL A   1      44.884  26.312  37.534  1.00  0.00    -0.200 F 
ATOM     94  C   UNL A   1      46.244  27.881  36.409  1.00  0.00     0.200 A 
ATOM     95  F   UNL A   1      47.562  29.478  35.275  1.00  0.00    -0.200 F 
ATOM     96  F   UNL A   1      47.336  27.384  37.007  1.00  0.00    -0.200 F 
ENDBRANCH  63  86
ENDBRANCH  37  38
ENDBRANCH  29  32
ENDBRANCH  27  28
ENDBRANCH  26  27
ENDBRANCH   1  26
TORSDOF 16
ENDMDL
MODEL 2
REMARK VINA RESULT:     -12.0      1.746      3.990
REMARK SMILES CC[NH2+][C@@]1(C(=O)NCCCCNC(=O)c2ccc(-c3c4nc(c(-c5c(F)c(F)c(F)c(F)c5F)c5ccc([nH]5)c(-c5c(F)c(F)c(F)c(F)c5F)c5nc(c(-c6c(F)c(F)c(F)c(F)c6F)c6ccc3[nH]6)C=C5)C=C4)cc2)CC[C@@H](Oc2cccc(OC)c2)C1
REMARK SMILES IDX 9 1 8 2 7 3 5 4 6 5 4 7 78 8 90 9 79 10 80 11 3 12 2 15 1 16
REMARK SMILES IDX 81 17 82 18 83 19 89 20 84 21 86 22 85 23 87 24 88 25 10 26
REMARK SMILES IDX 11 27 12 28 13 29 14 31 15 32 16 33 77 34 17 35 76 36 18 37
REMARK SMILES IDX 19 38 20 39 70 40 21 41 75 42 69 43 71 44 22 45 74 46 68 47
REMARK SMILES IDX 67 48 23 50 55 51 35 52 54 53 36 54 39 55 53 56 72 57 37 58
REMARK SMILES IDX 38 59 52 61 73 62 40 63 24 64 25 65 33 66 26 67 27 68 31 69
REMARK SMILES IDX 34 70 28 71 29 72 32 73 30 74 56 75 57 76 65 77 58 78 59 79
REMARK SMILES IDX 63 80 66 81 60 82 61 83 64 84 62 85 41 86 42 87 50 88 43 89
REMARK SMILES IDX 44 90 48 91 51 92 45 93 46 94 49 95 47 96
REMARK H PARENT 7 6 3 13 3 14 12 30 71 49 39 60
REMARK Flexibility Score: inf
ROOT
ATOM      1  C   UNL A   1      31.972  30.959  25.864  1.00  0.00     0.023 C 
ENDROOT
BRANCH   1   2
ATOM      2  C   UNL A   1      33.064  30.037  26.401  1.00  0.00     0.116 C 
BRANCH   2   3
ATOM      3  N   UNL A   1      32.538  29.130  27.394  1.00  0.00    -0.351 N 
ATOM      4  C   UNL A   1      32.077  27.853  27.323  1.00  0.00     0.281 C 
ATOM      5  O   UNL A   1      31.517  27.450  28.353  1.00  0.00    -0.268 OA
ATOM      6  H   UNL A   1      32.507  29.511  28.300  1.00  0.00     0.163 HD
BRANCH   4   7
ATOM      7  C   UNL A   1      32.146  26.945  26.028  1.00  0.00     0.179 C 
ATOM      8  C   UNL A   1      33.455  27.113  25.236  1.00  0.00     0.083 C 
ATOM      9  C   UNL A   1      30.984  27.318  25.085  1.00  0.00     0.124 C 
ATOM     10  C   UNL A   1      33.073  27.521  23.814  1.00  0.00     0.052 C 
ATOM     11  C   UNL A   1      31.612  27.981  23.860  1.00  0.00     0.180 C 
BRANCH   7  12
ATOM     12  N   UNL A   1      32.014  25.557  26.543  1.00  0.00    -0.334 N 
ATOM     13  H   UNL A   1      31.977  25.618  27.561  1.00  0.00     0.347 HD
ATOM     14  H   UNL A   1      31.180  25.202  26.077  1.00  0.00     0.347 HD
BRANCH  12  15
ATOM     15  C   UNL A   1      33.039  24.581  26.213  1.00  0.00     0.257 C 
ATOM     16  C   UNL A   1      32.490  23.594  25.190  1.00  0.00     0.071 C 
ENDBRANCH  12  15
ENDBRANCH   7  12
BRANCH  11  17
ATOM     17  O   UNL A   1      30.819  27.881  22.665  1.00  0.00    -0.490 OA
BRANCH  17  18
ATOM     18  C   UNL A   1      29.732  28.704  22.620  1.00  0.00     0.123 A 
ATOM     19  C   UNL A   1      28.488  28.204  23.000  1.00  0.00     0.047 A 
ATOM     20  C   UNL A   1      29.865  30.015  22.167  1.00  0.00     0.092 A 
ATOM     21  C   UNL A   1      27.388  29.059  23.030  1.00  0.00     0.008 A 
ATOM     22  C   UNL A   1      28.775  30.880  22.215  1.00  0.00     0.122 A 
ATOM     23  C   UNL A   1      27.540  30.397  22.656  1.00  0.00     0.046 A 
BRANCH  22  24
ATOM     24  O   UNL A   1      28.792  32.204  21.872  1.00  0.00    -0.497 OA
ATOM     25  C   UNL A   1      28.993  33.137  22.927  1.00  0.00     0.278 C 
ENDBRANCH  22  24
ENDBRANCH  17  18
ENDBRANCH  11  17
ENDBRANCH   4   7
ENDBRANCH   2   3
ENDBRANCH   1   2
BRANCH   1  26
ATOM     26  C   UNL A   1      31.547  32.056  26.837  1.00  0.00     0.023 C 
BRANCH  26  27
ATOM     27  C   UNL A   1      32.696  32.875  27.416  1.00  0.00     0.116 C 
BRANCH  27  28
ATOM     28  N   UNL A   1      32.358  34.266  27.681  1.00  0.00    -0.352 N 
ATOM     29  C   UNL A   1      32.947  35.118  28.583  1.00  0.00     0.251 C 
ATOM     30  H   UNL A   1      31.619  34.641  27.150  1.00  0.00     0.163 HD
ATOM     31  O   UNL A   1      32.509  36.248  28.765  1.00  0.00    -0.269 OA
BRANCH  29  32
ATOM     32  C   UNL A   1      34.093  34.626  29.371  1.00  0.00     0.039 A 
ATOM     33  C   UNL A   1      33.856  34.083  30.635  1.00  0.00     0.014 A 
ATOM     34  C   UNL A   1      35.378  34.631  28.826  1.00  0.00     0.014 A 
ATOM     35  C   UNL A   1      34.906  33.483  31.329  1.00  0.00     0.010 A 
ATOM     36  C   UNL A   1      36.403  33.960  29.480  1.00  0.00     0.010 A 
ATOM     37  C   UNL A   1      36.178  33.387  30.740  1.00  0.00    -0.014 A 
BRANCH  37  38
ATOM     38  C   UNL A   1      37.292  32.702  31.440  1.00  0.00     0.031 A 
ATOM     39  C   UNL A   1      37.992  31.548  30.781  1.00  0.00     0.074 A 
ATOM     40  C   UNL A   1      37.630  33.082  32.687  1.00  0.00     0.049 A 
ATOM     41  N   UNL A   1      38.963  30.799  31.238  1.00  0.00    -0.248 NA
ATOM     42  C   UNL A   1      37.515  31.161  29.444  1.00  0.00     0.031 C 
ATOM     43  C   UNL A   1      36.975  34.142  33.457  1.00  0.00     0.029 A 
ATOM     44  N   UNL A   1      38.607  32.615  33.529  1.00  0.00    -0.354 N 
ATOM     45  C   UNL A   1      39.199  29.848  30.254  1.00  0.00     0.074 A 
ATOM     46  C   UNL A   1      38.231  30.073  29.204  1.00  0.00     0.031 C 
ATOM     47  C   UNL A   1      37.591  34.266  34.644  1.00  0.00     0.029 A 
ATOM     48  C   UNL A   1      38.661  33.278  34.730  1.00  0.00     0.049 A 
ATOM     49  H   UNL A   1      39.212  31.874  33.295  1.00  0.00     0.167 HD
ATOM     50  C   UNL A   1      40.159  28.894  30.215  1.00  0.00     0.037 A 
ATOM     51  C   UNL A   1      39.491  33.111  35.777  1.00  0.00     0.037 A 
ATOM     52  C   UNL A   1      41.144  28.699  31.245  1.00  0.00     0.049 A 
ATOM     53  C   UNL A   1      40.570  32.065  35.694  1.00  0.00     0.074 A 
ATOM     54  C   UNL A   1      42.201  27.807  31.273  1.00  0.00     0.029 A 
ATOM     55  N   UNL A   1      41.191  29.415  32.432  1.00  0.00    -0.354 N 
ATOM     56  N   UNL A   1      40.837  31.225  34.724  1.00  0.00    -0.248 NA
ATOM     57  C   UNL A   1      41.472  31.954  36.850  1.00  0.00     0.031 C 
ATOM     58  C   UNL A   1      42.867  27.958  32.493  1.00  0.00     0.029 A 
ATOM     59  C   UNL A   1      42.252  28.974  33.206  1.00  0.00     0.049 A 
ATOM     60  H   UNL A   1      40.564  30.130  32.687  1.00  0.00     0.167 HD
ATOM     61  C   UNL A   1      41.950  30.506  35.137  1.00  0.00     0.074 A 
ATOM     62  C   UNL A   1      42.319  31.021  36.439  1.00  0.00     0.031 C 
ATOM     63  C   UNL A   1      42.606  29.506  34.497  1.00  0.00     0.037 A 
BRANCH  50  64
ATOM     64  C   UNL A   1      40.194  28.000  29.009  1.00  0.00     0.064 A 
ATOM     65  C   UNL A   1      40.918  28.347  27.859  1.00  0.00     0.173 A 
ATOM     66  C   UNL A   1      39.515  26.772  29.012  1.00  0.00     0.173 A 
ATOM     67  F   UNL A   1      41.572  29.517  27.800  1.00  0.00    -0.203 F 
ATOM     68  C   UNL A   1      40.932  27.515  26.742  1.00  0.00     0.198 A 
ATOM     69  C   UNL A   1      39.557  25.929  27.905  1.00  0.00     0.198 A 
ATOM     70  F   UNL A   1      38.810  26.391  30.087  1.00  0.00    -0.203 F 
ATOM     71  F   UNL A   1      41.584  27.895  25.634  1.00  0.00    -0.200 F 
ATOM     72  C   UNL A   1      40.258  26.304  26.768  1.00  0.00     0.200 A 
ATOM     73  F   UNL A   1      38.914  24.753  27.935  1.00  0.00    -0.200 F 
ATOM     74  F   UNL A   1      40.277  25.503  25.695  1.00  0.00    -0.200 F 
ENDBRANCH  50  64
BRANCH  51  75
ATOM     75  C   UNL A   1      39.365  33.984  36.972  1.00  0.00     0.064 A 
ATOM     76  C   UNL A   1      39.963  35.251  37.002  1.00  0.00     0.173 A 
ATOM     77  C   UNL A   1      38.652  33.572  38.108  1.00  0.00     0.173 A 
ATOM     78  F   UNL A   1      40.672  35.681  35.948  1.00  0.00    -0.203 F 
ATOM     79  C   UNL A   1      39.874  36.064  38.131  1.00  0.00     0.198 A 
ATOM     80  C   UNL A   1      38.541  34.397  39.226  1.00  0.00     0.198 A 
ATOM     81  F   UNL A   1      38.056  32.371  38.126  1.00  0.00    -0.203 F 
ATOM     82  F   UNL A   1      40.494  37.252  38.149  1.00  0.00    -0.200 F 
ATOM     83  C   UNL A   1      39.159  35.639  39.239  1.00  0.00     0.200 A 
ATOM     84  F   UNL A   1      37.837  33.987  40.290  1.00  0.00    -0.200 F 
ATOM     85  F   UNL A   1      39.071  36.421  40.323  1.00  0.00    -0.200 F 
ENDBRANCH  51  75
BRANCH  63  86
ATOM     86  C   UNL A   1      43.808  28.929  35.185  1.00  0.00     0.064 A 
ATOM     87  C   UNL A   1      45.096  29.437  34.964  1.00  0.00     0.173 A 
ATOM     88  C   UNL A   1      43.663  27.875  36.100  1.00  0.00     0.173 A 
ATOM     89  F   UNL A   1      45.287  30.434  34.087  1.00  0.00    -0.203 F 
ATOM     90  C   UNL A   1      46.200  28.892  35.613  1.00  0.00     0.198 A 
ATOM     91  C   UNL A   1      44.765  27.352  36.769  1.00  0.00     0.198 A 
ATOM     92  F   UNL A   1      42.450  27.359  36.351  1.00  0.00    -0.203 F 
ATOM     93  F   UNL A   1      47.428  29.359  35.350  1.00  0.00    -0.200 F 
ATOM     94  C   UNL A   1      46.033  27.855  36.519  1.00  0.00     0.200 A 
ATOM     95  F   UNL A   1      44.601  26.359  37.654  1.00  0.00    -0.200 F 
ATOM     96  F   UNL A   1      47.097  27.334  37.146  1.00  0.00    -0.200 F 
ENDBRANCH  63  86
ENDBRANCH  37  38
ENDBRANCH  29  32
ENDBRANCH  27  28
ENDBRANCH  26  27
ENDBRANCH   1  26
TORSDOF 16
ENDMDL
MODEL 3
REMARK VINA RESULT:     -12.0      0.870      7.493
REMARK SMILES CC[NH2+][C@@]1(C(=O)NCCCCNC(=O)c2ccc(-c3c4nc(c(-c5c(F)c(F)c(F)c(F)c5F)c5ccc([nH]5)c(-c5c(F)c(F)c(F)c(F)c5F)c5nc(c(-c6c(F)c(F)c(F)c(F)c6F)c6ccc3[nH]6)C=C5)C=C4)cc2)CC[C@@H](Oc2cccc(OC)c2)C1
REMARK SMILES IDX 9 1 8 2 7 3 5 4 6 5 4 7 78 8 90 9 79 10 80 11 3 12 2 15 1 16
REMARK SMILES IDX 81 17 82 18 83 19 89 20 84 21 86 22 85 23 87 24 88 25 10 26
REMARK SMILES IDX 11 27 12 28 13 29 14 31 15 32 16 33 77 34 17 35 76 36 18 37
REMARK SMILES IDX 19 38 20 39 70 40 21 41 75 42 69 43 71 44 22 45 74 46 68 47
REMARK SMILES IDX 67 48 23 50 55 51 35 52 54 53 36 54 39 55 53 56 72 57 37 58
REMARK SMILES IDX 38 59 52 61 73 62 40 63 24 64 25 65 33 66 26 67 27 68 31 69
REMARK SMILES IDX 34 70 28 71 29 72 32 73 30 74 56 75 57 76 65 77 58 78 59 79
REMARK SMILES IDX 63 80 66 81 60 82 61 83 64 84 62 85 41 86 42 87 50 88 43 89
REMARK SMILES IDX 44 90 48 91 51 92 45 93 46 94 49 95 47 96
REMARK H PARENT 7 6 3 13 3 14 12 30 71 49 39 60
REMARK Flexibility Score: inf
ROOT
ATOM      1  C   UNL A   1      31.777  30.268  26.649  1.00  0.00     0.023 C 
ENDROOT
BRANCH   1   2
ATOM      2  C   UNL A   1      33.155  29.739  26.258  1.00  0.00     0.116 C 
BRANCH   2   3
ATOM      3  N   UNL A   1      33.309  29.701  24.822  1.00  0.00    -0.351 N 
ATOM      4  C   UNL A   1      33.182  28.704  23.909  1.00  0.00     0.281 C 
ATOM      5  O   UNL A   1      33.582  28.992  22.772  1.00  0.00    -0.268 OA
ATOM      6  H   UNL A   1      33.554  30.569  24.428  1.00  0.00     0.163 HD
BRANCH   4   7
ATOM      7  C   UNL A   1      32.656  27.247  24.238  1.00  0.00     0.179 C 
ATOM      8  C   UNL A   1      33.381  26.592  25.427  1.00  0.00     0.083 C 
ATOM      9  C   UNL A   1      32.870  26.340  23.009  1.00  0.00     0.124 C 
ATOM     10  C   UNL A   1      33.970  25.275  24.926  1.00  0.00     0.052 C 
ATOM     11  C   UNL A   1      33.952  25.332  23.395  1.00  0.00     0.180 C 
BRANCH   7  12
ATOM     12  N   UNL A   1      31.212  27.435  24.538  1.00  0.00    -0.334 N 
ATOM     13  H   UNL A   1      31.154  28.019  25.373  1.00  0.00     0.347 HD
ATOM     14  H   UNL A   1      30.833  27.830  23.678  1.00  0.00     0.347 HD
BRANCH  12  15
ATOM     15  C   UNL A   1      30.383  26.266  24.779  1.00  0.00     0.257 C 
ATOM     16  C   UNL A   1      29.137  26.337  23.903  1.00  0.00     0.071 C 
ENDBRANCH  12  15
ENDBRANCH   7  12
BRANCH  11  17
ATOM     17  O   UNL A   1      33.896  24.098  22.659  1.00  0.00    -0.490 OA
BRANCH  17  18
ATOM     18  C   UNL A   1      34.103  22.971  23.399  1.00  0.00     0.123 A 
ATOM     19  C   UNL A   1      35.398  22.655  23.803  1.00  0.00     0.047 A 
ATOM     20  C   UNL A   1      33.033  22.135  23.714  1.00  0.00     0.092 A 
ATOM     21  C   UNL A   1      35.606  21.548  24.623  1.00  0.00     0.008 A 
ATOM     22  C   UNL A   1      33.232  21.040  24.552  1.00  0.00     0.122 A 
ATOM     23  C   UNL A   1      34.521  20.757  25.010  1.00  0.00     0.046 A 
BRANCH  22  24
ATOM     24  O   UNL A   1      32.257  20.189  24.995  1.00  0.00    -0.497 OA
ATOM     25  C   UNL A   1      32.666  18.873  25.347  1.00  0.00     0.278 C 
ENDBRANCH  22  24
ENDBRANCH  17  18
ENDBRANCH  11  17
ENDBRANCH   4   7
ENDBRANCH   2   3
ENDBRANCH   1   2
BRANCH   1  26
ATOM     26  C   UNL A   1      31.648  31.788  26.584  1.00  0.00     0.023 C 
BRANCH  26  27
ATOM     27  C   UNL A   1      32.794  32.553  27.238  1.00  0.00     0.116 C 
BRANCH  27  28
ATOM     28  N   UNL A   1      32.460  33.921  27.607  1.00  0.00    -0.352 N 
ATOM     29  C   UNL A   1      33.071  34.711  28.550  1.00  0.00     0.251 C 
ATOM     30  H   UNL A   1      31.706  34.328  27.123  1.00  0.00     0.163 HD
ATOM     31  O   UNL A   1      32.634  35.824  28.821  1.00  0.00    -0.269 OA
BRANCH  29  32
ATOM     32  C   UNL A   1      34.238  34.171  29.272  1.00  0.00     0.039 A 
ATOM     33  C   UNL A   1      34.022  33.331  30.365  1.00  0.00     0.014 A 
ATOM     34  C   UNL A   1      35.532  34.433  28.816  1.00  0.00     0.014 A 
ATOM     35  C   UNL A   1      35.111  32.699  30.966  1.00  0.00     0.010 A 
ATOM     36  C   UNL A   1      36.604  33.739  29.360  1.00  0.00     0.010 A 
ATOM     37  C   UNL A   1      36.404  32.871  30.444  1.00  0.00    -0.014 A 
BRANCH  37  38
ATOM     38  C   UNL A   1      37.565  32.161  31.035  1.00  0.00     0.031 A 
ATOM     39  C   UNL A   1      38.041  32.524  32.413  1.00  0.00     0.074 A 
ATOM     40  C   UNL A   1      38.220  31.235  30.309  1.00  0.00     0.049 A 
ATOM     41  N   UNL A   1      39.052  32.046  33.091  1.00  0.00    -0.248 NA
ATOM     42  C   UNL A   1      37.303  33.591  33.108  1.00  0.00     0.031 C 
ATOM     43  C   UNL A   1      37.894  30.849  28.935  1.00  0.00     0.029 A 
ATOM     44  N   UNL A   1      39.302  30.453  30.626  1.00  0.00    -0.354 N 
ATOM     45  C   UNL A   1      39.081  32.763  34.280  1.00  0.00     0.074 A 
ATOM     46  C   UNL A   1      38.026  33.750  34.206  1.00  0.00     0.031 C 
ATOM     47  C   UNL A   1      38.737  29.881  28.540  1.00  0.00     0.029 A 
ATOM     48  C   UNL A   1      39.677  29.599  29.620  1.00  0.00     0.049 A 
ATOM     49  H   UNL A   1      39.765  30.500  31.494  1.00  0.00     0.167 HD
ATOM     50  C   UNL A   1      39.891  32.592  35.351  1.00  0.00     0.037 A 
ATOM     51  C   UNL A   1      40.664  28.685  29.579  1.00  0.00     0.037 A 
ATOM     52  C   UNL A   1      40.913  31.584  35.434  1.00  0.00     0.049 A 
ATOM     53  C   UNL A   1      41.531  28.492  30.796  1.00  0.00     0.074 A 
ATOM     54  C   UNL A   1      41.744  31.280  36.498  1.00  0.00     0.029 A 
ATOM     55  N   UNL A   1      41.241  30.710  34.407  1.00  0.00    -0.354 N 
ATOM     56  N   UNL A   1      41.495  29.119  31.946  1.00  0.00    -0.248 NA
ATOM     57  C   UNL A   1      42.566  27.452  30.710  1.00  0.00     0.031 C 
ATOM     58  C   UNL A   1      42.599  30.247  36.103  1.00  0.00     0.029 A 
ATOM     59  C   UNL A   1      42.272  29.876  34.809  1.00  0.00     0.049 A 
ATOM     60  H   UNL A   1      40.806  30.686  33.525  1.00  0.00     0.167 HD
ATOM     61  C   UNL A   1      42.481  28.535  32.730  1.00  0.00     0.074 A 
ATOM     62  C   UNL A   1      43.085  27.491  31.929  1.00  0.00     0.031 C 
ATOM     63  C   UNL A   1      42.854  28.838  33.998  1.00  0.00     0.037 A 
BRANCH  50  64
ATOM     64  C   UNL A   1      39.690  33.509  36.522  1.00  0.00     0.064 A 
ATOM     65  C   UNL A   1      40.333  34.753  36.599  1.00  0.00     0.173 A 
ATOM     66  C   UNL A   1      38.828  33.150  37.570  1.00  0.00     0.173 A 
ATOM     67  F   UNL A   1      41.178  35.137  35.631  1.00  0.00    -0.203 F 
ATOM     68  C   UNL A   1      40.148  35.590  37.698  1.00  0.00     0.198 A 
ATOM     69  C   UNL A   1      38.621  34.002  38.651  1.00  0.00     0.198 A 
ATOM     70  F   UNL A   1      38.186  31.972  37.544  1.00  0.00    -0.203 F 
ATOM     71  F   UNL A   1      40.818  36.748  37.775  1.00  0.00    -0.200 F 
ATOM     72  C   UNL A   1      39.288  35.216  38.719  1.00  0.00     0.200 A 
ATOM     73  F   UNL A   1      37.781  33.645  39.632  1.00  0.00    -0.200 F 
ATOM     74  F   UNL A   1      39.108  36.024  39.772  1.00  0.00    -0.200 F 
ENDBRANCH  50  64
BRANCH  51  75
ATOM     75  C   UNL A   1      40.857  27.851  28.366  1.00  0.00     0.064 A 
ATOM     76  C   UNL A   1      40.213  26.612  28.236  1.00  0.00     0.173 A 
ATOM     77  C   UNL A   1      41.689  28.267  27.316  1.00  0.00     0.173 A 
ATOM     78  F   UNL A   1      39.424  26.163  29.222  1.00  0.00    -0.203 F 
ATOM     79  C   UNL A   1      40.412  25.811  27.113  1.00  0.00     0.198 A 
ATOM     80  C   UNL A   1      41.865  27.477  26.181  1.00  0.00     0.198 A 
ATOM     81  F   UNL A   1      42.323  29.447  27.389  1.00  0.00    -0.203 F 
ATOM     82  F   UNL A   1      39.820  24.611  27.036  1.00  0.00    -0.200 F 
ATOM     83  C   UNL A   1      41.234  26.246  26.085  1.00  0.00     0.200 A 
ATOM     84  F   UNL A   1      42.650  27.907  25.184  1.00  0.00    -0.200 F 
ATOM     85  F   UNL A   1      41.423  25.477  25.005  1.00  0.00    -0.200 F 
ENDBRANCH  51  75
BRANCH  63  86
ATOM     86  C   UNL A   1      43.946  28.007  34.605  1.00  0.00     0.064 A 
ATOM     87  C   UNL A   1      45.290  28.403  34.546  1.00  0.00     0.173 A 
ATOM     88  C   UNL A   1      43.638  26.817  35.281  1.00  0.00     0.173 A 
ATOM     89  F   UNL A   1      45.635  29.526  33.898  1.00  0.00    -0.203 F 
ATOM     90  C   UNL A   1      46.290  27.623  35.118  1.00  0.00     0.198 A 
ATOM     91  C   UNL A   1      44.638  26.055  35.877  1.00  0.00     0.198 A 
ATOM     92  F   UNL A   1      42.367  26.399  35.372  1.00  0.00    -0.203 F 
ATOM     93  F   UNL A   1      47.573  27.993  35.007  1.00  0.00    -0.200 F 
ATOM     94  C   UNL A   1      45.963  26.452  35.788  1.00  0.00     0.200 A 
ATOM     95  F   UNL A   1      44.319  24.931  36.536  1.00  0.00    -0.200 F 
ATOM     96  F   UNL A   1      46.927  25.704  36.341  1.00  0.00    -0.200 F 
ENDBRANCH  63  86
ENDBRANCH  37  38
ENDBRANCH  29  32
ENDBRANCH  27  28
ENDBRANCH  26  27
ENDBRANCH   1  26
TORSDOF 16
ENDMDL
