MODEL 1
REMARK VINA RESULT:     -13.1      0.000      0.000
REMARK SMILES O=C1C=C/C(=C\NCc2ccc(C(=O)NCCCCNC(=O)c3ccc(-c4c5nc(c(-c6c(F)c(F)c(F)c(F)c6F)c6ccc([nH]6)c(-c6c(F)c(F)c(F)c(F)c6F)c6nc(c(-c7c(F)c(F)c(F)c(F)c7F)c7ccc4[nH]7)C=C6)C=C5)cc3)cc2)C=C1[N+](=O)[O-]
REMARK SMILES IDX 16 1 15 2 13 3 14 4 12 6 9 7 10 8 87 9 11 10 86 11 8 12 7 13
REMARK SMILES IDX 6 15 1 16 2 17 3 18 89 19 4 20 88 21 5 22 90 23 91 24 92 25
REMARK SMILES IDX 17 26 18 27 19 28 20 29 21 30 22 32 23 33 24 34 85 35 25 36
REMARK SMILES IDX 84 37 26 38 27 39 28 40 78 41 29 42 83 43 77 44 79 45 30 46
REMARK SMILES IDX 82 47 76 48 75 49 31 51 63 52 43 53 62 54 44 55 47 56 61 57
REMARK SMILES IDX 80 58 45 59 46 60 60 62 81 63 48 64 32 65 33 66 41 67 34 68
REMARK SMILES IDX 35 69 39 70 42 71 36 72 37 73 40 74 38 75 64 76 65 77 73 78
REMARK SMILES IDX 66 79 67 80 71 81 74 82 68 83 69 84 72 85 70 86 49 87 50 88
REMARK SMILES IDX 58 89 51 90 52 91 56 92 59 93 53 94 54 95 57 96 55 97
REMARK H PARENT 15 5 7 14 20 31 79 50 47 61
REMARK Flexibility Score: inf
ROOT
ATOM      1  C   UNL A   1      32.212  29.920  25.387  1.00  0.00     0.116 C 
ENDROOT
BRANCH   1   2
ATOM      2  N   UNL A   1      31.245  29.477  24.405  1.00  0.00    -0.352 N 
ATOM      3  C   UNL A   1      30.773  28.231  24.082  1.00  0.00     0.251 C 
ATOM      4  O   UNL A   1      29.930  28.159  23.188  1.00  0.00    -0.269 OA
ATOM      5  H   UNL A   1      30.852  30.206  23.872  1.00  0.00     0.163 HD
BRANCH   3   6
ATOM      6  C   UNL A   1      31.190  26.986  24.788  1.00  0.00     0.039 A 
ATOM      7  C   UNL A   1      31.788  24.599  26.178  1.00  0.00    -0.029 A 
ATOM      8  C   UNL A   1      30.459  24.987  25.975  1.00  0.00     0.006 A 
ATOM      9  C   UNL A   1      32.811  25.392  25.646  1.00  0.00     0.006 A 
ATOM     10  C   UNL A   1      30.166  26.171  25.293  1.00  0.00     0.014 A 
ATOM     11  C   UNL A   1      32.512  26.556  24.934  1.00  0.00     0.014 A 
BRANCH   7  12
ATOM     12  C   UNL A   1      32.124  23.293  26.850  1.00  0.00     0.148 C 
BRANCH  12  13
ATOM     13  N   UNL A   1      33.060  22.583  26.002  1.00  0.00    -0.386 N 
ATOM     14  H   UNL A   1      33.599  23.130  25.387  1.00  0.00     0.160 HD
BRANCH  13  15
ATOM     15  C   UNL A   1      33.274  21.226  25.966  1.00  0.00     0.086 C 
ATOM     16  O   UNL A   1      32.167  17.689  21.986  1.00  0.00    -0.282 OA
ATOM     17  C   UNL A   1      32.429  18.436  22.919  1.00  0.00     0.255 C 
ATOM     18  C   UNL A   1      32.158  19.891  22.742  1.00  0.00     0.060 C 
ATOM     19  C   UNL A   1      33.014  18.028  24.223  1.00  0.00     0.316 C 
ATOM     20  C   UNL A   1      32.432  20.776  23.709  1.00  0.00     0.014 C 
ATOM     21  C   UNL A   1      33.294  18.933  25.181  1.00  0.00     0.099 C 
ATOM     22  C   UNL A   1      33.004  20.350  24.978  1.00  0.00    -0.003 C 
BRANCH  19  23
ATOM     23  N   UNL A   1      33.298  16.631  24.504  1.00  0.00     0.067 N 
ATOM     24  O   UNL A   1      32.623  16.070  25.384  1.00  0.00    -0.258 OA
ATOM     25  O   UNL A   1      34.179  16.058  23.854  1.00  0.00    -0.258 OA
ENDBRANCH  19  23
ENDBRANCH  13  15
ENDBRANCH  12  13
ENDBRANCH   7  12
ENDBRANCH   3   6
ENDBRANCH   1   2
BRANCH   1  26
ATOM     26  C   UNL A   1      31.497  30.506  26.606  1.00  0.00     0.023 C 
BRANCH  26  27
ATOM     27  C   UNL A   1      31.412  32.035  26.602  1.00  0.00     0.023 C 
BRANCH  27  28
ATOM     28  C   UNL A   1      32.640  32.741  27.166  1.00  0.00     0.116 C 
BRANCH  28  29
ATOM     29  N   UNL A   1      32.355  34.087  27.636  1.00  0.00    -0.352 N 
ATOM     30  C   UNL A   1      32.984  34.807  28.622  1.00  0.00     0.251 C 
ATOM     31  H   UNL A   1      31.610  34.544  27.186  1.00  0.00     0.163 HD
ATOM     32  O   UNL A   1      32.530  35.886  28.980  1.00  0.00    -0.269 OA
BRANCH  30  33
ATOM     33  C   UNL A   1      34.189  34.253  29.273  1.00  0.00     0.039 A 
ATOM     34  C   UNL A   1      34.022  33.433  30.390  1.00  0.00     0.014 A 
ATOM     35  C   UNL A   1      35.469  34.531  28.788  1.00  0.00     0.014 A 
ATOM     36  C   UNL A   1      35.139  32.853  30.992  1.00  0.00     0.010 A 
ATOM     37  C   UNL A   1      36.573  33.886  29.336  1.00  0.00     0.010 A 
ATOM     38  C   UNL A   1      36.420  33.049  30.450  1.00  0.00    -0.014 A 
BRANCH  38  39
ATOM     39  C   UNL A   1      37.599  32.375  31.050  1.00  0.00     0.031 A 
ATOM     40  C   UNL A   1      38.070  32.740  32.429  1.00  0.00     0.074 A 
ATOM     41  C   UNL A   1      38.257  31.443  30.333  1.00  0.00     0.049 A 
ATOM     42  N   UNL A   1      39.050  32.228  33.130  1.00  0.00    -0.248 NA
ATOM     43  C   UNL A   1      37.366  33.842  33.103  1.00  0.00     0.031 C 
ATOM     44  C   UNL A   1      37.937  31.053  28.959  1.00  0.00     0.029 A 
ATOM     45  N   UNL A   1      39.326  30.649  30.663  1.00  0.00    -0.354 N 
ATOM     46  C   UNL A   1      39.079  32.944  34.320  1.00  0.00     0.074 A 
ATOM     47  C   UNL A   1      38.066  33.971  34.220  1.00  0.00     0.031 C 
ATOM     48  C   UNL A   1      38.760  30.064  28.580  1.00  0.00     0.029 A 
ATOM     49  C   UNL A   1      39.687  29.773  29.669  1.00  0.00     0.049 A 
ATOM     50  H   UNL A   1      39.790  30.702  31.530  1.00  0.00     0.167 HD
ATOM     51  C   UNL A   1      39.859  32.742  35.409  1.00  0.00     0.037 A 
ATOM     52  C   UNL A   1      40.654  28.836  29.643  1.00  0.00     0.037 A 
ATOM     53  C   UNL A   1      40.859  31.710  35.506  1.00  0.00     0.049 A 
ATOM     54  C   UNL A   1      41.503  28.631  30.867  1.00  0.00     0.074 A 
ATOM     55  C   UNL A   1      41.665  31.386  36.583  1.00  0.00     0.029 A 
ATOM     56  N   UNL A   1      41.194  30.838  34.480  1.00  0.00    -0.354 N 
ATOM     57  N   UNL A   1      41.462  29.255  32.020  1.00  0.00    -0.248 NA
ATOM     58  C   UNL A   1      42.526  27.580  30.790  1.00  0.00     0.031 C 
ATOM     59  C   UNL A   1      42.527  30.357  36.190  1.00  0.00     0.029 A 
ATOM     60  C   UNL A   1      42.215  29.993  34.891  1.00  0.00     0.049 A 
ATOM     61  H   UNL A   1      40.771  30.820  33.592  1.00  0.00     0.167 HD
ATOM     62  C   UNL A   1      42.430  28.654  32.813  1.00  0.00     0.074 A 
ATOM     63  C   UNL A   1      43.023  27.600  32.018  1.00  0.00     0.031 C 
ATOM     64  C   UNL A   1      42.798  28.949  34.086  1.00  0.00     0.037 A 
BRANCH  51  65
ATOM     65  C   UNL A   1      39.660  33.656  36.586  1.00  0.00     0.064 A 
ATOM     66  C   UNL A   1      40.298  34.904  36.667  1.00  0.00     0.173 A 
ATOM     67  C   UNL A   1      38.794  33.297  37.630  1.00  0.00     0.173 A 
ATOM     68  F   UNL A   1      41.145  35.293  35.703  1.00  0.00    -0.203 F 
ATOM     69  C   UNL A   1      40.102  35.742  37.763  1.00  0.00     0.198 A 
ATOM     70  C   UNL A   1      38.573  34.152  38.707  1.00  0.00     0.198 A 
ATOM     71  F   UNL A   1      38.154  32.118  37.604  1.00  0.00    -0.203 F 
ATOM     72  F   UNL A   1      40.765  36.904  37.842  1.00  0.00    -0.200 F 
ATOM     73  C   UNL A   1      39.233  35.369  38.776  1.00  0.00     0.200 A 
ATOM     74  F   UNL A   1      37.722  33.797  39.679  1.00  0.00    -0.200 F 
ATOM     75  F   UNL A   1      39.039  36.180  39.826  1.00  0.00    -0.200 F 
ENDBRANCH  51  65
BRANCH  52  76
ATOM     76  C   UNL A   1      40.843  27.996  28.431  1.00  0.00     0.064 A 
ATOM     77  C   UNL A   1      40.218  26.747  28.310  1.00  0.00     0.173 A 
ATOM     78  C   UNL A   1      41.660  28.419  27.371  1.00  0.00     0.173 A 
ATOM     79  F   UNL A   1      39.441  26.288  29.303  1.00  0.00    -0.203 F 
ATOM     80  C   UNL A   1      40.425  25.942  27.193  1.00  0.00     0.198 A 
ATOM     81  C   UNL A   1      41.839  27.628  26.239  1.00  0.00     0.198 A 
ATOM     82  F   UNL A   1      42.275  29.610  27.431  1.00  0.00    -0.203 F 
ATOM     83  F   UNL A   1      39.858  24.729  27.130  1.00  0.00    -0.200 F 
ATOM     84  C   UNL A   1      41.230  26.385  26.155  1.00  0.00     0.200 A 
ATOM     85  F   UNL A   1      42.604  28.069  25.231  1.00  0.00    -0.200 F 
ATOM     86  F   UNL A   1      41.426  25.612  25.079  1.00  0.00    -0.200 F 
ENDBRANCH  52  76
BRANCH  64  87
ATOM     87  C   UNL A   1      43.868  28.095  34.703  1.00  0.00     0.064 A 
ATOM     88  C   UNL A   1      45.228  28.426  34.607  1.00  0.00     0.173 A 
ATOM     89  C   UNL A   1      43.527  26.930  35.410  1.00  0.00     0.173 A 
ATOM     90  F   UNL A   1      45.610  29.522  33.933  1.00  0.00    -0.203 F 
ATOM     91  C   UNL A   1      46.208  27.601  35.153  1.00  0.00     0.198 A 
ATOM     92  C   UNL A   1      44.506  26.128  35.988  1.00  0.00     0.198 A 
ATOM     93  F   UNL A   1      42.242  26.570  35.542  1.00  0.00    -0.203 F 
ATOM     94  F   UNL A   1      47.503  27.902  34.986  1.00  0.00    -0.200 F 
ATOM     95  C   UNL A   1      45.846  26.457  35.848  1.00  0.00     0.200 A 
ATOM     96  F   UNL A   1      44.154  25.032  36.674  1.00  0.00    -0.200 F 
ATOM     97  F   UNL A   1      46.791  25.663  36.372  1.00  0.00    -0.200 F 
ENDBRANCH  64  87
ENDBRANCH  38  39
ENDBRANCH  30  33
ENDBRANCH  28  29
ENDBRANCH  27  28
ENDBRANCH  26  27
ENDBRANCH   1  26
TORSDOF 15
ENDMDL
MODEL 2
REMARK VINA RESULT:     -13.1      4.038      9.567
REMARK SMILES O=C1C=C/C(=C\NCc2ccc(C(=O)NCCCCNC(=O)c3ccc(-c4c5nc(c(-c6c(F)c(F)c(F)c(F)c6F)c6ccc([nH]6)c(-c6c(F)c(F)c(F)c(F)c6F)c6nc(c(-c7c(F)c(F)c(F)c(F)c7F)c7ccc4[nH]7)C=C6)C=C5)cc3)cc2)C=C1[N+](=O)[O-]
REMARK SMILES IDX 16 1 15 2 13 3 14 4 12 6 9 7 10 8 87 9 11 10 86 11 8 12 7 13
REMARK SMILES IDX 6 15 1 16 2 17 3 18 89 19 4 20 88 21 5 22 90 23 91 24 92 25
REMARK SMILES IDX 17 26 18 27 19 28 20 29 21 30 22 32 23 33 24 34 85 35 25 36
REMARK SMILES IDX 84 37 26 38 27 39 28 40 78 41 29 42 83 43 77 44 79 45 30 46
REMARK SMILES IDX 82 47 76 48 75 49 31 51 63 52 43 53 62 54 44 55 47 56 61 57
REMARK SMILES IDX 80 58 45 59 46 60 60 62 81 63 48 64 32 65 33 66 41 67 34 68
REMARK SMILES IDX 35 69 39 70 42 71 36 72 37 73 40 74 38 75 64 76 65 77 73 78
REMARK SMILES IDX 66 79 67 80 71 81 74 82 68 83 69 84 72 85 70 86 49 87 50 88
REMARK SMILES IDX 58 89 51 90 52 91 56 92 59 93 53 94 54 95 57 96 55 97
REMARK H PARENT 15 5 7 14 20 31 79 50 47 61
REMARK Flexibility Score: inf
ROOT
ATOM      1  C   UNL A   1      33.707  22.457  27.127  1.00  0.00     0.116 C 
ENDROOT
BRANCH   1   2
ATOM      2  N   UNL A   1      32.947  21.400  26.494  1.00  0.00    -0.352 N 
ATOM      3  C   UNL A   1      32.367  21.305  25.255  1.00  0.00     0.251 C 
ATOM      4  O   UNL A   1      31.776  20.260  24.985  1.00  0.00    -0.269 OA
ATOM      5  H   UNL A   1      32.823  20.602  27.057  1.00  0.00     0.163 HD
BRANCH   3   6
ATOM      6  C   UNL A   1      32.465  22.372  24.218  1.00  0.00     0.039 A 
ATOM      7  C   UNL A   1      32.461  24.446  22.299  1.00  0.00    -0.029 A 
ATOM      8  C   UNL A   1      31.402  24.316  23.204  1.00  0.00     0.006 A 
ATOM      9  C   UNL A   1      33.538  23.558  22.389  1.00  0.00     0.006 A 
ATOM     10  C   UNL A   1      31.402  23.285  24.147  1.00  0.00     0.014 A 
ATOM     11  C   UNL A   1      33.551  22.551  23.357  1.00  0.00     0.014 A 
BRANCH   7  12
ATOM     12  C   UNL A   1      32.513  25.591  21.320  1.00  0.00     0.148 C 
BRANCH  12  13
ATOM     13  N   UNL A   1      33.488  26.547  21.803  1.00  0.00    -0.386 N 
ATOM     14  H   UNL A   1      34.428  26.374  21.569  1.00  0.00     0.160 HD
BRANCH  13  15
ATOM     15  C   UNL A   1      33.238  27.671  22.554  1.00  0.00     0.086 C 
ATOM     16  O   UNL A   1      33.068  28.208  27.963  1.00  0.00    -0.282 OA
ATOM     17  C   UNL A   1      33.084  28.146  26.741  1.00  0.00     0.255 C 
ATOM     18  C   UNL A   1      33.420  26.835  26.116  1.00  0.00     0.060 C 
ATOM     19  C   UNL A   1      32.811  29.270  25.808  1.00  0.00     0.316 C 
ATOM     20  C   UNL A   1      33.473  26.688  24.786  1.00  0.00     0.014 C 
ATOM     21  C   UNL A   1      32.880  29.108  24.473  1.00  0.00     0.099 C 
ATOM     22  C   UNL A   1      33.200  27.806  23.894  1.00  0.00    -0.003 C 
BRANCH  19  23
ATOM     23  N   UNL A   1      32.455  30.585  26.316  1.00  0.00     0.067 N 
ATOM     24  O   UNL A   1      33.228  31.118  27.129  1.00  0.00    -0.258 OA
ATOM     25  O   UNL A   1      31.417  31.120  25.912  1.00  0.00    -0.258 OA
ENDBRANCH  19  23
ENDBRANCH  13  15
ENDBRANCH  12  13
ENDBRANCH   7  12
ENDBRANCH   3   6
ENDBRANCH   1   2
BRANCH   1  26
ATOM     26  C   UNL A   1      35.153  22.441  26.625  1.00  0.00     0.023 C 
BRANCH  26  27
ATOM     27  C   UNL A   1      35.628  23.781  26.056  1.00  0.00     0.023 C 
BRANCH  27  28
ATOM     28  C   UNL A   1      36.805  23.680  25.093  1.00  0.00     0.116 C 
BRANCH  28  29
ATOM     29  N   UNL A   1      37.773  22.667  25.482  1.00  0.00    -0.352 N 
ATOM     30  C   UNL A   1      38.948  22.819  26.176  1.00  0.00     0.251 C 
ATOM     31  H   UNL A   1      37.557  21.747  25.209  1.00  0.00     0.163 HD
ATOM     32  O   UNL A   1      39.712  21.871  26.307  1.00  0.00    -0.269 OA
BRANCH  30  33
ATOM     33  C   UNL A   1      39.301  24.141  26.733  1.00  0.00     0.039 A 
ATOM     34  C   UNL A   1      38.923  24.431  28.045  1.00  0.00     0.014 A 
ATOM     35  C   UNL A   1      40.002  25.084  25.977  1.00  0.00     0.014 A 
ATOM     36  C   UNL A   1      39.290  25.650  28.613  1.00  0.00     0.010 A 
ATOM     37  C   UNL A   1      40.440  26.263  26.572  1.00  0.00     0.010 A 
ATOM     38  C   UNL A   1      40.080  26.562  27.893  1.00  0.00    -0.014 A 
BRANCH  38  39
ATOM     39  C   UNL A   1      40.528  27.829  28.524  1.00  0.00     0.031 A 
ATOM     40  C   UNL A   1      41.973  28.037  28.880  1.00  0.00     0.074 A 
ATOM     41  C   UNL A   1      39.619  28.785  28.795  1.00  0.00     0.049 A 
ATOM     42  N   UNL A   1      42.554  29.092  29.394  1.00  0.00    -0.248 NA
ATOM     43  C   UNL A   1      42.885  26.905  28.653  1.00  0.00     0.031 C 
ATOM     44  C   UNL A   1      38.178  28.671  28.558  1.00  0.00     0.029 A 
ATOM     45  N   UNL A   1      39.771  30.044  29.318  1.00  0.00    -0.354 N 
ATOM     46  C   UNL A   1      43.891  28.750  29.552  1.00  0.00     0.074 A 
ATOM     47  C   UNL A   1      44.024  27.369  29.145  1.00  0.00     0.031 C 
ATOM     48  C   UNL A   1      37.586  29.827  28.893  1.00  0.00     0.029 A 
ATOM     49  C   UNL A   1      38.596  30.750  29.398  1.00  0.00     0.049 A 
ATOM     50  H   UNL A   1      40.639  30.406  29.609  1.00  0.00     0.167 HD
ATOM     51  C   UNL A   1      44.918  29.528  29.968  1.00  0.00     0.037 A 
ATOM     52  C   UNL A   1      38.363  32.006  29.825  1.00  0.00     0.037 A 
ATOM     53  C   UNL A   1      44.780  30.906  30.361  1.00  0.00     0.049 A 
ATOM     54  C   UNL A   1      39.523  32.849  30.280  1.00  0.00     0.074 A 
ATOM     55  C   UNL A   1      45.765  31.797  30.747  1.00  0.00     0.029 A 
ATOM     56  N   UNL A   1      43.575  31.591  30.426  1.00  0.00    -0.354 N 
ATOM     57  N   UNL A   1      40.797  32.543  30.340  1.00  0.00    -0.248 NA
ATOM     58  C   UNL A   1      39.213  34.218  30.712  1.00  0.00     0.031 C 
ATOM     59  C   UNL A   1      45.151  33.003  31.101  1.00  0.00     0.029 A 
ATOM     60  C   UNL A   1      43.790  32.887  30.871  1.00  0.00     0.049 A 
ATOM     61  H   UNL A   1      42.697  31.214  30.191  1.00  0.00     0.167 HD
ATOM     62  C   UNL A   1      41.443  33.688  30.788  1.00  0.00     0.074 A 
ATOM     63  C   UNL A   1      40.422  34.700  30.959  1.00  0.00     0.031 C 
ATOM     64  C   UNL A   1      42.763  33.884  31.039  1.00  0.00     0.037 A 
BRANCH  51  65
ATOM     65  C   UNL A   1      46.285  28.905  30.018  1.00  0.00     0.064 A 
ATOM     66  C   UNL A   1      46.782  28.308  31.188  1.00  0.00     0.173 A 
ATOM     67  C   UNL A   1      47.097  28.872  28.874  1.00  0.00     0.173 A 
ATOM     68  F   UNL A   1      46.054  28.321  32.315  1.00  0.00    -0.203 F 
ATOM     69  C   UNL A   1      48.051  27.732  31.219  1.00  0.00     0.198 A 
ATOM     70  C   UNL A   1      48.350  28.264  28.899  1.00  0.00     0.198 A 
ATOM     71  F   UNL A   1      46.673  29.422  27.726  1.00  0.00    -0.203 F 
ATOM     72  F   UNL A   1      48.523  27.218  32.362  1.00  0.00    -0.200 F 
ATOM     73  C   UNL A   1      48.829  27.702  30.072  1.00  0.00     0.200 A 
ATOM     74  F   UNL A   1      49.095  28.223  27.785  1.00  0.00    -0.200 F 
ATOM     75  F   UNL A   1      50.045  27.140  30.101  1.00  0.00    -0.200 F 
ENDBRANCH  51  65
BRANCH  52  76
ATOM     76  C   UNL A   1      36.981  32.554  29.807  1.00  0.00     0.064 A 
ATOM     77  C   UNL A   1      36.494  33.254  28.693  1.00  0.00     0.173 A 
ATOM     78  C   UNL A   1      36.120  32.399  30.904  1.00  0.00     0.173 A 
ATOM     79  F   UNL A   1      37.283  33.444  27.625  1.00  0.00    -0.203 F 
ATOM     80  C   UNL A   1      35.213  33.801  28.688  1.00  0.00     0.198 A 
ATOM     81  C   UNL A   1      34.827  32.917  30.885  1.00  0.00     0.198 A 
ATOM     82  F   UNL A   1      36.532  31.731  31.991  1.00  0.00    -0.203 F 
ATOM     83  F   UNL A   1      34.795  34.511  27.632  1.00  0.00    -0.200 F 
ATOM     84  C   UNL A   1      34.379  33.627  29.781  1.00  0.00     0.200 A 
ATOM     85  F   UNL A   1      34.018  32.731  31.936  1.00  0.00    -0.200 F 
ATOM     86  F   UNL A   1      33.145  34.150  29.775  1.00  0.00    -0.200 F 
ENDBRANCH  52  76
BRANCH  64  87
ATOM     87  C   UNL A   1      43.175  35.256  31.491  1.00  0.00     0.064 A 
ATOM     88  C   UNL A   1      43.622  36.231  30.587  1.00  0.00     0.173 A 
ATOM     89  C   UNL A   1      43.114  35.603  32.850  1.00  0.00     0.173 A 
ATOM     90  F   UNL A   1      43.711  35.948  29.278  1.00  0.00    -0.203 F 
ATOM     91  C   UNL A   1      44.036  37.484  31.030  1.00  0.00     0.198 A 
ATOM     92  C   UNL A   1      43.492  36.869  33.285  1.00  0.00     0.198 A 
ATOM     93  F   UNL A   1      42.685  34.713  33.758  1.00  0.00    -0.203 F 
ATOM     94  F   UNL A   1      44.526  38.374  30.155  1.00  0.00    -0.200 F 
ATOM     95  C   UNL A   1      43.965  37.804  32.378  1.00  0.00     0.200 A 
ATOM     96  F   UNL A   1      43.406  37.183  34.585  1.00  0.00    -0.200 F 
ATOM     97  F   UNL A   1      44.365  39.011  32.803  1.00  0.00    -0.200 F 
ENDBRANCH  64  87
ENDBRANCH  38  39
ENDBRANCH  30  33
ENDBRANCH  28  29
ENDBRANCH  27  28
ENDBRANCH  26  27
ENDBRANCH   1  26
TORSDOF 15
ENDMDL
MODEL 3
REMARK VINA RESULT:     -13.1      5.307     11.482
REMARK SMILES O=C1C=C/C(=C\NCc2ccc(C(=O)NCCCCNC(=O)c3ccc(-c4c5nc(c(-c6c(F)c(F)c(F)c(F)c6F)c6ccc([nH]6)c(-c6c(F)c(F)c(F)c(F)c6F)c6nc(c(-c7c(F)c(F)c(F)c(F)c7F)c7ccc4[nH]7)C=C6)C=C5)cc3)cc2)C=C1[N+](=O)[O-]
REMARK SMILES IDX 16 1 15 2 13 3 14 4 12 6 9 7 10 8 87 9 11 10 86 11 8 12 7 13
REMARK SMILES IDX 6 15 1 16 2 17 3 18 89 19 4 20 88 21 5 22 90 23 91 24 92 25
REMARK SMILES IDX 17 26 18 27 19 28 20 29 21 30 22 32 23 33 24 34 85 35 25 36
REMARK SMILES IDX 84 37 26 38 27 39 28 40 78 41 29 42 83 43 77 44 79 45 30 46
REMARK SMILES IDX 82 47 76 48 75 49 31 51 63 52 43 53 62 54 44 55 47 56 61 57
REMARK SMILES IDX 80 58 45 59 46 60 60 62 81 63 48 64 32 65 33 66 41 67 34 68
REMARK SMILES IDX 35 69 39 70 42 71 36 72 37 73 40 74 38 75 64 76 65 77 73 78
REMARK SMILES IDX 66 79 67 80 71 81 74 82 68 83 69 84 72 85 70 86 49 87 50 88
REMARK SMILES IDX 58 89 51 90 52 91 56 92 59 93 53 94 54 95 57 96 55 97
REMARK H PARENT 15 5 7 14 20 31 79 50 47 61
REMARK Flexibility Score: inf
ROOT
ATOM      1  C   UNL A   1      36.905  21.965  25.773  1.00  0.00     0.116 C 
ENDROOT
BRANCH   1   2
ATOM      2  N   UNL A   1      35.666  21.745  26.487  1.00  0.00    -0.352 N 
ATOM      3  C   UNL A   1      34.415  22.290  26.341  1.00  0.00     0.251 C 
ATOM      4  O   UNL A   1      33.534  21.898  27.105  1.00  0.00    -0.269 OA
ATOM      5  H   UNL A   1      35.732  21.081  27.211  1.00  0.00     0.163 HD
BRANCH   3   6
ATOM      6  C   UNL A   1      34.069  23.280  25.281  1.00  0.00     0.039 A 
ATOM      7  C   UNL A   1      33.385  25.292  23.419  1.00  0.00    -0.029 A 
ATOM      8  C   UNL A   1      33.560  25.608  24.771  1.00  0.00     0.006 A 
ATOM      9  C   UNL A   1      33.594  23.974  23.002  1.00  0.00     0.006 A 
ATOM     10  C   UNL A   1      33.891  24.610  25.691  1.00  0.00     0.014 A 
ATOM     11  C   UNL A   1      33.961  22.986  23.920  1.00  0.00     0.014 A 
BRANCH   7  12
ATOM     12  C   UNL A   1      33.094  26.364  22.400  1.00  0.00     0.148 C 
BRANCH  12  13
ATOM     13  N   UNL A   1      32.862  27.605  23.113  1.00  0.00    -0.386 N 
ATOM     14  H   UNL A   1      33.356  27.728  23.954  1.00  0.00     0.160 HD
BRANCH  13  15
ATOM     15  C   UNL A   1      32.023  28.626  22.736  1.00  0.00     0.086 C 
ATOM     16  O   UNL A   1      26.605  28.922  23.106  1.00  0.00    -0.282 OA
ATOM     17  C   UNL A   1      27.823  28.908  22.989  1.00  0.00     0.255 C 
ATOM     18  C   UNL A   1      28.558  27.717  23.501  1.00  0.00     0.060 C 
ATOM     19  C   UNL A   1      28.652  29.986  22.389  1.00  0.00     0.316 C 
ATOM     20  C   UNL A   1      29.892  27.632  23.425  1.00  0.00     0.014 C 
ATOM     21  C   UNL A   1      29.995  29.890  22.330  1.00  0.00     0.099 C 
ATOM     22  C   UNL A   1      30.681  28.702  22.831  1.00  0.00    -0.003 C 
BRANCH  19  23
ATOM     23  N   UNL A   1      28.032  31.182  21.843  1.00  0.00     0.067 N 
ATOM     24  O   UNL A   1      27.927  32.169  22.589  1.00  0.00    -0.258 OA
ATOM     25  O   UNL A   1      27.652  31.173  20.668  1.00  0.00    -0.258 OA
ENDBRANCH  19  23
ENDBRANCH  13  15
ENDBRANCH  12  13
ENDBRANCH   7  12
ENDBRANCH   3   6
ENDBRANCH   1   2
BRANCH   1  26
ATOM     26  C   UNL A   1      37.066  20.927  24.661  1.00  0.00     0.023 C 
BRANCH  26  27
ATOM     27  C   UNL A   1      38.016  19.779  25.014  1.00  0.00     0.023 C 
BRANCH  27  28
ATOM     28  C   UNL A   1      39.210  20.184  25.871  1.00  0.00     0.116 C 
BRANCH  28  29
ATOM     29  N   UNL A   1      40.275  19.194  25.866  1.00  0.00    -0.352 N 
ATOM     30  C   UNL A   1      41.624  19.378  26.044  1.00  0.00     0.251 C 
ATOM     31  H   UNL A   1      39.990  18.265  25.712  1.00  0.00     0.163 HD
ATOM     32  O   UNL A   1      42.399  18.445  25.880  1.00  0.00    -0.269 OA
BRANCH  30  33
ATOM     33  C   UNL A   1      42.137  20.718  26.400  1.00  0.00     0.039 A 
ATOM     34  C   UNL A   1      42.444  21.606  25.367  1.00  0.00     0.014 A 
ATOM     35  C   UNL A   1      42.307  21.100  27.732  1.00  0.00     0.014 A 
ATOM     36  C   UNL A   1      42.877  22.895  25.675  1.00  0.00     0.010 A 
ATOM     37  C   UNL A   1      42.658  22.412  28.038  1.00  0.00     0.010 A 
ATOM     38  C   UNL A   1      42.957  23.319  27.012  1.00  0.00    -0.014 A 
BRANCH  38  39
ATOM     39  C   UNL A   1      43.352  24.713  27.335  1.00  0.00     0.031 A 
ATOM     40  C   UNL A   1      44.748  25.196  27.062  1.00  0.00     0.074 A 
ATOM     41  C   UNL A   1      42.447  25.538  27.897  1.00  0.00     0.049 A 
ATOM     42  N   UNL A   1      45.259  26.389  27.237  1.00  0.00    -0.248 NA
ATOM     43  C   UNL A   1      45.707  24.205  26.549  1.00  0.00     0.031 C 
ATOM     44  C   UNL A   1      41.082  25.164  28.271  1.00  0.00     0.029 A 
ATOM     45  N   UNL A   1      42.535  26.863  28.242  1.00  0.00    -0.354 N 
ATOM     46  C   UNL A   1      46.592  26.290  26.858  1.00  0.00     0.074 A 
ATOM     47  C   UNL A   1      46.830  24.906  26.511  1.00  0.00     0.031 C 
ATOM     48  C   UNL A   1      40.447  26.244  28.751  1.00  0.00     0.029 A 
ATOM     49  C   UNL A   1      41.367  27.376  28.751  1.00  0.00     0.049 A 
ATOM     50  H   UNL A   1      43.357  27.395  28.135  1.00  0.00     0.167 HD
ATOM     51  C   UNL A   1      47.522  27.270  26.778  1.00  0.00     0.037 A 
ATOM     52  C   UNL A   1      41.072  28.623  29.164  1.00  0.00     0.037 A 
ATOM     53  C   UNL A   1      47.275  28.648  27.115  1.00  0.00     0.049 A 
ATOM     54  C   UNL A   1      42.124  29.693  29.061  1.00  0.00     0.074 A 
ATOM     55  C   UNL A   1      48.133  29.729  27.018  1.00  0.00     0.029 A 
ATOM     56  N   UNL A   1      46.078  29.133  27.624  1.00  0.00    -0.354 N 
ATOM     57  N   UNL A   1      43.355  29.607  28.617  1.00  0.00    -0.248 NA
ATOM     58  C   UNL A   1      41.739  31.040  29.504  1.00  0.00     0.031 C 
ATOM     59  C   UNL A   1      47.476  30.857  27.521  1.00  0.00     0.029 A 
ATOM     60  C   UNL A   1      46.185  30.494  27.870  1.00  0.00     0.049 A 
ATOM     61  H   UNL A   1      45.272  28.592  27.786  1.00  0.00     0.167 HD
ATOM     62  C   UNL A   1      43.881  30.890  28.700  1.00  0.00     0.074 A 
ATOM     63  C   UNL A   1      42.826  31.739  29.212  1.00  0.00     0.031 C 
ATOM     64  C   UNL A   1      45.126  31.326  28.383  1.00  0.00     0.037 A 
BRANCH  51  65
ATOM     65  C   UNL A   1      48.897  26.887  26.304  1.00  0.00     0.064 A 
ATOM     66  C   UNL A   1      49.854  26.346  27.178  1.00  0.00     0.173 A 
ATOM     67  C   UNL A   1      49.252  27.028  24.954  1.00  0.00     0.173 A 
ATOM     68  F   UNL A   1      49.573  26.200  28.481  1.00  0.00    -0.203 F 
ATOM     69  C   UNL A   1      51.123  25.993  26.724  1.00  0.00     0.198 A 
ATOM     70  C   UNL A   1      50.510  26.641  24.497  1.00  0.00     0.198 A 
ATOM     71  F   UNL A   1      48.376  27.535  24.073  1.00  0.00    -0.203 F 
ATOM     72  F   UNL A   1      52.037  25.531  27.588  1.00  0.00    -0.200 F 
ATOM     73  C   UNL A   1      51.446  26.132  25.383  1.00  0.00     0.200 A 
ATOM     74  F   UNL A   1      50.815  26.763  23.198  1.00  0.00    -0.200 F 
ATOM     75  F   UNL A   1      52.664  25.784  24.947  1.00  0.00    -0.200 F 
ENDBRANCH  51  65
BRANCH  52  76
ATOM     76  C   UNL A   1      39.711  28.935  29.676  1.00  0.00     0.064 A 
ATOM     77  C   UNL A   1      39.375  28.713  31.020  1.00  0.00     0.173 A 
ATOM     78  C   UNL A   1      38.715  29.451  28.834  1.00  0.00     0.173 A 
ATOM     79  F   UNL A   1      40.287  28.204  31.863  1.00  0.00    -0.203 F 
ATOM     80  C   UNL A   1      38.090  28.967  31.493  1.00  0.00     0.198 A 
ATOM     81  C   UNL A   1      37.440  29.737  29.317  1.00  0.00     0.198 A 
ATOM     82  F   UNL A   1      38.985  29.690  27.542  1.00  0.00    -0.203 F 
ATOM     83  F   UNL A   1      37.783  28.694  32.769  1.00  0.00    -0.200 F 
ATOM     84  C   UNL A   1      37.126  29.485  30.643  1.00  0.00     0.200 A 
ATOM     85  F   UNL A   1      36.516  30.254  28.496  1.00  0.00    -0.200 F 
ATOM     86  F   UNL A   1      35.891  29.733  31.100  1.00  0.00    -0.200 F 
ENDBRANCH  52  76
BRANCH  64  87
ATOM     87  C   UNL A   1      45.398  32.794  28.551  1.00  0.00     0.064 A 
ATOM     88  C   UNL A   1      45.122  33.721  27.535  1.00  0.00     0.173 A 
ATOM     89  C   UNL A   1      45.937  33.282  29.752  1.00  0.00     0.173 A 
ATOM     90  F   UNL A   1      44.618  33.305  26.362  1.00  0.00    -0.203 F 
ATOM     91  C   UNL A   1      45.417  35.071  27.695  1.00  0.00     0.198 A 
ATOM     92  C   UNL A   1      46.194  34.639  29.925  1.00  0.00     0.198 A 
ATOM     93  F   UNL A   1      46.212  32.443  30.762  1.00  0.00    -0.203 F 
ATOM     94  F   UNL A   1      45.209  35.925  26.683  1.00  0.00    -0.200 F 
ATOM     95  C   UNL A   1      45.947  35.530  28.892  1.00  0.00     0.200 A 
ATOM     96  F   UNL A   1      46.690  35.084  31.087  1.00  0.00    -0.200 F 
ATOM     97  F   UNL A   1      46.231  36.832  29.045  1.00  0.00    -0.200 F 
ENDBRANCH  64  87
ENDBRANCH  38  39
ENDBRANCH  30  33
ENDBRANCH  28  29
ENDBRANCH  27  28
ENDBRANCH  26  27
ENDBRANCH   1  26
TORSDOF 15
ENDMDL
