MODEL 1
REMARK VINA RESULT:     -11.2      0.000      0.000
REMARK SMILES CCC[N@H+](CC1CC[NH2+]CC1)[C@@H](CC)C(=O)NCCCCNC(=O)c1ccc(-c2c3nc(c(-c4c(F)c(F)c(F)c(F)c4F)c4ccc([nH]4)c(-c4c(F)c(F)c(F)c(F)c4F)c4nc(c(-c5c(F)c(F)c(F)c(F)c5F)c5ccc2[nH]5)C=C4)C=C3)cc1
REMARK SMILES IDX 19 1 18 2 17 3 15 4 16 5 12 7 4 8 3 10 2 11 1 12 5 13 6 14
REMARK SMILES IDX 7 15 11 16 8 17 10 18 9 19 13 22 14 23 20 24 21 25 22 26
REMARK SMILES IDX 23 27 24 29 25 30 26 31 87 32 27 33 86 34 28 35 29 36 30 37
REMARK SMILES IDX 80 38 31 39 85 40 79 41 81 42 32 43 84 44 78 45 77 46 33 48
REMARK SMILES IDX 65 49 45 50 64 51 46 52 49 53 63 54 82 55 47 56 48 57 62 59
REMARK SMILES IDX 83 60 50 61 34 62 35 63 43 64 36 65 37 66 41 67 44 68 38 69
REMARK SMILES IDX 39 70 42 71 40 72 66 73 67 74 75 75 68 76 69 77 73 78 76 79
REMARK SMILES IDX 70 80 71 81 74 82 72 83 51 84 52 85 60 86 53 87 54 88 58 89
REMARK SMILES IDX 61 90 55 91 56 92 59 93 57 94
REMARK H PARENT 17 6 4 9 9 20 9 21 22 28 81 47 49 58
REMARK Flexibility Score: inf
ROOT
ATOM      1  C   UNL A   1      32.920  28.563  24.798  1.00  0.00     0.023 C 
ENDROOT
BRANCH   1   2
ATOM      2  C   UNL A   1      32.881  28.324  23.273  1.00  0.00     0.116 C 
BRANCH   2   3
ATOM      3  N   UNL A   1      33.573  27.068  22.925  1.00  0.00    -0.351 N 
ATOM      4  C   UNL A   1      33.083  26.097  22.093  1.00  0.00     0.278 C 
ATOM      5  O   UNL A   1      33.460  26.232  20.915  1.00  0.00    -0.268 OA
ATOM      6  H   UNL A   1      34.460  26.914  23.324  1.00  0.00     0.163 HD
BRANCH   4   7
ATOM      7  C   UNL A   1      32.451  24.699  22.518  1.00  0.00     0.273 C 
BRANCH   7   8
ATOM      8  N   UNL A   1      33.154  23.609  23.297  1.00  0.00    -0.324 N 
ATOM      9  H   UNL A   1      32.989  23.819  24.281  1.00  0.00     0.348 HD
BRANCH   8  10
ATOM     10  C   UNL A   1      34.600  23.610  23.192  1.00  0.00     0.262 C 
BRANCH  10  11
ATOM     11  C   UNL A   1      35.276  23.942  24.534  1.00  0.00     0.058 C 
ATOM     12  C   UNL A   1      34.534  24.868  25.497  1.00  0.00     0.010 C 
ENDBRANCH  10  11
ENDBRANCH   8  10
BRANCH   8  13
ATOM     13  C   UNL A   1      32.558  22.277  22.980  1.00  0.00     0.266 C 
BRANCH  13  14
ATOM     14  C   UNL A   1      32.269  21.166  24.058  1.00  0.00     0.055 C 
ATOM     15  C   UNL A   1      31.854  21.663  25.459  1.00  0.00     0.071 C 
ATOM     16  C   UNL A   1      33.272  20.017  24.204  1.00  0.00     0.071 C 
ATOM     17  C   UNL A   1      32.977  21.780  26.492  1.00  0.00     0.261 C 
ATOM     18  C   UNL A   1      34.389  20.343  25.183  1.00  0.00     0.261 C 
ATOM     19  N   UNL A   1      33.873  20.625  26.517  1.00  0.00    -0.346 N 
ATOM     20  H   UNL A   1      33.360  19.811  26.856  1.00  0.00     0.346 HD
ATOM     21  H   UNL A   1      34.658  20.831  27.135  1.00  0.00     0.346 HD
ENDBRANCH  13  14
ENDBRANCH   8  13
ENDBRANCH   7   8
BRANCH   7  22
ATOM     22  C   UNL A   1      31.032  24.993  23.120  1.00  0.00     0.072 C 
ATOM     23  C   UNL A   1      30.912  25.229  24.624  1.00  0.00     0.011 C 
ENDBRANCH   7  22
ENDBRANCH   4   7
ENDBRANCH   2   3
ENDBRANCH   1   2
BRANCH   1  24
ATOM     24  C   UNL A   1      32.300  29.864  25.354  1.00  0.00     0.023 C 
BRANCH  24  25
ATOM     25  C   UNL A   1      32.496  30.195  26.838  1.00  0.00     0.116 C 
BRANCH  25  26
ATOM     26  N   UNL A   1      32.423  31.617  27.173  1.00  0.00    -0.352 N 
ATOM     27  C   UNL A   1      33.415  32.479  27.615  1.00  0.00     0.251 C 
ATOM     28  H   UNL A   1      31.533  32.025  27.070  1.00  0.00     0.163 HD
ATOM     29  O   UNL A   1      33.185  33.646  27.848  1.00  0.00    -0.269 OA
BRANCH  27  30
ATOM     30  C   UNL A   1      34.763  31.925  27.867  1.00  0.00     0.039 A 
ATOM     31  C   UNL A   1      35.832  32.812  28.008  1.00  0.00     0.014 A 
ATOM     32  C   UNL A   1      34.932  30.561  28.097  1.00  0.00     0.014 A 
ATOM     33  C   UNL A   1      37.038  32.349  28.537  1.00  0.00     0.010 A 
ATOM     34  C   UNL A   1      36.103  30.119  28.703  1.00  0.00     0.010 A 
ATOM     35  C   UNL A   1      37.150  31.017  28.971  1.00  0.00    -0.014 A 
BRANCH  35  36
ATOM     36  C   UNL A   1      38.311  30.567  29.783  1.00  0.00     0.031 A 
ATOM     37  C   UNL A   1      39.271  29.550  29.238  1.00  0.00     0.074 A 
ATOM     38  C   UNL A   1      38.434  30.998  31.056  1.00  0.00     0.049 A 
ATOM     39  N   UNL A   1      40.273  28.956  29.835  1.00  0.00    -0.248 NA
ATOM     40  C   UNL A   1      39.056  29.119  27.849  1.00  0.00     0.031 C 
ATOM     41  C   UNL A   1      37.528  31.933  31.727  1.00  0.00     0.029 A 
ATOM     42  N   UNL A   1      39.363  30.693  32.023  1.00  0.00    -0.354 N 
ATOM     43  C   UNL A   1      40.793  28.070  28.903  1.00  0.00     0.074 A 
ATOM     44  C   UNL A   1      39.965  28.164  27.720  1.00  0.00     0.031 C 
ATOM     45  C   UNL A   1      37.958  32.144  32.981  1.00  0.00     0.029 A 
ATOM     46  C   UNL A   1      39.142  31.326  33.223  1.00  0.00     0.049 A 
ATOM     47  H   UNL A   1      40.115  30.077  31.870  1.00  0.00     0.167 HD
ATOM     48  C   UNL A   1      41.878  27.268  29.015  1.00  0.00     0.037 A 
ATOM     49  C   UNL A   1      39.809  31.248  34.390  1.00  0.00     0.037 A 
ATOM     50  C   UNL A   1      42.720  27.203  30.180  1.00  0.00     0.049 A 
ATOM     51  C   UNL A   1      41.011  30.346  34.488  1.00  0.00     0.074 A 
ATOM     52  C   UNL A   1      43.893  26.491  30.358  1.00  0.00     0.029 A 
ATOM     53  N   UNL A   1      42.474  27.873  31.370  1.00  0.00    -0.354 N 
ATOM     54  N   UNL A   1      41.545  29.580  33.569  1.00  0.00    -0.248 NA
ATOM     55  C   UNL A   1      41.699  30.296  35.785  1.00  0.00     0.031 C 
ATOM     56  C   UNL A   1      44.332  26.692  31.670  1.00  0.00     0.029 A 
ATOM     57  C   UNL A   1      43.456  27.565  32.297  1.00  0.00     0.049 A 
ATOM     58  H   UNL A   1      41.714  28.478  31.531  1.00  0.00     0.167 HD
ATOM     59  C   UNL A   1      42.639  28.972  34.169  1.00  0.00     0.074 A 
ATOM     60  C   UNL A   1      42.706  29.474  35.525  1.00  0.00     0.031 C 
ATOM     61  C   UNL A   1      43.508  28.073  33.644  1.00  0.00     0.037 A 
BRANCH  48  62
ATOM     62  C   UNL A   1      42.225  26.401  27.840  1.00  0.00     0.064 A 
ATOM     63  C   UNL A   1      43.173  26.800  26.887  1.00  0.00     0.173 A 
ATOM     64  C   UNL A   1      41.629  25.141  27.685  1.00  0.00     0.173 A 
ATOM     65  F   UNL A   1      43.765  28.001  26.985  1.00  0.00    -0.203 F 
ATOM     66  C   UNL A   1      43.489  25.984  25.804  1.00  0.00     0.198 A 
ATOM     67  C   UNL A   1      41.969  24.314  26.618  1.00  0.00     0.198 A 
ATOM     68  F   UNL A   1      40.720  24.707  28.571  1.00  0.00    -0.203 F 
ATOM     69  F   UNL A   1      44.361  26.409  24.879  1.00  0.00    -0.200 F 
ATOM     70  C   UNL A   1      42.893  24.739  25.675  1.00  0.00     0.200 A 
ATOM     71  F   UNL A   1      41.401  23.106  26.500  1.00  0.00    -0.200 F 
ATOM     72  F   UNL A   1      43.203  23.952  24.635  1.00  0.00    -0.200 F 
ENDBRANCH  48  62
BRANCH  49  73
ATOM     73  C   UNL A   1      39.365  32.051  35.561  1.00  0.00     0.064 A 
ATOM     74  C   UNL A   1      38.485  31.513  36.510  1.00  0.00     0.173 A 
ATOM     75  C   UNL A   1      39.798  33.371  35.750  1.00  0.00     0.173 A 
ATOM     76  F   UNL A   1      38.025  30.262  36.362  1.00  0.00    -0.203 F 
ATOM     77  C   UNL A   1      38.039  32.271  37.592  1.00  0.00     0.198 A 
ATOM     78  C   UNL A   1      39.374  34.119  36.847  1.00  0.00     0.198 A 
ATOM     79  F   UNL A   1      40.644  33.934  34.874  1.00  0.00    -0.203 F 
ATOM     80  F   UNL A   1      37.162  31.746  38.458  1.00  0.00    -0.200 F 
ATOM     81  C   UNL A   1      38.488  33.571  37.762  1.00  0.00     0.200 A 
ATOM     82  F   UNL A   1      39.822  35.371  37.016  1.00  0.00    -0.200 F 
ATOM     83  F   UNL A   1      38.062  34.299  38.803  1.00  0.00    -0.200 F 
ENDBRANCH  49  73
BRANCH  61  84
ATOM     84  C   UNL A   1      44.612  27.581  34.532  1.00  0.00     0.064 A 
ATOM     85  C   UNL A   1      44.472  26.409  35.289  1.00  0.00     0.173 A 
ATOM     86  C   UNL A   1      45.842  28.255  34.579  1.00  0.00     0.173 A 
ATOM     87  F   UNL A   1      43.309  25.741  35.290  1.00  0.00    -0.203 F 
ATOM     88  C   UNL A   1      45.520  25.936  36.074  1.00  0.00     0.198 A 
ATOM     89  C   UNL A   1      46.897  27.763  35.343  1.00  0.00     0.198 A 
ATOM     90  F   UNL A   1      46.027  29.377  33.869  1.00  0.00    -0.203 F 
ATOM     91  F   UNL A   1      45.353  24.835  36.818  1.00  0.00    -0.200 F 
ATOM     92  C   UNL A   1      46.735  26.608  36.092  1.00  0.00     0.200 A 
ATOM     93  F   UNL A   1      48.073  28.405  35.349  1.00  0.00    -0.200 F 
ATOM     94  F   UNL A   1      47.747  26.143  36.836  1.00  0.00    -0.200 F 
ENDBRANCH  61  84
ENDBRANCH  35  36
ENDBRANCH  27  30
ENDBRANCH  25  26
ENDBRANCH  24  25
ENDBRANCH   1  24
TORSDOF 17
ENDMDL
MODEL 2
REMARK VINA RESULT:     -11.1      0.344      7.398
REMARK SMILES CCC[N@H+](CC1CC[NH2+]CC1)[C@@H](CC)C(=O)NCCCCNC(=O)c1ccc(-c2c3nc(c(-c4c(F)c(F)c(F)c(F)c4F)c4ccc([nH]4)c(-c4c(F)c(F)c(F)c(F)c4F)c4nc(c(-c5c(F)c(F)c(F)c(F)c5F)c5ccc2[nH]5)C=C4)C=C3)cc1
REMARK SMILES IDX 19 1 18 2 17 3 15 4 16 5 12 7 4 8 3 10 2 11 1 12 5 13 6 14
REMARK SMILES IDX 7 15 11 16 8 17 10 18 9 19 13 22 14 23 20 24 21 25 22 26
REMARK SMILES IDX 23 27 24 29 25 30 26 31 87 32 27 33 86 34 28 35 29 36 30 37
REMARK SMILES IDX 80 38 31 39 85 40 79 41 81 42 32 43 84 44 78 45 77 46 33 48
REMARK SMILES IDX 65 49 45 50 64 51 46 52 49 53 63 54 82 55 47 56 48 57 62 59
REMARK SMILES IDX 83 60 50 61 34 62 35 63 43 64 36 65 37 66 41 67 44 68 38 69
REMARK SMILES IDX 39 70 42 71 40 72 66 73 67 74 75 75 68 76 69 77 73 78 76 79
REMARK SMILES IDX 70 80 71 81 74 82 72 83 51 84 52 85 60 86 53 87 54 88 58 89
REMARK SMILES IDX 61 90 55 91 56 92 59 93 57 94
REMARK H PARENT 17 6 4 9 9 20 9 21 22 28 81 47 49 58
REMARK Flexibility Score: inf
ROOT
ATOM      1  C   UNL A   1      32.868  28.647  24.822  1.00  0.00     0.023 C 
ENDROOT
BRANCH   1   2
ATOM      2  C   UNL A   1      32.884  28.400  23.297  1.00  0.00     0.116 C 
BRANCH   2   3
ATOM      3  N   UNL A   1      33.576  27.135  22.983  1.00  0.00    -0.351 N 
ATOM      4  C   UNL A   1      33.104  26.161  22.144  1.00  0.00     0.278 C 
ATOM      5  O   UNL A   1      33.521  26.283  20.977  1.00  0.00    -0.268 OA
ATOM      6  H   UNL A   1      34.448  26.978  23.412  1.00  0.00     0.163 HD
BRANCH   4   7
ATOM      7  C   UNL A   1      32.447  24.772  22.559  1.00  0.00     0.273 C 
BRANCH   7   8
ATOM      8  N   UNL A   1      33.141  23.652  23.303  1.00  0.00    -0.324 N 
ATOM      9  H   UNL A   1      33.020  23.858  24.295  1.00  0.00     0.348 HD
BRANCH   8  10
ATOM     10  C   UNL A   1      34.581  23.604  23.144  1.00  0.00     0.262 C 
BRANCH  10  11
ATOM     11  C   UNL A   1      35.318  23.920  24.458  1.00  0.00     0.058 C 
ATOM     12  C   UNL A   1      34.620  24.831  25.467  1.00  0.00     0.010 C 
ENDBRANCH  10  11
ENDBRANCH   8  10
BRANCH   8  13
ATOM     13  C   UNL A   1      32.488  22.344  22.998  1.00  0.00     0.266 C 
BRANCH  13  14
ATOM     14  C   UNL A   1      32.215  21.227  24.074  1.00  0.00     0.055 C 
ATOM     15  C   UNL A   1      31.833  21.717  25.488  1.00  0.00     0.071 C 
ATOM     16  C   UNL A   1      33.214  20.071  24.190  1.00  0.00     0.071 C 
ATOM     17  C   UNL A   1      32.979  21.819  26.497  1.00  0.00     0.261 C 
ATOM     18  C   UNL A   1      34.354  20.383  25.148  1.00  0.00     0.261 C 
ATOM     19  N   UNL A   1      33.868  20.659  26.495  1.00  0.00    -0.346 N 
ATOM     20  H   UNL A   1      33.358  19.845  26.839  1.00  0.00     0.346 HD
ATOM     21  H   UNL A   1      34.667  20.857  27.097  1.00  0.00     0.346 HD
ENDBRANCH  13  14
ENDBRANCH   8  13
ENDBRANCH   7   8
BRANCH   7  22
ATOM     22  C   UNL A   1      31.051  25.091  23.200  1.00  0.00     0.072 C 
ATOM     23  C   UNL A   1      30.975  25.320  24.708  1.00  0.00     0.011 C 
ENDBRANCH   7  22
ENDBRANCH   4   7
ENDBRANCH   2   3
ENDBRANCH   1   2
BRANCH   1  24
ATOM     24  C   UNL A   1      32.265  29.970  25.344  1.00  0.00     0.023 C 
BRANCH  24  25
ATOM     25  C   UNL A   1      32.359  30.278  26.843  1.00  0.00     0.116 C 
BRANCH  25  26
ATOM     26  N   UNL A   1      32.397  31.699  27.186  1.00  0.00    -0.352 N 
ATOM     27  C   UNL A   1      33.456  32.481  27.623  1.00  0.00     0.251 C 
ATOM     28  H   UNL A   1      31.540  32.174  27.092  1.00  0.00     0.163 HD
ATOM     29  O   UNL A   1      33.318  33.661  27.863  1.00  0.00    -0.269 OA
BRANCH  27  30
ATOM     30  C   UNL A   1      34.760  31.825  27.861  1.00  0.00     0.039 A 
ATOM     31  C   UNL A   1      35.890  32.629  28.028  1.00  0.00     0.014 A 
ATOM     32  C   UNL A   1      34.830  30.446  28.051  1.00  0.00     0.014 A 
ATOM     33  C   UNL A   1      37.057  32.065  28.545  1.00  0.00     0.010 A 
ATOM     34  C   UNL A   1      35.965  29.903  28.645  1.00  0.00     0.010 A 
ATOM     35  C   UNL A   1      37.072  30.717  28.941  1.00  0.00    -0.014 A 
BRANCH  35  36
ATOM     36  C   UNL A   1      38.195  30.161  29.740  1.00  0.00     0.031 A 
ATOM     37  C   UNL A   1      38.421  30.617  31.152  1.00  0.00     0.074 A 
ATOM     38  C   UNL A   1      39.076  29.325  29.152  1.00  0.00     0.049 A 
ATOM     39  N   UNL A   1      39.407  30.332  31.966  1.00  0.00    -0.248 NA
ATOM     40  C   UNL A   1      37.426  31.542  31.713  1.00  0.00     0.031 C 
ATOM     41  C   UNL A   1      39.007  28.860  27.764  1.00  0.00     0.029 A 
ATOM     42  N   UNL A   1      40.214  28.729  29.639  1.00  0.00    -0.354 N 
ATOM     43  C   UNL A   1      39.160  31.056  33.123  1.00  0.00     0.074 A 
ATOM     44  C   UNL A   1      37.963  31.834  32.889  1.00  0.00     0.031 C 
ATOM     45  C   UNL A   1      40.038  28.035  27.521  1.00  0.00     0.029 A 
ATOM     46  C   UNL A   1      40.869  27.947  28.718  1.00  0.00     0.049 A 
ATOM     47  H   UNL A   1      40.532  28.852  30.563  1.00  0.00     0.167 HD
ATOM     48  C   UNL A   1      39.855  31.052  34.285  1.00  0.00     0.037 A 
ATOM     49  C   UNL A   1      42.015  27.248  28.819  1.00  0.00     0.037 A 
ATOM     50  C   UNL A   1      41.025  30.250  34.525  1.00  0.00     0.049 A 
ATOM     51  C   UNL A   1      42.770  27.264  30.121  1.00  0.00     0.074 A 
ATOM     52  C   UNL A   1      41.747  30.108  35.698  1.00  0.00     0.029 A 
ATOM     53  N   UNL A   1      41.648  29.456  33.573  1.00  0.00    -0.354 N 
ATOM     54  N   UNL A   1      42.477  27.884  31.238  1.00  0.00    -0.248 NA
ATOM     55  C   UNL A   1      44.017  26.487  30.176  1.00  0.00     0.031 C 
ATOM     56  C   UNL A   1      42.834  29.266  35.442  1.00  0.00     0.029 A 
ATOM     57  C   UNL A   1      42.764  28.847  34.122  1.00  0.00     0.049 A 
ATOM     58  H   UNL A   1      41.342  29.343  32.643  1.00  0.00     0.167 HD
ATOM     59  C   UNL A   1      43.488  27.559  32.131  1.00  0.00     0.074 A 
ATOM     60  C   UNL A   1      44.393  26.669  31.434  1.00  0.00     0.031 C 
ATOM     61  C   UNL A   1      43.655  27.965  33.413  1.00  0.00     0.037 A 
BRANCH  48  62
ATOM     62  C   UNL A   1      39.363  31.939  35.391  1.00  0.00     0.064 A 
ATOM     63  C   UNL A   1      39.719  33.293  35.460  1.00  0.00     0.173 A 
ATOM     64  C   UNL A   1      38.495  31.437  36.373  1.00  0.00     0.173 A 
ATOM     65  F   UNL A   1      40.554  33.820  34.550  1.00  0.00    -0.203 F 
ATOM     66  C   UNL A   1      39.252  34.106  36.490  1.00  0.00     0.198 A 
ATOM     67  C   UNL A   1      38.006  32.260  37.384  1.00  0.00     0.198 A 
ATOM     68  F   UNL A   1      38.118  30.150  36.350  1.00  0.00    -0.203 F 
ATOM     69  F   UNL A   1      39.647  35.385  36.563  1.00  0.00    -0.200 F 
ATOM     70  C   UNL A   1      38.390  33.591  37.445  1.00  0.00     0.200 A 
ATOM     71  F   UNL A   1      37.163  31.763  38.300  1.00  0.00    -0.200 F 
ATOM     72  F   UNL A   1      37.935  34.376  38.432  1.00  0.00    -0.200 F 
ENDBRANCH  48  62
BRANCH  49  73
ATOM     73  C   UNL A   1      42.519  26.464  27.659  1.00  0.00     0.064 A 
ATOM     74  C   UNL A   1      42.084  25.150  27.435  1.00  0.00     0.173 A 
ATOM     75  C   UNL A   1      43.451  27.003  26.761  1.00  0.00     0.173 A 
ATOM     76  F   UNL A   1      41.210  24.582  28.279  1.00  0.00    -0.203 F 
ATOM     77  C   UNL A   1      42.577  24.399  26.369  1.00  0.00     0.198 A 
ATOM     78  C   UNL A   1      43.923  26.261  25.679  1.00  0.00     0.198 A 
ATOM     79  F   UNL A   1      43.898  28.257  26.926  1.00  0.00    -0.203 F 
ATOM     80  F   UNL A   1      42.179  23.130  26.207  1.00  0.00    -0.200 F 
ATOM     81  C   UNL A   1      43.492  24.957  25.490  1.00  0.00     0.200 A 
ATOM     82  F   UNL A   1      44.796  26.808  24.823  1.00  0.00    -0.200 F 
ATOM     83  F   UNL A   1      43.964  24.235  24.464  1.00  0.00    -0.200 F 
ENDBRANCH  49  73
BRANCH  61  84
ATOM     84  C   UNL A   1      44.854  27.446  34.152  1.00  0.00     0.064 A 
ATOM     85  C   UNL A   1      46.057  28.166  34.187  1.00  0.00     0.173 A 
ATOM     86  C   UNL A   1      44.780  26.249  34.878  1.00  0.00     0.173 A 
ATOM     87  F   UNL A   1      46.182  29.307  33.494  1.00  0.00    -0.203 F 
ATOM     88  C   UNL A   1      47.149  27.698  34.914  1.00  0.00     0.198 A 
ATOM     89  C   UNL A   1      45.864  25.798  35.627  1.00  0.00     0.198 A 
ATOM     90  F   UNL A   1      43.649  25.527  34.880  1.00  0.00    -0.203 F 
ATOM     91  F   UNL A   1      48.300  28.381  34.905  1.00  0.00    -0.200 F 
ATOM     92  C   UNL A   1      47.047  26.520  35.641  1.00  0.00     0.200 A 
ATOM     93  F   UNL A   1      45.760  24.667  36.339  1.00  0.00    -0.200 F 
ATOM     94  F   UNL A   1      48.094  26.078  36.352  1.00  0.00    -0.200 F 
ENDBRANCH  61  84
ENDBRANCH  35  36
ENDBRANCH  27  30
ENDBRANCH  25  26
ENDBRANCH  24  25
ENDBRANCH   1  24
TORSDOF 17
ENDMDL
MODEL 3
REMARK VINA RESULT:     -11.0      0.695      2.251
REMARK SMILES CCC[N@H+](CC1CC[NH2+]CC1)[C@@H](CC)C(=O)NCCCCNC(=O)c1ccc(-c2c3nc(c(-c4c(F)c(F)c(F)c(F)c4F)c4ccc([nH]4)c(-c4c(F)c(F)c(F)c(F)c4F)c4nc(c(-c5c(F)c(F)c(F)c(F)c5F)c5ccc2[nH]5)C=C4)C=C3)cc1
REMARK SMILES IDX 19 1 18 2 17 3 15 4 16 5 12 7 4 8 3 10 2 11 1 12 5 13 6 14
REMARK SMILES IDX 7 15 11 16 8 17 10 18 9 19 13 22 14 23 20 24 21 25 22 26
REMARK SMILES IDX 23 27 24 29 25 30 26 31 87 32 27 33 86 34 28 35 29 36 30 37
REMARK SMILES IDX 80 38 31 39 85 40 79 41 81 42 32 43 84 44 78 45 77 46 33 48
REMARK SMILES IDX 65 49 45 50 64 51 46 52 49 53 63 54 82 55 47 56 48 57 62 59
REMARK SMILES IDX 83 60 50 61 34 62 35 63 43 64 36 65 37 66 41 67 44 68 38 69
REMARK SMILES IDX 39 70 42 71 40 72 66 73 67 74 75 75 68 76 69 77 73 78 76 79
REMARK SMILES IDX 70 80 71 81 74 82 72 83 51 84 52 85 60 86 53 87 54 88 58 89
REMARK SMILES IDX 61 90 55 91 56 92 59 93 57 94
REMARK H PARENT 17 6 4 9 9 20 9 21 22 28 81 47 49 58
REMARK Flexibility Score: inf
ROOT
ATOM      1  C   UNL A   1      32.420  28.659  25.032  1.00  0.00     0.023 C 
ENDROOT
BRANCH   1   2
ATOM      2  C   UNL A   1      32.984  28.527  23.600  1.00  0.00     0.116 C 
BRANCH   2   3
ATOM      3  N   UNL A   1      33.698  27.246  23.438  1.00  0.00    -0.351 N 
ATOM      4  C   UNL A   1      33.243  26.170  22.724  1.00  0.00     0.278 C 
ATOM      5  O   UNL A   1      33.655  26.157  21.550  1.00  0.00    -0.268 OA
ATOM      6  H   UNL A   1      34.574  27.157  23.879  1.00  0.00     0.163 HD
BRANCH   4   7
ATOM      7  C   UNL A   1      32.611  24.830  23.306  1.00  0.00     0.273 C 
BRANCH   7   8
ATOM      8  N   UNL A   1      32.917  24.221  24.657  1.00  0.00    -0.324 N 
ATOM      9  H   UNL A   1      32.291  23.422  24.752  1.00  0.00     0.348 HD
BRANCH   8  10
ATOM     10  C   UNL A   1      32.580  25.049  25.799  1.00  0.00     0.262 C 
BRANCH  10  11
ATOM     11  C   UNL A   1      31.767  24.276  26.852  1.00  0.00     0.058 C 
ATOM     12  C   UNL A   1      30.652  23.354  26.359  1.00  0.00     0.010 C 
ENDBRANCH  10  11
ENDBRANCH   8  10
BRANCH   8  13
ATOM     13  C   UNL A   1      34.329  23.736  24.700  1.00  0.00     0.266 C 
BRANCH  13  14
ATOM     14  C   UNL A   1      34.736  22.240  24.977  1.00  0.00     0.055 C 
ATOM     15  C   UNL A   1      33.784  21.158  24.421  1.00  0.00     0.071 C 
ATOM     16  C   UNL A   1      35.167  21.855  26.396  1.00  0.00     0.071 C 
ATOM     17  C   UNL A   1      32.739  20.615  25.397  1.00  0.00     0.261 C 
ATOM     18  C   UNL A   1      33.990  21.450  27.270  1.00  0.00     0.261 C 
ATOM     19  N   UNL A   1      33.277  20.303  26.720  1.00  0.00    -0.346 N 
ATOM     20  H   UNL A   1      33.921  19.515  26.643  1.00  0.00     0.346 HD
ATOM     21  H   UNL A   1      32.504  20.069  27.343  1.00  0.00     0.346 HD
ENDBRANCH  13  14
ENDBRANCH   8  13
ENDBRANCH   7   8
BRANCH   7  22
ATOM     22  C   UNL A   1      31.063  24.899  23.060  1.00  0.00     0.072 C 
ATOM     23  C   UNL A   1      30.312  26.158  23.487  1.00  0.00     0.011 C 
ENDBRANCH   7  22
ENDBRANCH   4   7
ENDBRANCH   2   3
ENDBRANCH   1   2
BRANCH   1  24
ATOM     24  C   UNL A   1      32.015  30.061  25.536  1.00  0.00     0.023 C 
BRANCH  24  25
ATOM     25  C   UNL A   1      32.361  30.452  26.977  1.00  0.00     0.116 C 
BRANCH  25  26
ATOM     26  N   UNL A   1      32.375  31.889  27.247  1.00  0.00    -0.352 N 
ATOM     27  C   UNL A   1      33.420  32.711  27.643  1.00  0.00     0.251 C 
ATOM     28  H   UNL A   1      31.510  32.345  27.129  1.00  0.00     0.163 HD
ATOM     29  O   UNL A   1      33.262  33.898  27.823  1.00  0.00    -0.269 OA
BRANCH  27  30
ATOM     30  C   UNL A   1      34.735  32.089  27.914  1.00  0.00     0.039 A 
ATOM     31  C   UNL A   1      35.857  32.915  28.000  1.00  0.00     0.014 A 
ATOM     32  C   UNL A   1      34.823  30.731  28.213  1.00  0.00     0.014 A 
ATOM     33  C   UNL A   1      37.038  32.407  28.544  1.00  0.00     0.010 A 
ATOM     34  C   UNL A   1      35.972  30.249  28.833  1.00  0.00     0.010 A 
ATOM     35  C   UNL A   1      37.074  31.095  29.046  1.00  0.00    -0.014 A 
BRANCH  35  36
ATOM     36  C   UNL A   1      38.214  30.618  29.872  1.00  0.00     0.031 A 
ATOM     37  C   UNL A   1      39.169  29.596  29.329  1.00  0.00     0.074 A 
ATOM     38  C   UNL A   1      38.320  31.028  31.153  1.00  0.00     0.049 A 
ATOM     39  N   UNL A   1      40.152  28.979  29.935  1.00  0.00    -0.248 NA
ATOM     40  C   UNL A   1      38.973  29.188  27.931  1.00  0.00     0.031 C 
ATOM     41  C   UNL A   1      37.415  31.967  31.821  1.00  0.00     0.029 A 
ATOM     42  N   UNL A   1      39.227  30.697  32.131  1.00  0.00    -0.354 N 
ATOM     43  C   UNL A   1      40.678  28.099  28.999  1.00  0.00     0.074 A 
ATOM     44  C   UNL A   1      39.872  28.222  27.804  1.00  0.00     0.031 C 
ATOM     45  C   UNL A   1      37.825  32.154  33.086  1.00  0.00     0.029 A 
ATOM     46  C   UNL A   1      38.994  31.316  33.336  1.00  0.00     0.049 A 
ATOM     47  H   UNL A   1      39.974  30.073  31.983  1.00  0.00     0.167 HD
ATOM     48  C   UNL A   1      41.749  27.281  29.119  1.00  0.00     0.037 A 
ATOM     49  C   UNL A   1      39.638  31.212  34.514  1.00  0.00     0.037 A 
ATOM     50  C   UNL A   1      42.569  27.188  30.298  1.00  0.00     0.049 A 
ATOM     51  C   UNL A   1      40.826  30.293  34.620  1.00  0.00     0.074 A 
ATOM     52  C   UNL A   1      43.729  26.457  30.486  1.00  0.00     0.029 A 
ATOM     53  N   UNL A   1      42.311  27.844  31.493  1.00  0.00    -0.354 N 
ATOM     54  N   UNL A   1      41.366  29.532  33.700  1.00  0.00    -0.248 NA
ATOM     55  C   UNL A   1      41.490  30.214  35.928  1.00  0.00     0.031 C 
ATOM     56  C   UNL A   1      44.147  26.633  31.809  1.00  0.00     0.029 A 
ATOM     57  C   UNL A   1      43.273  27.510  32.432  1.00  0.00     0.049 A 
ATOM     58  H   UNL A   1      41.556  28.457  31.650  1.00  0.00     0.167 HD
ATOM     59  C   UNL A   1      42.441  28.901  34.310  1.00  0.00     0.074 A 
ATOM     60  C   UNL A   1      42.490  29.382  35.674  1.00  0.00     0.031 C 
ATOM     61  C   UNL A   1      43.307  27.998  33.787  1.00  0.00     0.037 A 
BRANCH  48  62
ATOM     62  C   UNL A   1      42.105  26.426  27.938  1.00  0.00     0.064 A 
ATOM     63  C   UNL A   1      41.477  25.193  27.709  1.00  0.00     0.173 A 
ATOM     64  C   UNL A   1      43.058  26.861  27.005  1.00  0.00     0.173 A 
ATOM     65  F   UNL A   1      40.565  24.728  28.576  1.00  0.00    -0.203 F 
ATOM     66  C   UNL A   1      41.813  24.411  26.607  1.00  0.00     0.198 A 
ATOM     67  C   UNL A   1      43.370  26.091  25.888  1.00  0.00     0.198 A 
ATOM     68  F   UNL A   1      43.684  28.035  27.174  1.00  0.00    -0.203 F 
ATOM     69  F   UNL A   1      41.236  23.213  26.436  1.00  0.00    -0.200 F 
ATOM     70  C   UNL A   1      42.753  24.864  25.694  1.00  0.00     0.200 A 
ATOM     71  F   UNL A   1      44.270  26.535  25.000  1.00  0.00    -0.200 F 
ATOM     72  F   UNL A   1      43.071  24.113  24.630  1.00  0.00    -0.200 F 
ENDBRANCH  48  62
BRANCH  49  73
ATOM     73  C   UNL A   1      39.185  32.004  35.688  1.00  0.00     0.064 A 
ATOM     74  C   UNL A   1      39.654  33.308  35.901  1.00  0.00     0.173 A 
ATOM     75  C   UNL A   1      38.287  31.475  36.627  1.00  0.00     0.173 A 
ATOM     76  F   UNL A   1      40.530  33.852  35.043  1.00  0.00    -0.203 F 
ATOM     77  C   UNL A   1      39.259  34.045  37.017  1.00  0.00     0.198 A 
ATOM     78  C   UNL A   1      37.872  32.222  37.727  1.00  0.00     0.198 A 
ATOM     79  F   UNL A   1      37.805  30.233  36.470  1.00  0.00    -0.203 F 
ATOM     80  F   UNL A   1      39.759  35.271  37.218  1.00  0.00    -0.200 F 
ATOM     81  C   UNL A   1      38.364  33.502  37.926  1.00  0.00     0.200 A 
ATOM     82  F   UNL A   1      36.995  31.700  38.596  1.00  0.00    -0.200 F 
ATOM     83  F   UNL A   1      37.983  34.211  38.997  1.00  0.00    -0.200 F 
ENDBRANCH  49  73
BRANCH  61  84
ATOM     84  C   UNL A   1      44.388  27.477  34.688  1.00  0.00     0.064 A 
ATOM     85  C   UNL A   1      45.553  28.218  34.932  1.00  0.00     0.173 A 
ATOM     86  C   UNL A   1      44.230  26.255  35.358  1.00  0.00     0.173 A 
ATOM     87  F   UNL A   1      45.757  29.383  34.300  1.00  0.00    -0.203 F 
ATOM     88  C   UNL A   1      46.529  27.747  35.806  1.00  0.00     0.198 A 
ATOM     89  C   UNL A   1      45.195  25.801  36.253  1.00  0.00     0.198 A 
ATOM     90  F   UNL A   1      43.131  25.513  35.162  1.00  0.00    -0.203 F 
ATOM     91  F   UNL A   1      47.651  28.452  35.997  1.00  0.00    -0.200 F 
ATOM     92  C   UNL A   1      46.345  26.544  36.473  1.00  0.00     0.200 A 
ATOM     93  F   UNL A   1      45.009  24.646  36.907  1.00  0.00    -0.200 F 
ATOM     94  F   UNL A   1      47.278  26.099  37.325  1.00  0.00    -0.200 F 
ENDBRANCH  61  84
ENDBRANCH  35  36
ENDBRANCH  27  30
ENDBRANCH  25  26
ENDBRANCH  24  25
ENDBRANCH   1  24
TORSDOF 17
ENDMDL
