MODEL 1
REMARK VINA RESULT:     -12.4      0.000      0.000
REMARK SMILES Cc1cc2c(c(C)c1Cl)C=C(C(=O)NCCCCNC(=O)c1ccc(-c3c4nc(c(-c5c(F)c(F)c(F)c(F)c5F)c5ccc([nH]5)c(-c5c(F)c(F)c(F)c(F)c5F)c5nc(c(-c6c(F)c(F)c(F)c(F)c6F)c6ccc3[nH]6)C=C5)C=C4)cc1)[C@@H](C(F)(F)F)O2
REMARK SMILES IDX 17 1 16 2 15 3 14 4 12 5 13 6 11 8 1 9 2 10 3 11 8 12 4 13
REMARK SMILES IDX 6 14 9 15 5 16 90 17 7 18 10 19 85 20 86 21 87 22 88 23
REMARK SMILES IDX 89 24 18 25 19 26 20 27 21 29 22 30 23 31 84 32 24 33 83 34
REMARK SMILES IDX 25 35 26 36 27 37 77 38 28 39 82 40 76 41 78 42 29 43 81 44
REMARK SMILES IDX 75 45 74 46 30 48 62 49 42 50 61 51 43 52 46 53 60 54 79 55
REMARK SMILES IDX 44 56 45 57 59 59 80 60 47 61 31 62 32 63 40 64 33 65 34 66
REMARK SMILES IDX 38 67 41 68 35 69 36 70 39 71 37 72 63 73 64 74 72 75 65 76
REMARK SMILES IDX 66 77 70 78 73 79 67 80 68 81 71 82 69 83 48 84 49 85 57 86
REMARK SMILES IDX 50 87 51 88 55 89 58 90 52 91 53 92 56 93 54 94
REMARK H PARENT 14 7 19 28 78 47 46 58
REMARK Flexibility Score: inf
ROOT
ATOM      1  C   UNL A   1      35.804  23.525  26.083  1.00  0.00     0.023 C 
ENDROOT
BRANCH   1   2
ATOM      2  C   UNL A   1      34.589  24.391  25.739  1.00  0.00     0.023 C 
BRANCH   2   3
ATOM      3  C   UNL A   1      33.636  23.757  24.731  1.00  0.00     0.116 C 
BRANCH   3   4
ATOM      4  N   UNL A   1      33.805  24.315  23.402  1.00  0.00    -0.352 N 
ATOM      5  C   UNL A   1      33.508  25.476  22.773  1.00  0.00     0.251 C 
ATOM      6  O   UNL A   1      33.837  25.522  21.582  1.00  0.00    -0.270 OA
ATOM      7  H   UNL A   1      34.257  23.682  22.798  1.00  0.00     0.163 HD
BRANCH   5   8
ATOM      8  C   UNL A   1      32.837  26.655  23.400  1.00  0.00     0.067 C 
ATOM      9  C   UNL A   1      31.149  32.036  26.661  1.00  0.00     0.046 C 
ATOM     10  C   UNL A   1      31.814  30.796  26.126  1.00  0.00    -0.028 A 
ATOM     11  C   UNL A   1      31.197  30.124  25.067  1.00  0.00     0.052 A 
ATOM     12  C   UNL A   1      33.054  30.323  26.601  1.00  0.00     0.047 A 
ATOM     13  C   UNL A   1      31.783  28.992  24.510  1.00  0.00     0.128 A 
ATOM     14  C   UNL A   1      33.655  29.162  26.052  1.00  0.00    -0.021 A 
ATOM     15  Cl  UNL A   1      33.854  31.216  27.861  1.00  0.00    -0.084 Cl
ATOM     16  C   UNL A   1      33.007  28.504  24.978  1.00  0.00     0.022 A 
ATOM     17  O   UNL A   1      31.109  28.442  23.458  1.00  0.00    -0.475 OA
ATOM     18  C   UNL A   1      34.972  28.631  26.566  1.00  0.00     0.047 C 
ATOM     19  C   UNL A   1      33.582  27.350  24.280  1.00  0.00     0.026 C 
ATOM     20  C   UNL A   1      31.418  27.060  23.138  1.00  0.00     0.314 C 
BRANCH  20  21
ATOM     21  C   UNL A   1      30.396  26.136  23.824  1.00  0.00     0.429 C 
ATOM     22  F   UNL A   1      30.342  24.937  23.189  1.00  0.00    -0.167 F 
ATOM     23  F   UNL A   1      30.720  25.870  25.111  1.00  0.00    -0.167 F 
ATOM     24  F   UNL A   1      29.146  26.650  23.830  1.00  0.00    -0.167 F 
ENDBRANCH  20  21
ENDBRANCH   5   8
ENDBRANCH   3   4
ENDBRANCH   2   3
ENDBRANCH   1   2
BRANCH   1  25
ATOM     25  C   UNL A   1      37.040  23.759  25.217  1.00  0.00     0.116 C 
BRANCH  25  26
ATOM     26  N   UNL A   1      38.124  22.819  25.469  1.00  0.00    -0.352 N 
ATOM     27  C   UNL A   1      39.278  23.031  26.185  1.00  0.00     0.251 C 
ATOM     28  H   UNL A   1      38.016  21.922  25.079  1.00  0.00     0.163 HD
ATOM     29  O   UNL A   1      40.142  22.164  26.262  1.00  0.00    -0.269 OA
BRANCH  27  30
ATOM     30  C   UNL A   1      39.482  24.344  26.819  1.00  0.00     0.039 A 
ATOM     31  C   UNL A   1      39.066  24.521  28.140  1.00  0.00     0.014 A 
ATOM     32  C   UNL A   1      40.154  25.361  26.135  1.00  0.00     0.014 A 
ATOM     33  C   UNL A   1      39.395  25.700  28.806  1.00  0.00     0.010 A 
ATOM     34  C   UNL A   1      40.532  26.510  26.819  1.00  0.00     0.010 A 
ATOM     35  C   UNL A   1      40.163  26.684  28.161  1.00  0.00    -0.014 A 
BRANCH  35  36
ATOM     36  C   UNL A   1      40.593  27.903  28.883  1.00  0.00     0.031 A 
ATOM     37  C   UNL A   1      42.015  28.039  29.339  1.00  0.00     0.074 A 
ATOM     38  C   UNL A   1      39.690  28.861  29.166  1.00  0.00     0.049 A 
ATOM     39  N   UNL A   1      42.577  29.010  30.012  1.00  0.00    -0.248 NA
ATOM     40  C   UNL A   1      42.923  26.927  29.014  1.00  0.00     0.031 C 
ATOM     41  C   UNL A   1      38.271  28.815  28.812  1.00  0.00     0.029 A 
ATOM     42  N   UNL A   1      39.833  30.059  29.818  1.00  0.00    -0.354 N 
ATOM     43  C   UNL A   1      43.896  28.624  30.195  1.00  0.00     0.074 A 
ATOM     44  C   UNL A   1      44.042  27.308  29.612  1.00  0.00     0.031 C 
ATOM     45  C   UNL A   1      37.681  29.952  29.217  1.00  0.00     0.029 A 
ATOM     46  C   UNL A   1      38.673  30.790  29.884  1.00  0.00     0.049 A 
ATOM     47  H   UNL A   1      40.686  30.366  30.201  1.00  0.00     0.167 HD
ATOM     48  C   UNL A   1      44.903  29.319  30.772  1.00  0.00     0.037 A 
ATOM     49  C   UNL A   1      38.441  32.005  30.416  1.00  0.00     0.037 A 
ATOM     50  C   UNL A   1      44.762  30.639  31.324  1.00  0.00     0.049 A 
ATOM     51  C   UNL A   1      39.575  32.752  31.063  1.00  0.00     0.074 A 
ATOM     52  C   UNL A   1      45.736  31.449  31.882  1.00  0.00     0.029 A 
ATOM     53  N   UNL A   1      43.569  31.344  31.382  1.00  0.00    -0.354 N 
ATOM     54  N   UNL A   1      40.831  32.400  31.184  1.00  0.00    -0.248 NA
ATOM     55  C   UNL A   1      39.259  34.064  31.646  1.00  0.00     0.031 C 
ATOM     56  C   UNL A   1      45.126  32.635  32.303  1.00  0.00     0.029 A 
ATOM     57  C   UNL A   1      43.779  32.575  31.980  1.00  0.00     0.049 A 
ATOM     58  H   UNL A   1      42.703  31.018  31.047  1.00  0.00     0.167 HD
ATOM     59  C   UNL A   1      41.460  33.449  31.839  1.00  0.00     0.074 A 
ATOM     60  C   UNL A   1      40.449  34.457  32.082  1.00  0.00     0.031 C 
ATOM     61  C   UNL A   1      42.758  33.564  32.208  1.00  0.00     0.037 A 
BRANCH  48  62
ATOM     62  C   UNL A   1      46.253  28.671  30.813  1.00  0.00     0.064 A 
ATOM     63  C   UNL A   1      47.167  28.829  29.761  1.00  0.00     0.173 A 
ATOM     64  C   UNL A   1      46.650  27.912  31.924  1.00  0.00     0.173 A 
ATOM     65  F   UNL A   1      46.827  29.533  28.672  1.00  0.00    -0.203 F 
ATOM     66  C   UNL A   1      48.424  28.233  29.810  1.00  0.00     0.198 A 
ATOM     67  C   UNL A   1      47.917  27.336  31.979  1.00  0.00     0.198 A 
ATOM     68  F   UNL A   1      45.811  27.733  32.955  1.00  0.00    -0.203 F 
ATOM     69  F   UNL A   1      49.266  28.364  28.776  1.00  0.00    -0.200 F 
ATOM     70  C   UNL A   1      48.799  27.492  30.921  1.00  0.00     0.200 A 
ATOM     71  F   UNL A   1      48.282  26.628  33.056  1.00  0.00    -0.200 F 
ATOM     72  F   UNL A   1      50.012  26.923  30.969  1.00  0.00    -0.200 F 
ENDBRANCH  48  62
BRANCH  49  73
ATOM     73  C   UNL A   1      37.089  32.609  30.315  1.00  0.00     0.064 A 
ATOM     74  C   UNL A   1      36.116  32.341  31.287  1.00  0.00     0.173 A 
ATOM     75  C   UNL A   1      36.749  33.477  29.268  1.00  0.00     0.173 A 
ATOM     76  F   UNL A   1      36.392  31.501  32.296  1.00  0.00    -0.203 F 
ATOM     77  C   UNL A   1      34.848  32.912  31.212  1.00  0.00     0.198 A 
ATOM     78  C   UNL A   1      35.486  34.064  29.206  1.00  0.00     0.198 A 
ATOM     79  F   UNL A   1      37.648  33.768  28.317  1.00  0.00    -0.203 F 
ATOM     80  F   UNL A   1      33.928  32.620  32.141  1.00  0.00    -0.200 F 
ATOM     81  C   UNL A   1      34.537  33.778  30.175  1.00  0.00     0.200 A 
ATOM     82  F   UNL A   1      35.191  34.908  28.208  1.00  0.00    -0.200 F 
ATOM     83  F   UNL A   1      33.319  34.335  30.108  1.00  0.00    -0.200 F 
ENDBRANCH  49  73
BRANCH  61  84
ATOM     84  C   UNL A   1      43.170  34.824  32.905  1.00  0.00     0.064 A 
ATOM     85  C   UNL A   1      43.543  35.965  32.181  1.00  0.00     0.173 A 
ATOM     86  C   UNL A   1      43.109  34.917  34.303  1.00  0.00     0.173 A 
ATOM     87  F   UNL A   1      43.627  35.917  30.843  1.00  0.00    -0.203 F 
ATOM     88  C   UNL A   1      43.844  37.156  32.833  1.00  0.00     0.198 A 
ATOM     89  C   UNL A   1      43.391  36.116  34.951  1.00  0.00     0.198 A 
ATOM     90  F   UNL A   1      42.753  33.852  35.036  1.00  0.00    -0.203 F 
ATOM     91  F   UNL A   1      44.216  38.230  32.125  1.00  0.00    -0.200 F 
ATOM     92  C   UNL A   1      43.758  37.233  34.216  1.00  0.00     0.200 A 
ATOM     93  F   UNL A   1      43.299  36.192  36.286  1.00  0.00    -0.200 F 
ATOM     94  F   UNL A   1      44.032  38.387  34.842  1.00  0.00    -0.200 F 
ENDBRANCH  61  84
ENDBRANCH  35  36
ENDBRANCH  27  30
ENDBRANCH  25  26
ENDBRANCH   1  25
TORSDOF 12
ENDMDL
MODEL 2
REMARK VINA RESULT:     -12.4      3.757      8.645
REMARK SMILES Cc1cc2c(c(C)c1Cl)C=C(C(=O)NCCCCNC(=O)c1ccc(-c3c4nc(c(-c5c(F)c(F)c(F)c(F)c5F)c5ccc([nH]5)c(-c5c(F)c(F)c(F)c(F)c5F)c5nc(c(-c6c(F)c(F)c(F)c(F)c6F)c6ccc3[nH]6)C=C5)C=C4)cc1)[C@@H](C(F)(F)F)O2
REMARK SMILES IDX 17 1 16 2 15 3 14 4 12 5 13 6 11 8 1 9 2 10 3 11 8 12 4 13
REMARK SMILES IDX 6 14 9 15 5 16 90 17 7 18 10 19 85 20 86 21 87 22 88 23
REMARK SMILES IDX 89 24 18 25 19 26 20 27 21 29 22 30 23 31 84 32 24 33 83 34
REMARK SMILES IDX 25 35 26 36 27 37 77 38 28 39 82 40 76 41 78 42 29 43 81 44
REMARK SMILES IDX 75 45 74 46 30 48 62 49 42 50 61 51 43 52 46 53 60 54 79 55
REMARK SMILES IDX 44 56 45 57 59 59 80 60 47 61 31 62 32 63 40 64 33 65 34 66
REMARK SMILES IDX 38 67 41 68 35 69 36 70 39 71 37 72 63 73 64 74 72 75 65 76
REMARK SMILES IDX 66 77 70 78 73 79 67 80 68 81 71 82 69 83 48 84 49 85 57 86
REMARK SMILES IDX 50 87 51 88 55 89 58 90 52 91 53 92 56 93 54 94
REMARK H PARENT 14 7 19 28 78 47 46 58
REMARK Flexibility Score: inf
ROOT
ATOM      1  C   UNL A   1      31.538  31.968  26.712  1.00  0.00     0.023 C 
ENDROOT
BRANCH   1   2
ATOM      2  C   UNL A   1      31.804  30.470  26.545  1.00  0.00     0.023 C 
BRANCH   2   3
ATOM      3  C   UNL A   1      33.220  30.134  26.088  1.00  0.00     0.116 C 
BRANCH   3   4
ATOM      4  N   UNL A   1      33.246  29.648  24.721  1.00  0.00    -0.352 N 
ATOM      5  C   UNL A   1      33.169  28.450  24.097  1.00  0.00     0.251 C 
ATOM      6  O   UNL A   1      33.250  28.498  22.864  1.00  0.00    -0.270 OA
ATOM      7  H   UNL A   1      33.346  30.385  24.076  1.00  0.00     0.163 HD
BRANCH   5   8
ATOM      8  C   UNL A   1      32.998  27.129  24.774  1.00  0.00     0.067 C 
ATOM      9  C   UNL A   1      33.485  21.106  27.209  1.00  0.00     0.046 C 
ATOM     10  C   UNL A   1      33.628  22.387  26.432  1.00  0.00    -0.028 A 
ATOM     11  C   UNL A   1      32.803  23.462  26.778  1.00  0.00     0.052 A 
ATOM     12  C   UNL A   1      34.592  22.569  25.419  1.00  0.00     0.047 A 
ATOM     13  C   UNL A   1      32.914  24.680  26.117  1.00  0.00     0.128 A 
ATOM     14  C   UNL A   1      34.705  23.802  24.728  1.00  0.00    -0.021 A 
ATOM     15  Cl  UNL A   1      35.669  21.254  25.055  1.00  0.00    -0.084 Cl
ATOM     16  C   UNL A   1      33.858  24.873  25.103  1.00  0.00     0.022 A 
ATOM     17  O   UNL A   1      32.083  25.666  26.565  1.00  0.00    -0.475 OA
ATOM     18  C   UNL A   1      35.719  24.005  23.626  1.00  0.00     0.047 C 
ATOM     19  C   UNL A   1      33.950  26.213  24.516  1.00  0.00     0.026 C 
ATOM     20  C   UNL A   1      31.842  26.775  25.660  1.00  0.00     0.314 C 
BRANCH  20  21
ATOM     21  C   UNL A   1      30.543  26.521  24.875  1.00  0.00     0.429 C 
ATOM     22  F   UNL A   1      30.032  27.691  24.415  1.00  0.00    -0.167 F 
ATOM     23  F   UNL A   1      30.740  25.738  23.788  1.00  0.00    -0.167 F 
ATOM     24  F   UNL A   1      29.587  25.925  25.622  1.00  0.00    -0.167 F 
ENDBRANCH  20  21
ENDBRANCH   5   8
ENDBRANCH   3   4
ENDBRANCH   2   3
ENDBRANCH   1   2
BRANCH   1  25
ATOM     25  C   UNL A   1      32.703  32.780  27.276  1.00  0.00     0.116 C 
BRANCH  25  26
ATOM     26  N   UNL A   1      32.349  34.146  27.638  1.00  0.00    -0.352 N 
ATOM     27  C   UNL A   1      32.959  34.962  28.560  1.00  0.00     0.251 C 
ATOM     28  H   UNL A   1      31.578  34.533  27.163  1.00  0.00     0.163 HD
ATOM     29  O   UNL A   1      32.512  36.076  28.813  1.00  0.00    -0.269 OA
BRANCH  27  30
ATOM     30  C   UNL A   1      34.137  34.451  29.281  1.00  0.00     0.039 A 
ATOM     31  C   UNL A   1      33.939  33.743  30.469  1.00  0.00     0.014 A 
ATOM     32  C   UNL A   1      35.416  34.601  28.739  1.00  0.00     0.014 A 
ATOM     33  C   UNL A   1      35.025  33.116  31.077  1.00  0.00     0.010 A 
ATOM     34  C   UNL A   1      36.486  33.927  29.314  1.00  0.00     0.010 A 
ATOM     35  C   UNL A   1      36.296  33.172  30.482  1.00  0.00    -0.014 A 
BRANCH  35  36
ATOM     36  C   UNL A   1      37.441  32.440  31.070  1.00  0.00     0.031 A 
ATOM     37  C   UNL A   1      37.934  32.799  32.440  1.00  0.00     0.074 A 
ATOM     38  C   UNL A   1      38.059  31.485  30.350  1.00  0.00     0.049 A 
ATOM     39  N   UNL A   1      38.940  32.301  33.112  1.00  0.00    -0.248 NA
ATOM     40  C   UNL A   1      37.218  33.878  33.138  1.00  0.00     0.031 C 
ATOM     41  C   UNL A   1      37.695  31.081  28.991  1.00  0.00     0.029 A 
ATOM     42  N   UNL A   1      39.127  30.681  30.661  1.00  0.00    -0.354 N 
ATOM     43  C   UNL A   1      38.978  33.007  34.305  1.00  0.00     0.074 A 
ATOM     44  C   UNL A   1      37.933  34.005  34.246  1.00  0.00     0.031 C 
ATOM     45  C   UNL A   1      38.500  30.080  28.600  1.00  0.00     0.029 A 
ATOM     46  C   UNL A   1      39.454  29.793  29.667  1.00  0.00     0.049 A 
ATOM     47  H   UNL A   1      39.611  30.735  31.516  1.00  0.00     0.167 HD
ATOM     48  C   UNL A   1      39.794  32.818  35.368  1.00  0.00     0.037 A 
ATOM     49  C   UNL A   1      40.412  28.848  29.628  1.00  0.00     0.037 A 
ATOM     50  C   UNL A   1      40.811  31.805  35.436  1.00  0.00     0.049 A 
ATOM     51  C   UNL A   1      41.313  28.666  30.817  1.00  0.00     0.074 A 
ATOM     52  C   UNL A   1      41.654  31.498  36.490  1.00  0.00     0.029 A 
ATOM     53  N   UNL A   1      41.121  30.930  34.405  1.00  0.00    -0.354 N 
ATOM     54  N   UNL A   1      41.307  29.304  31.961  1.00  0.00    -0.248 NA
ATOM     55  C   UNL A   1      42.355  27.634  30.709  1.00  0.00     0.031 C 
ATOM     56  C   UNL A   1      42.493  30.454  36.087  1.00  0.00     0.029 A 
ATOM     57  C   UNL A   1      42.152  30.092  34.793  1.00  0.00     0.049 A 
ATOM     58  H   UNL A   1      40.673  30.909  33.529  1.00  0.00     0.167 HD
ATOM     59  C   UNL A   1      42.327  28.743  32.717  1.00  0.00     0.074 A 
ATOM     60  C   UNL A   1      42.926  27.704  31.905  1.00  0.00     0.031 C 
ATOM     61  C   UNL A   1      42.730  29.062  33.969  1.00  0.00     0.037 A 
BRANCH  48  62
ATOM     62  C   UNL A   1      39.600  33.713  36.553  1.00  0.00     0.064 A 
ATOM     63  C   UNL A   1      40.203  34.979  36.614  1.00  0.00     0.173 A 
ATOM     64  C   UNL A   1      38.782  33.320  37.622  1.00  0.00     0.173 A 
ATOM     65  F   UNL A   1      41.006  35.391  35.622  1.00  0.00    -0.203 F 
ATOM     66  C   UNL A   1      40.010  35.810  37.712  1.00  0.00     0.198 A 
ATOM     67  C   UNL A   1      38.573  34.166  38.709  1.00  0.00     0.198 A 
ATOM     68  F   UNL A   1      38.183  32.121  37.609  1.00  0.00    -0.203 F 
ATOM     69  F   UNL A   1      40.628  36.998  37.768  1.00  0.00    -0.200 F 
ATOM     70  C   UNL A   1      39.191  35.406  38.756  1.00  0.00     0.200 A 
ATOM     71  F   UNL A   1      37.775  33.778  39.713  1.00  0.00    -0.200 F 
ATOM     72  F   UNL A   1      39.003  36.211  39.811  1.00  0.00    -0.200 F 
ENDBRANCH  48  62
BRANCH  49  73
ATOM     73  C   UNL A   1      40.532  27.969  28.437  1.00  0.00     0.064 A 
ATOM     74  C   UNL A   1      41.302  28.365  27.335  1.00  0.00     0.173 A 
ATOM     75  C   UNL A   1      39.906  26.716  28.382  1.00  0.00     0.173 A 
ATOM     76  F   UNL A   1      41.904  29.564  27.338  1.00  0.00    -0.203 F 
ATOM     77  C   UNL A   1      41.436  27.545  26.219  1.00  0.00     0.198 A 
ATOM     78  C   UNL A   1      40.057  25.887  27.273  1.00  0.00     0.198 A 
ATOM     79  F   UNL A   1      39.163  26.291  29.414  1.00  0.00    -0.203 F 
ATOM     80  F   UNL A   1      42.158  27.958  25.168  1.00  0.00    -0.200 F 
ATOM     81  C   UNL A   1      40.818  26.303  26.191  1.00  0.00     0.200 A 
ATOM     82  F   UNL A   1      39.468  24.684  27.252  1.00  0.00    -0.200 F 
ATOM     83  F   UNL A   1      40.955  25.510  25.119  1.00  0.00    -0.200 F 
ENDBRANCH  49  73
BRANCH  61  84
ATOM     84  C   UNL A   1      43.867  28.279  34.551  1.00  0.00     0.064 A 
ATOM     85  C   UNL A   1      45.190  28.729  34.441  1.00  0.00     0.173 A 
ATOM     86  C   UNL A   1      43.623  27.116  35.295  1.00  0.00     0.173 A 
ATOM     87  F   UNL A   1      45.470  29.830  33.727  1.00  0.00    -0.203 F 
ATOM     88  C   UNL A   1      46.231  28.040  35.055  1.00  0.00     0.198 A 
ATOM     89  C   UNL A   1      44.663  26.441  35.926  1.00  0.00     0.198 A 
ATOM     90  F   UNL A   1      42.372  26.651  35.431  1.00  0.00    -0.203 F 
ATOM     91  F   UNL A   1      47.490  28.476  34.924  1.00  0.00    -0.200 F 
ATOM     92  C   UNL A   1      45.965  26.903  35.805  1.00  0.00     0.200 A 
ATOM     93  F   UNL A   1      44.405  25.348  36.658  1.00  0.00    -0.200 F 
ATOM     94  F   UNL A   1      46.967  26.250  36.411  1.00  0.00    -0.200 F 
ENDBRANCH  61  84
ENDBRANCH  35  36
ENDBRANCH  27  30
ENDBRANCH  25  26
ENDBRANCH   1  25
TORSDOF 12
ENDMDL
MODEL 3
REMARK VINA RESULT:     -12.4      3.745      8.766
REMARK SMILES Cc1cc2c(c(C)c1Cl)C=C(C(=O)NCCCCNC(=O)c1ccc(-c3c4nc(c(-c5c(F)c(F)c(F)c(F)c5F)c5ccc([nH]5)c(-c5c(F)c(F)c(F)c(F)c5F)c5nc(c(-c6c(F)c(F)c(F)c(F)c6F)c6ccc3[nH]6)C=C5)C=C4)cc1)[C@@H](C(F)(F)F)O2
REMARK SMILES IDX 17 1 16 2 15 3 14 4 12 5 13 6 11 8 1 9 2 10 3 11 8 12 4 13
REMARK SMILES IDX 6 14 9 15 5 16 90 17 7 18 10 19 85 20 86 21 87 22 88 23
REMARK SMILES IDX 89 24 18 25 19 26 20 27 21 29 22 30 23 31 84 32 24 33 83 34
REMARK SMILES IDX 25 35 26 36 27 37 77 38 28 39 82 40 76 41 78 42 29 43 81 44
REMARK SMILES IDX 75 45 74 46 30 48 62 49 42 50 61 51 43 52 46 53 60 54 79 55
REMARK SMILES IDX 44 56 45 57 59 59 80 60 47 61 31 62 32 63 40 64 33 65 34 66
REMARK SMILES IDX 38 67 41 68 35 69 36 70 39 71 37 72 63 73 64 74 72 75 65 76
REMARK SMILES IDX 66 77 70 78 73 79 67 80 68 81 71 82 69 83 48 84 49 85 57 86
REMARK SMILES IDX 50 87 51 88 55 89 58 90 52 91 53 92 56 93 54 94
REMARK H PARENT 14 7 19 28 78 47 46 58
REMARK Flexibility Score: inf
ROOT
ATOM      1  C   UNL A   1      31.552  31.970  26.734  1.00  0.00     0.023 C 
ENDROOT
BRANCH   1   2
ATOM      2  C   UNL A   1      31.818  30.472  26.567  1.00  0.00     0.023 C 
BRANCH   2   3
ATOM      3  C   UNL A   1      33.236  30.137  26.115  1.00  0.00     0.116 C 
BRANCH   3   4
ATOM      4  N   UNL A   1      33.268  29.655  24.747  1.00  0.00    -0.352 N 
ATOM      5  C   UNL A   1      33.191  28.459  24.118  1.00  0.00     0.251 C 
ATOM      6  O   UNL A   1      33.278  28.511  22.887  1.00  0.00    -0.270 OA
ATOM      7  H   UNL A   1      33.373  30.394  24.105  1.00  0.00     0.163 HD
BRANCH   5   8
ATOM      8  C   UNL A   1      33.012  27.137  24.791  1.00  0.00     0.067 C 
ATOM      9  C   UNL A   1      33.463  21.100  27.198  1.00  0.00     0.046 C 
ATOM     10  C   UNL A   1      33.613  22.383  26.427  1.00  0.00    -0.028 A 
ATOM     11  C   UNL A   1      32.797  23.462  26.780  1.00  0.00     0.052 A 
ATOM     12  C   UNL A   1      34.576  22.563  25.412  1.00  0.00     0.047 A 
ATOM     13  C   UNL A   1      32.915  24.683  26.124  1.00  0.00     0.128 A 
ATOM     14  C   UNL A   1      34.696  23.798  24.726  1.00  0.00    -0.021 A 
ATOM     15  Cl  UNL A   1      35.643  21.242  25.040  1.00  0.00    -0.084 Cl
ATOM     16  C   UNL A   1      33.857  24.873  25.108  1.00  0.00     0.022 A 
ATOM     17  O   UNL A   1      32.091  25.672  26.578  1.00  0.00    -0.475 OA
ATOM     18  C   UNL A   1      35.708  23.998  23.622  1.00  0.00     0.047 C 
ATOM     19  C   UNL A   1      33.957  26.215  24.526  1.00  0.00     0.026 C 
ATOM     20  C   UNL A   1      31.856  26.787  25.679  1.00  0.00     0.314 C 
BRANCH  20  21
ATOM     21  C   UNL A   1      30.553  26.546  24.896  1.00  0.00     0.429 C 
ATOM     22  F   UNL A   1      30.051  27.721  24.439  1.00  0.00    -0.167 F 
ATOM     23  F   UNL A   1      30.740  25.763  23.808  1.00  0.00    -0.167 F 
ATOM     24  F   UNL A   1      29.594  25.957  25.644  1.00  0.00    -0.167 F 
ENDBRANCH  20  21
ENDBRANCH   5   8
ENDBRANCH   3   4
ENDBRANCH   2   3
ENDBRANCH   1   2
BRANCH   1  25
ATOM     25  C   UNL A   1      32.713  32.782  27.305  1.00  0.00     0.116 C 
BRANCH  25  26
ATOM     26  N   UNL A   1      32.359  34.151  27.658  1.00  0.00    -0.352 N 
ATOM     27  C   UNL A   1      32.968  34.972  28.576  1.00  0.00     0.251 C 
ATOM     28  H   UNL A   1      31.589  34.534  27.180  1.00  0.00     0.163 HD
ATOM     29  O   UNL A   1      32.521  36.087  28.821  1.00  0.00    -0.269 OA
BRANCH  27  30
ATOM     30  C   UNL A   1      34.145  34.465  29.301  1.00  0.00     0.039 A 
ATOM     31  C   UNL A   1      33.947  33.763  30.492  1.00  0.00     0.014 A 
ATOM     32  C   UNL A   1      35.425  34.614  28.760  1.00  0.00     0.014 A 
ATOM     33  C   UNL A   1      35.032  33.140  31.105  1.00  0.00     0.010 A 
ATOM     34  C   UNL A   1      36.495  33.943  29.340  1.00  0.00     0.010 A 
ATOM     35  C   UNL A   1      36.304  33.194  30.511  1.00  0.00    -0.014 A 
BRANCH  35  36
ATOM     36  C   UNL A   1      37.448  32.465  31.104  1.00  0.00     0.031 A 
ATOM     37  C   UNL A   1      37.936  32.828  32.475  1.00  0.00     0.074 A 
ATOM     38  C   UNL A   1      38.071  31.511  30.388  1.00  0.00     0.049 A 
ATOM     39  N   UNL A   1      38.940  32.333  33.152  1.00  0.00    -0.248 NA
ATOM     40  C   UNL A   1      37.214  33.906  33.169  1.00  0.00     0.031 C 
ATOM     41  C   UNL A   1      37.713  31.104  29.029  1.00  0.00     0.029 A 
ATOM     42  N   UNL A   1      39.140  30.710  30.704  1.00  0.00    -0.354 N 
ATOM     43  C   UNL A   1      38.972  33.041  34.344  1.00  0.00     0.074 A 
ATOM     44  C   UNL A   1      37.925  34.036  34.279  1.00  0.00     0.031 C 
ATOM     45  C   UNL A   1      38.522  30.105  28.641  1.00  0.00     0.029 A 
ATOM     46  C   UNL A   1      39.473  29.821  29.712  1.00  0.00     0.049 A 
ATOM     47  H   UNL A   1      39.621  30.767  31.561  1.00  0.00     0.167 HD
ATOM     48  C   UNL A   1      39.785  32.856  35.410  1.00  0.00     0.037 A 
ATOM     49  C   UNL A   1      40.433  28.878  29.678  1.00  0.00     0.037 A 
ATOM     50  C   UNL A   1      40.805  31.846  35.483  1.00  0.00     0.049 A 
ATOM     51  C   UNL A   1      41.331  28.701  30.871  1.00  0.00     0.074 A 
ATOM     52  C   UNL A   1      41.644  31.542  36.541  1.00  0.00     0.029 A 
ATOM     53  N   UNL A   1      41.120  30.970  34.455  1.00  0.00    -0.354 N 
ATOM     54  N   UNL A   1      41.319  29.340  32.014  1.00  0.00    -0.248 NA
ATOM     55  C   UNL A   1      42.375  27.671  30.768  1.00  0.00     0.031 C 
ATOM     56  C   UNL A   1      42.487  30.500  36.142  1.00  0.00     0.029 A 
ATOM     57  C   UNL A   1      42.152  30.135  34.847  1.00  0.00     0.049 A 
ATOM     58  H   UNL A   1      40.675  30.946  33.577  1.00  0.00     0.167 HD
ATOM     59  C   UNL A   1      42.337  28.783  32.774  1.00  0.00     0.074 A 
ATOM     60  C   UNL A   1      42.942  27.744  31.966  1.00  0.00     0.031 C 
ATOM     61  C   UNL A   1      42.736  29.105  34.027  1.00  0.00     0.037 A 
BRANCH  48  62
ATOM     62  C   UNL A   1      39.585  33.753  36.593  1.00  0.00     0.064 A 
ATOM     63  C   UNL A   1      38.785  33.359  37.676  1.00  0.00     0.173 A 
ATOM     64  C   UNL A   1      40.220  35.001  36.661  1.00  0.00     0.173 A 
ATOM     65  F   UNL A   1      38.146  32.181  37.649  1.00  0.00    -0.203 F 
ATOM     66  C   UNL A   1      38.613  34.193  38.777  1.00  0.00     0.198 A 
ATOM     67  C   UNL A   1      40.063  35.822  37.775  1.00  0.00     0.198 A 
ATOM     68  F   UNL A   1      40.996  35.421  35.651  1.00  0.00    -0.203 F 
ATOM     69  F   UNL A   1      37.812  33.813  39.783  1.00  0.00    -0.200 F 
ATOM     70  C   UNL A   1      39.256  35.420  38.828  1.00  0.00     0.200 A 
ATOM     71  F   UNL A   1      40.692  37.004  37.828  1.00  0.00    -0.200 F 
ATOM     72  F   UNL A   1      39.092  36.219  39.892  1.00  0.00    -0.200 F 
ENDBRANCH  48  62
BRANCH  49  73
ATOM     73  C   UNL A   1      40.560  27.998  28.489  1.00  0.00     0.064 A 
ATOM     74  C   UNL A   1      41.341  28.390  27.394  1.00  0.00     0.173 A 
ATOM     75  C   UNL A   1      39.930  26.747  28.430  1.00  0.00     0.173 A 
ATOM     76  F   UNL A   1      41.948  29.587  27.400  1.00  0.00    -0.203 F 
ATOM     77  C   UNL A   1      41.481  27.568  26.279  1.00  0.00     0.198 A 
ATOM     78  C   UNL A   1      40.086  25.917  27.323  1.00  0.00     0.198 A 
ATOM     79  F   UNL A   1      39.176  26.326  29.456  1.00  0.00    -0.203 F 
ATOM     80  F   UNL A   1      42.213  27.978  25.235  1.00  0.00    -0.200 F 
ATOM     81  C   UNL A   1      40.858  26.329  26.247  1.00  0.00     0.200 A 
ATOM     82  F   UNL A   1      39.492  24.716  27.298  1.00  0.00    -0.200 F 
ATOM     83  F   UNL A   1      41.000  25.534  25.177  1.00  0.00    -0.200 F 
ENDBRANCH  49  73
BRANCH  61  84
ATOM     84  C   UNL A   1      43.872  28.326  34.614  1.00  0.00     0.064 A 
ATOM     85  C   UNL A   1      43.652  27.110  35.276  1.00  0.00     0.173 A 
ATOM     86  C   UNL A   1      45.195  28.755  34.439  1.00  0.00     0.173 A 
ATOM     87  F   UNL A   1      42.402  26.668  35.478  1.00  0.00    -0.203 F 
ATOM     88  C   UNL A   1      44.720  26.351  35.746  1.00  0.00     0.198 A 
ATOM     89  C   UNL A   1      46.262  27.983  34.891  1.00  0.00     0.198 A 
ATOM     90  F   UNL A   1      45.453  29.910  33.807  1.00  0.00    -0.203 F 
ATOM     91  F   UNL A   1      44.489  25.201  36.392  1.00  0.00    -0.200 F 
ATOM     92  C   UNL A   1      46.023  26.784  35.543  1.00  0.00     0.200 A 
ATOM     93  F   UNL A   1      47.520  28.397  34.687  1.00  0.00    -0.200 F 
ATOM     94  F   UNL A   1      47.051  26.042  35.981  1.00  0.00    -0.200 F 
ENDBRANCH  61  84
ENDBRANCH  35  36
ENDBRANCH  27  30
ENDBRANCH  25  26
ENDBRANCH   1  25
TORSDOF 12
ENDMDL
