MODEL 1
REMARK VINA RESULT:     -13.0      0.000      0.000
REMARK SMILES C[C@H](c1ccc(C(=O)NCCCCNC(=O)c2ccc(-c3c4nc(c(-c5c(F)c(F)c(F)c(F)c5F)c5ccc([nH]5)c(-c5c(F)c(F)c(F)c(F)c5F)c5nc(c(-c6c(F)c(F)c(F)c(F)c6F)c6ccc3[nH]6)C=C5)C=C4)cc2)o1)[NH+]1Cc2ccccc2C1
REMARK SMILES IDX 11 1 10 2 9 3 7 4 8 5 6 7 3 8 4 9 80 10 5 11 2 12 1 13 81 14
REMARK SMILES IDX 82 15 89 16 83 18 88 19 84 20 87 21 85 22 86 23 12 24 13 25
REMARK SMILES IDX 14 26 15 27 16 29 17 30 18 31 79 32 19 33 78 34 20 35 21 36
REMARK SMILES IDX 22 37 72 38 23 39 77 40 71 41 73 42 24 43 76 44 70 45 69 46
REMARK SMILES IDX 25 48 57 49 37 50 56 51 38 52 41 53 55 54 74 55 39 56 40 57
REMARK SMILES IDX 54 59 75 60 42 61 26 62 27 63 35 64 28 65 29 66 33 67 36 68
REMARK SMILES IDX 30 69 31 70 34 71 32 72 58 73 59 74 67 75 60 76 61 77 65 78
REMARK SMILES IDX 68 79 62 80 63 81 66 82 64 83 43 84 44 85 52 86 45 87 46 88
REMARK SMILES IDX 50 89 53 90 47 91 48 92 51 93 49 94
REMARK H PARENT 9 6 81 17 14 28 73 47 41 58
REMARK Flexibility Score: inf
ROOT
ATOM      1  C   UNL A   1      31.817  30.408  26.787  1.00  0.00     0.023 C 
ENDROOT
BRANCH   1   2
ATOM      2  C   UNL A   1      31.962  29.718  25.432  1.00  0.00     0.116 C 
BRANCH   2   3
ATOM      3  N   UNL A   1      31.018  30.233  24.478  1.00  0.00    -0.349 N 
ATOM      4  C   UNL A   1      30.146  29.574  23.650  1.00  0.00     0.287 C 
ATOM      5  O   UNL A   1      29.422  30.309  22.972  1.00  0.00    -0.266 OA
ATOM      6  H   UNL A   1      30.995  31.213  24.407  1.00  0.00     0.163 HD
BRANCH   4   7
ATOM      7  C   UNL A   1      30.126  28.124  23.534  1.00  0.00     0.191 A 
ATOM      8  C   UNL A   1      31.313  26.252  23.343  1.00  0.00     0.162 A 
ATOM      9  C   UNL A   1      30.047  25.862  23.709  1.00  0.00     0.053 A 
ATOM     10  O   UNL A   1      31.287  27.588  23.064  1.00  0.00    -0.450 OA
ATOM     11  C   UNL A   1      29.288  27.067  23.844  1.00  0.00     0.057 A 
BRANCH   8  12
ATOM     12  C   UNL A   1      32.716  25.723  23.338  1.00  0.00     0.248 C 
ATOM     13  C   UNL A   1      33.602  27.018  23.320  1.00  0.00     0.084 C 
BRANCH  12  14
ATOM     14  N   UNL A   1      33.189  24.748  24.337  1.00  0.00    -0.319 N 
ATOM     15  C   UNL A   1      34.144  25.121  25.422  1.00  0.00     0.300 C 
ATOM     16  C   UNL A   1      33.732  23.517  23.768  1.00  0.00     0.300 C 
ATOM     17  H   UNL A   1      32.280  24.657  24.789  1.00  0.00     0.349 HD
ATOM     18  C   UNL A   1      35.368  24.261  25.170  1.00  0.00     0.015 A 
ATOM     19  C   UNL A   1      35.202  23.635  23.941  1.00  0.00     0.015 A 
ATOM     20  C   UNL A   1      36.374  23.791  25.985  1.00  0.00     0.010 A 
ATOM     21  C   UNL A   1      36.151  22.853  23.318  1.00  0.00     0.010 A 
ATOM     22  C   UNL A   1      37.258  22.826  25.459  1.00  0.00     0.001 A 
ATOM     23  C   UNL A   1      37.198  22.428  24.110  1.00  0.00     0.001 A 
ENDBRANCH  12  14
ENDBRANCH   8  12
ENDBRANCH   4   7
ENDBRANCH   2   3
ENDBRANCH   1   2
BRANCH   1  24
ATOM     24  C   UNL A   1      31.677  31.931  26.689  1.00  0.00     0.023 C 
BRANCH  24  25
ATOM     25  C   UNL A   1      32.763  32.719  27.414  1.00  0.00     0.116 C 
BRANCH  25  26
ATOM     26  N   UNL A   1      32.402  34.105  27.671  1.00  0.00    -0.352 N 
ATOM     27  C   UNL A   1      32.957  34.970  28.588  1.00  0.00     0.251 C 
ATOM     28  H   UNL A   1      31.671  34.470  27.121  1.00  0.00     0.163 HD
ATOM     29  O   UNL A   1      32.486  36.076  28.775  1.00  0.00    -0.269 OA
BRANCH  27  30
ATOM     30  C   UNL A   1      34.113  34.497  29.375  1.00  0.00     0.039 A 
ATOM     31  C   UNL A   1      33.880  33.882  30.605  1.00  0.00     0.014 A 
ATOM     32  C   UNL A   1      35.406  34.598  28.858  1.00  0.00     0.014 A 
ATOM     33  C   UNL A   1      34.947  33.305  31.290  1.00  0.00     0.010 A 
ATOM     34  C   UNL A   1      36.452  33.950  29.501  1.00  0.00     0.010 A 
ATOM     35  C   UNL A   1      36.234  33.301  30.725  1.00  0.00    -0.014 A 
BRANCH  35  36
ATOM     36  C   UNL A   1      37.362  32.619  31.406  1.00  0.00     0.031 A 
ATOM     37  C   UNL A   1      38.043  31.452  30.749  1.00  0.00     0.074 A 
ATOM     38  C   UNL A   1      37.737  33.021  32.636  1.00  0.00     0.049 A 
ATOM     39  N   UNL A   1      39.025  30.710  31.193  1.00  0.00    -0.248 NA
ATOM     40  C   UNL A   1      37.533  31.044  29.431  1.00  0.00     0.031 C 
ATOM     41  C   UNL A   1      37.113  34.103  33.399  1.00  0.00     0.029 A 
ATOM     42  N   UNL A   1      38.732  32.563  33.463  1.00  0.00    -0.354 N 
ATOM     43  C   UNL A   1      39.242  29.749  30.216  1.00  0.00     0.074 A 
ATOM     44  C   UNL A   1      38.248  29.956  29.186  1.00  0.00     0.031 C 
ATOM     45  C   UNL A   1      37.760  34.248  34.567  1.00  0.00     0.029 A 
ATOM     46  C   UNL A   1      38.818  33.246  34.652  1.00  0.00     0.049 A 
ATOM     47  H   UNL A   1      39.328  31.817  33.226  1.00  0.00     0.167 HD
ATOM     48  C   UNL A   1      40.205  28.797  30.166  1.00  0.00     0.037 A 
ATOM     49  C   UNL A   1      39.656  33.079  35.693  1.00  0.00     0.037 A 
ATOM     50  C   UNL A   1      41.204  28.609  31.184  1.00  0.00     0.049 A 
ATOM     51  C   UNL A   1      40.710  32.007  35.616  1.00  0.00     0.074 A 
ATOM     52  C   UNL A   1      42.260  27.716  31.201  1.00  0.00     0.029 A 
ATOM     53  N   UNL A   1      41.266  29.325  32.371  1.00  0.00    -0.354 N 
ATOM     54  N   UNL A   1      40.962  31.159  34.648  1.00  0.00    -0.248 NA
ATOM     55  C   UNL A   1      41.604  31.876  36.774  1.00  0.00     0.031 C 
ATOM     56  C   UNL A   1      42.928  27.852  32.422  1.00  0.00     0.029 A 
ATOM     57  C   UNL A   1      42.325  28.873  33.141  1.00  0.00     0.049 A 
ATOM     58  H   UNL A   1      40.648  30.048  32.628  1.00  0.00     0.167 HD
ATOM     59  C   UNL A   1      42.056  30.414  35.067  1.00  0.00     0.074 A 
ATOM     60  C   UNL A   1      42.433  30.925  36.369  1.00  0.00     0.031 C 
ATOM     61  C   UNL A   1      42.690  29.396  34.433  1.00  0.00     0.037 A 
BRANCH  48  62
ATOM     62  C   UNL A   1      40.224  27.891  28.968  1.00  0.00     0.064 A 
ATOM     63  C   UNL A   1      40.940  28.220  27.807  1.00  0.00     0.173 A 
ATOM     64  C   UNL A   1      39.545  26.665  28.992  1.00  0.00     0.173 A 
ATOM     65  F   UNL A   1      41.597  29.388  27.726  1.00  0.00    -0.203 F 
ATOM     66  C   UNL A   1      40.948  27.371  26.703  1.00  0.00     0.198 A 
ATOM     67  C   UNL A   1      39.583  25.801  27.900  1.00  0.00     0.198 A 
ATOM     68  F   UNL A   1      38.848  26.297  30.078  1.00  0.00    -0.203 F 
ATOM     69  F   UNL A   1      41.593  27.733  25.585  1.00  0.00    -0.200 F 
ATOM     70  C   UNL A   1      40.277  26.159  26.754  1.00  0.00     0.200 A 
ATOM     71  F   UNL A   1      38.945  24.624  27.955  1.00  0.00    -0.200 F 
ATOM     72  F   UNL A   1      40.293  25.339  25.694  1.00  0.00    -0.200 F 
ENDBRANCH  48  62
BRANCH  49  73
ATOM     73  C   UNL A   1      39.551  33.963  36.884  1.00  0.00     0.064 A 
ATOM     74  C   UNL A   1      38.804  33.575  38.006  1.00  0.00     0.173 A 
ATOM     75  C   UNL A   1      40.181  35.215  36.922  1.00  0.00     0.173 A 
ATOM     76  F   UNL A   1      38.166  32.395  38.010  1.00  0.00    -0.203 F 
ATOM     77  C   UNL A   1      38.671  34.416  39.109  1.00  0.00     0.198 A 
ATOM     78  C   UNL A   1      40.073  36.042  38.039  1.00  0.00     0.198 A 
ATOM     79  F   UNL A   1      40.913  35.631  35.879  1.00  0.00    -0.203 F 
ATOM     80  F   UNL A   1      37.908  34.042  40.145  1.00  0.00    -0.200 F 
ATOM     81  C   UNL A   1      39.309  35.646  39.127  1.00  0.00     0.200 A 
ATOM     82  F   UNL A   1      40.706  37.223  38.059  1.00  0.00    -0.200 F 
ATOM     83  F   UNL A   1      39.182  36.454  40.188  1.00  0.00    -0.200 F 
ENDBRANCH  49  73
BRANCH  61  84
ATOM     84  C   UNL A   1      43.878  28.791  35.124  1.00  0.00     0.064 A 
ATOM     85  C   UNL A   1      43.748  27.700  35.996  1.00  0.00     0.173 A 
ATOM     86  C   UNL A   1      45.169  29.284  34.879  1.00  0.00     0.173 A 
ATOM     87  F   UNL A   1      42.534  27.200  36.276  1.00  0.00    -0.203 F 
ATOM     88  C   UNL A   1      44.862  27.147  36.622  1.00  0.00     0.198 A 
ATOM     89  C   UNL A   1      46.284  28.706  35.477  1.00  0.00     0.198 A 
ATOM     90  F   UNL A   1      45.351  30.320  34.045  1.00  0.00    -0.203 F 
ATOM     91  F   UNL A   1      44.707  26.142  37.494  1.00  0.00    -0.200 F 
ATOM     92  C   UNL A   1      46.129  27.645  36.356  1.00  0.00     0.200 A 
ATOM     93  F   UNL A   1      47.509  29.177  35.205  1.00  0.00    -0.200 F 
ATOM     94  F   UNL A   1      47.201  27.105  36.952  1.00  0.00    -0.200 F 
ENDBRANCH  61  84
ENDBRANCH  35  36
ENDBRANCH  27  30
ENDBRANCH  25  26
ENDBRANCH  24  25
ENDBRANCH   1  24
TORSDOF 13
ENDMDL
MODEL 2
REMARK VINA RESULT:     -13.0      0.568      7.420
REMARK SMILES C[C@H](c1ccc(C(=O)NCCCCNC(=O)c2ccc(-c3c4nc(c(-c5c(F)c(F)c(F)c(F)c5F)c5ccc([nH]5)c(-c5c(F)c(F)c(F)c(F)c5F)c5nc(c(-c6c(F)c(F)c(F)c(F)c6F)c6ccc3[nH]6)C=C5)C=C4)cc2)o1)[NH+]1Cc2ccccc2C1
REMARK SMILES IDX 11 1 10 2 9 3 7 4 8 5 6 7 3 8 4 9 80 10 5 11 2 12 1 13 81 14
REMARK SMILES IDX 82 15 89 16 83 18 88 19 84 20 87 21 85 22 86 23 12 24 13 25
REMARK SMILES IDX 14 26 15 27 16 29 17 30 18 31 79 32 19 33 78 34 20 35 21 36
REMARK SMILES IDX 22 37 72 38 23 39 77 40 71 41 73 42 24 43 76 44 70 45 69 46
REMARK SMILES IDX 25 48 57 49 37 50 56 51 38 52 41 53 55 54 74 55 39 56 40 57
REMARK SMILES IDX 54 59 75 60 42 61 26 62 27 63 35 64 28 65 29 66 33 67 36 68
REMARK SMILES IDX 30 69 31 70 34 71 32 72 58 73 59 74 67 75 60 76 61 77 65 78
REMARK SMILES IDX 68 79 62 80 63 81 66 82 64 83 43 84 44 85 52 86 45 87 46 88
REMARK SMILES IDX 50 89 53 90 47 91 48 92 51 93 49 94
REMARK H PARENT 9 6 81 17 14 28 73 47 41 58
REMARK Flexibility Score: inf
ROOT
ATOM      1  C   UNL A   1      31.727  30.467  26.804  1.00  0.00     0.023 C 
ENDROOT
BRANCH   1   2
ATOM      2  C   UNL A   1      31.862  29.771  25.452  1.00  0.00     0.116 C 
BRANCH   2   3
ATOM      3  N   UNL A   1      30.928  30.299  24.495  1.00  0.00    -0.349 N 
ATOM      4  C   UNL A   1      30.075  29.652  23.639  1.00  0.00     0.287 C 
ATOM      5  O   UNL A   1      29.355  30.396  22.966  1.00  0.00    -0.266 OA
ATOM      6  H   UNL A   1      30.897  31.281  24.446  1.00  0.00     0.163 HD
BRANCH   4   7
ATOM      7  C   UNL A   1      30.069  28.206  23.489  1.00  0.00     0.191 A 
ATOM      8  C   UNL A   1      31.276  26.346  23.292  1.00  0.00     0.162 A 
ATOM      9  C   UNL A   1      30.003  25.940  23.611  1.00  0.00     0.053 A 
ATOM     10  O   UNL A   1      31.248  27.688  23.042  1.00  0.00    -0.450 OA
ATOM     11  C   UNL A   1      29.231  27.135  23.751  1.00  0.00     0.057 A 
BRANCH   8  12
ATOM     12  C   UNL A   1      32.683  25.828  23.316  1.00  0.00     0.248 C 
ATOM     13  C   UNL A   1      33.559  27.128  23.367  1.00  0.00     0.084 C 
BRANCH  12  14
ATOM     14  N   UNL A   1      33.131  24.824  24.299  1.00  0.00    -0.319 N 
ATOM     15  C   UNL A   1      34.067  25.165  25.411  1.00  0.00     0.300 C 
ATOM     16  C   UNL A   1      33.676  23.604  23.709  1.00  0.00     0.300 C 
ATOM     17  H   UNL A   1      32.213  24.729  24.731  1.00  0.00     0.349 HD
ATOM     18  C   UNL A   1      35.291  24.302  25.160  1.00  0.00     0.015 A 
ATOM     19  C   UNL A   1      35.144  23.708  23.912  1.00  0.00     0.015 A 
ATOM     20  C   UNL A   1      36.279  23.805  25.981  1.00  0.00     0.010 A 
ATOM     21  C   UNL A   1      36.099  22.936  23.288  1.00  0.00     0.010 A 
ATOM     22  C   UNL A   1      37.166  22.848  25.447  1.00  0.00     0.001 A 
ATOM     23  C   UNL A   1      37.129  22.484  24.087  1.00  0.00     0.001 A 
ENDBRANCH  12  14
ENDBRANCH   8  12
ENDBRANCH   4   7
ENDBRANCH   2   3
ENDBRANCH   1   2
BRANCH   1  24
ATOM     24  C   UNL A   1      31.567  31.988  26.700  1.00  0.00     0.023 C 
BRANCH  24  25
ATOM     25  C   UNL A   1      32.742  32.792  27.245  1.00  0.00     0.116 C 
BRANCH  25  26
ATOM     26  N   UNL A   1      32.391  34.155  27.616  1.00  0.00    -0.352 N 
ATOM     27  C   UNL A   1      32.971  34.947  28.582  1.00  0.00     0.251 C 
ATOM     28  H   UNL A   1      31.647  34.561  27.115  1.00  0.00     0.163 HD
ATOM     29  O   UNL A   1      32.508  36.035  28.865  1.00  0.00    -0.269 OA
BRANCH  27  30
ATOM     30  C   UNL A   1      34.146  34.415  29.301  1.00  0.00     0.039 A 
ATOM     31  C   UNL A   1      33.940  33.659  30.454  1.00  0.00     0.014 A 
ATOM     32  C   UNL A   1      35.431  34.605  28.789  1.00  0.00     0.014 A 
ATOM     33  C   UNL A   1      35.026  33.032  31.061  1.00  0.00     0.010 A 
ATOM     34  C   UNL A   1      36.498  33.912  29.345  1.00  0.00     0.010 A 
ATOM     35  C   UNL A   1      36.308  33.122  30.489  1.00  0.00    -0.014 A 
BRANCH  35  36
ATOM     36  C   UNL A   1      37.457  32.394  31.078  1.00  0.00     0.031 A 
ATOM     37  C   UNL A   1      37.960  32.762  32.446  1.00  0.00     0.074 A 
ATOM     38  C   UNL A   1      38.078  31.438  30.361  1.00  0.00     0.049 A 
ATOM     39  N   UNL A   1      38.965  32.265  33.120  1.00  0.00    -0.248 NA
ATOM     40  C   UNL A   1      37.259  33.856  33.136  1.00  0.00     0.031 C 
ATOM     41  C   UNL A   1      37.718  31.034  29.000  1.00  0.00     0.029 A 
ATOM     42  N   UNL A   1      39.145  30.633  30.674  1.00  0.00    -0.354 N 
ATOM     43  C   UNL A   1      39.020  32.987  34.303  1.00  0.00     0.074 A 
ATOM     44  C   UNL A   1      37.992  34.003  34.229  1.00  0.00     0.031 C 
ATOM     45  C   UNL A   1      38.528  30.036  28.609  1.00  0.00     0.029 A 
ATOM     46  C   UNL A   1      39.486  29.756  29.673  1.00  0.00     0.049 A 
ATOM     47  H   UNL A   1      39.620  30.680  31.534  1.00  0.00     0.167 HD
ATOM     48  C   UNL A   1      39.833  32.801  35.370  1.00  0.00     0.037 A 
ATOM     49  C   UNL A   1      40.465  28.832  29.623  1.00  0.00     0.037 A 
ATOM     50  C   UNL A   1      40.840  31.776  35.445  1.00  0.00     0.049 A 
ATOM     51  C   UNL A   1      41.362  28.653  30.818  1.00  0.00     0.074 A 
ATOM     52  C   UNL A   1      41.675  31.463  36.503  1.00  0.00     0.029 A 
ATOM     53  N   UNL A   1      41.152  30.900  34.416  1.00  0.00    -0.354 N 
ATOM     54  N   UNL A   1      41.349  29.285  31.967  1.00  0.00    -0.248 NA
ATOM     55  C   UNL A   1      42.405  27.624  30.712  1.00  0.00     0.031 C 
ATOM     56  C   UNL A   1      42.531  30.435  36.094  1.00  0.00     0.029 A 
ATOM     57  C   UNL A   1      42.188  30.065  34.803  1.00  0.00     0.049 A 
ATOM     58  H   UNL A   1      40.704  30.875  33.539  1.00  0.00     0.167 HD
ATOM     59  C   UNL A   1      42.360  28.714  32.729  1.00  0.00     0.074 A 
ATOM     60  C   UNL A   1      42.952  27.670  31.919  1.00  0.00     0.031 C 
ATOM     61  C   UNL A   1      42.763  29.027  33.985  1.00  0.00     0.037 A 
BRANCH  48  62
ATOM     62  C   UNL A   1      39.663  33.724  36.542  1.00  0.00     0.064 A 
ATOM     63  C   UNL A   1      38.859  33.381  37.639  1.00  0.00     0.173 A 
ATOM     64  C   UNL A   1      40.337  34.953  36.585  1.00  0.00     0.173 A 
ATOM     65  F   UNL A   1      38.181  32.222  37.645  1.00  0.00    -0.203 F 
ATOM     66  C   UNL A   1      38.709  34.247  38.720  1.00  0.00     0.198 A 
ATOM     67  C   UNL A   1      40.213  35.802  37.682  1.00  0.00     0.198 A 
ATOM     68  F   UNL A   1      41.123  35.331  35.565  1.00  0.00    -0.203 F 
ATOM     69  F   UNL A   1      37.891  33.921  39.731  1.00  0.00    -0.200 F 
ATOM     70  C   UNL A   1      39.392  35.453  38.743  1.00  0.00     0.200 A 
ATOM     71  F   UNL A   1      40.885  36.962  37.709  1.00  0.00    -0.200 F 
ATOM     72  F   UNL A   1      39.254  36.282  39.787  1.00  0.00    -0.200 F 
ENDBRANCH  48  62
BRANCH  49  73
ATOM     73  C   UNL A   1      40.631  27.989  28.409  1.00  0.00     0.064 A 
ATOM     74  C   UNL A   1      40.016  26.732  28.315  1.00  0.00     0.173 A 
ATOM     75  C   UNL A   1      41.416  28.412  27.328  1.00  0.00     0.173 A 
ATOM     76  F   UNL A   1      39.271  26.274  29.331  1.00  0.00    -0.203 F 
ATOM     77  C   UNL A   1      40.200  25.921  27.196  1.00  0.00     0.198 A 
ATOM     78  C   UNL A   1      41.574  27.614  26.196  1.00  0.00     0.198 A 
ATOM     79  F   UNL A   1      42.022  29.608  27.363  1.00  0.00    -0.203 F 
ATOM     80  F   UNL A   1      39.643  24.704  27.156  1.00  0.00    -0.200 F 
ATOM     81  C   UNL A   1      40.975  26.365  26.136  1.00  0.00     0.200 A 
ATOM     82  F   UNL A   1      42.310  28.054  25.166  1.00  0.00    -0.200 F 
ATOM     83  F   UNL A   1      41.150  25.586  25.060  1.00  0.00    -0.200 F 
ENDBRANCH  49  73
BRANCH  61  84
ATOM     84  C   UNL A   1      43.877  28.209  34.573  1.00  0.00     0.064 A 
ATOM     85  C   UNL A   1      45.217  28.614  34.485  1.00  0.00     0.173 A 
ATOM     86  C   UNL A   1      43.595  27.023  35.269  1.00  0.00     0.173 A 
ATOM     87  F   UNL A   1      45.542  29.733  33.818  1.00  0.00    -0.203 F 
ATOM     88  C   UNL A   1      46.235  27.846  35.042  1.00  0.00     0.198 A 
ATOM     89  C   UNL A   1      44.611  26.276  35.856  1.00  0.00     0.198 A 
ATOM     90  F   UNL A   1      42.329  26.594  35.391  1.00  0.00    -0.203 F 
ATOM     91  F   UNL A   1      47.512  28.224  34.897  1.00  0.00    -0.200 F 
ATOM     92  C   UNL A   1      45.931  26.683  35.734  1.00  0.00     0.200 A 
ATOM     93  F   UNL A   1      44.314  25.162  36.539  1.00  0.00    -0.200 F 
ATOM     94  F   UNL A   1      46.913  25.949  36.278  1.00  0.00    -0.200 F 
ENDBRANCH  61  84
ENDBRANCH  35  36
ENDBRANCH  27  30
ENDBRANCH  25  26
ENDBRANCH  24  25
ENDBRANCH   1  24
TORSDOF 13
ENDMDL
MODEL 3
REMARK VINA RESULT:     -13.0      0.093      1.595
REMARK SMILES C[C@H](c1ccc(C(=O)NCCCCNC(=O)c2ccc(-c3c4nc(c(-c5c(F)c(F)c(F)c(F)c5F)c5ccc([nH]5)c(-c5c(F)c(F)c(F)c(F)c5F)c5nc(c(-c6c(F)c(F)c(F)c(F)c6F)c6ccc3[nH]6)C=C5)C=C4)cc2)o1)[NH+]1Cc2ccccc2C1
REMARK SMILES IDX 11 1 10 2 9 3 7 4 8 5 6 7 3 8 4 9 80 10 5 11 2 12 1 13 81 14
REMARK SMILES IDX 82 15 89 16 83 18 88 19 84 20 87 21 85 22 86 23 12 24 13 25
REMARK SMILES IDX 14 26 15 27 16 29 17 30 18 31 79 32 19 33 78 34 20 35 21 36
REMARK SMILES IDX 22 37 72 38 23 39 77 40 71 41 73 42 24 43 76 44 70 45 69 46
REMARK SMILES IDX 25 48 57 49 37 50 56 51 38 52 41 53 55 54 74 55 39 56 40 57
REMARK SMILES IDX 54 59 75 60 42 61 26 62 27 63 35 64 28 65 29 66 33 67 36 68
REMARK SMILES IDX 30 69 31 70 34 71 32 72 58 73 59 74 67 75 60 76 61 77 65 78
REMARK SMILES IDX 68 79 62 80 63 81 66 82 64 83 43 84 44 85 52 86 45 87 46 88
REMARK SMILES IDX 50 89 53 90 47 91 48 92 51 93 49 94
REMARK H PARENT 9 6 81 17 14 28 73 47 41 58
REMARK Flexibility Score: inf
ROOT
ATOM      1  C   UNL A   1      31.839  30.422  26.880  1.00  0.00     0.023 C 
ENDROOT
BRANCH   1   2
ATOM      2  C   UNL A   1      31.915  29.664  25.556  1.00  0.00     0.116 C 
BRANCH   2   3
ATOM      3  N   UNL A   1      31.011  30.216  24.584  1.00  0.00    -0.349 N 
ATOM      4  C   UNL A   1      30.165  29.590  23.704  1.00  0.00     0.287 C 
ATOM      5  O   UNL A   1      29.473  30.352  23.023  1.00  0.00    -0.266 OA
ATOM      6  H   UNL A   1      30.998  31.199  24.542  1.00  0.00     0.163 HD
BRANCH   4   7
ATOM      7  C   UNL A   1      30.139  28.146  23.543  1.00  0.00     0.191 A 
ATOM      8  C   UNL A   1      31.318  26.272  23.313  1.00  0.00     0.162 A 
ATOM      9  C   UNL A   1      30.043  25.880  23.646  1.00  0.00     0.053 A 
ATOM     10  O   UNL A   1      31.305  27.617  23.075  1.00  0.00    -0.450 OA
ATOM     11  C   UNL A   1      29.289  27.085  23.806  1.00  0.00     0.057 A 
BRANCH   8  12
ATOM     12  C   UNL A   1      32.718  25.735  23.314  1.00  0.00     0.248 C 
ATOM     13  C   UNL A   1      33.612  27.024  23.268  1.00  0.00     0.084 C 
BRANCH  12  14
ATOM     14  N   UNL A   1      33.188  24.777  24.332  1.00  0.00    -0.319 N 
ATOM     15  C   UNL A   1      34.156  25.164  25.400  1.00  0.00     0.300 C 
ATOM     16  C   UNL A   1      33.711  23.527  23.786  1.00  0.00     0.300 C 
ATOM     17  H   UNL A   1      32.281  24.707  24.792  1.00  0.00     0.349 HD
ATOM     18  C   UNL A   1      35.368  24.283  25.158  1.00  0.00     0.015 A 
ATOM     19  C   UNL A   1      35.184  23.632  23.944  1.00  0.00     0.015 A 
ATOM     20  C   UNL A   1      36.376  23.820  25.974  1.00  0.00     0.010 A 
ATOM     21  C   UNL A   1      36.119  22.825  23.331  1.00  0.00     0.010 A 
ATOM     22  C   UNL A   1      37.244  22.833  25.463  1.00  0.00     0.001 A 
ATOM     23  C   UNL A   1      37.168  22.406  24.124  1.00  0.00     0.001 A 
ENDBRANCH  12  14
ENDBRANCH   8  12
ENDBRANCH   4   7
ENDBRANCH   2   3
ENDBRANCH   1   2
BRANCH   1  24
ATOM     24  C   UNL A   1      31.712  31.940  26.714  1.00  0.00     0.023 C 
BRANCH  24  25
ATOM     25  C   UNL A   1      32.808  32.751  27.398  1.00  0.00     0.116 C 
BRANCH  25  26
ATOM     26  N   UNL A   1      32.429  34.130  27.666  1.00  0.00    -0.352 N 
ATOM     27  C   UNL A   1      32.966  34.991  28.597  1.00  0.00     0.251 C 
ATOM     28  H   UNL A   1      31.699  34.492  27.113  1.00  0.00     0.163 HD
ATOM     29  O   UNL A   1      32.482  36.089  28.791  1.00  0.00    -0.269 OA
BRANCH  27  30
ATOM     30  C   UNL A   1      34.120  34.523  29.390  1.00  0.00     0.039 A 
ATOM     31  C   UNL A   1      33.885  33.943  30.636  1.00  0.00     0.014 A 
ATOM     32  C   UNL A   1      35.412  34.593  28.864  1.00  0.00     0.014 A 
ATOM     33  C   UNL A   1      34.949  33.368  31.331  1.00  0.00     0.010 A 
ATOM     34  C   UNL A   1      36.453  33.947  29.517  1.00  0.00     0.010 A 
ATOM     35  C   UNL A   1      36.232  33.332  30.759  1.00  0.00    -0.014 A 
BRANCH  35  36
ATOM     36  C   UNL A   1      37.355  32.653  31.451  1.00  0.00     0.031 A 
ATOM     37  C   UNL A   1      38.044  31.486  30.802  1.00  0.00     0.074 A 
ATOM     38  C   UNL A   1      37.718  33.056  32.685  1.00  0.00     0.049 A 
ATOM     39  N   UNL A   1      39.023  30.746  31.255  1.00  0.00    -0.248 NA
ATOM     40  C   UNL A   1      37.547  31.077  29.478  1.00  0.00     0.031 C 
ATOM     41  C   UNL A   1      37.084  34.138  33.441  1.00  0.00     0.029 A 
ATOM     42  N   UNL A   1      38.705  32.601  33.521  1.00  0.00    -0.354 N 
ATOM     43  C   UNL A   1      39.251  29.785  30.281  1.00  0.00     0.074 A 
ATOM     44  C   UNL A   1      38.266  29.990  29.242  1.00  0.00     0.031 C 
ATOM     45  C   UNL A   1      37.720  34.285  34.614  1.00  0.00     0.029 A 
ATOM     46  C   UNL A   1      38.779  33.284  34.710  1.00  0.00     0.049 A 
ATOM     47  H   UNL A   1      39.304  31.855  33.291  1.00  0.00     0.167 HD
ATOM     48  C   UNL A   1      40.216  28.835  30.240  1.00  0.00     0.037 A 
ATOM     49  C   UNL A   1      39.607  33.119  35.759  1.00  0.00     0.037 A 
ATOM     50  C   UNL A   1      41.206  28.649  31.268  1.00  0.00     0.049 A 
ATOM     51  C   UNL A   1      40.663  32.049  35.693  1.00  0.00     0.074 A 
ATOM     52  C   UNL A   1      42.263  27.757  31.297  1.00  0.00     0.029 A 
ATOM     53  N   UNL A   1      41.255  29.366  32.455  1.00  0.00    -0.354 N 
ATOM     54  N   UNL A   1      40.926  31.201  34.729  1.00  0.00    -0.248 NA
ATOM     55  C   UNL A   1      41.546  31.920  36.861  1.00  0.00     0.031 C 
ATOM     56  C   UNL A   1      42.918  27.895  32.524  1.00  0.00     0.029 A 
ATOM     57  C   UNL A   1      42.307  28.916  33.236  1.00  0.00     0.049 A 
ATOM     58  H   UNL A   1      40.633  30.087  32.706  1.00  0.00     0.167 HD
ATOM     59  C   UNL A   1      42.016  30.457  35.159  1.00  0.00     0.074 A 
ATOM     60  C   UNL A   1      42.381  30.970  36.463  1.00  0.00     0.031 C 
ATOM     61  C   UNL A   1      42.658  29.441  34.531  1.00  0.00     0.037 A 
BRANCH  48  62
ATOM     62  C   UNL A   1      40.248  27.928  29.044  1.00  0.00     0.064 A 
ATOM     63  C   UNL A   1      39.547  26.712  29.022  1.00  0.00     0.173 A 
ATOM     64  C   UNL A   1      40.961  28.293  27.893  1.00  0.00     0.173 A 
ATOM     65  F   UNL A   1      38.859  26.309  30.102  1.00  0.00    -0.203 F 
ATOM     66  C   UNL A   1      39.587  25.880  27.906  1.00  0.00     0.198 A 
ATOM     67  C   UNL A   1      40.970  27.476  26.765  1.00  0.00     0.198 A 
ATOM     68  F   UNL A   1      41.645  29.446  27.856  1.00  0.00    -0.203 F 
ATOM     69  F   UNL A   1      38.955  24.698  27.930  1.00  0.00    -0.200 F 
ATOM     70  C   UNL A   1      40.291  26.266  26.776  1.00  0.00     0.200 A 
ATOM     71  F   UNL A   1      41.640  27.856  25.669  1.00  0.00    -0.200 F 
ATOM     72  F   UNL A   1      40.321  25.469  25.699  1.00  0.00    -0.200 F 
ENDBRANCH  48  62
BRANCH  49  73
ATOM     73  C   UNL A   1      39.488  34.003  36.949  1.00  0.00     0.064 A 
ATOM     74  C   UNL A   1      40.125  35.252  36.986  1.00  0.00     0.173 A 
ATOM     75  C   UNL A   1      38.751  33.615  38.077  1.00  0.00     0.173 A 
ATOM     76  F   UNL A   1      40.858  35.660  35.939  1.00  0.00    -0.203 F 
ATOM     77  C   UNL A   1      40.048  36.068  38.113  1.00  0.00     0.198 A 
ATOM     78  C   UNL A   1      38.649  34.445  39.192  1.00  0.00     0.198 A 
ATOM     79  F   UNL A   1      38.117  32.433  38.092  1.00  0.00    -0.203 F 
ATOM     80  F   UNL A   1      40.709  37.233  38.140  1.00  0.00    -0.200 F 
ATOM     81  C   UNL A   1      39.307  35.666  39.213  1.00  0.00     0.200 A 
ATOM     82  F   UNL A   1      37.917  34.060  40.246  1.00  0.00    -0.200 F 
ATOM     83  F   UNL A   1      39.232  36.451  40.297  1.00  0.00    -0.200 F 
ENDBRANCH  49  73
BRANCH  61  84
ATOM     84  C   UNL A   1      43.841  28.837  35.234  1.00  0.00     0.064 A 
ATOM     85  C   UNL A   1      43.698  27.780  36.145  1.00  0.00     0.173 A 
ATOM     86  C   UNL A   1      45.138  29.297  34.962  1.00  0.00     0.173 A 
ATOM     87  F   UNL A   1      42.478  27.313  36.452  1.00  0.00    -0.203 F 
ATOM     88  C   UNL A   1      44.806  27.228  36.781  1.00  0.00     0.198 A 
ATOM     89  C   UNL A   1      46.248  28.720  35.572  1.00  0.00     0.198 A 
ATOM     90  F   UNL A   1      45.333  30.300  34.091  1.00  0.00    -0.203 F 
ATOM     91  F   UNL A   1      44.641  26.258  37.689  1.00  0.00    -0.200 F 
ATOM     92  C   UNL A   1      46.080  27.693  36.488  1.00  0.00     0.200 A 
ATOM     93  F   UNL A   1      47.479  29.157  35.274  1.00  0.00    -0.200 F 
ATOM     94  F   UNL A   1      47.147  27.154  37.095  1.00  0.00    -0.200 F 
ENDBRANCH  61  84
ENDBRANCH  35  36
ENDBRANCH  27  30
ENDBRANCH  25  26
ENDBRANCH  24  25
ENDBRANCH   1  24
TORSDOF 13
ENDMDL
