MODEL 1
REMARK VINA RESULT:     -13.9      0.000      0.000
REMARK SMILES Cc1nc2ccc(Cl)cc2cc1C(=O)N1CCC(C(=O)NCCCCNC(=O)c2ccc(-c3c4nc(c(-c5c(F)c(F)c(F)c(F)c5F)c5ccc([nH]5)c(-c5c(F)c(F)c(F)c(F)c5F)c5nc(c(-c6c(F)c(F)c(F)c(F)c6F)c6ccc3[nH]6)C=C5)C=C4)cc2)CC1
REMARK SMILES IDX 24 1 23 2 22 3 21 4 19 5 20 6 18 8 13 9 14 10 15 11 16 12
REMARK SMILES IDX 93 13 17 14 92 15 12 16 1 17 2 18 3 19 4 20 11 21 5 22 10 23
REMARK SMILES IDX 6 24 9 25 7 26 8 27 25 28 26 29 27 30 28 32 29 33 30 34
REMARK SMILES IDX 91 35 31 36 90 37 32 38 33 39 34 40 84 41 35 42 89 43 83 44
REMARK SMILES IDX 85 45 36 46 88 47 82 48 81 49 37 51 69 52 49 53 68 54 50 55
REMARK SMILES IDX 53 56 67 57 86 58 51 59 52 60 66 62 87 63 54 64 38 65 39 66
REMARK SMILES IDX 47 67 40 68 41 69 45 70 48 71 42 72 43 73 46 74 44 75 70 76
REMARK SMILES IDX 71 77 79 78 72 79 73 80 77 81 80 82 74 83 75 84 78 85 76 86
REMARK SMILES IDX 55 87 56 88 64 89 57 90 58 91 62 92 65 93 59 94 60 95 63 96
REMARK SMILES IDX 61 97
REMARK H PARENT 21 7 26 31 85 50 53 61
REMARK Flexibility Score: inf
ROOT
ATOM      1  C   UNL A   1      38.286  19.735  24.998  1.00  0.00     0.023 C 
ENDROOT
BRANCH   1   2
ATOM      2  C   UNL A   1      37.355  20.902  24.683  1.00  0.00     0.023 C 
BRANCH   2   3
ATOM      3  C   UNL A   1      36.006  20.837  25.395  1.00  0.00     0.116 C 
BRANCH   3   4
ATOM      4  N   UNL A   1      35.243  19.663  25.002  1.00  0.00    -0.356 N 
ATOM      5  C   UNL A   1      33.968  19.553  24.538  1.00  0.00     0.223 C 
ATOM      6  O   UNL A   1      33.532  18.425  24.298  1.00  0.00    -0.275 OA
ATOM      7  H   UNL A   1      35.727  18.810  25.085  1.00  0.00     0.163 HD
BRANCH   5   8
ATOM      8  C   UNL A   1      33.103  20.782  24.305  1.00  0.00     0.082 C 
ATOM      9  C   UNL A   1      31.937  24.490  26.019  1.00  0.00     0.255 C 
ATOM     10  O   UNL A   1      31.686  24.421  27.217  1.00  0.00    -0.269 OA
ATOM     11  N   UNL A   1      32.237  23.351  25.263  1.00  0.00    -0.339 N 
ATOM     12  C   UNL A   1      31.317  22.235  25.387  1.00  0.00     0.120 C 
ATOM     13  C   UNL A   1      33.162  23.319  24.132  1.00  0.00     0.120 C 
ATOM     14  C   UNL A   1      32.009  20.892  25.373  1.00  0.00     0.035 C 
ATOM     15  C   UNL A   1      33.975  22.035  24.109  1.00  0.00     0.035 C 
BRANCH   9  16
ATOM     16  C   UNL A   1      31.703  25.769  25.289  1.00  0.00     0.061 A 
ATOM     17  C   UNL A   1      34.029  26.730  25.751  1.00  0.00     0.067 C 
ATOM     18  C   UNL A   1      32.635  26.804  25.200  1.00  0.00     0.051 A 
ATOM     19  N   UNL A   1      32.317  28.017  24.650  1.00  0.00    -0.252 NA
ATOM     20  C   UNL A   1      31.077  28.232  24.174  1.00  0.00     0.071 A 
ATOM     21  C   UNL A   1      30.413  26.023  24.811  1.00  0.00     0.026 A 
ATOM     22  C   UNL A   1      30.725  29.463  23.637  1.00  0.00     0.030 A 
ATOM     23  C   UNL A   1      30.088  27.237  24.216  1.00  0.00     0.002 A 
ATOM     24  C   UNL A   1      29.444  29.703  23.119  1.00  0.00     0.023 A 
ATOM     25  C   UNL A   1      28.804  27.459  23.694  1.00  0.00     0.030 A 
ATOM     26  C   UNL A   1      28.492  28.692  23.139  1.00  0.00     0.041 A 
ATOM     27  Cl  UNL A   1      26.928  28.957  22.478  1.00  0.00    -0.084 Cl
ENDBRANCH   9  16
ENDBRANCH   5   8
ENDBRANCH   3   4
ENDBRANCH   2   3
ENDBRANCH   1   2
BRANCH   1  28
ATOM     28  C   UNL A   1      39.395  20.061  25.985  1.00  0.00     0.116 C 
BRANCH  28  29
ATOM     29  N   UNL A   1      40.442  19.051  26.018  1.00  0.00    -0.352 N 
ATOM     30  C   UNL A   1      41.798  19.229  26.121  1.00  0.00     0.251 C 
ATOM     31  H   UNL A   1      40.136  18.117  25.960  1.00  0.00     0.163 HD
ATOM     32  O   UNL A   1      42.564  18.278  25.996  1.00  0.00    -0.269 OA
BRANCH  30  33
ATOM     33  C   UNL A   1      42.332  20.584  26.358  1.00  0.00     0.039 A 
ATOM     34  C   UNL A   1      42.614  21.401  25.262  1.00  0.00     0.014 A 
ATOM     35  C   UNL A   1      42.525  21.052  27.660  1.00  0.00     0.014 A 
ATOM     36  C   UNL A   1      43.054  22.707  25.476  1.00  0.00     0.010 A 
ATOM     37  C   UNL A   1      42.865  22.382  27.870  1.00  0.00     0.010 A 
ATOM     38  C   UNL A   1      43.160  23.215  26.781  1.00  0.00    -0.014 A 
BRANCH  38  39
ATOM     39  C   UNL A   1      43.631  24.599  27.030  1.00  0.00     0.031 A 
ATOM     40  C   UNL A   1      42.669  25.635  27.542  1.00  0.00     0.074 A 
ATOM     41  C   UNL A   1      44.903  24.938  26.747  1.00  0.00     0.049 A 
ATOM     42  N   UNL A   1      42.868  26.905  27.787  1.00  0.00    -0.248 NA
ATOM     43  C   UNL A   1      41.286  25.190  27.776  1.00  0.00     0.031 C 
ATOM     44  C   UNL A   1      45.913  24.038  26.190  1.00  0.00     0.029 A 
ATOM     45  N   UNL A   1      45.559  26.134  26.885  1.00  0.00    -0.354 N 
ATOM     46  C   UNL A   1      41.637  27.409  28.185  1.00  0.00     0.074 A 
ATOM     47  C   UNL A   1      40.682  26.329  28.074  1.00  0.00     0.031 C 
ATOM     48  C   UNL A   1      47.069  24.707  26.058  1.00  0.00     0.029 A 
ATOM     49  C   UNL A   1      46.873  26.088  26.489  1.00  0.00     0.049 A 
ATOM     50  H   UNL A   1      45.129  26.948  27.234  1.00  0.00     0.167 HD
ATOM     51  C   UNL A   1      41.333  28.650  28.635  1.00  0.00     0.037 A 
ATOM     52  C   UNL A   1      47.811  27.054  26.477  1.00  0.00     0.037 A 
ATOM     53  C   UNL A   1      42.294  29.715  28.759  1.00  0.00     0.049 A 
ATOM     54  C   UNL A   1      47.459  28.423  26.990  1.00  0.00     0.074 A 
ATOM     55  C   UNL A   1      42.107  30.994  29.250  1.00  0.00     0.029 A 
ATOM     56  N   UNL A   1      43.626  29.622  28.377  1.00  0.00    -0.354 N 
ATOM     57  N   UNL A   1      46.310  28.872  27.436  1.00  0.00    -0.248 NA
ATOM     58  C   UNL A   1      48.541  29.416  27.016  1.00  0.00     0.031 C 
ATOM     59  C   UNL A   1      43.312  31.693  29.115  1.00  0.00     0.029 A 
ATOM     60  C   UNL A   1      44.268  30.830  28.604  1.00  0.00     0.049 A 
ATOM     61  H   UNL A   1      44.051  28.819  28.001  1.00  0.00     0.167 HD
ATOM     62  C   UNL A   1      46.537  30.185  27.826  1.00  0.00     0.074 A 
ATOM     63  C   UNL A   1      47.938  30.456  27.574  1.00  0.00     0.031 C 
ATOM     64  C   UNL A   1      45.666  31.083  28.352  1.00  0.00     0.037 A 
BRANCH  51  65
ATOM     65  C   UNL A   1      39.903  28.912  29.016  1.00  0.00     0.064 A 
ATOM     66  C   UNL A   1      39.439  28.725  30.329  1.00  0.00     0.173 A 
ATOM     67  C   UNL A   1      38.977  29.341  28.054  1.00  0.00     0.173 A 
ATOM     68  F   UNL A   1      40.277  28.303  31.289  1.00  0.00    -0.203 F 
ATOM     69  C   UNL A   1      38.096  28.904  30.650  1.00  0.00     0.198 A 
ATOM     70  C   UNL A   1      37.643  29.559  28.388  1.00  0.00     0.198 A 
ATOM     71  F   UNL A   1      39.362  29.542  26.784  1.00  0.00    -0.203 F 
ATOM     72  F   UNL A   1      37.665  28.641  31.891  1.00  0.00    -0.200 F 
ATOM     73  C   UNL A   1      37.200  29.327  29.681  1.00  0.00     0.200 A 
ATOM     74  F   UNL A   1      36.780  29.982  27.453  1.00  0.00    -0.200 F 
ATOM     75  F   UNL A   1      35.907  29.496  29.989  1.00  0.00    -0.200 F 
ENDBRANCH  51  65
BRANCH  52  76
ATOM     76  C   UNL A   1      49.183  26.737  26.001  1.00  0.00     0.064 A 
ATOM     77  C   UNL A   1      49.564  26.989  24.677  1.00  0.00     0.173 A 
ATOM     78  C   UNL A   1      50.148  26.201  26.868  1.00  0.00     0.173 A 
ATOM     79  F   UNL A   1      48.672  27.485  23.806  1.00  0.00    -0.203 F 
ATOM     80  C   UNL A   1      50.853  26.703  24.232  1.00  0.00     0.198 A 
ATOM     81  C   UNL A   1      51.445  25.943  26.429  1.00  0.00     0.198 A 
ATOM     82  F   UNL A   1      49.836  25.951  28.147  1.00  0.00    -0.203 F 
ATOM     83  F   UNL A   1      51.180  26.917  22.949  1.00  0.00    -0.200 F 
ATOM     84  C   UNL A   1      51.794  26.187  25.109  1.00  0.00     0.200 A 
ATOM     85  F   UNL A   1      52.356  25.463  27.286  1.00  0.00    -0.200 F 
ATOM     86  F   UNL A   1      53.038  25.924  24.684  1.00  0.00    -0.200 F 
ENDBRANCH  52  76
BRANCH  64  87
ATOM     87  C   UNL A   1      46.213  32.428  28.741  1.00  0.00     0.064 A 
ATOM     88  C   UNL A   1      46.745  32.676  30.015  1.00  0.00     0.173 A 
ATOM     89  C   UNL A   1      46.227  33.478  27.809  1.00  0.00     0.173 A 
ATOM     90  F   UNL A   1      46.746  31.711  30.947  1.00  0.00    -0.203 F 
ATOM     91  C   UNL A   1      47.237  33.935  30.352  1.00  0.00     0.198 A 
ATOM     92  C   UNL A   1      46.752  34.723  28.139  1.00  0.00     0.198 A 
ATOM     93  F   UNL A   1      45.740  33.293  26.573  1.00  0.00    -0.203 F 
ATOM     94  F   UNL A   1      47.683  34.166  31.595  1.00  0.00    -0.200 F 
ATOM     95  C   UNL A   1      47.245  34.955  29.413  1.00  0.00     0.200 A 
ATOM     96  F   UNL A   1      46.777  35.702  27.222  1.00  0.00    -0.200 F 
ATOM     97  F   UNL A   1      47.723  36.164  29.738  1.00  0.00    -0.200 F 
ENDBRANCH  64  87
ENDBRANCH  38  39
ENDBRANCH  30  33
ENDBRANCH  28  29
ENDBRANCH   1  28
TORSDOF 12
ENDMDL
MODEL 2
REMARK VINA RESULT:     -13.9      1.264      1.949
REMARK SMILES Cc1nc2ccc(Cl)cc2cc1C(=O)N1CCC(C(=O)NCCCCNC(=O)c2ccc(-c3c4nc(c(-c5c(F)c(F)c(F)c(F)c5F)c5ccc([nH]5)c(-c5c(F)c(F)c(F)c(F)c5F)c5nc(c(-c6c(F)c(F)c(F)c(F)c6F)c6ccc3[nH]6)C=C5)C=C4)cc2)CC1
REMARK SMILES IDX 24 1 23 2 22 3 21 4 19 5 20 6 18 8 13 9 14 10 15 11 16 12
REMARK SMILES IDX 93 13 17 14 92 15 12 16 1 17 2 18 3 19 4 20 11 21 5 22 10 23
REMARK SMILES IDX 6 24 9 25 7 26 8 27 25 28 26 29 27 30 28 32 29 33 30 34
REMARK SMILES IDX 91 35 31 36 90 37 32 38 33 39 34 40 84 41 35 42 89 43 83 44
REMARK SMILES IDX 85 45 36 46 88 47 82 48 81 49 37 51 69 52 49 53 68 54 50 55
REMARK SMILES IDX 53 56 67 57 86 58 51 59 52 60 66 62 87 63 54 64 38 65 39 66
REMARK SMILES IDX 47 67 40 68 41 69 45 70 48 71 42 72 43 73 46 74 44 75 70 76
REMARK SMILES IDX 71 77 79 78 72 79 73 80 77 81 80 82 74 83 75 84 78 85 76 86
REMARK SMILES IDX 55 87 56 88 64 89 57 90 58 91 62 92 65 93 59 94 60 95 63 96
REMARK SMILES IDX 61 97
REMARK H PARENT 21 7 26 31 85 50 53 61
REMARK Flexibility Score: inf
ROOT
ATOM      1  C   UNL A   1      38.514  19.641  25.008  1.00  0.00     0.023 C 
ENDROOT
BRANCH   1   2
ATOM      2  C   UNL A   1      37.769  20.913  24.615  1.00  0.00     0.023 C 
BRANCH   2   3
ATOM      3  C   UNL A   1      36.469  21.139  25.382  1.00  0.00     0.116 C 
BRANCH   3   4
ATOM      4  N   UNL A   1      35.544  20.029  25.220  1.00  0.00    -0.356 N 
ATOM      5  C   UNL A   1      34.221  20.020  24.903  1.00  0.00     0.223 C 
ATOM      6  O   UNL A   1      33.642  18.933  24.853  1.00  0.00    -0.275 OA
ATOM      7  H   UNL A   1      35.940  19.138  25.362  1.00  0.00     0.163 HD
BRANCH   5   8
ATOM      8  C   UNL A   1      33.472  21.309  24.603  1.00  0.00     0.082 C 
ATOM      9  C   UNL A   1      31.075  24.337  26.374  1.00  0.00     0.255 C 
ATOM     10  O   UNL A   1      30.217  23.903  27.136  1.00  0.00    -0.269 OA
ATOM     11  N   UNL A   1      31.889  23.484  25.621  1.00  0.00    -0.339 N 
ATOM     12  C   UNL A   1      31.211  22.446  24.865  1.00  0.00     0.120 C 
ATOM     13  C   UNL A   1      33.277  23.760  25.259  1.00  0.00     0.120 C 
ATOM     14  C   UNL A   1      31.968  21.138  24.843  1.00  0.00     0.035 C 
ATOM     15  C   UNL A   1      34.131  22.503  25.315  1.00  0.00     0.035 C 
BRANCH   9  16
ATOM     16  C   UNL A   1      31.112  25.794  26.060  1.00  0.00     0.061 A 
ATOM     17  C   UNL A   1      29.748  25.604  23.904  1.00  0.00     0.067 C 
ATOM     18  C   UNL A   1      30.547  26.366  24.921  1.00  0.00     0.051 A 
ATOM     19  N   UNL A   1      30.740  27.684  24.602  1.00  0.00    -0.252 NA
ATOM     20  C   UNL A   1      31.491  28.463  25.402  1.00  0.00     0.071 A 
ATOM     21  C   UNL A   1      31.910  26.615  26.864  1.00  0.00     0.026 A 
ATOM     22  C   UNL A   1      31.723  29.795  25.084  1.00  0.00     0.030 A 
ATOM     23  C   UNL A   1      32.083  27.964  26.573  1.00  0.00     0.002 A 
ATOM     24  C   UNL A   1      32.487  30.629  25.912  1.00  0.00     0.023 A 
ATOM     25  C   UNL A   1      32.844  28.788  27.416  1.00  0.00     0.030 A 
ATOM     26  C   UNL A   1      33.033  30.122  27.085  1.00  0.00     0.041 A 
ATOM     27  Cl  UNL A   1      33.944  31.138  28.129  1.00  0.00    -0.084 Cl
ENDBRANCH   9  16
ENDBRANCH   5   8
ENDBRANCH   3   4
ENDBRANCH   2   3
ENDBRANCH   1   2
BRANCH   1  28
ATOM     28  C   UNL A   1      39.569  19.834  26.085  1.00  0.00     0.116 C 
BRANCH  28  29
ATOM     29  N   UNL A   1      40.645  18.858  26.009  1.00  0.00    -0.352 N 
ATOM     30  C   UNL A   1      41.999  19.073  26.045  1.00  0.00     0.251 C 
ATOM     31  H   UNL A   1      40.363  17.918  25.920  1.00  0.00     0.163 HD
ATOM     32  O   UNL A   1      42.784  18.155  25.829  1.00  0.00    -0.269 OA
BRANCH  30  33
ATOM     33  C   UNL A   1      42.505  20.431  26.321  1.00  0.00     0.039 A 
ATOM     34  C   UNL A   1      42.950  21.217  25.256  1.00  0.00     0.014 A 
ATOM     35  C   UNL A   1      42.513  20.934  27.624  1.00  0.00     0.014 A 
ATOM     36  C   UNL A   1      43.366  22.526  25.497  1.00  0.00     0.010 A 
ATOM     37  C   UNL A   1      42.832  22.267  27.847  1.00  0.00     0.010 A 
ATOM     38  C   UNL A   1      43.288  23.069  26.790  1.00  0.00    -0.014 A 
BRANCH  38  39
ATOM     39  C   UNL A   1      43.731  24.456  27.068  1.00  0.00     0.031 A 
ATOM     40  C   UNL A   1      42.741  25.470  27.569  1.00  0.00     0.074 A 
ATOM     41  C   UNL A   1      45.004  24.818  26.820  1.00  0.00     0.049 A 
ATOM     42  N   UNL A   1      42.914  26.740  27.835  1.00  0.00    -0.248 NA
ATOM     43  C   UNL A   1      41.360  25.001  27.764  1.00  0.00     0.031 C 
ATOM     44  C   UNL A   1      46.042  23.942  26.277  1.00  0.00     0.029 A 
ATOM     45  N   UNL A   1      45.638  26.022  26.989  1.00  0.00    -0.354 N 
ATOM     46  C   UNL A   1      41.666  27.220  28.210  1.00  0.00     0.074 A 
ATOM     47  C   UNL A   1      40.731  26.127  28.061  1.00  0.00     0.031 C 
ATOM     48  C   UNL A   1      47.190  24.630  26.181  1.00  0.00     0.029 A 
ATOM     49  C   UNL A   1      46.961  26.002  26.625  1.00  0.00     0.049 A 
ATOM     50  H   UNL A   1      45.187  26.826  27.338  1.00  0.00     0.167 HD
ATOM     51  C   UNL A   1      41.332  28.450  28.668  1.00  0.00     0.037 A 
ATOM     52  C   UNL A   1      47.884  26.982  26.648  1.00  0.00     0.037 A 
ATOM     53  C   UNL A   1      42.273  29.528  28.828  1.00  0.00     0.049 A 
ATOM     54  C   UNL A   1      47.498  28.339  27.170  1.00  0.00     0.074 A 
ATOM     55  C   UNL A   1      42.054  30.797  29.332  1.00  0.00     0.029 A 
ATOM     56  N   UNL A   1      43.614  29.461  28.478  1.00  0.00    -0.354 N 
ATOM     57  N   UNL A   1      46.332  28.765  27.593  1.00  0.00    -0.248 NA
ATOM     58  C   UNL A   1      48.564  29.348  27.234  1.00  0.00     0.031 C 
ATOM     59  C   UNL A   1      43.250  31.517  29.234  1.00  0.00     0.029 A 
ATOM     60  C   UNL A   1      44.232  30.675  28.736  1.00  0.00     0.049 A 
ATOM     61  H   UNL A   1      44.061  28.669  28.103  1.00  0.00     0.167 HD
ATOM     62  C   UNL A   1      46.529  30.076  28.005  1.00  0.00     0.074 A 
ATOM     63  C   UNL A   1      47.931  30.371  27.791  1.00  0.00     0.031 C 
ATOM     64  C   UNL A   1      45.631  30.953  28.522  1.00  0.00     0.037 A 
BRANCH  51  65
ATOM     65  C   UNL A   1      39.889  28.685  29.017  1.00  0.00     0.064 A 
ATOM     66  C   UNL A   1      38.968  29.171  28.073  1.00  0.00     0.173 A 
ATOM     67  C   UNL A   1      39.420  28.437  30.315  1.00  0.00     0.173 A 
ATOM     68  F   UNL A   1      39.363  29.438  26.818  1.00  0.00    -0.203 F 
ATOM     69  C   UNL A   1      37.652  29.450  28.430  1.00  0.00     0.198 A 
ATOM     70  C   UNL A   1      38.092  28.678  30.658  1.00  0.00     0.198 A 
ATOM     71  F   UNL A   1      40.251  27.967  31.258  1.00  0.00    -0.203 F 
ATOM     72  F   UNL A   1      36.815  29.989  27.532  1.00  0.00    -0.200 F 
ATOM     73  C   UNL A   1      37.213  29.198  29.720  1.00  0.00     0.200 A 
ATOM     74  F   UNL A   1      37.666  28.421  31.902  1.00  0.00    -0.200 F 
ATOM     75  F   UNL A   1      35.947  29.470  30.065  1.00  0.00    -0.200 F 
ENDBRANCH  51  65
BRANCH  52  76
ATOM     76  C   UNL A   1      49.272  26.693  26.202  1.00  0.00     0.064 A 
ATOM     77  C   UNL A   1      49.666  26.917  24.876  1.00  0.00     0.173 A 
ATOM     78  C   UNL A   1      50.239  26.212  27.098  1.00  0.00     0.173 A 
ATOM     79  F   UNL A   1      48.773  27.360  23.978  1.00  0.00    -0.203 F 
ATOM     80  C   UNL A   1      50.970  26.657  24.458  1.00  0.00     0.198 A 
ATOM     81  C   UNL A   1      51.549  25.980  26.686  1.00  0.00     0.198 A 
ATOM     82  F   UNL A   1      49.914  25.990  28.379  1.00  0.00    -0.203 F 
ATOM     83  F   UNL A   1      51.309  26.843  23.175  1.00  0.00    -0.200 F 
ATOM     84  C   UNL A   1      51.912  26.196  25.365  1.00  0.00     0.200 A 
ATOM     85  F   UNL A   1      52.461  25.553  27.570  1.00  0.00    -0.200 F 
ATOM     86  F   UNL A   1      53.169  25.957  24.965  1.00  0.00    -0.200 F 
ENDBRANCH  52  76
BRANCH  64  87
ATOM     87  C   UNL A   1      46.148  32.301  28.940  1.00  0.00     0.064 A 
ATOM     88  C   UNL A   1      46.645  32.541  30.230  1.00  0.00     0.173 A 
ATOM     89  C   UNL A   1      46.168  33.363  28.023  1.00  0.00     0.173 A 
ATOM     90  F   UNL A   1      46.639  31.563  31.149  1.00  0.00    -0.203 F 
ATOM     91  C   UNL A   1      47.108  33.802  30.595  1.00  0.00     0.198 A 
ATOM     92  C   UNL A   1      46.665  34.612  28.381  1.00  0.00     0.198 A 
ATOM     93  F   UNL A   1      45.714  33.187  26.773  1.00  0.00    -0.203 F 
ATOM     94  F   UNL A   1      47.521  34.024  31.851  1.00  0.00    -0.200 F 
ATOM     95  C   UNL A   1      47.124  34.835  29.669  1.00  0.00     0.200 A 
ATOM     96  F   UNL A   1      46.697  35.603  27.478  1.00  0.00    -0.200 F 
ATOM     97  F   UNL A   1      47.574  36.046  30.022  1.00  0.00    -0.200 F 
ENDBRANCH  64  87
ENDBRANCH  38  39
ENDBRANCH  30  33
ENDBRANCH  28  29
ENDBRANCH   1  28
TORSDOF 12
ENDMDL
MODEL 3
REMARK VINA RESULT:     -13.8      1.663      2.857
REMARK SMILES Cc1nc2ccc(Cl)cc2cc1C(=O)N1CCC(C(=O)NCCCCNC(=O)c2ccc(-c3c4nc(c(-c5c(F)c(F)c(F)c(F)c5F)c5ccc([nH]5)c(-c5c(F)c(F)c(F)c(F)c5F)c5nc(c(-c6c(F)c(F)c(F)c(F)c6F)c6ccc3[nH]6)C=C5)C=C4)cc2)CC1
REMARK SMILES IDX 24 1 23 2 22 3 21 4 19 5 20 6 18 8 13 9 14 10 15 11 16 12
REMARK SMILES IDX 93 13 17 14 92 15 12 16 1 17 2 18 3 19 4 20 11 21 5 22 10 23
REMARK SMILES IDX 6 24 9 25 7 26 8 27 25 28 26 29 27 30 28 32 29 33 30 34
REMARK SMILES IDX 91 35 31 36 90 37 32 38 33 39 34 40 84 41 35 42 89 43 83 44
REMARK SMILES IDX 85 45 36 46 88 47 82 48 81 49 37 51 69 52 49 53 68 54 50 55
REMARK SMILES IDX 53 56 67 57 86 58 51 59 52 60 66 62 87 63 54 64 38 65 39 66
REMARK SMILES IDX 47 67 40 68 41 69 45 70 48 71 42 72 43 73 46 74 44 75 70 76
REMARK SMILES IDX 71 77 79 78 72 79 73 80 77 81 80 82 74 83 75 84 78 85 76 86
REMARK SMILES IDX 55 87 56 88 64 89 57 90 58 91 62 92 65 93 59 94 60 95 63 96
REMARK SMILES IDX 61 97
REMARK H PARENT 21 7 26 31 85 50 53 61
REMARK Flexibility Score: inf
ROOT
ATOM      1  C   UNL A   1      38.182  19.547  24.975  1.00  0.00     0.023 C 
ENDROOT
BRANCH   1   2
ATOM      2  C   UNL A   1      37.215  20.663  24.592  1.00  0.00     0.023 C 
BRANCH   2   3
ATOM      3  C   UNL A   1      35.985  20.761  25.490  1.00  0.00     0.116 C 
BRANCH   3   4
ATOM      4  N   UNL A   1      34.757  20.501  24.757  1.00  0.00    -0.356 N 
ATOM      5  C   UNL A   1      33.739  21.336  24.412  1.00  0.00     0.223 C 
ATOM      6  O   UNL A   1      32.777  20.862  23.805  1.00  0.00    -0.275 OA
ATOM      7  H   UNL A   1      34.642  19.568  24.462  1.00  0.00     0.163 HD
BRANCH   5   8
ATOM      8  C   UNL A   1      33.786  22.819  24.749  1.00  0.00     0.082 C 
ATOM      9  C   UNL A   1      32.831  26.677  23.250  1.00  0.00     0.255 C 
ATOM     10  O   UNL A   1      33.135  26.837  22.072  1.00  0.00    -0.269 OA
ATOM     11  N   UNL A   1      33.162  25.507  23.943  1.00  0.00    -0.339 N 
ATOM     12  C   UNL A   1      34.546  25.076  23.855  1.00  0.00     0.120 C 
ATOM     13  C   UNL A   1      32.351  24.905  24.998  1.00  0.00     0.120 C 
ATOM     14  C   UNL A   1      34.694  23.575  23.773  1.00  0.00     0.035 C 
ATOM     15  C   UNL A   1      32.366  23.386  24.919  1.00  0.00     0.035 C 
BRANCH   9  16
ATOM     16  C   UNL A   1      32.299  27.826  24.036  1.00  0.00     0.061 A 
ATOM     17  C   UNL A   1      30.125  28.035  22.702  1.00  0.00     0.067 C 
ATOM     18  C   UNL A   1      31.091  28.470  23.765  1.00  0.00     0.051 A 
ATOM     19  N   UNL A   1      30.720  29.615  24.418  1.00  0.00    -0.252 NA
ATOM     20  C   UNL A   1      31.530  30.145  25.353  1.00  0.00     0.071 A 
ATOM     21  C   UNL A   1      33.136  28.408  24.994  1.00  0.00     0.026 A 
ATOM     22  C   UNL A   1      31.187  31.319  26.009  1.00  0.00     0.030 A 
ATOM     23  C   UNL A   1      32.755  29.548  25.692  1.00  0.00     0.002 A 
ATOM     24  C   UNL A   1      32.007  31.878  26.999  1.00  0.00     0.023 A 
ATOM     25  C   UNL A   1      33.583  30.091  26.686  1.00  0.00     0.030 A 
ATOM     26  C   UNL A   1      33.198  31.251  27.343  1.00  0.00     0.041 A 
ATOM     27  Cl  UNL A   1      34.199  31.903  28.577  1.00  0.00    -0.084 Cl
ENDBRANCH   9  16
ENDBRANCH   5   8
ENDBRANCH   3   4
ENDBRANCH   2   3
ENDBRANCH   1   2
BRANCH   1  28
ATOM     28  C   UNL A   1      39.370  19.999  25.808  1.00  0.00     0.116 C 
BRANCH  28  29
ATOM     29  N   UNL A   1      40.405  18.982  25.921  1.00  0.00    -0.352 N 
ATOM     30  C   UNL A   1      41.751  19.152  26.125  1.00  0.00     0.251 C 
ATOM     31  H   UNL A   1      40.098  18.050  25.842  1.00  0.00     0.163 HD
ATOM     32  O   UNL A   1      42.518  18.196  26.059  1.00  0.00    -0.269 OA
BRANCH  30  33
ATOM     33  C   UNL A   1      42.274  20.504  26.397  1.00  0.00     0.039 A 
ATOM     34  C   UNL A   1      42.620  21.325  25.323  1.00  0.00     0.014 A 
ATOM     35  C   UNL A   1      42.395  20.966  27.710  1.00  0.00     0.014 A 
ATOM     36  C   UNL A   1      43.051  22.629  25.567  1.00  0.00     0.010 A 
ATOM     37  C   UNL A   1      42.726  22.294  27.945  1.00  0.00     0.010 A 
ATOM     38  C   UNL A   1      43.084  23.131  26.879  1.00  0.00    -0.014 A 
BRANCH  38  39
ATOM     39  C   UNL A   1      43.545  24.512  27.160  1.00  0.00     0.031 A 
ATOM     40  C   UNL A   1      42.574  25.529  27.691  1.00  0.00     0.074 A 
ATOM     41  C   UNL A   1      44.815  24.866  26.889  1.00  0.00     0.049 A 
ATOM     42  N   UNL A   1      42.763  26.795  27.965  1.00  0.00    -0.248 NA
ATOM     43  C   UNL A   1      41.193  25.069  27.911  1.00  0.00     0.031 C 
ATOM     44  C   UNL A   1      45.834  23.986  26.317  1.00  0.00     0.029 A 
ATOM     45  N   UNL A   1      45.463  26.063  27.056  1.00  0.00    -0.354 N 
ATOM     46  C   UNL A   1      41.527  27.281  28.371  1.00  0.00     0.074 A 
ATOM     47  C   UNL A   1      40.580  26.197  28.232  1.00  0.00     0.031 C 
ATOM     48  C   UNL A   1      46.986  24.666  26.204  1.00  0.00     0.029 A 
ATOM     49  C   UNL A   1      46.778  26.035  26.665  1.00  0.00     0.049 A 
ATOM     50  H   UNL A   1      45.025  26.867  27.422  1.00  0.00     0.167 HD
ATOM     51  C   UNL A   1      41.213  28.509  28.847  1.00  0.00     0.037 A 
ATOM     52  C   UNL A   1      47.709  27.008  26.677  1.00  0.00     0.037 A 
ATOM     53  C   UNL A   1      42.166  29.578  28.998  1.00  0.00     0.049 A 
ATOM     54  C   UNL A   1      47.346  28.363  27.220  1.00  0.00     0.074 A 
ATOM     55  C   UNL A   1      41.968  30.845  29.517  1.00  0.00     0.029 A 
ATOM     56  N   UNL A   1      43.499  29.504  28.619  1.00  0.00    -0.354 N 
ATOM     57  N   UNL A   1      46.192  28.794  27.671  1.00  0.00    -0.248 NA
ATOM     58  C   UNL A   1      48.421  29.363  27.272  1.00  0.00     0.031 C 
ATOM     59  C   UNL A   1      43.168  31.555  29.402  1.00  0.00     0.029 A 
ATOM     60  C   UNL A   1      44.132  30.710  28.875  1.00  0.00     0.049 A 
ATOM     61  H   UNL A   1      43.931  28.712  28.227  1.00  0.00     0.167 HD
ATOM     62  C   UNL A   1      46.408  30.099  28.091  1.00  0.00     0.074 A 
ATOM     63  C   UNL A   1      47.808  30.385  27.851  1.00  0.00     0.031 C 
ATOM     64  C   UNL A   1      45.529  30.979  28.634  1.00  0.00     0.037 A 
BRANCH  51  65
ATOM     65  C   UNL A   1      39.779  28.753  29.228  1.00  0.00     0.064 A 
ATOM     66  C   UNL A   1      38.842  29.253  28.308  1.00  0.00     0.173 A 
ATOM     67  C   UNL A   1      39.336  28.499  30.534  1.00  0.00     0.173 A 
ATOM     68  F   UNL A   1      39.213  29.527  27.047  1.00  0.00    -0.203 F 
ATOM     69  C   UNL A   1      37.536  29.539  28.695  1.00  0.00     0.198 A 
ATOM     70  C   UNL A   1      38.017  28.748  30.907  1.00  0.00     0.198 A 
ATOM     71  F   UNL A   1      40.183  28.015  31.456  1.00  0.00    -0.203 F 
ATOM     72  F   UNL A   1      36.685  30.091  27.819  1.00  0.00    -0.200 F 
ATOM     73  C   UNL A   1      37.123  29.281  29.992  1.00  0.00     0.200 A 
ATOM     74  F   UNL A   1      37.616  28.484  32.158  1.00  0.00    -0.200 F 
ATOM     75  F   UNL A   1      35.866  29.560  30.365  1.00  0.00    -0.200 F 
ENDBRANCH  51  65
BRANCH  52  76
ATOM     76  C   UNL A   1      49.085  26.712  26.200  1.00  0.00     0.064 A 
ATOM     77  C   UNL A   1      50.035  26.131  27.051  1.00  0.00     0.173 A 
ATOM     78  C   UNL A   1      49.469  26.977  24.877  1.00  0.00     0.173 A 
ATOM     79  F   UNL A   1      49.721  25.873  28.329  1.00  0.00    -0.203 F 
ATOM     80  C   UNL A   1      51.322  25.842  26.602  1.00  0.00     0.198 A 
ATOM     81  C   UNL A   1      50.747  26.661  24.422  1.00  0.00     0.198 A 
ATOM     82  F   UNL A   1      48.594  27.524  24.021  1.00  0.00    -0.203 F 
ATOM     83  F   UNL A   1      52.224  25.323  27.448  1.00  0.00    -0.200 F 
ATOM     84  C   UNL A   1      51.675  26.101  25.286  1.00  0.00     0.200 A 
ATOM     85  F   UNL A   1      51.078  26.896  23.145  1.00  0.00    -0.200 F 
ATOM     86  F   UNL A   1      52.910  25.811  24.852  1.00  0.00    -0.200 F 
ENDBRANCH  52  76
BRANCH  64  87
ATOM     87  C   UNL A   1      46.065  32.318  29.055  1.00  0.00     0.064 A 
ATOM     88  C   UNL A   1      46.066  33.425  28.192  1.00  0.00     0.173 A 
ATOM     89  C   UNL A   1      46.563  32.501  30.354  1.00  0.00     0.173 A 
ATOM     90  F   UNL A   1      45.611  33.303  26.936  1.00  0.00    -0.203 F 
ATOM     91  C   UNL A   1      46.578  34.653  28.603  1.00  0.00     0.198 A 
ATOM     92  C   UNL A   1      47.041  33.739  30.773  1.00  0.00     0.198 A 
ATOM     93  F   UNL A   1      46.578  31.480  31.224  1.00  0.00    -0.203 F 
ATOM     94  F   UNL A   1      46.624  35.679  27.742  1.00  0.00    -0.200 F 
ATOM     95  C   UNL A   1      47.059  34.811  29.895  1.00  0.00     0.200 A 
ATOM     96  F   UNL A   1      47.488  33.894  32.028  1.00  0.00    -0.200 F 
ATOM     97  F   UNL A   1      47.548  35.994  30.290  1.00  0.00    -0.200 F 
ENDBRANCH  64  87
ENDBRANCH  38  39
ENDBRANCH  30  33
ENDBRANCH  28  29
ENDBRANCH   1  28
TORSDOF 12
ENDMDL
