MODEL 1
REMARK VINA RESULT:     -12.1      0.000      0.000
REMARK SMILES O=C(NCCCCNC(=O)c1cn(C2C[NH+](CCC[C@@H]3CCCO3)C2)nn1)c1ccc(-c2c3nc(c(-c4c(F)c(F)c(F)c(F)c4F)c4ccc([nH]4)c(-c4c(F)c(F)c(F)c(F)c4F)c4nc(c(-c5c(F)c(F)c(F)c(F)c5F)c5ccc2[nH]5)C=C4)C=C3)cc1
REMARK SMILES IDX 7 1 6 2 5 3 4 4 3 5 1 6 2 7 28 9 29 10 90 11 30 12 89 13
REMARK SMILES IDX 31 14 32 15 33 16 83 17 34 18 88 19 82 20 84 21 35 22 87 23
REMARK SMILES IDX 81 24 80 25 36 27 68 28 48 29 67 30 49 31 52 32 66 33 85 34
REMARK SMILES IDX 50 35 51 36 65 38 86 39 53 40 37 41 38 42 46 43 39 44 40 45
REMARK SMILES IDX 44 46 47 47 41 48 42 49 45 50 43 51 69 52 70 53 78 54 71 55
REMARK SMILES IDX 72 56 76 57 79 58 73 59 74 60 77 61 75 62 54 63 55 64 63 65
REMARK SMILES IDX 56 66 57 67 61 68 64 69 58 70 59 71 62 72 60 73 8 74 9 75
REMARK SMILES IDX 10 77 11 78 12 79 27 80 13 81 26 82 14 83 15 84 25 85 16 86
REMARK SMILES IDX 17 88 18 89 19 90 20 91 21 92 24 93 22 94 23 95
REMARK H PARENT 3 8 84 26 52 37 8 76 16 87
REMARK Flexibility Score: inf
ROOT
ATOM      1  C   UNL A   1      33.189  29.177  24.903  1.00  0.00     0.116 C 
ENDROOT
BRANCH   1   2
ATOM      2  C   UNL A   1      33.523  29.148  26.395  1.00  0.00     0.023 C 
BRANCH   2   3
ATOM      3  C   UNL A   1      33.227  30.437  27.171  1.00  0.00     0.023 C 
BRANCH   3   4
ATOM      4  C   UNL A   1      34.456  31.214  27.641  1.00  0.00     0.116 C 
BRANCH   4   5
ATOM      5  N   UNL A   1      34.357  31.714  28.996  1.00  0.00    -0.352 N 
ATOM      6  O   UNL A   1      34.839  32.497  30.998  1.00  0.00    -0.269 OA
ATOM      7  C   UNL A   1      35.220  31.805  30.051  1.00  0.00     0.251 C 
ATOM      8  H   UNL A   1      33.463  32.070  29.205  1.00  0.00     0.163 HD
BRANCH   7   9
ATOM      9  C   UNL A   1      36.522  31.089  30.173  1.00  0.00     0.039 A 
ATOM     10  C   UNL A   1      37.788  31.672  30.115  1.00  0.00     0.014 A 
ATOM     11  C   UNL A   1      36.434  29.688  30.290  1.00  0.00     0.014 A 
ATOM     12  C   UNL A   1      38.930  30.872  30.077  1.00  0.00     0.010 A 
ATOM     13  C   UNL A   1      37.567  28.886  30.258  1.00  0.00     0.010 A 
ATOM     14  C   UNL A   1      38.815  29.479  30.110  1.00  0.00    -0.014 A 
BRANCH  14  15
ATOM     15  C   UNL A   1      40.038  28.682  30.151  1.00  0.00     0.031 A 
ATOM     16  C   UNL A   1      40.601  28.500  31.522  1.00  0.00     0.074 A 
ATOM     17  C   UNL A   1      40.546  28.039  29.078  1.00  0.00     0.049 A 
ATOM     18  N   UNL A   1      41.777  28.820  31.957  1.00  0.00    -0.248 NA
ATOM     19  C   UNL A   1      39.698  27.993  32.570  1.00  0.00     0.031 C 
ATOM     20  C   UNL A   1      39.946  27.895  27.750  1.00  0.00     0.029 A 
ATOM     21  N   UNL A   1      41.680  27.287  28.981  1.00  0.00    -0.354 N 
ATOM     22  C   UNL A   1      41.824  28.406  33.289  1.00  0.00     0.074 A 
ATOM     23  C   UNL A   1      40.481  28.037  33.646  1.00  0.00     0.031 C 
ATOM     24  C   UNL A   1      40.603  26.931  27.063  1.00  0.00     0.029 A 
ATOM     25  C   UNL A   1      41.741  26.482  27.848  1.00  0.00     0.049 A 
ATOM     26  H   UNL A   1      42.396  27.311  29.656  1.00  0.00     0.167 HD
ATOM     27  C   UNL A   1      43.012  28.189  33.919  1.00  0.00     0.037 A 
ATOM     28  C   UNL A   1      42.624  25.480  27.604  1.00  0.00     0.037 A 
ATOM     29  C   UNL A   1      44.079  28.902  33.263  1.00  0.00     0.049 A 
ATOM     30  C   UNL A   1      43.787  25.675  28.504  1.00  0.00     0.074 A 
ATOM     31  C   UNL A   1      44.353  30.231  33.009  1.00  0.00     0.029 A 
ATOM     32  N   UNL A   1      44.926  28.194  32.450  1.00  0.00    -0.354 N 
ATOM     33  N   UNL A   1      44.636  26.657  28.394  1.00  0.00    -0.248 NA
ATOM     34  C   UNL A   1      43.747  25.021  29.802  1.00  0.00     0.031 C 
ATOM     35  C   UNL A   1      44.971  30.243  31.724  1.00  0.00     0.029 A 
ATOM     36  C   UNL A   1      45.090  28.919  31.302  1.00  0.00     0.049 A 
ATOM     37  H   UNL A   1      45.341  27.324  32.654  1.00  0.00     0.167 HD
ATOM     38  C   UNL A   1      44.904  27.031  29.701  1.00  0.00     0.074 A 
ATOM     39  C   UNL A   1      44.398  25.935  30.524  1.00  0.00     0.031 C 
ATOM     40  C   UNL A   1      45.251  28.316  30.003  1.00  0.00     0.037 A 
BRANCH  27  41
ATOM     41  C   UNL A   1      43.281  27.017  34.845  1.00  0.00     0.064 A 
ATOM     42  C   UNL A   1      43.590  27.285  36.197  1.00  0.00     0.173 A 
ATOM     43  C   UNL A   1      43.586  25.710  34.408  1.00  0.00     0.173 A 
ATOM     44  F   UNL A   1      43.328  28.485  36.737  1.00  0.00    -0.203 F 
ATOM     45  C   UNL A   1      44.282  26.369  36.994  1.00  0.00     0.198 A 
ATOM     46  C   UNL A   1      44.233  24.782  35.223  1.00  0.00     0.198 A 
ATOM     47  F   UNL A   1      43.372  25.302  33.154  1.00  0.00    -0.203 F 
ATOM     48  F   UNL A   1      44.693  26.731  38.218  1.00  0.00    -0.200 F 
ATOM     49  C   UNL A   1      44.622  25.125  36.499  1.00  0.00     0.200 A 
ATOM     50  F   UNL A   1      44.557  23.582  34.722  1.00  0.00    -0.200 F 
ATOM     51  F   UNL A   1      45.358  24.278  37.229  1.00  0.00    -0.200 F 
ENDBRANCH  27  41
BRANCH  28  52
ATOM     52  C   UNL A   1      42.398  24.196  26.892  1.00  0.00     0.064 A 
ATOM     53  C   UNL A   1      43.327  23.704  25.957  1.00  0.00     0.173 A 
ATOM     54  C   UNL A   1      41.415  23.288  27.329  1.00  0.00     0.173 A 
ATOM     55  F   UNL A   1      44.329  24.483  25.526  1.00  0.00    -0.203 F 
ATOM     56  C   UNL A   1      43.285  22.379  25.507  1.00  0.00     0.198 A 
ATOM     57  C   UNL A   1      41.370  21.970  26.875  1.00  0.00     0.198 A 
ATOM     58  F   UNL A   1      40.538  23.634  28.283  1.00  0.00    -0.203 F 
ATOM     59  F   UNL A   1      44.225  21.927  24.664  1.00  0.00    -0.200 F 
ATOM     60  C   UNL A   1      42.312  21.510  25.973  1.00  0.00     0.200 A 
ATOM     61  F   UNL A   1      40.449  21.129  27.366  1.00  0.00    -0.200 F 
ATOM     62  F   UNL A   1      42.308  20.226  25.592  1.00  0.00    -0.200 F 
ENDBRANCH  28  52
BRANCH  40  63
ATOM     63  C   UNL A   1      45.601  29.232  28.867  1.00  0.00     0.064 A 
ATOM     64  C   UNL A   1      44.659  29.983  28.141  1.00  0.00     0.173 A 
ATOM     65  C   UNL A   1      46.956  29.465  28.601  1.00  0.00     0.173 A 
ATOM     66  F   UNL A   1      43.350  29.891  28.406  1.00  0.00    -0.203 F 
ATOM     67  C   UNL A   1      45.061  30.892  27.165  1.00  0.00     0.198 A 
ATOM     68  C   UNL A   1      47.355  30.401  27.652  1.00  0.00     0.198 A 
ATOM     69  F   UNL A   1      47.900  28.817  29.302  1.00  0.00    -0.203 F 
ATOM     70  F   UNL A   1      44.144  31.590  26.478  1.00  0.00    -0.200 F 
ATOM     71  C   UNL A   1      46.408  31.106  26.928  1.00  0.00     0.200 A 
ATOM     72  F   UNL A   1      48.660  30.641  27.463  1.00  0.00    -0.200 F 
ATOM     73  F   UNL A   1      46.796  32.013  26.020  1.00  0.00    -0.200 F 
ENDBRANCH  40  63
ENDBRANCH  14  15
ENDBRANCH   7   9
ENDBRANCH   4   5
ENDBRANCH   3   4
ENDBRANCH   2   3
ENDBRANCH   1   2
BRANCH   1  74
ATOM     74  N   UNL A   1      31.896  29.783  24.634  1.00  0.00    -0.351 N 
ATOM     75  C   UNL A   1      30.796  29.256  24.000  1.00  0.00     0.273 C 
ATOM     76  H   UNL A   1      31.793  30.708  24.954  1.00  0.00     0.163 HD
ATOM     77  O   UNL A   1      29.863  30.012  23.723  1.00  0.00    -0.267 OA
BRANCH  75  78
ATOM     78  C   UNL A   1      30.780  27.846  23.668  1.00  0.00     0.170 A 
ATOM     79  C   UNL A   1      30.395  26.773  24.454  1.00  0.00     0.145 A 
ATOM     80  N   UNL A   1      31.183  27.376  22.445  1.00  0.00    -0.125 NA
ATOM     81  N   UNL A   1      30.747  25.684  23.711  1.00  0.00    -0.237 N 
ATOM     82  N   UNL A   1      31.161  26.053  22.484  1.00  0.00    -0.066 NA
BRANCH  81  83
ATOM     83  C   UNL A   1      30.992  24.350  24.157  1.00  0.00     0.218 C 
ATOM     84  C   UNL A   1      32.084  23.606  23.331  1.00  0.00     0.295 C 
ATOM     85  C   UNL A   1      31.966  24.139  25.328  1.00  0.00     0.295 C 
ATOM     86  N   UNL A   1      32.584  23.016  24.578  1.00  0.00    -0.331 N 
ATOM     87  H   UNL A   1      33.571  22.796  24.705  1.00  0.00     0.348 HD
BRANCH  86  88
ATOM     88  C   UNL A   1      32.035  21.677  24.872  1.00  0.00     0.262 C 
BRANCH  88  89
ATOM     89  C   UNL A   1      32.766  20.341  24.593  1.00  0.00     0.064 C 
BRANCH  89  90
ATOM     90  C   UNL A   1      32.490  19.592  23.276  1.00  0.00     0.038 C 
BRANCH  90  91
ATOM     91  C   UNL A   1      32.314  18.081  23.404  1.00  0.00     0.118 C 
ATOM     92  C   UNL A   1      32.570  17.603  24.833  1.00  0.00     0.034 C 
ATOM     93  O   UNL A   1      33.269  17.419  22.560  1.00  0.00    -0.378 OA
ATOM     94  C   UNL A   1      33.261  16.283  24.619  1.00  0.00     0.031 C 
ATOM     95  C   UNL A   1      34.082  16.573  23.385  1.00  0.00     0.160 C 
ENDBRANCH  90  91
ENDBRANCH  89  90
ENDBRANCH  88  89
ENDBRANCH  86  88
ENDBRANCH  81  83
ENDBRANCH  75  78
ENDBRANCH   1  74
TORSDOF 16
ENDMDL
MODEL 2
REMARK VINA RESULT:     -12.1      3.318      9.458
REMARK SMILES O=C(NCCCCNC(=O)c1cn(C2C[NH+](CCC[C@@H]3CCCO3)C2)nn1)c1ccc(-c2c3nc(c(-c4c(F)c(F)c(F)c(F)c4F)c4ccc([nH]4)c(-c4c(F)c(F)c(F)c(F)c4F)c4nc(c(-c5c(F)c(F)c(F)c(F)c5F)c5ccc2[nH]5)C=C4)C=C3)cc1
REMARK SMILES IDX 7 1 6 2 5 3 4 4 3 5 1 6 2 7 28 9 29 10 90 11 30 12 89 13
REMARK SMILES IDX 31 14 32 15 33 16 83 17 34 18 88 19 82 20 84 21 35 22 87 23
REMARK SMILES IDX 81 24 80 25 36 27 68 28 48 29 67 30 49 31 52 32 66 33 85 34
REMARK SMILES IDX 50 35 51 36 65 38 86 39 53 40 37 41 38 42 46 43 39 44 40 45
REMARK SMILES IDX 44 46 47 47 41 48 42 49 45 50 43 51 69 52 70 53 78 54 71 55
REMARK SMILES IDX 72 56 76 57 79 58 73 59 74 60 77 61 75 62 54 63 55 64 63 65
REMARK SMILES IDX 56 66 57 67 61 68 64 69 58 70 59 71 62 72 60 73 8 74 9 75
REMARK SMILES IDX 10 77 11 78 12 79 27 80 13 81 26 82 14 83 15 84 25 85 16 86
REMARK SMILES IDX 17 88 18 89 19 90 20 91 21 92 24 93 22 94 23 95
REMARK H PARENT 3 8 84 26 52 37 8 76 16 87
REMARK Flexibility Score: inf
ROOT
ATOM      1  C   UNL A   1      36.241  21.055  25.280  1.00  0.00     0.116 C 
ENDROOT
BRANCH   1   2
ATOM      2  C   UNL A   1      37.750  21.042  25.035  1.00  0.00     0.023 C 
BRANCH   2   3
ATOM      3  C   UNL A   1      38.579  21.981  25.921  1.00  0.00     0.023 C 
BRANCH   3   4
ATOM      4  C   UNL A   1      39.877  21.386  26.469  1.00  0.00     0.116 C 
BRANCH   4   5
ATOM      5  N   UNL A   1      41.056  21.738  25.706  1.00  0.00    -0.352 N 
ATOM      6  O   UNL A   1      42.959  22.636  25.056  1.00  0.00    -0.269 OA
ATOM      7  C   UNL A   1      41.933  22.785  25.723  1.00  0.00     0.251 C 
ATOM      8  H   UNL A   1      41.276  21.068  25.018  1.00  0.00     0.163 HD
BRANCH   7   9
ATOM      9  C   UNL A   1      41.714  24.090  26.409  1.00  0.00     0.039 A 
ATOM     10  C   UNL A   1      41.126  25.224  25.849  1.00  0.00     0.014 A 
ATOM     11  C   UNL A   1      42.217  24.176  27.722  1.00  0.00     0.014 A 
ATOM     12  C   UNL A   1      41.128  26.434  26.543  1.00  0.00     0.010 A 
ATOM     13  C   UNL A   1      42.218  25.376  28.421  1.00  0.00     0.010 A 
ATOM     14  C   UNL A   1      41.709  26.517  27.811  1.00  0.00    -0.014 A 
BRANCH  14  15
ATOM     15  C   UNL A   1      41.617  27.781  28.536  1.00  0.00     0.031 A 
ATOM     16  C   UNL A   1      42.745  28.722  28.268  1.00  0.00     0.074 A 
ATOM     17  C   UNL A   1      40.543  28.143  29.272  1.00  0.00     0.049 A 
ATOM     18  N   UNL A   1      43.572  29.246  29.114  1.00  0.00    -0.248 NA
ATOM     19  C   UNL A   1      43.057  29.030  26.862  1.00  0.00     0.031 C 
ATOM     20  C   UNL A   1      39.258  27.450  29.387  1.00  0.00     0.029 A 
ATOM     21  N   UNL A   1      40.344  29.275  30.006  1.00  0.00    -0.354 N 
ATOM     22  C   UNL A   1      44.407  30.083  28.372  1.00  0.00     0.074 A 
ATOM     23  C   UNL A   1      44.136  29.802  26.988  1.00  0.00     0.031 C 
ATOM     24  C   UNL A   1      38.351  28.280  29.953  1.00  0.00     0.029 A 
ATOM     25  C   UNL A   1      39.018  29.507  30.356  1.00  0.00     0.049 A 
ATOM     26  H   UNL A   1      41.076  29.879  30.267  1.00  0.00     0.167 HD
ATOM     27  C   UNL A   1      45.093  31.100  28.964  1.00  0.00     0.037 A 
ATOM     28  C   UNL A   1      38.498  30.647  30.879  1.00  0.00     0.037 A 
ATOM     29  C   UNL A   1      45.247  30.862  30.376  1.00  0.00     0.049 A 
ATOM     30  C   UNL A   1      39.620  31.434  31.448  1.00  0.00     0.074 A 
ATOM     31  C   UNL A   1      45.855  29.886  31.141  1.00  0.00     0.029 A 
ATOM     32  N   UNL A   1      44.431  31.546  31.241  1.00  0.00    -0.354 N 
ATOM     33  N   UNL A   1      40.298  31.078  32.501  1.00  0.00    -0.248 NA
ATOM     34  C   UNL A   1      40.272  32.398  30.576  1.00  0.00     0.031 C 
ATOM     35  C   UNL A   1      45.006  29.723  32.276  1.00  0.00     0.029 A 
ATOM     36  C   UNL A   1      43.969  30.648  32.163  1.00  0.00     0.049 A 
ATOM     37  H   UNL A   1      44.217  32.507  31.205  1.00  0.00     0.167 HD
ATOM     38  C   UNL A   1      41.608  31.413  32.199  1.00  0.00     0.074 A 
ATOM     39  C   UNL A   1      41.519  32.299  31.040  1.00  0.00     0.031 C 
ATOM     40  C   UNL A   1      42.649  30.715  32.738  1.00  0.00     0.037 A 
BRANCH  27  41
ATOM     41  C   UNL A   1      45.245  32.485  28.362  1.00  0.00     0.064 A 
ATOM     42  C   UNL A   1      44.079  33.245  28.116  1.00  0.00     0.173 A 
ATOM     43  C   UNL A   1      46.409  32.948  27.712  1.00  0.00     0.173 A 
ATOM     44  F   UNL A   1      42.913  32.918  28.694  1.00  0.00    -0.203 F 
ATOM     45  C   UNL A   1      44.055  34.284  27.182  1.00  0.00     0.198 A 
ATOM     46  C   UNL A   1      46.391  34.016  26.816  1.00  0.00     0.198 A 
ATOM     47  F   UNL A   1      47.590  32.332  27.825  1.00  0.00    -0.203 F 
ATOM     48  F   UNL A   1      42.890  34.867  26.867  1.00  0.00    -0.200 F 
ATOM     49  C   UNL A   1      45.207  34.655  26.517  1.00  0.00     0.200 A 
ATOM     50  F   UNL A   1      47.519  34.359  26.179  1.00  0.00    -0.200 F 
ATOM     51  F   UNL A   1      45.172  35.591  25.560  1.00  0.00    -0.200 F 
ENDBRANCH  27  41
BRANCH  28  52
ATOM     52  C   UNL A   1      37.164  31.255  30.639  1.00  0.00     0.064 A 
ATOM     53  C   UNL A   1      36.279  31.522  31.699  1.00  0.00     0.173 A 
ATOM     54  C   UNL A   1      36.852  31.854  29.403  1.00  0.00     0.173 A 
ATOM     55  F   UNL A   1      36.528  31.037  32.924  1.00  0.00    -0.203 F 
ATOM     56  C   UNL A   1      35.165  32.354  31.536  1.00  0.00     0.198 A 
ATOM     57  C   UNL A   1      35.737  32.677  29.240  1.00  0.00     0.198 A 
ATOM     58  F   UNL A   1      37.678  31.731  28.354  1.00  0.00    -0.203 F 
ATOM     59  F   UNL A   1      34.379  32.636  32.585  1.00  0.00    -0.200 F 
ATOM     60  C   UNL A   1      34.900  32.938  30.308  1.00  0.00     0.200 A 
ATOM     61  F   UNL A   1      35.517  33.268  28.057  1.00  0.00    -0.200 F 
ATOM     62  F   UNL A   1      33.871  33.783  30.165  1.00  0.00    -0.200 F 
ENDBRANCH  28  52
BRANCH  40  63
ATOM     63  C   UNL A   1      42.351  29.771  33.865  1.00  0.00     0.064 A 
ATOM     64  C   UNL A   1      41.906  28.449  33.689  1.00  0.00     0.173 A 
ATOM     65  C   UNL A   1      42.667  30.178  35.168  1.00  0.00     0.173 A 
ATOM     66  F   UNL A   1      41.679  27.953  32.466  1.00  0.00    -0.203 F 
ATOM     67  C   UNL A   1      41.745  27.592  34.776  1.00  0.00     0.198 A 
ATOM     68  C   UNL A   1      42.541  29.308  36.246  1.00  0.00     0.198 A 
ATOM     69  F   UNL A   1      43.148  31.411  35.388  1.00  0.00    -0.203 F 
ATOM     70  F   UNL A   1      41.309  26.337  34.584  1.00  0.00    -0.200 F 
ATOM     71  C   UNL A   1      42.071  28.020  36.052  1.00  0.00     0.200 A 
ATOM     72  F   UNL A   1      42.905  29.711  37.472  1.00  0.00    -0.200 F 
ATOM     73  F   UNL A   1      41.958  27.181  37.092  1.00  0.00    -0.200 F 
ENDBRANCH  40  63
ENDBRANCH  14  15
ENDBRANCH   7   9
ENDBRANCH   4   5
ENDBRANCH   3   4
ENDBRANCH   2   3
ENDBRANCH   1   2
BRANCH   1  74
ATOM     74  N   UNL A   1      35.611  19.792  24.935  1.00  0.00    -0.351 N 
ATOM     75  C   UNL A   1      34.280  19.495  24.757  1.00  0.00     0.273 C 
ATOM     76  H   UNL A   1      36.229  19.036  24.811  1.00  0.00     0.163 HD
ATOM     77  O   UNL A   1      33.955  18.312  24.643  1.00  0.00    -0.267 OA
BRANCH  75  78
ATOM     78  C   UNL A   1      33.314  20.575  24.726  1.00  0.00     0.170 A 
ATOM     79  C   UNL A   1      33.143  21.558  23.767  1.00  0.00     0.145 A 
ATOM     80  N   UNL A   1      32.395  20.764  25.724  1.00  0.00    -0.125 NA
ATOM     81  N   UNL A   1      32.223  22.399  24.325  1.00  0.00    -0.237 N 
ATOM     82  N   UNL A   1      31.735  21.884  25.470  1.00  0.00    -0.066 NA
BRANCH  81  83
ATOM     83  C   UNL A   1      31.977  23.771  24.018  1.00  0.00     0.218 C 
ATOM     84  C   UNL A   1      30.655  24.006  23.227  1.00  0.00     0.295 C 
ATOM     85  C   UNL A   1      31.303  24.649  25.085  1.00  0.00     0.295 C 
ATOM     86  N   UNL A   1      30.424  25.213  24.030  1.00  0.00    -0.331 N 
ATOM     87  H   UNL A   1      29.482  25.526  24.261  1.00  0.00     0.348 HD
BRANCH  86  88
ATOM     88  C   UNL A   1      30.906  26.457  23.398  1.00  0.00     0.262 C 
BRANCH  88  89
ATOM     89  C   UNL A   1      29.995  27.594  22.875  1.00  0.00     0.064 C 
BRANCH  89  90
ATOM     90  C   UNL A   1      29.938  28.927  23.642  1.00  0.00     0.038 C 
BRANCH  90  91
ATOM     91  C   UNL A   1      29.799  30.178  22.777  1.00  0.00     0.118 C 
ATOM     92  C   UNL A   1      28.802  31.168  23.378  1.00  0.00     0.034 C 
ATOM     93  O   UNL A   1      29.298  29.808  21.483  1.00  0.00    -0.378 OA
ATOM     94  C   UNL A   1      28.117  31.725  22.159  1.00  0.00     0.031 C 
ATOM     95  C   UNL A   1      28.067  30.510  21.264  1.00  0.00     0.160 C 
ENDBRANCH  90  91
ENDBRANCH  89  90
ENDBRANCH  88  89
ENDBRANCH  86  88
ENDBRANCH  81  83
ENDBRANCH  75  78
ENDBRANCH   1  74
TORSDOF 16
ENDMDL
MODEL 3
REMARK VINA RESULT:     -12.1      5.436     11.435
REMARK SMILES O=C(NCCCCNC(=O)c1cn(C2C[NH+](CCC[C@@H]3CCCO3)C2)nn1)c1ccc(-c2c3nc(c(-c4c(F)c(F)c(F)c(F)c4F)c4ccc([nH]4)c(-c4c(F)c(F)c(F)c(F)c4F)c4nc(c(-c5c(F)c(F)c(F)c(F)c5F)c5ccc2[nH]5)C=C4)C=C3)cc1
REMARK SMILES IDX 7 1 6 2 5 3 4 4 3 5 1 6 2 7 28 9 29 10 90 11 30 12 89 13
REMARK SMILES IDX 31 14 32 15 33 16 83 17 34 18 88 19 82 20 84 21 35 22 87 23
REMARK SMILES IDX 81 24 80 25 36 27 68 28 48 29 67 30 49 31 52 32 66 33 85 34
REMARK SMILES IDX 50 35 51 36 65 38 86 39 53 40 37 41 38 42 46 43 39 44 40 45
REMARK SMILES IDX 44 46 47 47 41 48 42 49 45 50 43 51 69 52 70 53 78 54 71 55
REMARK SMILES IDX 72 56 76 57 79 58 73 59 74 60 77 61 75 62 54 63 55 64 63 65
REMARK SMILES IDX 56 66 57 67 61 68 64 69 58 70 59 71 62 72 60 73 8 74 9 75
REMARK SMILES IDX 10 77 11 78 12 79 27 80 13 81 26 82 14 83 15 84 25 85 16 86
REMARK SMILES IDX 17 88 18 89 19 90 20 91 21 92 24 93 22 94 23 95
REMARK H PARENT 3 8 84 26 52 37 8 76 16 87
REMARK Flexibility Score: inf
ROOT
ATOM      1  C   UNL A   1      42.799  18.666  26.174  1.00  0.00     0.116 C 
ENDROOT
BRANCH   1   2
ATOM      2  C   UNL A   1      42.460  19.228  27.555  1.00  0.00     0.023 C 
BRANCH   2   3
ATOM      3  C   UNL A   1      42.352  20.755  27.648  1.00  0.00     0.023 C 
BRANCH   3   4
ATOM      4  C   UNL A   1      41.894  21.457  26.369  1.00  0.00     0.116 C 
BRANCH   4   5
ATOM      5  N   UNL A   1      40.465  21.668  26.290  1.00  0.00    -0.352 N 
ATOM      6  O   UNL A   1      38.475  22.592  26.090  1.00  0.00    -0.269 OA
ATOM      7  C   UNL A   1      39.644  22.748  26.452  1.00  0.00     0.251 C 
ATOM      8  H   UNL A   1      39.971  20.845  26.069  1.00  0.00     0.163 HD
BRANCH   7   9
ATOM      9  C   UNL A   1      40.025  24.042  27.085  1.00  0.00     0.039 A 
ATOM     10  C   UNL A   1      41.153  24.269  27.875  1.00  0.00     0.014 A 
ATOM     11  C   UNL A   1      39.109  25.097  26.907  1.00  0.00     0.014 A 
ATOM     12  C   UNL A   1      41.310  25.482  28.544  1.00  0.00     0.010 A 
ATOM     13  C   UNL A   1      39.262  26.310  27.566  1.00  0.00     0.010 A 
ATOM     14  C   UNL A   1      40.345  26.486  28.420  1.00  0.00    -0.014 A 
BRANCH  14  15
ATOM     15  C   UNL A   1      40.590  27.770  29.071  1.00  0.00     0.031 A 
ATOM     16  C   UNL A   1      41.698  28.562  28.461  1.00  0.00     0.074 A 
ATOM     17  C   UNL A   1      39.800  28.275  30.044  1.00  0.00     0.049 A 
ATOM     18  N   UNL A   1      42.774  29.006  29.027  1.00  0.00    -0.248 NA
ATOM     19  C   UNL A   1      41.650  28.797  27.008  1.00  0.00     0.031 C 
ATOM     20  C   UNL A   1      38.527  27.743  30.534  1.00  0.00     0.029 A 
ATOM     21  N   UNL A   1      39.930  29.441  30.741  1.00  0.00    -0.354 N 
ATOM     22  C   UNL A   1      43.463  29.718  28.044  1.00  0.00     0.074 A 
ATOM     23  C   UNL A   1      42.800  29.438  26.800  1.00  0.00     0.031 C 
ATOM     24  C   UNL A   1      37.901  28.688  31.274  1.00  0.00     0.029 A 
ATOM     25  C   UNL A   1      38.781  29.837  31.416  1.00  0.00     0.049 A 
ATOM     26  H   UNL A   1      40.766  29.959  30.764  1.00  0.00     0.167 HD
ATOM     27  C   UNL A   1      44.389  30.661  28.375  1.00  0.00     0.037 A 
ATOM     28  C   UNL A   1      38.548  31.043  31.995  1.00  0.00     0.037 A 
ATOM     29  C   UNL A   1      44.893  30.441  29.707  1.00  0.00     0.049 A 
ATOM     30  C   UNL A   1      39.860  31.705  32.200  1.00  0.00     0.074 A 
ATOM     31  C   UNL A   1      45.576  29.419  30.336  1.00  0.00     0.029 A 
ATOM     32  N   UNL A   1      44.420  31.238  30.717  1.00  0.00    -0.354 N 
ATOM     33  N   UNL A   1      40.754  31.297  33.054  1.00  0.00    -0.248 NA
ATOM     34  C   UNL A   1      40.352  32.562  31.134  1.00  0.00     0.031 C 
ATOM     35  C   UNL A   1      45.052  29.386  31.662  1.00  0.00     0.029 A 
ATOM     36  C   UNL A   1      44.129  30.425  31.778  1.00  0.00     0.049 A 
ATOM     37  H   UNL A   1      44.309  32.217  30.686  1.00  0.00     0.167 HD
ATOM     38  C   UNL A   1      41.963  31.466  32.396  1.00  0.00     0.074 A 
ATOM     39  C   UNL A   1      41.660  32.327  31.256  1.00  0.00     0.031 C 
ATOM     40  C   UNL A   1      43.029  30.663  32.678  1.00  0.00     0.037 A 
BRANCH  27  41
ATOM     41  C   UNL A   1      44.522  32.003  27.678  1.00  0.00     0.064 A 
ATOM     42  C   UNL A   1      45.639  32.220  26.842  1.00  0.00     0.173 A 
ATOM     43  C   UNL A   1      43.818  33.168  28.054  1.00  0.00     0.173 A 
ATOM     44  F   UNL A   1      46.376  31.190  26.400  1.00  0.00    -0.203 F 
ATOM     45  C   UNL A   1      46.096  33.505  26.535  1.00  0.00     0.198 A 
ATOM     46  C   UNL A   1      44.251  34.447  27.705  1.00  0.00     0.198 A 
ATOM     47  F   UNL A   1      42.750  33.137  28.856  1.00  0.00    -0.203 F 
ATOM     48  F   UNL A   1      47.252  33.658  25.873  1.00  0.00    -0.200 F 
ATOM     49  C   UNL A   1      45.414  34.617  26.985  1.00  0.00     0.200 A 
ATOM     50  F   UNL A   1      43.577  35.514  28.154  1.00  0.00    -0.200 F 
ATOM     51  F   UNL A   1      45.895  35.848  26.767  1.00  0.00    -0.200 F 
ENDBRANCH  27  41
BRANCH  28  52
ATOM     52  C   UNL A   1      37.273  31.800  32.084  1.00  0.00     0.064 A 
ATOM     53  C   UNL A   1      36.714  32.151  33.326  1.00  0.00     0.173 A 
ATOM     54  C   UNL A   1      36.732  32.445  30.955  1.00  0.00     0.173 A 
ATOM     55  F   UNL A   1      37.204  31.625  34.458  1.00  0.00    -0.203 F 
ATOM     56  C   UNL A   1      35.694  33.104  33.431  1.00  0.00     0.198 A 
ATOM     57  C   UNL A   1      35.711  33.390  31.060  1.00  0.00     0.198 A 
ATOM     58  F   UNL A   1      37.253  32.244  29.735  1.00  0.00    -0.203 F 
ATOM     59  F   UNL A   1      35.231  33.459  34.638  1.00  0.00    -0.200 F 
ATOM     60  C   UNL A   1      35.199  33.729  32.299  1.00  0.00     0.200 A 
ATOM     61  F   UNL A   1      35.271  34.017  29.960  1.00  0.00    -0.200 F 
ATOM     62  F   UNL A   1      34.268  34.686  32.403  1.00  0.00    -0.200 F 
ENDBRANCH  28  52
BRANCH  40  63
ATOM     63  C   UNL A   1      42.947  29.788  33.895  1.00  0.00     0.064 A 
ATOM     64  C   UNL A   1      43.304  30.205  35.189  1.00  0.00     0.173 A 
ATOM     65  C   UNL A   1      42.348  28.530  33.763  1.00  0.00     0.173 A 
ATOM     66  F   UNL A   1      43.789  31.433  35.412  1.00  0.00    -0.203 F 
ATOM     67  C   UNL A   1      43.107  29.376  36.292  1.00  0.00     0.198 A 
ATOM     68  C   UNL A   1      42.118  27.720  34.871  1.00  0.00     0.198 A 
ATOM     69  F   UNL A   1      41.937  28.104  32.558  1.00  0.00    -0.203 F 
ATOM     70  F   UNL A   1      43.464  29.790  37.517  1.00  0.00    -0.200 F 
ATOM     71  C   UNL A   1      42.507  28.138  36.133  1.00  0.00     0.200 A 
ATOM     72  F   UNL A   1      41.491  26.545  34.717  1.00  0.00    -0.200 F 
ATOM     73  F   UNL A   1      42.276  27.359  37.199  1.00  0.00    -0.200 F 
ENDBRANCH  40  63
ENDBRANCH  14  15
ENDBRANCH   7   9
ENDBRANCH   4   5
ENDBRANCH   3   4
ENDBRANCH   2   3
ENDBRANCH   1   2
BRANCH   1  74
ATOM     74  N   UNL A   1      44.123  18.069  26.126  1.00  0.00    -0.351 N 
ATOM     75  C   UNL A   1      45.244  18.476  25.442  1.00  0.00     0.273 C 
ATOM     76  H   UNL A   1      44.234  17.252  26.664  1.00  0.00     0.163 HD
ATOM     77  O   UNL A   1      46.214  17.717  25.404  1.00  0.00    -0.267 OA
BRANCH  75  78
ATOM     78  C   UNL A   1      45.239  19.767  24.783  1.00  0.00     0.170 A 
ATOM     79  C   UNL A   1      45.982  20.896  25.079  1.00  0.00     0.145 A 
ATOM     80  N   UNL A   1      44.428  20.039  23.712  1.00  0.00    -0.125 NA
ATOM     81  N   UNL A   1      45.455  21.855  24.264  1.00  0.00    -0.237 N 
ATOM     82  N   UNL A   1      44.566  21.319  23.405  1.00  0.00    -0.066 NA
BRANCH  81  83
ATOM     83  C   UNL A   1      45.508  23.273  24.416  1.00  0.00     0.218 C 
ATOM     84  C   UNL A   1      44.147  23.908  24.834  1.00  0.00     0.295 C 
ATOM     85  C   UNL A   1      46.000  23.847  25.755  1.00  0.00     0.295 C 
ATOM     86  N   UNL A   1      44.878  24.819  25.722  1.00  0.00    -0.331 N 
ATOM     87  H   UNL A   1      44.468  25.158  26.592  1.00  0.00     0.348 HD
BRANCH  86  88
ATOM     88  C   UNL A   1      45.190  26.129  25.117  1.00  0.00     0.262 C 
BRANCH  88  89
ATOM     89  C   UNL A   1      45.644  27.382  25.904  1.00  0.00     0.064 C 
BRANCH  89  90
ATOM     90  C   UNL A   1      46.745  27.243  26.971  1.00  0.00     0.038 C 
BRANCH  90  91
ATOM     91  C   UNL A   1      46.254  27.111  28.410  1.00  0.00     0.118 C 
ATOM     92  C   UNL A   1      47.176  26.218  29.240  1.00  0.00     0.034 C 
ATOM     93  O   UNL A   1      44.955  26.497  28.415  1.00  0.00    -0.378 OA
ATOM     94  C   UNL A   1      46.209  25.478  30.124  1.00  0.00     0.031 C 
ATOM     95  C   UNL A   1      45.034  25.295  29.193  1.00  0.00     0.160 C 
ENDBRANCH  90  91
ENDBRANCH  89  90
ENDBRANCH  88  89
ENDBRANCH  86  88
ENDBRANCH  81  83
ENDBRANCH  75  78
ENDBRANCH   1  74
TORSDOF 16
ENDMDL
