MODEL 1
REMARK VINA RESULT:     -10.0      0.000      0.000
REMARK SMILES N#C[C@@H](c1ccccc1)[C@H](CC(=O)NCCCCNC(=O)c1ccc(-c2c3nc(c(-c4c(F)c(F)c(F)c(F)c4F)c4ccc([nH]4)c(-c4c(F)c(F)c(F)c(F)c4F)c4nc(c(-c5c(F)c(F)c(F)c(F)c5F)c5ccc2[nH]5)C=C4)C=C3)cc1)c1ccccc1
REMARK SMILES IDX 16 1 15 2 14 3 12 4 13 5 11 7 10 8 3 9 2 10 1 11 4 12 5 13
REMARK SMILES IDX 9 14 6 15 8 16 7 17 85 18 86 19 90 20 87 21 89 22 88 23
REMARK SMILES IDX 17 24 18 25 19 26 20 27 21 29 22 30 23 31 84 32 24 33 83 34
REMARK SMILES IDX 25 35 26 36 27 37 77 38 28 39 82 40 76 41 78 42 29 43 81 44
REMARK SMILES IDX 75 45 74 46 30 48 62 49 42 50 61 51 43 52 46 53 60 54 79 55
REMARK SMILES IDX 44 56 45 57 59 59 80 60 47 61 31 62 32 63 40 64 33 65 34 66
REMARK SMILES IDX 38 67 41 68 35 69 36 70 39 71 37 72 63 73 64 74 72 75 65 76
REMARK SMILES IDX 66 77 70 78 73 79 67 80 68 81 71 82 69 83 48 84 49 85 57 86
REMARK SMILES IDX 50 87 51 88 55 89 58 90 52 91 53 92 56 93 54 94
REMARK H PARENT 14 6 19 28 78 47 46 58
REMARK Flexibility Score: inf
ROOT
ATOM      1  C   UNL A   1      42.590  21.166  26.300  1.00  0.00     0.023 C 
ENDROOT
BRANCH   1   2
ATOM      2  C   UNL A   1      42.570  22.301  25.292  1.00  0.00     0.116 C 
BRANCH   2   3
ATOM      3  N   UNL A   1      43.772  22.364  24.487  1.00  0.00    -0.356 N 
ATOM      4  C   UNL A   1      44.663  23.380  24.347  1.00  0.00     0.220 C 
ATOM      5  O   UNL A   1      45.702  23.172  23.721  1.00  0.00    -0.275 OA
ATOM      6  H   UNL A   1      43.972  21.554  23.965  1.00  0.00     0.163 HD
BRANCH   4   7
ATOM      7  C   UNL A   1      44.416  24.724  24.995  1.00  0.00     0.110 C 
BRANCH   7   8
ATOM      8  C   UNL A   1      45.269  25.044  26.250  1.00  0.00     0.050 C 
BRANCH   8   9
ATOM      9  C   UNL A   1      45.921  26.472  26.237  1.00  0.00     0.130 C 
BRANCH   9  10
ATOM     10  C   UNL A   1      46.566  26.829  24.907  1.00  0.00     0.071 C 
ATOM     11  N   UNL A   1      47.101  27.125  23.805  1.00  0.00    -0.198 NA
ENDBRANCH   9  10
BRANCH   9  12
ATOM     12  C   UNL A   1      44.899  27.588  26.568  1.00  0.00    -0.030 A 
ATOM     13  C   UNL A   1      43.680  27.731  25.874  1.00  0.00     0.005 A 
ATOM     14  C   UNL A   1      45.203  28.560  27.532  1.00  0.00     0.005 A 
ATOM     15  C   UNL A   1      42.787  28.768  26.148  1.00  0.00     0.000 A 
ATOM     16  C   UNL A   1      44.314  29.612  27.798  1.00  0.00     0.000 A 
ATOM     17  C   UNL A   1      43.106  29.713  27.111  1.00  0.00     0.000 A 
ENDBRANCH   9  12
ENDBRANCH   8   9
BRANCH   8  18
ATOM     18  C   UNL A   1      44.632  24.516  27.548  1.00  0.00    -0.043 A 
ATOM     19  C   UNL A   1      43.227  24.490  27.646  1.00  0.00     0.004 A 
ATOM     20  C   UNL A   1      45.355  24.036  28.653  1.00  0.00     0.004 A 
ATOM     21  C   UNL A   1      42.583  23.993  28.787  1.00  0.00     0.000 A 
ATOM     22  C   UNL A   1      44.712  23.495  29.774  1.00  0.00     0.000 A 
ATOM     23  C   UNL A   1      43.326  23.485  29.847  1.00  0.00     0.000 A 
ENDBRANCH   8  18
ENDBRANCH   7   8
ENDBRANCH   4   7
ENDBRANCH   2   3
ENDBRANCH   1   2
BRANCH   1  24
ATOM     24  C   UNL A   1      41.197  20.736  26.762  1.00  0.00     0.023 C 
BRANCH  24  25
ATOM     25  C   UNL A   1      40.423  21.911  27.310  1.00  0.00     0.116 C 
BRANCH  25  26
ATOM     26  N   UNL A   1      39.277  22.294  26.495  1.00  0.00    -0.352 N 
ATOM     27  C   UNL A   1      38.684  23.531  26.395  1.00  0.00     0.251 C 
ATOM     28  H   UNL A   1      38.879  21.579  25.949  1.00  0.00     0.163 HD
ATOM     29  O   UNL A   1      37.685  23.692  25.700  1.00  0.00    -0.269 OA
BRANCH  27  30
ATOM     30  C   UNL A   1      39.220  24.651  27.202  1.00  0.00     0.039 A 
ATOM     31  C   UNL A   1      39.945  25.662  26.570  1.00  0.00     0.014 A 
ATOM     32  C   UNL A   1      38.935  24.751  28.563  1.00  0.00     0.014 A 
ATOM     33  C   UNL A   1      40.317  26.798  27.291  1.00  0.00     0.010 A 
ATOM     34  C   UNL A   1      39.154  25.943  29.231  1.00  0.00     0.010 A 
ATOM     35  C   UNL A   1      39.886  26.964  28.617  1.00  0.00    -0.014 A 
BRANCH  35  36
ATOM     36  C   UNL A   1      40.254  28.151  29.425  1.00  0.00     0.031 A 
ATOM     37  C   UNL A   1      41.621  28.214  30.055  1.00  0.00     0.074 A 
ATOM     38  C   UNL A   1      39.345  29.116  29.654  1.00  0.00     0.049 A 
ATOM     39  N   UNL A   1      42.115  29.099  30.883  1.00  0.00    -0.248 NA
ATOM     40  C   UNL A   1      42.539  27.098  29.765  1.00  0.00     0.031 C 
ATOM     41  C   UNL A   1      37.963  29.118  29.170  1.00  0.00     0.029 A 
ATOM     42  N   UNL A   1      39.450  30.287  30.359  1.00  0.00    -0.354 N 
ATOM     43  C   UNL A   1      43.371  28.621  31.236  1.00  0.00     0.074 A 
ATOM     44  C   UNL A   1      43.529  27.330  30.609  1.00  0.00     0.031 C 
ATOM     45  C   UNL A   1      37.364  30.258  29.551  1.00  0.00     0.029 A 
ATOM     46  C   UNL A   1      38.309  31.050  30.332  1.00  0.00     0.049 A 
ATOM     47  H   UNL A   1      40.266  30.554  30.842  1.00  0.00     0.167 HD
ATOM     48  C   UNL A   1      44.329  29.225  31.977  1.00  0.00     0.037 A 
ATOM     49  C   UNL A   1      38.067  32.260  30.867  1.00  0.00     0.037 A 
ATOM     50  C   UNL A   1      44.188  30.544  32.528  1.00  0.00     0.049 A 
ATOM     51  C   UNL A   1      39.175  32.949  31.619  1.00  0.00     0.074 A 
ATOM     52  C   UNL A   1      45.115  31.294  33.227  1.00  0.00     0.029 A 
ATOM     53  N   UNL A   1      43.042  31.319  32.419  1.00  0.00    -0.354 N 
ATOM     54  N   UNL A   1      40.385  32.520  31.889  1.00  0.00    -0.248 NA
ATOM     55  C   UNL A   1      38.888  34.297  32.126  1.00  0.00     0.031 C 
ATOM     56  C   UNL A   1      44.519  32.516  33.563  1.00  0.00     0.029 A 
ATOM     57  C   UNL A   1      43.236  32.540  33.038  1.00  0.00     0.049 A 
ATOM     58  H   UNL A   1      42.212  31.039  31.967  1.00  0.00     0.167 HD
ATOM     59  C   UNL A   1      41.013  33.552  32.572  1.00  0.00     0.074 A 
ATOM     60  C   UNL A   1      40.055  34.637  32.654  1.00  0.00     0.031 C 
ATOM     61  C   UNL A   1      42.265  33.601  33.091  1.00  0.00     0.037 A 
BRANCH  48  62
ATOM     62  C   UNL A   1      45.611  28.473  32.198  1.00  0.00     0.064 A 
ATOM     63  C   UNL A   1      45.767  27.582  33.272  1.00  0.00     0.173 A 
ATOM     64  C   UNL A   1      46.699  28.648  31.331  1.00  0.00     0.173 A 
ATOM     65  F   UNL A   1      44.765  27.391  34.143  1.00  0.00    -0.203 F 
ATOM     66  C   UNL A   1      46.977  26.930  33.496  1.00  0.00     0.198 A 
ATOM     67  C   UNL A   1      47.896  27.965  31.537  1.00  0.00     0.198 A 
ATOM     68  F   UNL A   1      46.606  29.486  30.288  1.00  0.00    -0.203 F 
ATOM     69  F   UNL A   1      47.123  26.141  34.569  1.00  0.00    -0.200 F 
ATOM     70  C   UNL A   1      48.038  27.117  32.624  1.00  0.00     0.200 A 
ATOM     71  F   UNL A   1      48.919  28.140  30.688  1.00  0.00    -0.200 F 
ATOM     72  F   UNL A   1      49.202  26.489  32.840  1.00  0.00    -0.200 F 
ENDBRANCH  48  62
BRANCH  49  73
ATOM     73  C   UNL A   1      36.754  32.924  30.654  1.00  0.00     0.064 A 
ATOM     74  C   UNL A   1      36.446  33.520  29.424  1.00  0.00     0.173 A 
ATOM     75  C   UNL A   1      35.785  32.978  31.665  1.00  0.00     0.173 A 
ATOM     76  F   UNL A   1      37.347  33.509  28.430  1.00  0.00    -0.203 F 
ATOM     77  C   UNL A   1      35.230  34.171  29.221  1.00  0.00     0.198 A 
ATOM     78  C   UNL A   1      34.558  33.604  31.453  1.00  0.00     0.198 A 
ATOM     79  F   UNL A   1      36.026  32.413  32.857  1.00  0.00    -0.203 F 
ATOM     80  F   UNL A   1      34.982  34.774  28.051  1.00  0.00    -0.200 F 
ATOM     81  C   UNL A   1      34.285  34.208  30.235  1.00  0.00     0.200 A 
ATOM     82  F   UNL A   1      33.641  33.625  32.430  1.00  0.00    -0.200 F 
ATOM     83  F   UNL A   1      33.116  34.831  30.040  1.00  0.00    -0.200 F 
ENDBRANCH  49  73
BRANCH  61  84
ATOM     84  C   UNL A   1      42.673  34.881  33.758  1.00  0.00     0.064 A 
ATOM     85  C   UNL A   1      43.176  35.964  33.023  1.00  0.00     0.173 A 
ATOM     86  C   UNL A   1      42.533  35.031  35.146  1.00  0.00     0.173 A 
ATOM     87  F   UNL A   1      43.340  35.861  31.695  1.00  0.00    -0.203 F 
ATOM     88  C   UNL A   1      43.556  37.142  33.659  1.00  0.00     0.198 A 
ATOM     89  C   UNL A   1      42.884  36.222  35.773  1.00  0.00     0.198 A 
ATOM     90  F   UNL A   1      42.046  34.027  35.890  1.00  0.00    -0.203 F 
ATOM     91  F   UNL A   1      44.086  38.144  32.946  1.00  0.00    -0.200 F 
ATOM     92  C   UNL A   1      43.405  37.271  35.032  1.00  0.00     0.200 A 
ATOM     93  F   UNL A   1      42.724  36.352  37.098  1.00  0.00    -0.200 F 
ATOM     94  F   UNL A   1      43.770  38.408  35.642  1.00  0.00    -0.200 F 
ENDBRANCH  61  84
ENDBRANCH  35  36
ENDBRANCH  27  30
ENDBRANCH  25  26
ENDBRANCH  24  25
ENDBRANCH   1  24
TORSDOF 16
ENDMDL
MODEL 2
REMARK VINA RESULT:      -9.8      5.374     10.148
REMARK SMILES N#C[C@@H](c1ccccc1)[C@H](CC(=O)NCCCCNC(=O)c1ccc(-c2c3nc(c(-c4c(F)c(F)c(F)c(F)c4F)c4ccc([nH]4)c(-c4c(F)c(F)c(F)c(F)c4F)c4nc(c(-c5c(F)c(F)c(F)c(F)c5F)c5ccc2[nH]5)C=C4)C=C3)cc1)c1ccccc1
REMARK SMILES IDX 16 1 15 2 14 3 12 4 13 5 11 7 10 8 3 9 2 10 1 11 4 12 5 13
REMARK SMILES IDX 9 14 6 15 8 16 7 17 85 18 86 19 90 20 87 21 89 22 88 23
REMARK SMILES IDX 17 24 18 25 19 26 20 27 21 29 22 30 23 31 84 32 24 33 83 34
REMARK SMILES IDX 25 35 26 36 27 37 77 38 28 39 82 40 76 41 78 42 29 43 81 44
REMARK SMILES IDX 75 45 74 46 30 48 62 49 42 50 61 51 43 52 46 53 60 54 79 55
REMARK SMILES IDX 44 56 45 57 59 59 80 60 47 61 31 62 32 63 40 64 33 65 34 66
REMARK SMILES IDX 38 67 41 68 35 69 36 70 39 71 37 72 63 73 64 74 72 75 65 76
REMARK SMILES IDX 66 77 70 78 73 79 67 80 68 81 71 82 69 83 48 84 49 85 57 86
REMARK SMILES IDX 50 87 51 88 55 89 58 90 52 91 53 92 56 93 54 94
REMARK H PARENT 14 6 19 28 78 47 46 58
REMARK Flexibility Score: inf
ROOT
ATOM      1  C   UNL A   1      31.343  30.754  25.585  1.00  0.00     0.023 C 
ENDROOT
BRANCH   1   2
ATOM      2  C   UNL A   1      32.515  29.831  25.867  1.00  0.00     0.116 C 
BRANCH   2   3
ATOM      3  N   UNL A   1      33.402  29.679  24.731  1.00  0.00    -0.356 N 
ATOM      4  C   UNL A   1      33.383  28.750  23.741  1.00  0.00     0.220 C 
ATOM      5  O   UNL A   1      34.146  28.889  22.785  1.00  0.00    -0.275 OA
ATOM      6  H   UNL A   1      34.123  30.346  24.669  1.00  0.00     0.163 HD
BRANCH   4   7
ATOM      7  C   UNL A   1      32.404  27.598  23.777  1.00  0.00     0.110 C 
BRANCH   7   8
ATOM      8  C   UNL A   1      31.492  27.437  22.533  1.00  0.00     0.050 C 
BRANCH   8   9
ATOM      9  C   UNL A   1      31.410  25.970  21.982  1.00  0.00     0.130 C 
BRANCH   9  10
ATOM     10  C   UNL A   1      32.315  25.721  20.787  1.00  0.00     0.071 C 
ATOM     11  N   UNL A   1      33.067  25.515  19.796  1.00  0.00    -0.198 NA
ENDBRANCH   9  10
BRANCH   9  12
ATOM     12  C   UNL A   1      31.769  24.916  23.059  1.00  0.00    -0.030 A 
ATOM     13  C   UNL A   1      33.090  24.477  23.280  1.00  0.00     0.005 A 
ATOM     14  C   UNL A   1      30.756  24.293  23.803  1.00  0.00     0.005 A 
ATOM     15  C   UNL A   1      33.398  23.492  24.220  1.00  0.00     0.000 A 
ATOM     16  C   UNL A   1      31.061  23.292  24.737  1.00  0.00     0.000 A 
ATOM     17  C   UNL A   1      32.380  22.897  24.950  1.00  0.00     0.000 A 
ENDBRANCH   9  12
ENDBRANCH   8   9
BRANCH   8  18
ATOM     18  C   UNL A   1      30.208  28.281  22.629  1.00  0.00    -0.043 A 
ATOM     19  C   UNL A   1      30.224  29.592  22.113  1.00  0.00     0.004 A 
ATOM     20  C   UNL A   1      28.999  27.832  23.185  1.00  0.00     0.004 A 
ATOM     21  C   UNL A   1      29.081  30.402  22.141  1.00  0.00     0.000 A 
ATOM     22  C   UNL A   1      27.843  28.624  23.169  1.00  0.00     0.000 A 
ATOM     23  C   UNL A   1      27.887  29.914  22.659  1.00  0.00     0.000 A 
ENDBRANCH   8  18
ENDBRANCH   7   8
ENDBRANCH   4   7
ENDBRANCH   2   3
ENDBRANCH   1   2
BRANCH   1  24
ATOM     24  C   UNL A   1      31.139  31.824  26.658  1.00  0.00     0.023 C 
BRANCH  24  25
ATOM     25  C   UNL A   1      32.421  32.577  26.919  1.00  0.00     0.116 C 
BRANCH  25  26
ATOM     26  N   UNL A   1      32.219  33.916  27.458  1.00  0.00    -0.352 N 
ATOM     27  C   UNL A   1      32.998  34.589  28.371  1.00  0.00     0.251 C 
ATOM     28  H   UNL A   1      31.428  34.399  27.127  1.00  0.00     0.163 HD
ATOM     29  O   UNL A   1      32.671  35.703  28.772  1.00  0.00    -0.269 OA
BRANCH  27  30
ATOM     30  C   UNL A   1      34.195  33.918  28.926  1.00  0.00     0.039 A 
ATOM     31  C   UNL A   1      35.449  34.504  28.749  1.00  0.00     0.014 A 
ATOM     32  C   UNL A   1      34.074  32.759  29.693  1.00  0.00     0.014 A 
ATOM     33  C   UNL A   1      36.560  33.965  29.401  1.00  0.00     0.010 A 
ATOM     34  C   UNL A   1      35.136  32.328  30.468  1.00  0.00     0.010 A 
ATOM     35  C   UNL A   1      36.401  32.897  30.299  1.00  0.00    -0.014 A 
BRANCH  35  36
ATOM     36  C   UNL A   1      37.548  32.289  31.015  1.00  0.00     0.031 A 
ATOM     37  C   UNL A   1      38.334  31.192  30.344  1.00  0.00     0.074 A 
ATOM     38  C   UNL A   1      37.827  32.663  32.277  1.00  0.00     0.049 A 
ATOM     39  N   UNL A   1      39.300  30.450  30.821  1.00  0.00    -0.248 NA
ATOM     40  C   UNL A   1      37.938  30.837  28.970  1.00  0.00     0.031 C 
ATOM     41  C   UNL A   1      37.079  33.650  33.059  1.00  0.00     0.029 A 
ATOM     42  N   UNL A   1      38.818  32.249  33.128  1.00  0.00    -0.354 N 
ATOM     43  C   UNL A   1      39.589  29.526  29.826  1.00  0.00     0.074 A 
ATOM     44  C   UNL A   1      38.641  29.737  28.757  1.00  0.00     0.031 C 
ATOM     45  C   UNL A   1      37.669  33.802  34.256  1.00  0.00     0.029 A 
ATOM     46  C   UNL A   1      38.813  32.900  34.337  1.00  0.00     0.049 A 
ATOM     47  H   UNL A   1      39.472  31.550  32.896  1.00  0.00     0.167 HD
ATOM     48  C   UNL A   1      40.587  28.613  29.782  1.00  0.00     0.037 A 
ATOM     49  C   UNL A   1      39.652  32.785  35.383  1.00  0.00     0.037 A 
ATOM     50  C   UNL A   1      41.572  28.467  30.818  1.00  0.00     0.049 A 
ATOM     51  C   UNL A   1      40.803  31.821  35.279  1.00  0.00     0.074 A 
ATOM     52  C   UNL A   1      42.676  27.636  30.853  1.00  0.00     0.029 A 
ATOM     53  N   UNL A   1      41.577  29.196  31.999  1.00  0.00    -0.354 N 
ATOM     54  N   UNL A   1      41.112  31.000  34.304  1.00  0.00    -0.248 NA
ATOM     55  C   UNL A   1      41.732  31.780  36.416  1.00  0.00     0.031 C 
ATOM     56  C   UNL A   1      43.336  27.844  32.070  1.00  0.00     0.029 A 
ATOM     57  C   UNL A   1      42.665  28.833  32.773  1.00  0.00     0.049 A 
ATOM     58  H   UNL A   1      40.904  29.871  32.250  1.00  0.00     0.167 HD
ATOM     59  C   UNL A   1      42.282  30.365  34.694  1.00  0.00     0.074 A 
ATOM     60  C   UNL A   1      42.640  30.914  35.987  1.00  0.00     0.031 C 
ATOM     61  C   UNL A   1      42.997  29.410  34.049  1.00  0.00     0.037 A 
BRANCH  48  62
ATOM     62  C   UNL A   1      40.671  27.735  28.565  1.00  0.00     0.064 A 
ATOM     63  C   UNL A   1      41.408  28.116  27.431  1.00  0.00     0.173 A 
ATOM     64  C   UNL A   1      40.004  26.503  28.527  1.00  0.00     0.173 A 
ATOM     65  F   UNL A   1      42.049  29.294  27.407  1.00  0.00    -0.203 F 
ATOM     66  C   UNL A   1      41.436  27.318  26.291  1.00  0.00     0.198 A 
ATOM     67  C   UNL A   1      40.066  25.689  27.397  1.00  0.00     0.198 A 
ATOM     68  F   UNL A   1      39.286  26.087  29.581  1.00  0.00    -0.203 F 
ATOM     69  F   UNL A   1      42.087  27.738  25.197  1.00  0.00    -0.200 F 
ATOM     70  C   UNL A   1      40.771  26.102  26.277  1.00  0.00     0.200 A 
ATOM     71  F   UNL A   1      39.429  24.509  27.389  1.00  0.00    -0.200 F 
ATOM     72  F   UNL A   1      40.799  25.334  25.179  1.00  0.00    -0.200 F 
ENDBRANCH  48  62
BRANCH  49  73
ATOM     73  C   UNL A   1      39.478  33.649  36.580  1.00  0.00     0.064 A 
ATOM     74  C   UNL A   1      38.761  33.190  37.694  1.00  0.00     0.173 A 
ATOM     75  C   UNL A   1      40.019  34.940  36.640  1.00  0.00     0.173 A 
ATOM     76  F   UNL A   1      38.210  31.967  37.678  1.00  0.00    -0.203 F 
ATOM     77  C   UNL A   1      38.566  34.001  38.810  1.00  0.00     0.198 A 
ATOM     78  C   UNL A   1      39.848  35.740  37.768  1.00  0.00     0.198 A 
ATOM     79  F   UNL A   1      40.723  35.422  35.606  1.00  0.00    -0.203 F 
ATOM     80  F   UNL A   1      37.834  33.555  39.841  1.00  0.00    -0.200 F 
ATOM     81  C   UNL A   1      39.114  35.274  38.849  1.00  0.00     0.200 A 
ATOM     82  F   UNL A   1      40.391  36.965  37.808  1.00  0.00    -0.200 F 
ATOM     83  F   UNL A   1      38.928  36.053  39.923  1.00  0.00    -0.200 F 
ENDBRANCH  49  73
BRANCH  61  84
ATOM     84  C   UNL A   1      44.250  28.931  34.720  1.00  0.00     0.064 A 
ATOM     85  C   UNL A   1      45.482  29.566  34.512  1.00  0.00     0.173 A 
ATOM     86  C   UNL A   1      44.209  27.839  35.601  1.00  0.00     0.173 A 
ATOM     87  F   UNL A   1      45.572  30.606  33.669  1.00  0.00    -0.203 F 
ATOM     88  C   UNL A   1      46.637  29.106  35.138  1.00  0.00     0.198 A 
ATOM     89  C   UNL A   1      45.360  27.402  36.248  1.00  0.00     0.198 A 
ATOM     90  F   UNL A   1      43.051  27.205  35.839  1.00  0.00    -0.203 F 
ATOM     91  F   UNL A   1      47.814  29.693  34.883  1.00  0.00    -0.200 F 
ATOM     92  C   UNL A   1      46.573  28.028  36.008  1.00  0.00     0.200 A 
ATOM     93  F   UNL A   1      45.295  26.369  37.101  1.00  0.00    -0.200 F 
ATOM     94  F   UNL A   1      47.686  27.587  36.611  1.00  0.00    -0.200 F 
ENDBRANCH  61  84
ENDBRANCH  35  36
ENDBRANCH  27  30
ENDBRANCH  25  26
ENDBRANCH  24  25
ENDBRANCH   1  24
TORSDOF 16
ENDMDL
MODEL 3
REMARK VINA RESULT:      -9.8      4.489     10.223
REMARK SMILES N#C[C@@H](c1ccccc1)[C@H](CC(=O)NCCCCNC(=O)c1ccc(-c2c3nc(c(-c4c(F)c(F)c(F)c(F)c4F)c4ccc([nH]4)c(-c4c(F)c(F)c(F)c(F)c4F)c4nc(c(-c5c(F)c(F)c(F)c(F)c5F)c5ccc2[nH]5)C=C4)C=C3)cc1)c1ccccc1
REMARK SMILES IDX 16 1 15 2 14 3 12 4 13 5 11 7 10 8 3 9 2 10 1 11 4 12 5 13
REMARK SMILES IDX 9 14 6 15 8 16 7 17 85 18 86 19 90 20 87 21 89 22 88 23
REMARK SMILES IDX 17 24 18 25 19 26 20 27 21 29 22 30 23 31 84 32 24 33 83 34
REMARK SMILES IDX 25 35 26 36 27 37 77 38 28 39 82 40 76 41 78 42 29 43 81 44
REMARK SMILES IDX 75 45 74 46 30 48 62 49 42 50 61 51 43 52 46 53 60 54 79 55
REMARK SMILES IDX 44 56 45 57 59 59 80 60 47 61 31 62 32 63 40 64 33 65 34 66
REMARK SMILES IDX 38 67 41 68 35 69 36 70 39 71 37 72 63 73 64 74 72 75 65 76
REMARK SMILES IDX 66 77 70 78 73 79 67 80 68 81 71 82 69 83 48 84 49 85 57 86
REMARK SMILES IDX 50 87 51 88 55 89 58 90 52 91 53 92 56 93 54 94
REMARK H PARENT 14 6 19 28 78 47 46 58
REMARK Flexibility Score: inf
ROOT
ATOM      1  C   UNL A   1      31.838  27.292  26.222  1.00  0.00     0.023 C 
ENDROOT
BRANCH   1   2
ATOM      2  C   UNL A   1      31.358  26.080  25.443  1.00  0.00     0.116 C 
BRANCH   2   3
ATOM      3  N   UNL A   1      30.999  24.965  26.294  1.00  0.00    -0.356 N 
ATOM      4  C   UNL A   1      31.791  24.000  26.830  1.00  0.00     0.220 C 
ATOM      5  O   UNL A   1      31.302  23.222  27.650  1.00  0.00    -0.275 OA
ATOM      6  H   UNL A   1      30.043  24.896  26.516  1.00  0.00     0.163 HD
BRANCH   4   7
ATOM      7  C   UNL A   1      33.258  23.914  26.475  1.00  0.00     0.110 C 
BRANCH   7   8
ATOM      8  C   UNL A   1      33.705  22.634  25.723  1.00  0.00     0.050 C 
BRANCH   8   9
ATOM      9  C   UNL A   1      32.799  22.259  24.497  1.00  0.00     0.130 C 
BRANCH   9  10
ATOM     10  C   UNL A   1      33.319  22.799  23.174  1.00  0.00     0.071 C 
ATOM     11  N   UNL A   1      33.749  23.247  22.077  1.00  0.00    -0.198 NA
ENDBRANCH   9  10
BRANCH   9  12
ATOM     12  C   UNL A   1      32.632  20.728  24.335  1.00  0.00    -0.030 A 
ATOM     13  C   UNL A   1      32.825  19.827  25.402  1.00  0.00     0.005 A 
ATOM     14  C   UNL A   1      32.361  20.177  23.074  1.00  0.00     0.005 A 
ATOM     15  C   UNL A   1      32.718  18.445  25.235  1.00  0.00     0.000 A 
ATOM     16  C   UNL A   1      32.268  18.788  22.901  1.00  0.00     0.000 A 
ATOM     17  C   UNL A   1      32.440  17.924  23.981  1.00  0.00     0.000 A 
ENDBRANCH   9  12
ENDBRANCH   8   9
BRANCH   8  18
ATOM     18  C   UNL A   1      35.235  22.531  25.591  1.00  0.00    -0.043 A 
ATOM     19  C   UNL A   1      36.008  23.693  25.787  1.00  0.00     0.004 A 
ATOM     20  C   UNL A   1      35.932  21.346  25.302  1.00  0.00     0.004 A 
ATOM     21  C   UNL A   1      37.407  23.661  25.712  1.00  0.00     0.000 A 
ATOM     22  C   UNL A   1      37.333  21.304  25.275  1.00  0.00     0.000 A 
ATOM     23  C   UNL A   1      38.070  22.464  25.467  1.00  0.00     0.000 A 
ENDBRANCH   8  18
ENDBRANCH   7   8
ENDBRANCH   4   7
ENDBRANCH   2   3
ENDBRANCH   1   2
BRANCH   1  24
ATOM     24  C   UNL A   1      31.910  28.568  25.383  1.00  0.00     0.023 C 
BRANCH  24  25
ATOM     25  C   UNL A   1      33.053  29.446  25.832  1.00  0.00     0.116 C 
BRANCH  25  26
ATOM     26  N   UNL A   1      32.635  30.753  26.321  1.00  0.00    -0.352 N 
ATOM     27  C   UNL A   1      33.307  31.592  27.179  1.00  0.00     0.251 C 
ATOM     28  H   UNL A   1      31.765  31.077  25.995  1.00  0.00     0.163 HD
ATOM     29  O   UNL A   1      32.803  32.650  27.544  1.00  0.00    -0.269 OA
BRANCH  27  30
ATOM     30  C   UNL A   1      34.616  31.163  27.724  1.00  0.00     0.039 A 
ATOM     31  C   UNL A   1      35.597  32.123  27.977  1.00  0.00     0.014 A 
ATOM     32  C   UNL A   1      34.846  29.831  28.065  1.00  0.00     0.014 A 
ATOM     33  C   UNL A   1      36.771  31.751  28.636  1.00  0.00     0.010 A 
ATOM     34  C   UNL A   1      35.926  29.496  28.862  1.00  0.00     0.010 A 
ATOM     35  C   UNL A   1      36.924  30.442  29.119  1.00  0.00    -0.014 A 
BRANCH  35  36
ATOM     36  C   UNL A   1      38.150  29.998  29.823  1.00  0.00     0.031 A 
ATOM     37  C   UNL A   1      38.409  30.487  31.225  1.00  0.00     0.074 A 
ATOM     38  C   UNL A   1      39.055  29.235  29.183  1.00  0.00     0.049 A 
ATOM     39  N   UNL A   1      39.460  30.315  31.985  1.00  0.00    -0.248 NA
ATOM     40  C   UNL A   1      37.371  31.338  31.834  1.00  0.00     0.031 C 
ATOM     41  C   UNL A   1      38.954  28.776  27.795  1.00  0.00     0.029 A 
ATOM     42  N   UNL A   1      40.244  28.711  29.618  1.00  0.00    -0.354 N 
ATOM     43  C   UNL A   1      39.222  31.066  33.129  1.00  0.00     0.074 A 
ATOM     44  C   UNL A   1      37.974  31.766  32.930  1.00  0.00     0.031 C 
ATOM     45  C   UNL A   1      40.011  28.000  27.511  1.00  0.00     0.029 A 
ATOM     46  C   UNL A   1      40.878  27.933  28.682  1.00  0.00     0.049 A 
ATOM     47  H   UNL A   1      40.610  28.879  30.517  1.00  0.00     0.167 HD
ATOM     48  C   UNL A   1      39.951  31.130  34.267  1.00  0.00     0.037 A 
ATOM     49  C   UNL A   1      42.025  27.235  28.774  1.00  0.00     0.037 A 
ATOM     50  C   UNL A   1      41.149  30.366  34.483  1.00  0.00     0.049 A 
ATOM     51  C   UNL A   1      42.778  27.256  30.077  1.00  0.00     0.074 A 
ATOM     52  C   UNL A   1      41.931  30.284  35.620  1.00  0.00     0.029 A 
ATOM     53  N   UNL A   1      41.724  29.530  33.536  1.00  0.00    -0.354 N 
ATOM     54  N   UNL A   1      42.509  27.914  31.180  1.00  0.00    -0.248 NA
ATOM     55  C   UNL A   1      43.986  26.425  30.153  1.00  0.00     0.031 C 
ATOM     56  C   UNL A   1      42.996  29.416  35.351  1.00  0.00     0.029 A 
ATOM     57  C   UNL A   1      42.853  28.928  34.061  1.00  0.00     0.049 A 
ATOM     58  H   UNL A   1      41.379  29.388  32.624  1.00  0.00     0.167 HD
ATOM     59  C   UNL A   1      43.495  27.556  32.088  1.00  0.00     0.074 A 
ATOM     60  C   UNL A   1      44.356  26.606  31.413  1.00  0.00     0.031 C 
ATOM     61  C   UNL A   1      43.679  27.977  33.364  1.00  0.00     0.037 A 
BRANCH  48  62
ATOM     62  C   UNL A   1      39.450  32.029  35.362  1.00  0.00     0.064 A 
ATOM     63  C   UNL A   1      39.854  33.371  35.457  1.00  0.00     0.173 A 
ATOM     64  C   UNL A   1      38.561  31.544  36.332  1.00  0.00     0.173 A 
ATOM     65  F   UNL A   1      40.719  33.880  34.567  1.00  0.00    -0.203 F 
ATOM     66  C   UNL A   1      39.423  34.179  36.505  1.00  0.00     0.198 A 
ATOM     67  C   UNL A   1      38.102  32.367  37.358  1.00  0.00     0.198 A 
ATOM     68  F   UNL A   1      38.140  30.271  36.290  1.00  0.00    -0.203 F 
ATOM     69  F   UNL A   1      39.881  35.434  36.614  1.00  0.00    -0.200 F 
ATOM     70  C   UNL A   1      38.542  33.679  37.451  1.00  0.00     0.200 A 
ATOM     71  F   UNL A   1      37.243  31.885  38.267  1.00  0.00    -0.200 F 
ATOM     72  F   UNL A   1      38.128  34.458  38.460  1.00  0.00    -0.200 F 
ENDBRANCH  48  62
BRANCH  49  73
ATOM     73  C   UNL A   1      42.491  26.407  27.630  1.00  0.00     0.064 A 
ATOM     74  C   UNL A   1      41.959  25.130  27.408  1.00  0.00     0.173 A 
ATOM     75  C   UNL A   1      43.469  26.869  26.739  1.00  0.00     0.173 A 
ATOM     76  F   UNL A   1      41.032  24.637  28.243  1.00  0.00    -0.203 F 
ATOM     77  C   UNL A   1      42.408  24.333  26.357  1.00  0.00     0.198 A 
ATOM     78  C   UNL A   1      43.898  26.084  25.670  1.00  0.00     0.198 A 
ATOM     79  F   UNL A   1      44.002  28.089  26.900  1.00  0.00    -0.203 F 
ATOM     80  F   UNL A   1      41.917  23.097  26.198  1.00  0.00    -0.200 F 
ATOM     81  C   UNL A   1      43.374  24.813  25.486  1.00  0.00     0.200 A 
ATOM     82  F   UNL A   1      44.821  26.556  24.822  1.00  0.00    -0.200 F 
ATOM     83  F   UNL A   1      43.805  24.048  24.474  1.00  0.00    -0.200 F 
ENDBRANCH  49  73
BRANCH  61  84
ATOM     84  C   UNL A   1      44.834  27.383  34.114  1.00  0.00     0.064 A 
ATOM     85  C   UNL A   1      44.698  26.200  34.854  1.00  0.00     0.173 A 
ATOM     86  C   UNL A   1      46.097  27.994  34.069  1.00  0.00     0.173 A 
ATOM     87  F   UNL A   1      43.506  25.588  34.936  1.00  0.00    -0.203 F 
ATOM     88  C   UNL A   1      45.778  25.665  35.549  1.00  0.00     0.198 A 
ATOM     89  C   UNL A   1      47.182  27.438  34.740  1.00  0.00     0.198 A 
ATOM     90  F   UNL A   1      46.278  29.122  33.367  1.00  0.00    -0.203 F 
ATOM     91  F   UNL A   1      45.614  24.564  36.294  1.00  0.00    -0.200 F 
ATOM     92  C   UNL A   1      47.019  26.282  35.487  1.00  0.00     0.200 A 
ATOM     93  F   UNL A   1      48.384  28.027  34.668  1.00  0.00    -0.200 F 
ATOM     94  F   UNL A   1      48.059  25.764  36.157  1.00  0.00    -0.200 F 
ENDBRANCH  61  84
ENDBRANCH  35  36
ENDBRANCH  27  30
ENDBRANCH  25  26
ENDBRANCH  24  25
ENDBRANCH   1  24
TORSDOF 16
ENDMDL
