MODEL 1
REMARK VINA RESULT:     -14.3      0.000      0.000
REMARK SMILES CCc1nn2c(nnc3c(=O)n([C@H](C(=O)NCCCCNC(=O)c4ccc(-c5c6nc(c(-c7c(F)c(F)c(F)c(F)c7F)c7ccc([nH]7)c(-c7c(F)c(F)c(F)c(F)c7F)c7nc(c(-c8c(F)c(F)c(F)c(F)c8F)c8ccc5[nH]8)C=C7)C=C6)cc4)C(C)C)ccc32)c1-c1ccc(Cl)cc1
REMARK SMILES IDX 18 1 17 2 16 3 14 4 15 5 13 7 12 8 3 9 4 10 93 11 5 12 6 13
REMARK SMILES IDX 92 14 7 15 9 16 91 17 8 18 10 19 90 20 11 21 2 22 1 23 94 24
REMARK SMILES IDX 95 25 100 26 96 27 99 28 97 29 98 30 87 31 88 32 89 33 19 34
REMARK SMILES IDX 20 35 21 36 22 37 23 39 24 40 25 41 86 42 26 43 85 44 27 45
REMARK SMILES IDX 28 46 29 47 79 48 30 49 84 50 78 51 80 52 31 53 83 54 77 55
REMARK SMILES IDX 76 56 32 58 64 59 44 60 63 61 45 62 48 63 62 64 81 65 46 66
REMARK SMILES IDX 47 67 61 69 82 70 49 71 33 72 34 73 42 74 35 75 36 76 40 77
REMARK SMILES IDX 43 78 37 79 38 80 41 81 39 82 65 83 66 84 74 85 67 86 68 87
REMARK SMILES IDX 72 88 75 89 69 90 70 91 73 92 71 93 50 94 51 95 59 96 52 97
REMARK SMILES IDX 53 98 57 99 60 100 54 101 55 102 58 103 56 104
REMARK H PARENT 16 6 21 38 80 57 48 68
REMARK Flexibility Score: inf
ROOT
ATOM      1  C   UNL A   1      33.752  28.880  26.319  1.00  0.00     0.023 C 
ENDROOT
BRANCH   1   2
ATOM      2  C   UNL A   1      32.874  29.700  25.370  1.00  0.00     0.116 C 
BRANCH   2   3
ATOM      3  N   UNL A   1      33.198  29.463  23.983  1.00  0.00    -0.354 N 
ATOM      4  C   UNL A   1      32.845  28.459  23.129  1.00  0.00     0.243 C 
ATOM      5  O   UNL A   1      33.196  28.617  21.953  1.00  0.00    -0.273 OA
ATOM      6  H   UNL A   1      33.777  30.149  23.580  1.00  0.00     0.163 HD
BRANCH   4   7
ATOM      7  C   UNL A   1      31.900  27.278  23.520  1.00  0.00     0.182 C 
BRANCH   7   8
ATOM      8  N   UNL A   1      32.668  26.047  23.824  1.00  0.00    -0.301 N 
ATOM      9  C   UNL A   1      35.907  20.718  24.850  1.00  0.00     0.073 A 
ATOM     10  N   UNL A   1      35.884  22.051  24.689  1.00  0.00    -0.170 NA
ATOM     11  C   UNL A   1      34.611  20.156  24.743  1.00  0.00     0.052 A 
ATOM     12  N   UNL A   1      34.571  22.361  24.477  1.00  0.00    -0.210 N 
ATOM     13  C   UNL A   1      33.783  21.219  24.466  1.00  0.00     0.186 A 
ATOM     14  C   UNL A   1      33.966  23.607  24.283  1.00  0.00     0.102 A 
ATOM     15  N   UNL A   1      32.441  21.301  24.241  1.00  0.00    -0.129 NA
ATOM     16  C   UNL A   1      32.638  23.583  24.064  1.00  0.00     0.177 A 
ATOM     17  C   UNL A   1      34.680  24.866  24.314  1.00  0.00     0.049 A 
ATOM     18  N   UNL A   1      31.900  22.416  24.038  1.00  0.00    -0.141 NA
ATOM     19  C   UNL A   1      31.906  24.863  23.809  1.00  0.00     0.281 A 
ATOM     20  C   UNL A   1      34.028  26.018  24.099  1.00  0.00     0.092 A 
ATOM     21  O   UNL A   1      30.699  24.842  23.571  1.00  0.00    -0.267 OA
BRANCH   9  22
ATOM     22  C   UNL A   1      37.202  20.017  25.139  1.00  0.00     0.055 C 
ATOM     23  C   UNL A   1      38.374  20.952  25.415  1.00  0.00     0.011 C 
ENDBRANCH   9  22
BRANCH  11  24
ATOM     24  C   UNL A   1      34.121  18.803  24.886  1.00  0.00    -0.013 A 
ATOM     25  C   UNL A   1      32.973  18.547  25.645  1.00  0.00     0.010 A 
ATOM     26  C   UNL A   1      34.779  17.745  24.244  1.00  0.00     0.010 A 
ATOM     27  C   UNL A   1      32.490  17.241  25.763  1.00  0.00     0.021 A 
ATOM     28  C   UNL A   1      34.295  16.442  24.362  1.00  0.00     0.021 A 
ATOM     29  C   UNL A   1      33.154  16.196  25.121  1.00  0.00     0.041 A 
ATOM     30  Cl  UNL A   1      32.557  14.589  25.267  1.00  0.00    -0.084 Cl
ENDBRANCH  11  24
ENDBRANCH   7   8
BRANCH   7  31
ATOM     31  C   UNL A   1      30.794  27.742  24.512  1.00  0.00     0.015 C 
ATOM     32  C   UNL A   1      29.408  27.693  23.834  1.00  0.00     0.010 C 
ATOM     33  C   UNL A   1      30.709  26.852  25.761  1.00  0.00     0.010 C 
ENDBRANCH   7  31
ENDBRANCH   4   7
ENDBRANCH   2   3
ENDBRANCH   1   2
BRANCH   1  34
ATOM     34  C   UNL A   1      34.205  29.606  27.593  1.00  0.00     0.023 C 
BRANCH  34  35
ATOM     35  C   UNL A   1      34.761  31.003  27.357  1.00  0.00     0.116 C 
BRANCH  35  36
ATOM     36  N   UNL A   1      34.557  31.886  28.501  1.00  0.00    -0.352 N 
ATOM     37  C   UNL A   1      35.135  31.803  29.751  1.00  0.00     0.251 C 
ATOM     38  H   UNL A   1      33.930  32.633  28.364  1.00  0.00     0.163 HD
ATOM     39  O   UNL A   1      34.622  32.334  30.722  1.00  0.00    -0.269 OA
BRANCH  37  40
ATOM     40  C   UNL A   1      36.409  31.079  29.892  1.00  0.00     0.039 A 
ATOM     41  C   UNL A   1      36.432  29.742  30.303  1.00  0.00     0.014 A 
ATOM     42  C   UNL A   1      37.591  31.773  29.629  1.00  0.00     0.014 A 
ATOM     43  C   UNL A   1      37.657  29.090  30.396  1.00  0.00     0.010 A 
ATOM     44  C   UNL A   1      38.786  31.102  29.612  1.00  0.00     0.010 A 
ATOM     45  C   UNL A   1      38.826  29.780  30.045  1.00  0.00    -0.014 A 
BRANCH  45  46
ATOM     46  C   UNL A   1      40.114  29.101  30.026  1.00  0.00     0.031 A 
ATOM     47  C   UNL A   1      40.723  28.912  31.370  1.00  0.00     0.074 A 
ATOM     48  C   UNL A   1      40.572  28.490  28.913  1.00  0.00     0.049 A 
ATOM     49  N   UNL A   1      41.830  29.409  31.814  1.00  0.00    -0.248 NA
ATOM     50  C   UNL A   1      39.948  28.182  32.389  1.00  0.00     0.031 C 
ATOM     51  C   UNL A   1      39.887  28.342  27.622  1.00  0.00     0.029 A 
ATOM     52  N   UNL A   1      41.709  27.767  28.729  1.00  0.00    -0.354 N 
ATOM     53  C   UNL A   1      41.987  28.899  33.100  1.00  0.00     0.074 A 
ATOM     54  C   UNL A   1      40.728  28.305  33.465  1.00  0.00     0.031 C 
ATOM     55  C   UNL A   1      40.508  27.397  26.884  1.00  0.00     0.029 A 
ATOM     56  C   UNL A   1      41.716  26.989  27.576  1.00  0.00     0.049 A 
ATOM     57  H   UNL A   1      42.465  27.793  29.360  1.00  0.00     0.167 HD
ATOM     58  C   UNL A   1      43.221  28.771  33.659  1.00  0.00     0.037 A 
ATOM     59  C   UNL A   1      42.635  26.046  27.249  1.00  0.00     0.037 A 
ATOM     60  C   UNL A   1      44.205  29.520  32.925  1.00  0.00     0.049 A 
ATOM     61  C   UNL A   1      43.846  26.336  28.053  1.00  0.00     0.074 A 
ATOM     62  C   UNL A   1      44.436  30.855  32.671  1.00  0.00     0.029 A 
ATOM     63  N   UNL A   1      44.918  28.817  31.988  1.00  0.00    -0.354 N 
ATOM     64  N   UNL A   1      44.581  27.403  27.907  1.00  0.00    -0.248 NA
ATOM     65  C   UNL A   1      44.015  25.627  29.311  1.00  0.00     0.031 C 
ATOM     66  C   UNL A   1      44.950  30.901  31.340  1.00  0.00     0.029 A 
ATOM     67  C   UNL A   1      45.069  29.591  30.869  1.00  0.00     0.049 A 
ATOM     68  H   UNL A   1      45.265  27.903  32.101  1.00  0.00     0.167 HD
ATOM     69  C   UNL A   1      44.964  27.740  29.196  1.00  0.00     0.074 A 
ATOM     70  C   UNL A   1      44.702  26.546  29.993  1.00  0.00     0.031 C 
ATOM     71  C   UNL A   1      45.177  29.046  29.533  1.00  0.00     0.037 A 
BRANCH  58  72
ATOM     72  C   UNL A   1      43.613  27.655  34.595  1.00  0.00     0.064 A 
ATOM     73  C   UNL A   1      43.576  26.321  34.146  1.00  0.00     0.173 A 
ATOM     74  C   UNL A   1      43.736  27.825  35.992  1.00  0.00     0.173 A 
ATOM     75  F   UNL A   1      43.404  26.046  32.844  1.00  0.00    -0.203 F 
ATOM     76  C   UNL A   1      43.628  25.242  35.035  1.00  0.00     0.198 A 
ATOM     77  C   UNL A   1      43.846  26.748  36.869  1.00  0.00     0.198 A 
ATOM     78  F   UNL A   1      43.633  29.029  36.570  1.00  0.00    -0.203 F 
ATOM     79  F   UNL A   1      43.479  23.993  34.575  1.00  0.00    -0.200 F 
ATOM     80  C   UNL A   1      43.768  25.457  36.394  1.00  0.00     0.200 A 
ATOM     81  F   UNL A   1      43.945  26.980  38.185  1.00  0.00    -0.200 F 
ATOM     82  F   UNL A   1      43.775  24.427  37.250  1.00  0.00    -0.200 F 
ENDBRANCH  58  72
BRANCH  59  83
ATOM     83  C   UNL A   1      42.426  24.727  26.595  1.00  0.00     0.064 A 
ATOM     84  C   UNL A   1      43.212  24.348  25.492  1.00  0.00     0.173 A 
ATOM     85  C   UNL A   1      41.696  23.698  27.221  1.00  0.00     0.173 A 
ATOM     86  F   UNL A   1      43.964  25.257  24.855  1.00  0.00    -0.203 F 
ATOM     87  C   UNL A   1      43.312  23.013  25.083  1.00  0.00     0.198 A 
ATOM     88  C   UNL A   1      41.790  22.369  26.806  1.00  0.00     0.198 A 
ATOM     89  F   UNL A   1      40.957  23.943  28.313  1.00  0.00    -0.203 F 
ATOM     90  F   UNL A   1      44.140  22.681  24.082  1.00  0.00    -0.200 F 
ATOM     91  C   UNL A   1      42.615  22.023  25.751  1.00  0.00     0.200 A 
ATOM     92  F   UNL A   1      41.133  21.415  27.481  1.00  0.00    -0.200 F 
ATOM     93  F   UNL A   1      42.770  20.736  25.411  1.00  0.00    -0.200 F 
ENDBRANCH  59  83
BRANCH  71  94
ATOM     94  C   UNL A   1      45.338  30.036  28.411  1.00  0.00     0.064 A 
ATOM     95  C   UNL A   1      44.284  30.760  27.827  1.00  0.00     0.173 A 
ATOM     96  C   UNL A   1      46.641  30.361  28.010  1.00  0.00     0.173 A 
ATOM     97  F   UNL A   1      43.017  30.571  28.213  1.00  0.00    -0.203 F 
ATOM     98  C   UNL A   1      44.526  31.743  26.867  1.00  0.00     0.198 A 
ATOM     99  C   UNL A   1      46.883  31.368  27.080  1.00  0.00     0.198 A 
ATOM    100  F   UNL A   1      47.689  29.734  28.567  1.00  0.00    -0.203 F 
ATOM    101  F   UNL A   1      43.503  32.415  26.318  1.00  0.00    -0.200 F 
ATOM    102  C   UNL A   1      45.826  32.053  26.503  1.00  0.00     0.200 A 
ATOM    103  F   UNL A   1      48.143  31.695  26.767  1.00  0.00    -0.200 F 
ATOM    104  F   UNL A   1      46.063  33.029  25.616  1.00  0.00    -0.200 F 
ENDBRANCH  71  94
ENDBRANCH  45  46
ENDBRANCH  37  40
ENDBRANCH  35  36
ENDBRANCH  34  35
ENDBRANCH   1  34
TORSDOF 15
ENDMDL
MODEL 2
REMARK VINA RESULT:     -13.6      5.886     12.049
REMARK SMILES CCc1nn2c(nnc3c(=O)n([C@H](C(=O)NCCCCNC(=O)c4ccc(-c5c6nc(c(-c7c(F)c(F)c(F)c(F)c7F)c7ccc([nH]7)c(-c7c(F)c(F)c(F)c(F)c7F)c7nc(c(-c8c(F)c(F)c(F)c(F)c8F)c8ccc5[nH]8)C=C7)C=C6)cc4)C(C)C)ccc32)c1-c1ccc(Cl)cc1
REMARK SMILES IDX 18 1 17 2 16 3 14 4 15 5 13 7 12 8 3 9 4 10 93 11 5 12 6 13
REMARK SMILES IDX 92 14 7 15 9 16 91 17 8 18 10 19 90 20 11 21 2 22 1 23 94 24
REMARK SMILES IDX 95 25 100 26 96 27 99 28 97 29 98 30 87 31 88 32 89 33 19 34
REMARK SMILES IDX 20 35 21 36 22 37 23 39 24 40 25 41 86 42 26 43 85 44 27 45
REMARK SMILES IDX 28 46 29 47 79 48 30 49 84 50 78 51 80 52 31 53 83 54 77 55
REMARK SMILES IDX 76 56 32 58 64 59 44 60 63 61 45 62 48 63 62 64 81 65 46 66
REMARK SMILES IDX 47 67 61 69 82 70 49 71 33 72 34 73 42 74 35 75 36 76 40 77
REMARK SMILES IDX 43 78 37 79 38 80 41 81 39 82 65 83 66 84 74 85 67 86 68 87
REMARK SMILES IDX 72 88 75 89 69 90 70 91 73 92 71 93 50 94 51 95 59 96 52 97
REMARK SMILES IDX 53 98 57 99 60 100 54 101 55 102 58 103 56 104
REMARK H PARENT 16 6 21 38 80 57 48 68
REMARK Flexibility Score: inf
ROOT
ATOM      1  C   UNL A   1      45.481  22.740  24.221  1.00  0.00     0.023 C 
ENDROOT
BRANCH   1   2
ATOM      2  C   UNL A   1      46.401  23.738  24.928  1.00  0.00     0.116 C 
BRANCH   2   3
ATOM      3  N   UNL A   1      45.847  25.072  24.950  1.00  0.00    -0.354 N 
ATOM      4  C   UNL A   1      46.125  26.154  25.734  1.00  0.00     0.243 C 
ATOM      5  O   UNL A   1      45.549  27.201  25.413  1.00  0.00    -0.273 OA
ATOM      6  H   UNL A   1      45.144  25.230  24.280  1.00  0.00     0.163 HD
BRANCH   4   7
ATOM      7  C   UNL A   1      47.229  26.166  26.839  1.00  0.00     0.182 C 
BRANCH   7   8
ATOM      8  N   UNL A   1      46.681  25.763  28.157  1.00  0.00    -0.301 N 
ATOM      9  C   UNL A   1      44.182  24.276  33.768  1.00  0.00     0.073 A 
ATOM     10  N   UNL A   1      44.286  24.055  32.447  1.00  0.00    -0.170 NA
ATOM     11  C   UNL A   1      44.990  25.363  34.182  1.00  0.00     0.052 A 
ATOM     12  N   UNL A   1      45.165  24.999  31.998  1.00  0.00    -0.210 N 
ATOM     13  C   UNL A   1      45.577  25.832  33.029  1.00  0.00     0.186 A 
ATOM     14  C   UNL A   1      45.667  25.213  30.710  1.00  0.00     0.102 A 
ATOM     15  N   UNL A   1      46.434  26.863  32.791  1.00  0.00    -0.129 NA
ATOM     16  C   UNL A   1      46.504  26.259  30.576  1.00  0.00     0.177 A 
ATOM     17  C   UNL A   1      45.341  24.385  29.568  1.00  0.00     0.049 A 
ATOM     18  N   UNL A   1      46.863  27.075  31.631  1.00  0.00    -0.141 NA
ATOM     19  C   UNL A   1      47.064  26.592  29.229  1.00  0.00     0.281 A 
ATOM     20  C   UNL A   1      45.850  24.670  28.360  1.00  0.00     0.092 A 
ATOM     21  O   UNL A   1      47.799  27.568  29.095  1.00  0.00    -0.267 OA
BRANCH   9  22
ATOM     22  C   UNL A   1      43.311  23.392  34.612  1.00  0.00     0.055 C 
ATOM     23  C   UNL A   1      42.236  24.136  35.397  1.00  0.00     0.011 C 
ENDBRANCH   9  22
BRANCH  11  24
ATOM     24  C   UNL A   1      45.251  25.945  35.481  1.00  0.00    -0.013 A 
ATOM     25  C   UNL A   1      44.711  27.193  35.814  1.00  0.00     0.010 A 
ATOM     26  C   UNL A   1      46.026  25.250  36.418  1.00  0.00     0.010 A 
ATOM     27  C   UNL A   1      44.948  27.741  37.077  1.00  0.00     0.021 A 
ATOM     28  C   UNL A   1      46.262  25.799  37.680  1.00  0.00     0.021 A 
ATOM     29  C   UNL A   1      45.722  27.042  38.003  1.00  0.00     0.041 A 
ATOM     30  Cl  UNL A   1      46.012  27.718  39.557  1.00  0.00    -0.084 Cl
ENDBRANCH  11  24
ENDBRANCH   7   8
BRANCH   7  31
ATOM     31  C   UNL A   1      48.544  25.504  26.335  1.00  0.00     0.015 C 
ATOM     32  C   UNL A   1      49.450  26.555  25.659  1.00  0.00     0.010 C 
ATOM     33  C   UNL A   1      49.364  24.875  27.471  1.00  0.00     0.010 C 
ENDBRANCH   7  31
ENDBRANCH   4   7
ENDBRANCH   2   3
ENDBRANCH   1   2
BRANCH   1  34
ATOM     34  C   UNL A   1      44.309  22.213  25.060  1.00  0.00     0.023 C 
BRANCH  34  35
ATOM     35  C   UNL A   1      43.031  23.031  24.939  1.00  0.00     0.116 C 
BRANCH  35  36
ATOM     36  N   UNL A   1      41.872  22.340  25.494  1.00  0.00    -0.352 N 
ATOM     37  C   UNL A   1      41.134  22.680  26.609  1.00  0.00     0.251 C 
ATOM     38  H   UNL A   1      41.580  21.531  25.014  1.00  0.00     0.163 HD
ATOM     39  O   UNL A   1      40.453  21.854  27.195  1.00  0.00    -0.269 OA
BRANCH  37  40
ATOM     40  C   UNL A   1      41.158  24.078  27.071  1.00  0.00     0.039 A 
ATOM     41  C   UNL A   1      40.345  25.045  26.471  1.00  0.00     0.014 A 
ATOM     42  C   UNL A   1      42.033  24.413  28.105  1.00  0.00     0.014 A 
ATOM     43  C   UNL A   1      40.380  26.347  26.958  1.00  0.00     0.010 A 
ATOM     44  C   UNL A   1      41.987  25.666  28.658  1.00  0.00     0.010 A 
ATOM     45  C   UNL A   1      41.203  26.644  28.053  1.00  0.00    -0.014 A 
BRANCH  45  46
ATOM     46  C   UNL A   1      41.187  27.968  28.658  1.00  0.00     0.031 A 
ATOM     47  C   UNL A   1      42.248  28.881  28.155  1.00  0.00     0.074 A 
ATOM     48  C   UNL A   1      40.149  28.385  29.414  1.00  0.00     0.049 A 
ATOM     49  N   UNL A   1      43.224  29.404  28.821  1.00  0.00    -0.248 NA
ATOM     50  C   UNL A   1      42.306  29.149  26.707  1.00  0.00     0.031 C 
ATOM     51  C   UNL A   1      38.899  27.668  29.698  1.00  0.00     0.029 A 
ATOM     52  N   UNL A   1      39.939  29.592  30.004  1.00  0.00    -0.354 N 
ATOM     53  C   UNL A   1      43.905  30.219  27.922  1.00  0.00     0.074 A 
ATOM     54  C   UNL A   1      43.414  29.888  26.610  1.00  0.00     0.031 C 
ATOM     55  C   UNL A   1      37.986  28.529  30.197  1.00  0.00     0.029 A 
ATOM     56  C   UNL A   1      38.628  29.811  30.415  1.00  0.00     0.049 A 
ATOM     57  H   UNL A   1      40.655  30.256  30.128  1.00  0.00     0.167 HD
ATOM     58  C   UNL A   1      44.628  31.289  28.352  1.00  0.00     0.037 A 
ATOM     59  C   UNL A   1      38.110  30.984  30.858  1.00  0.00     0.037 A 
ATOM     60  C   UNL A   1      44.856  31.227  29.770  1.00  0.00     0.049 A 
ATOM     61  C   UNL A   1      39.257  31.819  31.288  1.00  0.00     0.074 A 
ATOM     62  C   UNL A   1      45.550  30.391  30.618  1.00  0.00     0.029 A 
ATOM     63  N   UNL A   1      43.972  31.926  30.551  1.00  0.00    -0.354 N 
ATOM     64  N   UNL A   1      40.029  31.535  32.299  1.00  0.00    -0.248 NA
ATOM     65  C   UNL A   1      39.801  32.772  30.333  1.00  0.00     0.031 C 
ATOM     66  C   UNL A   1      44.769  30.332  31.810  1.00  0.00     0.029 A 
ATOM     67  C   UNL A   1      43.670  31.182  31.660  1.00  0.00     0.049 A 
ATOM     68  H   UNL A   1      43.612  32.820  30.348  1.00  0.00     0.167 HD
ATOM     69  C   UNL A   1      41.296  31.920  31.890  1.00  0.00     0.074 A 
ATOM     70  C   UNL A   1      41.073  32.789  30.738  1.00  0.00     0.031 C 
ATOM     71  C   UNL A   1      42.399  31.257  32.345  1.00  0.00     0.037 A 
BRANCH  58  72
ATOM     72  C   UNL A   1      44.762  32.581  27.585  1.00  0.00     0.064 A 
ATOM     73  C   UNL A   1      45.927  32.828  26.833  1.00  0.00     0.173 A 
ATOM     74  C   UNL A   1      43.927  33.700  27.801  1.00  0.00     0.173 A 
ATOM     75  F   UNL A   1      46.818  31.849  26.617  1.00  0.00    -0.203 F 
ATOM     76  C   UNL A   1      46.242  34.106  26.360  1.00  0.00     0.198 A 
ATOM     77  C   UNL A   1      44.215  34.958  27.279  1.00  0.00     0.198 A 
ATOM     78  F   UNL A   1      42.870  33.645  28.621  1.00  0.00    -0.203 F 
ATOM     79  F   UNL A   1      47.412  34.319  25.742  1.00  0.00    -0.200 F 
ATOM     80  C   UNL A   1      45.383  35.169  26.578  1.00  0.00     0.200 A 
ATOM     81  F   UNL A   1      43.386  35.981  27.534  1.00  0.00    -0.200 F 
ATOM     82  F   UNL A   1      45.703  36.401  26.164  1.00  0.00    -0.200 F 
ENDBRANCH  58  72
BRANCH  59  83
ATOM     83  C   UNL A   1      36.769  31.569  30.597  1.00  0.00     0.064 A 
ATOM     84  C   UNL A   1      35.936  31.945  31.667  1.00  0.00     0.173 A 
ATOM     85  C   UNL A   1      36.413  32.066  29.328  1.00  0.00     0.173 A 
ATOM     86  F   UNL A   1      36.218  31.543  32.915  1.00  0.00    -0.203 F 
ATOM     87  C   UNL A   1      34.855  32.816  31.488  1.00  0.00     0.198 A 
ATOM     88  C   UNL A   1      35.328  32.927  29.151  1.00  0.00     0.198 A 
ATOM     89  F   UNL A   1      37.169  31.811  28.251  1.00  0.00    -0.203 F 
ATOM     90  F   UNL A   1      34.139  33.219  32.548  1.00  0.00    -0.200 F 
ATOM     91  C   UNL A   1      34.563  33.320  30.233  1.00  0.00     0.200 A 
ATOM     92  F   UNL A   1      35.076  33.433  27.935  1.00  0.00    -0.200 F 
ATOM     93  F   UNL A   1      33.578  34.214  30.073  1.00  0.00    -0.200 F 
ENDBRANCH  59  83
BRANCH  71  94
ATOM     94  C   UNL A   1      42.229  30.369  33.549  1.00  0.00     0.064 A 
ATOM     95  C   UNL A   1      42.316  30.807  34.883  1.00  0.00     0.173 A 
ATOM     96  C   UNL A   1      41.824  29.045  33.333  1.00  0.00     0.173 A 
ATOM     97  F   UNL A   1      42.615  32.077  35.177  1.00  0.00    -0.203 F 
ATOM     98  C   UNL A   1      42.037  29.947  35.946  1.00  0.00     0.198 A 
ATOM     99  C   UNL A   1      41.509  28.201  34.392  1.00  0.00     0.198 A 
ATOM    100  F   UNL A   1      41.680  28.587  32.079  1.00  0.00    -0.203 F 
ATOM    101  F   UNL A   1      42.135  30.386  37.210  1.00  0.00    -0.200 F 
ATOM    102  C   UNL A   1      41.622  28.649  35.698  1.00  0.00     0.200 A 
ATOM    103  F   UNL A   1      41.064  26.962  34.146  1.00  0.00    -0.200 F 
ATOM    104  F   UNL A   1      41.307  27.836  36.717  1.00  0.00    -0.200 F 
ENDBRANCH  71  94
ENDBRANCH  45  46
ENDBRANCH  37  40
ENDBRANCH  35  36
ENDBRANCH  34  35
ENDBRANCH   1  34
TORSDOF 15
ENDMDL
MODEL 3
REMARK VINA RESULT:     -13.5      5.945     12.200
REMARK SMILES CCc1nn2c(nnc3c(=O)n([C@H](C(=O)NCCCCNC(=O)c4ccc(-c5c6nc(c(-c7c(F)c(F)c(F)c(F)c7F)c7ccc([nH]7)c(-c7c(F)c(F)c(F)c(F)c7F)c7nc(c(-c8c(F)c(F)c(F)c(F)c8F)c8ccc5[nH]8)C=C7)C=C6)cc4)C(C)C)ccc32)c1-c1ccc(Cl)cc1
REMARK SMILES IDX 18 1 17 2 16 3 14 4 15 5 13 7 12 8 3 9 4 10 93 11 5 12 6 13
REMARK SMILES IDX 92 14 7 15 9 16 91 17 8 18 10 19 90 20 11 21 2 22 1 23 94 24
REMARK SMILES IDX 95 25 100 26 96 27 99 28 97 29 98 30 87 31 88 32 89 33 19 34
REMARK SMILES IDX 20 35 21 36 22 37 23 39 24 40 25 41 86 42 26 43 85 44 27 45
REMARK SMILES IDX 28 46 29 47 79 48 30 49 84 50 78 51 80 52 31 53 83 54 77 55
REMARK SMILES IDX 76 56 32 58 64 59 44 60 63 61 45 62 48 63 62 64 81 65 46 66
REMARK SMILES IDX 47 67 61 69 82 70 49 71 33 72 34 73 42 74 35 75 36 76 40 77
REMARK SMILES IDX 43 78 37 79 38 80 41 81 39 82 65 83 66 84 74 85 67 86 68 87
REMARK SMILES IDX 72 88 75 89 69 90 70 91 73 92 71 93 50 94 51 95 59 96 52 97
REMARK SMILES IDX 53 98 57 99 60 100 54 101 55 102 58 103 56 104
REMARK H PARENT 16 6 21 38 80 57 48 68
REMARK Flexibility Score: inf
ROOT
ATOM      1  C   UNL A   1      44.340  24.938  25.208  1.00  0.00     0.023 C 
ENDROOT
BRANCH   1   2
ATOM      2  C   UNL A   1      45.811  25.308  25.006  1.00  0.00     0.116 C 
BRANCH   2   3
ATOM      3  N   UNL A   1      46.050  26.722  25.184  1.00  0.00    -0.354 N 
ATOM      4  C   UNL A   1      46.917  27.399  25.991  1.00  0.00     0.243 C 
ATOM      5  O   UNL A   1      46.958  28.623  25.814  1.00  0.00    -0.273 OA
ATOM      6  H   UNL A   1      45.487  27.301  24.621  1.00  0.00     0.163 HD
BRANCH   4   7
ATOM      7  C   UNL A   1      47.942  26.703  26.943  1.00  0.00     0.182 C 
BRANCH   7   8
ATOM      8  N   UNL A   1      47.313  26.320  28.230  1.00  0.00    -0.301 N 
ATOM      9  C   UNL A   1      44.529  24.952  33.737  1.00  0.00     0.073 A 
ATOM     10  N   UNL A   1      44.575  24.842  32.399  1.00  0.00    -0.170 NA
ATOM     11  C   UNL A   1      45.581  25.763  34.231  1.00  0.00     0.052 A 
ATOM     12  N   UNL A   1      45.659  25.581  32.019  1.00  0.00    -0.210 N 
ATOM     13  C   UNL A   1      46.263  26.184  33.113  1.00  0.00     0.186 A 
ATOM     14  C   UNL A   1      46.197  25.790  30.744  1.00  0.00     0.102 A 
ATOM     15  N   UNL A   1      47.348  26.992  32.951  1.00  0.00    -0.129 NA
ATOM     16  C   UNL A   1      47.265  26.607  30.689  1.00  0.00     0.177 A 
ATOM     17  C   UNL A   1      45.676  25.183  29.538  1.00  0.00     0.049 A 
ATOM     18  N   UNL A   1      47.815  27.204  31.806  1.00  0.00    -0.141 NA
ATOM     19  C   UNL A   1      47.889  26.922  29.365  1.00  0.00     0.281 A 
ATOM     20  C   UNL A   1      46.238  25.449  28.350  1.00  0.00     0.092 A 
ATOM     21  O   UNL A   1      48.841  27.697  29.305  1.00  0.00    -0.267 OA
BRANCH   9  22
ATOM     22  C   UNL A   1      43.468  24.232  34.515  1.00  0.00     0.055 C 
ATOM     23  C   UNL A   1      43.485  22.717  34.345  1.00  0.00     0.011 C 
ENDBRANCH   9  22
BRANCH  11  24
ATOM     24  C   UNL A   1      45.978  26.134  35.572  1.00  0.00    -0.013 A 
ATOM     25  C   UNL A   1      46.787  25.278  36.328  1.00  0.00     0.010 A 
ATOM     26  C   UNL A   1      45.574  27.364  36.109  1.00  0.00     0.010 A 
ATOM     27  C   UNL A   1      47.186  25.651  37.614  1.00  0.00     0.021 A 
ATOM     28  C   UNL A   1      45.974  27.734  37.394  1.00  0.00     0.021 A 
ATOM     29  C   UNL A   1      46.778  26.876  38.140  1.00  0.00     0.041 A 
ATOM     30  Cl  UNL A   1      47.271  27.332  39.723  1.00  0.00    -0.084 Cl
ENDBRANCH  11  24
ENDBRANCH   7   8
BRANCH   7  31
ATOM     31  C   UNL A   1      48.800  25.652  26.181  1.00  0.00     0.015 C 
ATOM     32  C   UNL A   1      49.574  26.325  25.027  1.00  0.00     0.010 C 
ATOM     33  C   UNL A   1      49.845  24.975  27.081  1.00  0.00     0.010 C 
ENDBRANCH   7  31
ENDBRANCH   4   7
ENDBRANCH   2   3
ENDBRANCH   1   2
BRANCH   1  34
ATOM     34  C   UNL A   1      43.912  23.586  24.623  1.00  0.00     0.023 C 
BRANCH  34  35
ATOM     35  C   UNL A   1      43.660  22.503  25.662  1.00  0.00     0.116 C 
BRANCH  35  36
ATOM     36  N   UNL A   1      42.276  22.038  25.659  1.00  0.00    -0.352 N 
ATOM     37  C   UNL A   1      41.221  22.510  26.412  1.00  0.00     0.251 C 
ATOM     38  H   UNL A   1      42.071  21.297  25.044  1.00  0.00     0.163 HD
ATOM     39  O   UNL A   1      40.233  21.823  26.617  1.00  0.00    -0.269 OA
BRANCH  37  40
ATOM     40  C   UNL A   1      41.293  23.879  26.947  1.00  0.00     0.039 A 
ATOM     41  C   UNL A   1      40.672  24.942  26.282  1.00  0.00     0.014 A 
ATOM     42  C   UNL A   1      42.018  24.089  28.121  1.00  0.00     0.014 A 
ATOM     43  C   UNL A   1      40.743  26.214  26.839  1.00  0.00     0.010 A 
ATOM     44  C   UNL A   1      41.994  25.318  28.727  1.00  0.00     0.010 A 
ATOM     45  C   UNL A   1      41.404  26.389  28.062  1.00  0.00    -0.014 A 
BRANCH  45  46
ATOM     46  C   UNL A   1      41.408  27.682  28.729  1.00  0.00     0.031 A 
ATOM     47  C   UNL A   1      42.526  28.575  28.322  1.00  0.00     0.074 A 
ATOM     48  C   UNL A   1      40.350  28.105  29.453  1.00  0.00     0.049 A 
ATOM     49  N   UNL A   1      43.486  29.027  29.059  1.00  0.00    -0.248 NA
ATOM     50  C   UNL A   1      42.667  28.907  26.893  1.00  0.00     0.031 C 
ATOM     51  C   UNL A   1      39.061  27.427  29.641  1.00  0.00     0.029 A 
ATOM     52  N   UNL A   1      40.155  29.292  30.089  1.00  0.00    -0.354 N 
ATOM     53  C   UNL A   1      44.242  29.855  28.234  1.00  0.00     0.074 A 
ATOM     54  C   UNL A   1      43.806  29.604  26.885  1.00  0.00     0.031 C 
ATOM     55  C   UNL A   1      38.156  28.299  30.136  1.00  0.00     0.029 A 
ATOM     56  C   UNL A   1      38.835  29.543  30.446  1.00  0.00     0.049 A 
ATOM     57  H   UNL A   1      40.889  29.920  30.280  1.00  0.00     0.167 HD
ATOM     58  C   UNL A   1      44.982  30.875  28.749  1.00  0.00     0.037 A 
ATOM     59  C   UNL A   1      38.340  30.714  30.919  1.00  0.00     0.037 A 
ATOM     60  C   UNL A   1      45.136  30.738  30.172  1.00  0.00     0.049 A 
ATOM     61  C   UNL A   1      39.494  31.483  31.443  1.00  0.00     0.074 A 
ATOM     62  C   UNL A   1      45.755  29.837  31.011  1.00  0.00     0.029 A 
ATOM     63  N   UNL A   1      44.241  31.435  30.942  1.00  0.00    -0.354 N 
ATOM     64  N   UNL A   1      40.203  31.122  32.476  1.00  0.00    -0.248 NA
ATOM     65  C   UNL A   1      40.121  32.456  30.563  1.00  0.00     0.031 C 
ATOM     66  C   UNL A   1      44.913  29.755  32.160  1.00  0.00     0.029 A 
ATOM     67  C   UNL A   1      43.856  30.654  31.998  1.00  0.00     0.049 A 
ATOM     68  H   UNL A   1      43.926  32.351  30.764  1.00  0.00     0.167 HD
ATOM     69  C   UNL A   1      41.502  31.474  32.148  1.00  0.00     0.074 A 
ATOM     70  C   UNL A   1      41.371  32.404  31.030  1.00  0.00     0.031 C 
ATOM     71  C   UNL A   1      42.555  30.748  32.624  1.00  0.00     0.037 A 
BRANCH  58  72
ATOM     72  C   UNL A   1      45.203  32.194  28.052  1.00  0.00     0.064 A 
ATOM     73  C   UNL A   1      44.110  33.049  27.813  1.00  0.00     0.173 A 
ATOM     74  C   UNL A   1      46.389  32.511  27.353  1.00  0.00     0.173 A 
ATOM     75  F   UNL A   1      42.919  32.806  28.381  1.00  0.00    -0.203 F 
ATOM     76  C   UNL A   1      44.194  34.121  26.918  1.00  0.00     0.198 A 
ATOM     77  C   UNL A   1      46.486  33.614  26.508  1.00  0.00     0.198 A 
ATOM     78  F   UNL A   1      47.456  31.702  27.368  1.00  0.00    -0.203 F 
ATOM     79  F   UNL A   1      43.100  34.843  26.638  1.00  0.00    -0.200 F 
ATOM     80  C   UNL A   1      45.383  34.406  26.271  1.00  0.00     0.200 A 
ATOM     81  F   UNL A   1      47.638  33.849  25.864  1.00  0.00    -0.200 F 
ATOM     82  F   UNL A   1      45.454  35.404  25.382  1.00  0.00    -0.200 F 
ENDBRANCH  58  72
BRANCH  59  83
ATOM     83  C   UNL A   1      37.036  31.364  30.621  1.00  0.00     0.064 A 
ATOM     84  C   UNL A   1      36.114  31.615  31.654  1.00  0.00     0.173 A 
ATOM     85  C   UNL A   1      36.805  32.036  29.405  1.00  0.00     0.173 A 
ATOM     86  F   UNL A   1      36.275  31.041  32.856  1.00  0.00    -0.203 F 
ATOM     87  C   UNL A   1      35.066  32.529  31.500  1.00  0.00     0.198 A 
ATOM     88  C   UNL A   1      35.753  32.941  29.251  1.00  0.00     0.198 A 
ATOM     89  F   UNL A   1      37.653  31.908  28.375  1.00  0.00    -0.203 F 
ATOM     90  F   UNL A   1      34.261  32.805  32.537  1.00  0.00    -0.200 F 
ATOM     91  C   UNL A   1      34.897  33.204  30.304  1.00  0.00     0.200 A 
ATOM     92  F   UNL A   1      35.620  33.612  28.098  1.00  0.00    -0.200 F 
ATOM     93  F   UNL A   1      33.943  34.137  30.181  1.00  0.00    -0.200 F 
ENDBRANCH  59  83
BRANCH  71  94
ATOM     94  C   UNL A   1      42.292  29.813  33.774  1.00  0.00     0.064 A 
ATOM     95  C   UNL A   1      41.846  28.486  33.639  1.00  0.00     0.173 A 
ATOM     96  C   UNL A   1      42.641  30.246  35.060  1.00  0.00     0.173 A 
ATOM     97  F   UNL A   1      41.571  27.967  32.438  1.00  0.00    -0.203 F 
ATOM     98  C   UNL A   1      41.731  27.646  34.747  1.00  0.00     0.198 A 
ATOM     99  C   UNL A   1      42.562  29.395  36.158  1.00  0.00     0.198 A 
ATOM    100  F   UNL A   1      43.116  31.489  35.242  1.00  0.00    -0.203 F 
ATOM    101  F   UNL A   1      41.296  26.386  34.595  1.00  0.00    -0.200 F 
ATOM    102  C   UNL A   1      42.100  28.099  36.003  1.00  0.00     0.200 A 
ATOM    103  F   UNL A   1      42.965  29.824  37.362  1.00  0.00    -0.200 F 
ATOM    104  F   UNL A   1      42.036  27.278  37.061  1.00  0.00    -0.200 F 
ENDBRANCH  71  94
ENDBRANCH  45  46
ENDBRANCH  37  40
ENDBRANCH  35  36
ENDBRANCH  34  35
ENDBRANCH   1  34
TORSDOF 15
ENDMDL
