MODEL 1
REMARK VINA RESULT:     -13.3      0.000      0.000
REMARK SMILES CCc1ccc(C(=O)N2Cc3nc[nH]c3C[C@@H]2C(=O)NCCCCNC(=O)c2ccc(-c3c4nc(c(-c5c(F)c(F)c(F)c(F)c5F)c5ccc([nH]5)c(-c5c(F)c(F)c(F)c(F)c5F)c5nc(c(-c6c(F)c(F)c(F)c(F)c6F)c6ccc3[nH]6)C=C5)C=C4)cc2)o1
REMARK SMILES IDX 22 1 21 2 20 3 18 4 19 5 17 7 9 8 10 9 11 10 16 11 12 12
REMARK SMILES IDX 15 13 13 14 14 15 7 17 8 18 6 19 3 20 4 21 91 22 5 23 2 24
REMARK SMILES IDX 1 25 23 26 24 27 25 28 26 29 27 31 28 32 29 33 90 34 30 35
REMARK SMILES IDX 89 36 31 37 32 38 33 39 83 40 34 41 88 42 82 43 84 44 35 45
REMARK SMILES IDX 87 46 81 47 80 48 36 50 68 51 48 52 67 53 49 54 52 55 66 56
REMARK SMILES IDX 85 57 50 58 51 59 65 61 86 62 53 63 37 64 38 65 46 66 39 67
REMARK SMILES IDX 40 68 44 69 47 70 41 71 42 72 45 73 43 74 69 75 70 76 78 77
REMARK SMILES IDX 71 78 72 79 76 80 79 81 73 82 74 83 77 84 75 85 54 86 55 87
REMARK SMILES IDX 63 88 56 89 57 90 61 91 64 92 58 93 59 94 62 95 60 96
REMARK H PARENT 20 6 14 16 25 30 84 49 52 60
REMARK Flexibility Score: inf
ROOT
ATOM      1  C   UNL A   1      32.476  29.050  27.349  1.00  0.00     0.023 C 
ENDROOT
BRANCH   1   2
ATOM      2  C   UNL A   1      31.633  28.252  26.339  1.00  0.00     0.116 C 
BRANCH   2   3
ATOM      3  N   UNL A   1      31.400  26.909  26.831  1.00  0.00    -0.354 N 
ATOM      4  C   UNL A   1      31.718  25.701  26.291  1.00  0.00     0.243 C 
ATOM      5  O   UNL A   1      31.088  24.725  26.712  1.00  0.00    -0.273 OA
ATOM      6  H   UNL A   1      30.937  26.863  27.698  1.00  0.00     0.163 HD
BRANCH   4   7
ATOM      7  C   UNL A   1      32.829  25.506  25.227  1.00  0.00     0.181 C 
ATOM      8  N   UNL A   1      32.279  24.836  24.003  1.00  0.00    -0.318 N 
ATOM      9  C   UNL A   1      33.202  24.367  22.954  1.00  0.00     0.179 C 
ATOM     10  C   UNL A   1      34.506  23.957  23.521  1.00  0.00     0.081 A 
ATOM     11  C   UNL A   1      34.085  24.838  25.855  1.00  0.00     0.091 C 
ATOM     12  N   UNL A   1      35.499  23.324  22.824  1.00  0.00    -0.240 NA
ATOM     13  C   UNL A   1      34.901  24.190  24.813  1.00  0.00     0.042 A 
ATOM     14  C   UNL A   1      36.463  23.129  23.700  1.00  0.00     0.197 A 
ATOM     15  N   UNL A   1      36.137  23.627  24.934  1.00  0.00    -0.348 N 
ATOM     16  H   UNL A   1      36.688  23.587  25.749  1.00  0.00     0.167 HD
BRANCH   8  17
ATOM     17  C   UNL A   1      31.039  25.216  23.455  1.00  0.00     0.290 C 
ATOM     18  O   UNL A   1      30.207  24.347  23.193  1.00  0.00    -0.265 OA
BRANCH  17  19
ATOM     19  C   UNL A   1      30.854  26.618  23.122  1.00  0.00     0.191 A 
ATOM     20  C   UNL A   1      29.706  28.481  22.876  1.00  0.00     0.104 A 
ATOM     21  C   UNL A   1      30.994  28.772  22.491  1.00  0.00     0.046 A 
ATOM     22  O   UNL A   1      29.606  27.173  23.244  1.00  0.00    -0.456 OA
ATOM     23  C   UNL A   1      31.723  27.571  22.616  1.00  0.00     0.056 A 
BRANCH  20  24
ATOM     24  C   UNL A   1      28.473  29.301  22.945  1.00  0.00     0.072 C 
ATOM     25  C   UNL A   1      28.773  30.712  23.425  1.00  0.00     0.012 C 
ENDBRANCH  20  24
ENDBRANCH  17  19
ENDBRANCH   8  17
ENDBRANCH   4   7
ENDBRANCH   2   3
ENDBRANCH   1   2
BRANCH   1  26
ATOM     26  C   UNL A   1      32.610  30.553  27.063  1.00  0.00     0.023 C 
BRANCH  26  27
ATOM     27  C   UNL A   1      34.017  31.107  27.235  1.00  0.00     0.116 C 
BRANCH  27  28
ATOM     28  N   UNL A   1      34.128  31.959  28.411  1.00  0.00    -0.352 N 
ATOM     29  C   UNL A   1      35.003  31.847  29.469  1.00  0.00     0.251 C 
ATOM     30  H   UNL A   1      33.497  32.714  28.456  1.00  0.00     0.163 HD
ATOM     31  O   UNL A   1      34.729  32.335  30.555  1.00  0.00    -0.269 OA
BRANCH  29  32
ATOM     32  C   UNL A   1      36.278  31.130  29.280  1.00  0.00     0.039 A 
ATOM     33  C   UNL A   1      37.486  31.826  29.349  1.00  0.00     0.014 A 
ATOM     34  C   UNL A   1      36.263  29.757  29.024  1.00  0.00     0.014 A 
ATOM     35  C   UNL A   1      38.678  31.115  29.243  1.00  0.00     0.010 A 
ATOM     36  C   UNL A   1      37.441  29.038  29.009  1.00  0.00     0.010 A 
ATOM     37  C   UNL A   1      38.652  29.714  29.106  1.00  0.00    -0.014 A 
BRANCH  37  38
ATOM     38  C   UNL A   1      39.887  28.953  29.308  1.00  0.00     0.031 A 
ATOM     39  C   UNL A   1      40.164  28.711  30.750  1.00  0.00     0.074 A 
ATOM     40  C   UNL A   1      40.605  28.356  28.331  1.00  0.00     0.049 A 
ATOM     41  N   UNL A   1      41.104  29.239  31.459  1.00  0.00    -0.248 NA
ATOM     42  C   UNL A   1      39.188  27.945  31.547  1.00  0.00     0.031 C 
ATOM     43  C   UNL A   1      40.245  28.250  26.914  1.00  0.00     0.029 A 
ATOM     44  N   UNL A   1      41.769  27.633  28.398  1.00  0.00    -0.354 N 
ATOM     45  C   UNL A   1      40.997  28.662  32.723  1.00  0.00     0.074 A 
ATOM     46  C   UNL A   1      39.690  28.067  32.778  1.00  0.00     0.031 C 
ATOM     47  C   UNL A   1      41.033  27.332  26.309  1.00  0.00     0.029 A 
ATOM     48  C   UNL A   1      42.061  26.906  27.242  1.00  0.00     0.049 A 
ATOM     49  H   UNL A   1      42.349  27.628  29.193  1.00  0.00     0.167 HD
ATOM     50  C   UNL A   1      42.126  28.442  33.453  1.00  0.00     0.037 A 
ATOM     51  C   UNL A   1      43.075  26.023  27.051  1.00  0.00     0.037 A 
ATOM     52  C   UNL A   1      43.224  29.189  32.888  1.00  0.00     0.049 A 
ATOM     53  C   UNL A   1      44.110  26.299  28.069  1.00  0.00     0.074 A 
ATOM     54  C   UNL A   1      43.651  30.497  32.864  1.00  0.00     0.029 A 
ATOM     55  N   UNL A   1      43.834  28.542  31.850  1.00  0.00    -0.354 N 
ATOM     56  N   UNL A   1      44.864  27.360  28.050  1.00  0.00    -0.248 NA
ATOM     57  C   UNL A   1      44.104  25.550  29.321  1.00  0.00     0.031 C 
ATOM     58  C   UNL A   1      44.472  30.630  31.703  1.00  0.00     0.029 A 
ATOM     59  C   UNL A   1      44.574  29.391  31.079  1.00  0.00     0.049 A 
ATOM     60  H   UNL A   1      43.749  27.576  31.678  1.00  0.00     0.167 HD
ATOM     61  C   UNL A   1      45.040  27.658  29.382  1.00  0.00     0.074 A 
ATOM     62  C   UNL A   1      44.732  26.431  30.104  1.00  0.00     0.031 C 
ATOM     63  C   UNL A   1      45.056  28.957  29.791  1.00  0.00     0.037 A 
BRANCH  50  64
ATOM     64  C   UNL A   1      42.413  27.192  34.278  1.00  0.00     0.064 A 
ATOM     65  C   UNL A   1      42.076  27.205  35.652  1.00  0.00     0.173 A 
ATOM     66  C   UNL A   1      43.279  26.147  33.890  1.00  0.00     0.173 A 
ATOM     67  F   UNL A   1      41.254  28.143  36.148  1.00  0.00    -0.203 F 
ATOM     68  C   UNL A   1      42.644  26.315  36.570  1.00  0.00     0.198 A 
ATOM     69  C   UNL A   1      43.811  25.236  34.803  1.00  0.00     0.198 A 
ATOM     70  F   UNL A   1      43.733  26.012  32.641  1.00  0.00    -0.203 F 
ATOM     71  F   UNL A   1      42.388  26.454  37.878  1.00  0.00    -0.200 F 
ATOM     72  C   UNL A   1      43.522  25.339  36.147  1.00  0.00     0.200 A 
ATOM     73  F   UNL A   1      44.675  24.304  34.374  1.00  0.00    -0.200 F 
ATOM     74  F   UNL A   1      44.119  24.526  37.028  1.00  0.00    -0.200 F 
ENDBRANCH  50  64
BRANCH  51  75
ATOM     75  C   UNL A   1      43.211  24.861  26.140  1.00  0.00     0.064 A 
ATOM     76  C   UNL A   1      44.266  24.779  25.211  1.00  0.00     0.173 A 
ATOM     77  C   UNL A   1      42.497  23.675  26.383  1.00  0.00     0.173 A 
ATOM     78  F   UNL A   1      45.017  25.856  24.944  1.00  0.00    -0.203 F 
ATOM     79  C   UNL A   1      44.619  23.571  24.604  1.00  0.00     0.198 A 
ATOM     80  C   UNL A   1      42.850  22.468  25.773  1.00  0.00     0.198 A 
ATOM     81  F   UNL A   1      41.517  23.647  27.297  1.00  0.00    -0.203 F 
ATOM     82  F   UNL A   1      45.679  23.517  23.784  1.00  0.00    -0.200 F 
ATOM     83  C   UNL A   1      43.922  22.412  24.899  1.00  0.00     0.200 A 
ATOM     84  F   UNL A   1      42.195  21.343  26.095  1.00  0.00    -0.200 F 
ATOM     85  F   UNL A   1      44.309  21.238  24.379  1.00  0.00    -0.200 F 
ENDBRANCH  51  75
BRANCH  63  86
ATOM     86  C   UNL A   1      45.474  29.985  28.793  1.00  0.00     0.064 A 
ATOM     87  C   UNL A   1      44.605  30.664  27.923  1.00  0.00     0.173 A 
ATOM     88  C   UNL A   1      46.832  30.326  28.756  1.00  0.00     0.173 A 
ATOM     89  F   UNL A   1      43.283  30.443  27.953  1.00  0.00    -0.203 F 
ATOM     90  C   UNL A   1      45.091  31.613  27.025  1.00  0.00     0.198 A 
ATOM     91  C   UNL A   1      47.307  31.300  27.888  1.00  0.00     0.198 A 
ATOM     92  F   UNL A   1      47.698  29.727  29.589  1.00  0.00    -0.203 F 
ATOM     93  F   UNL A   1      44.253  32.233  26.182  1.00  0.00    -0.200 F 
ATOM     94  C   UNL A   1      46.440  31.934  27.013  1.00  0.00     0.200 A 
ATOM     95  F   UNL A   1      48.605  31.633  27.910  1.00  0.00    -0.200 F 
ATOM     96  F   UNL A   1      46.903  32.868  26.171  1.00  0.00    -0.200 F 
ENDBRANCH  63  86
ENDBRANCH  37  38
ENDBRANCH  29  32
ENDBRANCH  27  28
ENDBRANCH  26  27
ENDBRANCH   1  26
TORSDOF 14
ENDMDL
MODEL 2
REMARK VINA RESULT:     -13.2      1.422      2.046
REMARK SMILES CCc1ccc(C(=O)N2Cc3nc[nH]c3C[C@@H]2C(=O)NCCCCNC(=O)c2ccc(-c3c4nc(c(-c5c(F)c(F)c(F)c(F)c5F)c5ccc([nH]5)c(-c5c(F)c(F)c(F)c(F)c5F)c5nc(c(-c6c(F)c(F)c(F)c(F)c6F)c6ccc3[nH]6)C=C5)C=C4)cc2)o1
REMARK SMILES IDX 22 1 21 2 20 3 18 4 19 5 17 7 9 8 10 9 11 10 16 11 12 12
REMARK SMILES IDX 15 13 13 14 14 15 7 17 8 18 6 19 3 20 4 21 91 22 5 23 2 24
REMARK SMILES IDX 1 25 23 26 24 27 25 28 26 29 27 31 28 32 29 33 90 34 30 35
REMARK SMILES IDX 89 36 31 37 32 38 33 39 83 40 34 41 88 42 82 43 84 44 35 45
REMARK SMILES IDX 87 46 81 47 80 48 36 50 68 51 48 52 67 53 49 54 52 55 66 56
REMARK SMILES IDX 85 57 50 58 51 59 65 61 86 62 53 63 37 64 38 65 46 66 39 67
REMARK SMILES IDX 40 68 44 69 47 70 41 71 42 72 45 73 43 74 69 75 70 76 78 77
REMARK SMILES IDX 71 78 72 79 76 80 79 81 73 82 74 83 77 84 75 85 54 86 55 87
REMARK SMILES IDX 63 88 56 89 57 90 61 91 64 92 58 93 59 94 62 95 60 96
REMARK H PARENT 20 6 14 16 25 30 84 49 52 60
REMARK Flexibility Score: inf
ROOT
ATOM      1  C   UNL A   1      31.933  30.645  26.290  1.00  0.00     0.023 C 
ENDROOT
BRANCH   1   2
ATOM      2  C   UNL A   1      31.583  29.443  25.396  1.00  0.00     0.116 C 
BRANCH   2   3
ATOM      3  N   UNL A   1      32.487  29.379  24.265  1.00  0.00    -0.354 N 
ATOM      4  C   UNL A   1      33.169  28.327  23.735  1.00  0.00     0.243 C 
ATOM      5  O   UNL A   1      34.143  28.600  23.027  1.00  0.00    -0.273 OA
ATOM      6  H   UNL A   1      32.632  30.236  23.806  1.00  0.00     0.163 HD
BRANCH   4   7
ATOM      7  C   UNL A   1      32.760  26.847  23.952  1.00  0.00     0.181 C 
ATOM      8  N   UNL A   1      31.343  26.619  23.515  1.00  0.00    -0.318 N 
ATOM      9  C   UNL A   1      30.684  25.337  23.825  1.00  0.00     0.179 C 
ATOM     10  C   UNL A   1      31.189  24.758  25.089  1.00  0.00     0.081 A 
ATOM     11  C   UNL A   1      33.102  26.385  25.397  1.00  0.00     0.091 C 
ATOM     12  N   UNL A   1      30.654  23.668  25.721  1.00  0.00    -0.240 NA
ATOM     13  C   UNL A   1      32.283  25.219  25.774  1.00  0.00     0.042 A 
ATOM     14  C   UNL A   1      31.384  23.506  26.804  1.00  0.00     0.197 A 
ATOM     15  N   UNL A   1      32.384  24.440  26.889  1.00  0.00    -0.348 N 
ATOM     16  H   UNL A   1      33.044  24.531  27.613  1.00  0.00     0.167 HD
BRANCH   8  17
ATOM     17  C   UNL A   1      30.850  27.165  22.315  1.00  0.00     0.290 C 
ATOM     18  O   UNL A   1      31.381  26.850  21.249  1.00  0.00    -0.265 OA
BRANCH  17  19
ATOM     19  C   UNL A   1      29.802  28.167  22.414  1.00  0.00     0.191 A 
ATOM     20  C   UNL A   1      28.848  30.110  22.012  1.00  0.00     0.104 A 
ATOM     21  C   UNL A   1      27.989  29.427  22.843  1.00  0.00     0.046 A 
ATOM     22  O   UNL A   1      29.959  29.362  21.760  1.00  0.00    -0.456 OA
ATOM     23  C   UNL A   1      28.615  28.195  23.127  1.00  0.00     0.056 A 
BRANCH  20  24
ATOM     24  C   UNL A   1      28.779  31.453  21.388  1.00  0.00     0.072 C 
ATOM     25  C   UNL A   1      28.713  32.549  22.440  1.00  0.00     0.012 C 
ENDBRANCH  20  24
ENDBRANCH  17  19
ENDBRANCH   8  17
ENDBRANCH   4   7
ENDBRANCH   2   3
ENDBRANCH   1   2
BRANCH   1  26
ATOM     26  C   UNL A   1      33.039  30.402  27.328  1.00  0.00     0.023 C 
BRANCH  26  27
ATOM     27  C   UNL A   1      34.174  31.415  27.293  1.00  0.00     0.116 C 
BRANCH  27  28
ATOM     28  N   UNL A   1      34.278  32.162  28.539  1.00  0.00    -0.352 N 
ATOM     29  C   UNL A   1      35.100  31.916  29.618  1.00  0.00     0.251 C 
ATOM     30  H   UNL A   1      33.685  32.944  28.621  1.00  0.00     0.163 HD
ATOM     31  O   UNL A   1      34.804  32.330  30.728  1.00  0.00    -0.269 OA
BRANCH  29  32
ATOM     32  C   UNL A   1      36.342  31.147  29.419  1.00  0.00     0.039 A 
ATOM     33  C   UNL A   1      37.572  31.807  29.382  1.00  0.00     0.014 A 
ATOM     34  C   UNL A   1      36.275  29.761  29.262  1.00  0.00     0.014 A 
ATOM     35  C   UNL A   1      38.737  31.053  29.271  1.00  0.00     0.010 A 
ATOM     36  C   UNL A   1      37.429  29.005  29.242  1.00  0.00     0.010 A 
ATOM     37  C   UNL A   1      38.663  29.647  29.235  1.00  0.00    -0.014 A 
BRANCH  37  38
ATOM     38  C   UNL A   1      39.884  28.863  29.431  1.00  0.00     0.031 A 
ATOM     39  C   UNL A   1      40.166  28.620  30.872  1.00  0.00     0.074 A 
ATOM     40  C   UNL A   1      40.584  28.248  28.451  1.00  0.00     0.049 A 
ATOM     41  N   UNL A   1      41.121  29.131  31.573  1.00  0.00    -0.248 NA
ATOM     42  C   UNL A   1      39.180  27.876  31.678  1.00  0.00     0.031 C 
ATOM     43  C   UNL A   1      40.213  28.144  27.037  1.00  0.00     0.029 A 
ATOM     44  N   UNL A   1      41.734  27.503  28.513  1.00  0.00    -0.354 N 
ATOM     45  C   UNL A   1      41.009  28.561  32.840  1.00  0.00     0.074 A 
ATOM     46  C   UNL A   1      39.692  27.992  32.906  1.00  0.00     0.031 C 
ATOM     47  C   UNL A   1      40.979  27.209  26.430  1.00  0.00     0.029 A 
ATOM     48  C   UNL A   1      42.004  26.767  27.359  1.00  0.00     0.049 A 
ATOM     49  H   UNL A   1      42.319  27.489  29.305  1.00  0.00     0.167 HD
ATOM     50  C   UNL A   1      42.138  28.321  33.564  1.00  0.00     0.037 A 
ATOM     51  C   UNL A   1      43.000  25.863  27.164  1.00  0.00     0.037 A 
ATOM     52  C   UNL A   1      43.248  29.045  32.989  1.00  0.00     0.049 A 
ATOM     53  C   UNL A   1      44.046  26.121  28.174  1.00  0.00     0.074 A 
ATOM     54  C   UNL A   1      43.701  30.344  32.958  1.00  0.00     0.029 A 
ATOM     55  N   UNL A   1      43.839  28.382  31.949  1.00  0.00    -0.354 N 
ATOM     56  N   UNL A   1      44.821  27.167  28.147  1.00  0.00    -0.248 NA
ATOM     57  C   UNL A   1      44.033  25.377  29.429  1.00  0.00     0.031 C 
ATOM     58  C   UNL A   1      44.516  30.457  31.792  1.00  0.00     0.029 A 
ATOM     59  C   UNL A   1      44.590  29.214  31.171  1.00  0.00     0.049 A 
ATOM     60  H   UNL A   1      43.733  27.417  31.781  1.00  0.00     0.167 HD
ATOM     61  C   UNL A   1      45.011  27.467  29.477  1.00  0.00     0.074 A 
ATOM     62  C   UNL A   1      44.684  26.248  30.205  1.00  0.00     0.031 C 
ATOM     63  C   UNL A   1      45.055  28.766  29.882  1.00  0.00     0.037 A 
BRANCH  50  64
ATOM     64  C   UNL A   1      42.407  27.069  34.391  1.00  0.00     0.064 A 
ATOM     65  C   UNL A   1      42.058  27.085  35.762  1.00  0.00     0.173 A 
ATOM     66  C   UNL A   1      43.266  26.015  34.011  1.00  0.00     0.173 A 
ATOM     67  F   UNL A   1      41.241  28.031  36.251  1.00  0.00    -0.203 F 
ATOM     68  C   UNL A   1      42.609  26.189  36.685  1.00  0.00     0.198 A 
ATOM     69  C   UNL A   1      43.781  25.099  34.928  1.00  0.00     0.198 A 
ATOM     70  F   UNL A   1      43.729  25.875  32.766  1.00  0.00    -0.203 F 
ATOM     71  F   UNL A   1      42.344  26.331  37.991  1.00  0.00    -0.200 F 
ATOM     72  C   UNL A   1      43.481  25.205  36.269  1.00  0.00     0.200 A 
ATOM     73  F   UNL A   1      44.639  24.158  34.506  1.00  0.00    -0.200 F 
ATOM     74  F   UNL A   1      44.063  24.386  37.156  1.00  0.00    -0.200 F 
ENDBRANCH  50  64
BRANCH  51  75
ATOM     75  C   UNL A   1      43.106  24.695  26.256  1.00  0.00     0.064 A 
ATOM     76  C   UNL A   1      44.136  24.604  25.300  1.00  0.00     0.173 A 
ATOM     77  C   UNL A   1      42.395  23.513  26.524  1.00  0.00     0.173 A 
ATOM     78  F   UNL A   1      44.884  25.677  25.007  1.00  0.00    -0.203 F 
ATOM     79  C   UNL A   1      44.469  23.391  24.690  1.00  0.00     0.198 A 
ATOM     80  C   UNL A   1      42.727  22.301  25.913  1.00  0.00     0.198 A 
ATOM     81  F   UNL A   1      41.440  23.494  27.464  1.00  0.00    -0.203 F 
ATOM     82  F   UNL A   1      45.506  23.329  23.843  1.00  0.00    -0.200 F 
ATOM     83  C   UNL A   1      43.775  22.237  25.010  1.00  0.00     0.200 A 
ATOM     84  F   UNL A   1      42.076  21.181  26.257  1.00  0.00    -0.200 F 
ATOM     85  F   UNL A   1      44.143  21.059  24.487  1.00  0.00    -0.200 F 
ENDBRANCH  51  75
BRANCH  63  86
ATOM     86  C   UNL A   1      45.487  29.783  28.877  1.00  0.00     0.064 A 
ATOM     87  C   UNL A   1      46.820  30.069  28.541  1.00  0.00     0.173 A 
ATOM     88  C   UNL A   1      44.479  30.470  28.188  1.00  0.00     0.173 A 
ATOM     89  F   UNL A   1      47.835  29.400  29.107  1.00  0.00    -0.203 F 
ATOM     90  C   UNL A   1      47.124  31.035  27.584  1.00  0.00     0.198 A 
ATOM     91  C   UNL A   1      44.784  31.404  27.207  1.00  0.00     0.198 A 
ATOM     92  F   UNL A   1      43.188  30.209  28.451  1.00  0.00    -0.203 F 
ATOM     93  F   UNL A   1      48.402  31.317  27.294  1.00  0.00    -0.200 F 
ATOM     94  C   UNL A   1      46.106  31.696  26.914  1.00  0.00     0.200 A 
ATOM     95  F   UNL A   1      43.795  32.009  26.536  1.00  0.00    -0.200 F 
ATOM     96  F   UNL A   1      46.397  32.605  25.973  1.00  0.00    -0.200 F 
ENDBRANCH  63  86
ENDBRANCH  37  38
ENDBRANCH  29  32
ENDBRANCH  27  28
ENDBRANCH  26  27
ENDBRANCH   1  26
TORSDOF 14
ENDMDL
MODEL 3
REMARK VINA RESULT:     -13.2      2.211      7.296
REMARK SMILES CCc1ccc(C(=O)N2Cc3nc[nH]c3C[C@@H]2C(=O)NCCCCNC(=O)c2ccc(-c3c4nc(c(-c5c(F)c(F)c(F)c(F)c5F)c5ccc([nH]5)c(-c5c(F)c(F)c(F)c(F)c5F)c5nc(c(-c6c(F)c(F)c(F)c(F)c6F)c6ccc3[nH]6)C=C5)C=C4)cc2)o1
REMARK SMILES IDX 22 1 21 2 20 3 18 4 19 5 17 7 9 8 10 9 11 10 16 11 12 12
REMARK SMILES IDX 15 13 13 14 14 15 7 17 8 18 6 19 3 20 4 21 91 22 5 23 2 24
REMARK SMILES IDX 1 25 23 26 24 27 25 28 26 29 27 31 28 32 29 33 90 34 30 35
REMARK SMILES IDX 89 36 31 37 32 38 33 39 83 40 34 41 88 42 82 43 84 44 35 45
REMARK SMILES IDX 87 46 81 47 80 48 36 50 68 51 48 52 67 53 49 54 52 55 66 56
REMARK SMILES IDX 85 57 50 58 51 59 65 61 86 62 53 63 37 64 38 65 46 66 39 67
REMARK SMILES IDX 40 68 44 69 47 70 41 71 42 72 45 73 43 74 69 75 70 76 78 77
REMARK SMILES IDX 71 78 72 79 76 80 79 81 73 82 74 83 77 84 75 85 54 86 55 87
REMARK SMILES IDX 63 88 56 89 57 90 61 91 64 92 58 93 59 94 62 95 60 96
REMARK H PARENT 20 6 14 16 25 30 84 49 52 60
REMARK Flexibility Score: inf
ROOT
ATOM      1  C   UNL A   1      33.119  27.351  26.423  1.00  0.00     0.023 C 
ENDROOT
BRANCH   1   2
ATOM      2  C   UNL A   1      31.631  27.056  26.171  1.00  0.00     0.116 C 
BRANCH   2   3
ATOM      3  N   UNL A   1      31.277  25.761  26.717  1.00  0.00    -0.354 N 
ATOM      4  C   UNL A   1      30.982  24.587  26.095  1.00  0.00     0.243 C 
ATOM      5  O   UNL A   1      30.358  23.752  26.757  1.00  0.00    -0.273 OA
ATOM      6  H   UNL A   1      31.245  25.724  27.700  1.00  0.00     0.163 HD
BRANCH   4   7
ATOM      7  C   UNL A   1      31.417  24.257  24.643  1.00  0.00     0.181 C 
ATOM      8  N   UNL A   1      32.898  24.037  24.570  1.00  0.00    -0.318 N 
ATOM      9  C   UNL A   1      33.552  23.918  23.254  1.00  0.00     0.179 C 
ATOM     10  C   UNL A   1      32.854  24.720  22.226  1.00  0.00     0.081 A 
ATOM     11  C   UNL A   1      30.839  25.299  23.643  1.00  0.00     0.091 C 
ATOM     12  N   UNL A   1      33.318  24.943  20.958  1.00  0.00    -0.240 NA
ATOM     13  C   UNL A   1      31.632  25.317  22.401  1.00  0.00     0.042 A 
ATOM     14  C   UNL A   1      32.411  25.711  20.391  1.00  0.00     0.197 A 
ATOM     15  N   UNL A   1      31.369  25.980  21.238  1.00  0.00    -0.348 N 
ATOM     16  H   UNL A   1      30.584  26.541  21.046  1.00  0.00     0.167 HD
BRANCH   8  17
ATOM     17  C   UNL A   1      33.575  23.277  25.543  1.00  0.00     0.290 C 
ATOM     18  O   UNL A   1      33.970  23.829  26.570  1.00  0.00    -0.265 OA
BRANCH  17  19
ATOM     19  C   UNL A   1      33.868  21.889  25.225  1.00  0.00     0.191 A 
ATOM     20  C   UNL A   1      33.372  19.809  24.701  1.00  0.00     0.104 A 
ATOM     21  C   UNL A   1      34.743  19.859  24.810  1.00  0.00     0.046 A 
ATOM     22  O   UNL A   1      32.831  21.031  24.968  1.00  0.00    -0.456 OA
ATOM     23  C   UNL A   1      35.059  21.184  25.179  1.00  0.00     0.056 A 
BRANCH  20  24
ATOM     24  C   UNL A   1      32.435  18.709  24.371  1.00  0.00     0.072 C 
ATOM     25  C   UNL A   1      32.398  18.443  22.875  1.00  0.00     0.012 C 
ENDBRANCH  20  24
ENDBRANCH  17  19
ENDBRANCH   8  17
ENDBRANCH   4   7
ENDBRANCH   2   3
ENDBRANCH   1   2
BRANCH   1  26
ATOM     26  C   UNL A   1      33.421  28.664  27.161  1.00  0.00     0.023 C 
BRANCH  26  27
ATOM     27  C   UNL A   1      34.902  28.961  27.345  1.00  0.00     0.116 C 
BRANCH  27  28
ATOM     28  N   UNL A   1      35.130  30.023  28.315  1.00  0.00    -0.352 N 
ATOM     29  C   UNL A   1      36.166  30.154  29.214  1.00  0.00     0.251 C 
ATOM     30  H   UNL A   1      34.456  30.742  28.332  1.00  0.00     0.163 HD
ATOM     31  O   UNL A   1      36.029  30.824  30.226  1.00  0.00    -0.269 OA
BRANCH  29  32
ATOM     32  C   UNL A   1      37.448  29.477  28.941  1.00  0.00     0.039 A 
ATOM     33  C   UNL A   1      38.157  29.769  27.775  1.00  0.00     0.014 A 
ATOM     34  C   UNL A   1      37.936  28.538  29.854  1.00  0.00     0.014 A 
ATOM     35  C   UNL A   1      39.400  29.175  27.577  1.00  0.00     0.010 A 
ATOM     36  C   UNL A   1      39.206  28.018  29.704  1.00  0.00     0.010 A 
ATOM     37  C   UNL A   1      39.937  28.324  28.562  1.00  0.00    -0.014 A 
BRANCH  37  38
ATOM     38  C   UNL A   1      41.354  27.957  28.494  1.00  0.00     0.031 A 
ATOM     39  C   UNL A   1      41.562  26.660  27.795  1.00  0.00     0.074 A 
ATOM     40  C   UNL A   1      42.386  28.762  28.834  1.00  0.00     0.049 A 
ATOM     41  N   UNL A   1      41.936  25.544  28.324  1.00  0.00    -0.248 NA
ATOM     42  C   UNL A   1      41.135  26.530  26.390  1.00  0.00     0.031 C 
ATOM     43  C   UNL A   1      42.310  30.174  29.220  1.00  0.00     0.029 A 
ATOM     44  N   UNL A   1      43.737  28.528  28.821  1.00  0.00    -0.354 N 
ATOM     45  C   UNL A   1      42.048  24.642  27.268  1.00  0.00     0.074 A 
ATOM     46  C   UNL A   1      41.335  25.228  26.167  1.00  0.00     0.031 C 
ATOM     47  C   UNL A   1      43.545  30.725  29.184  1.00  0.00     0.029 A 
ATOM     48  C   UNL A   1      44.520  29.677  28.938  1.00  0.00     0.049 A 
ATOM     49  H   UNL A   1      44.122  27.625  28.738  1.00  0.00     0.167 HD
ATOM     50  C   UNL A   1      43.007  23.675  27.317  1.00  0.00     0.037 A 
ATOM     51  C   UNL A   1      45.873  29.773  28.850  1.00  0.00     0.037 A 
ATOM     52  C   UNL A   1      43.518  23.565  28.662  1.00  0.00     0.049 A 
ATOM     53  C   UNL A   1      46.436  28.430  29.095  1.00  0.00     0.074 A 
ATOM     54  C   UNL A   1      43.104  23.031  29.862  1.00  0.00     0.029 A 
ATOM     55  N   UNL A   1      44.500  24.477  28.939  1.00  0.00    -0.354 N 
ATOM     56  N   UNL A   1      46.428  27.857  30.264  1.00  0.00    -0.248 NA
ATOM     57  C   UNL A   1      46.731  27.556  27.965  1.00  0.00     0.031 C 
ATOM     58  C   UNL A   1      43.814  23.735  30.881  1.00  0.00     0.029 A 
ATOM     59  C   UNL A   1      44.685  24.640  30.282  1.00  0.00     0.049 A 
ATOM     60  H   UNL A   1      45.011  24.960  28.251  1.00  0.00     0.167 HD
ATOM     61  C   UNL A   1      46.252  26.523  29.971  1.00  0.00     0.074 A 
ATOM     62  C   UNL A   1      46.641  26.372  28.576  1.00  0.00     0.031 C 
ATOM     63  C   UNL A   1      45.465  25.749  30.769  1.00  0.00     0.037 A 
BRANCH  50  64
ATOM     64  C   UNL A   1      43.877  23.236  26.145  1.00  0.00     0.064 A 
ATOM     65  C   UNL A   1      43.923  21.859  25.825  1.00  0.00     0.173 A 
ATOM     66  C   UNL A   1      44.895  24.015  25.555  1.00  0.00     0.173 A 
ATOM     67  F   UNL A   1      43.007  21.009  26.316  1.00  0.00    -0.203 F 
ATOM     68  C   UNL A   1      44.960  21.299  25.071  1.00  0.00     0.198 A 
ATOM     69  C   UNL A   1      45.906  23.459  24.768  1.00  0.00     0.198 A 
ATOM     70  F   UNL A   1      45.027  25.325  25.784  1.00  0.00    -0.203 F 
ATOM     71  F   UNL A   1      45.024  19.971  24.907  1.00  0.00    -0.200 F 
ATOM     72  C   UNL A   1      45.959  22.099  24.554  1.00  0.00     0.200 A 
ATOM     73  F   UNL A   1      46.875  24.251  24.288  1.00  0.00    -0.200 F 
ATOM     74  F   UNL A   1      46.989  21.562  23.887  1.00  0.00    -0.200 F 
ENDBRANCH  50  64
BRANCH  51  75
ATOM     75  C   UNL A   1      46.756  30.896  28.454  1.00  0.00     0.064 A 
ATOM     76  C   UNL A   1      46.561  31.588  27.244  1.00  0.00     0.173 A 
ATOM     77  C   UNL A   1      47.601  31.508  29.396  1.00  0.00     0.173 A 
ATOM     78  F   UNL A   1      45.747  31.090  26.303  1.00  0.00    -0.203 F 
ATOM     79  C   UNL A   1      47.133  32.843  27.013  1.00  0.00     0.198 A 
ATOM     80  C   UNL A   1      48.174  32.761  29.164  1.00  0.00     0.198 A 
ATOM     81  F   UNL A   1      47.794  30.949  30.599  1.00  0.00    -0.203 F 
ATOM     82  F   UNL A   1      46.861  33.506  25.879  1.00  0.00    -0.200 F 
ATOM     83  C   UNL A   1      47.926  33.437  27.980  1.00  0.00     0.200 A 
ATOM     84  F   UNL A   1      48.907  33.346  30.121  1.00  0.00    -0.200 F 
ATOM     85  F   UNL A   1      48.410  34.673  27.794  1.00  0.00    -0.200 F 
ENDBRANCH  51  75
BRANCH  63  86
ATOM     86  C   UNL A   1      45.311  26.170  32.194  1.00  0.00     0.064 A 
ATOM     87  C   UNL A   1      44.241  26.925  32.701  1.00  0.00     0.173 A 
ATOM     88  C   UNL A   1      46.291  25.737  33.097  1.00  0.00     0.173 A 
ATOM     89  F   UNL A   1      43.230  27.311  31.909  1.00  0.00    -0.203 F 
ATOM     90  C   UNL A   1      44.184  27.265  34.051  1.00  0.00     0.198 A 
ATOM     91  C   UNL A   1      46.211  26.045  34.449  1.00  0.00     0.198 A 
ATOM     92  F   UNL A   1      47.317  24.987  32.667  1.00  0.00    -0.203 F 
ATOM     93  F   UNL A   1      43.170  28.010  34.515  1.00  0.00    -0.200 F 
ATOM     94  C   UNL A   1      45.165  26.820  34.924  1.00  0.00     0.200 A 
ATOM     95  F   UNL A   1      47.140  25.577  35.293  1.00  0.00    -0.200 F 
ATOM     96  F   UNL A   1      45.095  27.122  36.228  1.00  0.00    -0.200 F 
ENDBRANCH  63  86
ENDBRANCH  37  38
ENDBRANCH  29  32
ENDBRANCH  27  28
ENDBRANCH  26  27
ENDBRANCH   1  26
TORSDOF 14
ENDMDL
