MODEL 1
REMARK VINA RESULT:     -12.4      0.000      0.000
REMARK SMILES CC(C)c1ccc([C@]2(C(=O)NCCCCNC(=O)c3ccc(-c4c5nc(c(-c6c(F)c(F)c(F)c(F)c6F)c6ccc([nH]6)c(-c6c(F)c(F)c(F)c(F)c6F)c6nc(c(-c7c(F)c(F)c(F)c(F)c7F)c7ccc4[nH]7)C=C6)C=C5)cc3)CCC[C@@H]2C)cc1
REMARK SMILES IDX 13 1 12 2 11 3 9 4 10 5 8 7 82 8 85 9 83 10 84 11 86 12 7 13
REMARK SMILES IDX 4 14 5 15 88 16 6 17 87 18 2 19 1 20 3 21 14 22 15 23 16 24
REMARK SMILES IDX 17 25 18 27 19 28 20 29 81 30 21 31 80 32 22 33 23 34 24 35
REMARK SMILES IDX 74 36 25 37 79 38 73 39 75 40 26 41 78 42 72 43 71 44 27 46
REMARK SMILES IDX 59 47 39 48 58 49 40 50 43 51 57 52 76 53 41 54 42 55 56 57
REMARK SMILES IDX 77 58 44 59 28 60 29 61 37 62 30 63 31 64 35 65 38 66 32 67
REMARK SMILES IDX 33 68 36 69 34 70 60 71 61 72 69 73 62 74 63 75 67 76 70 77
REMARK SMILES IDX 64 78 65 79 68 80 66 81 45 82 46 83 54 84 47 85 48 86 52 87
REMARK SMILES IDX 55 88 49 89 50 90 53 91 51 92
REMARK H PARENT 11 6 16 26 75 45 43 56
REMARK Flexibility Score: inf
ROOT
ATOM      1  C   UNL A   1      32.645  28.843  23.532  1.00  0.00     0.023 C 
ENDROOT
BRANCH   1   2
ATOM      2  C   UNL A   1      33.878  27.951  23.499  1.00  0.00     0.116 C 
BRANCH   2   3
ATOM      3  N   UNL A   1      33.903  26.995  22.425  1.00  0.00    -0.355 N 
ATOM      4  C   UNL A   1      33.322  25.773  22.275  1.00  0.00     0.230 C 
ATOM      5  O   UNL A   1      33.104  25.502  21.084  1.00  0.00    -0.274 OA
ATOM      6  H   UNL A   1      34.442  27.277  21.651  1.00  0.00     0.163 HD
BRANCH   4   7
ATOM      7  C   UNL A   1      32.967  24.735  23.434  1.00  0.00     0.077 C 
ATOM      8  C   UNL A   1      32.130  25.374  24.572  1.00  0.00     0.022 C 
ATOM      9  C   UNL A   1      32.047  23.537  22.972  1.00  0.00     0.006 C 
ATOM     10  C   UNL A   1      30.671  24.939  24.413  1.00  0.00     0.002 C 
ATOM     11  C   UNL A   1      30.601  23.981  23.231  1.00  0.00     0.005 C 
ATOM     12  C   UNL A   1      32.167  22.197  23.730  1.00  0.00     0.009 C 
BRANCH   7  13
ATOM     13  C   UNL A   1      34.359  24.257  23.960  1.00  0.00    -0.032 A 
ATOM     14  C   UNL A   1      36.904  23.439  24.965  1.00  0.00    -0.045 A 
ATOM     15  C   UNL A   1      35.998  24.122  25.779  1.00  0.00     0.004 A 
ATOM     16  C   UNL A   1      36.481  23.080  23.678  1.00  0.00     0.004 A 
ATOM     17  C   UNL A   1      34.740  24.493  25.294  1.00  0.00     0.005 A 
ATOM     18  C   UNL A   1      35.229  23.477  23.185  1.00  0.00     0.005 A 
BRANCH  14  19
ATOM     19  C   UNL A   1      38.291  23.041  25.440  1.00  0.00     0.013 C 
ATOM     20  C   UNL A   1      38.785  23.826  26.661  1.00  0.00     0.012 C 
ATOM     21  C   UNL A   1      38.357  21.539  25.716  1.00  0.00     0.012 C 
ENDBRANCH  14  19
ENDBRANCH   7  13
ENDBRANCH   4   7
ENDBRANCH   2   3
ENDBRANCH   1   2
BRANCH   1  22
ATOM     22  C   UNL A   1      32.090  29.124  24.926  1.00  0.00     0.023 C 
BRANCH  22  23
ATOM     23  C   UNL A   1      33.071  29.733  25.923  1.00  0.00     0.116 C 
BRANCH  23  24
ATOM     24  N   UNL A   1      32.715  31.065  26.390  1.00  0.00    -0.352 N 
ATOM     25  C   UNL A   1      33.401  31.861  27.283  1.00  0.00     0.251 C 
ATOM     26  H   UNL A   1      31.884  31.444  26.025  1.00  0.00     0.163 HD
ATOM     27  O   UNL A   1      32.952  32.940  27.637  1.00  0.00    -0.269 OA
BRANCH  25  28
ATOM     28  C   UNL A   1      34.673  31.361  27.846  1.00  0.00     0.039 A 
ATOM     29  C   UNL A   1      35.750  32.242  27.970  1.00  0.00     0.014 A 
ATOM     30  C   UNL A   1      34.778  30.046  28.305  1.00  0.00     0.014 A 
ATOM     31  C   UNL A   1      36.911  31.821  28.619  1.00  0.00     0.010 A 
ATOM     32  C   UNL A   1      35.898  29.657  29.029  1.00  0.00     0.010 A 
ATOM     33  C   UNL A   1      36.982  30.535  29.182  1.00  0.00    -0.014 A 
BRANCH  33  34
ATOM     34  C   UNL A   1      38.194  30.082  29.908  1.00  0.00     0.031 A 
ATOM     35  C   UNL A   1      38.433  30.537  31.322  1.00  0.00     0.074 A 
ATOM     36  C   UNL A   1      39.103  29.311  29.280  1.00  0.00     0.049 A 
ATOM     37  N   UNL A   1      39.436  30.270  32.120  1.00  0.00    -0.248 NA
ATOM     38  C   UNL A   1      37.428  31.439  31.904  1.00  0.00     0.031 C 
ATOM     39  C   UNL A   1      39.019  28.862  27.890  1.00  0.00     0.029 A 
ATOM     40  N   UNL A   1      40.280  28.768  29.734  1.00  0.00    -0.354 N 
ATOM     41  C   UNL A   1      39.192  30.991  33.282  1.00  0.00     0.074 A 
ATOM     42  C   UNL A   1      37.984  31.753  33.064  1.00  0.00     0.031 C 
ATOM     43  C   UNL A   1      40.075  28.078  27.616  1.00  0.00     0.029 A 
ATOM     44  C   UNL A   1      40.923  27.993  28.800  1.00  0.00     0.049 A 
ATOM     45  H   UNL A   1      40.628  28.920  30.641  1.00  0.00     0.167 HD
ATOM     46  C   UNL A   1      39.895  30.991  34.439  1.00  0.00     0.037 A 
ATOM     47  C   UNL A   1      42.062  27.281  28.900  1.00  0.00     0.037 A 
ATOM     48  C   UNL A   1      41.071  30.195  34.667  1.00  0.00     0.049 A 
ATOM     49  C   UNL A   1      42.805  27.270  30.209  1.00  0.00     0.074 A 
ATOM     50  C   UNL A   1      41.811  30.059  35.827  1.00  0.00     0.029 A 
ATOM     51  N   UNL A   1      41.675  29.394  33.709  1.00  0.00    -0.354 N 
ATOM     52  N   UNL A   1      42.517  27.881  31.332  1.00  0.00    -0.248 NA
ATOM     53  C   UNL A   1      44.027  26.455  30.266  1.00  0.00     0.031 C 
ATOM     54  C   UNL A   1      42.889  29.207  35.559  1.00  0.00     0.029 A 
ATOM     55  C   UNL A   1      42.791  28.773  34.247  1.00  0.00     0.049 A 
ATOM     56  H   UNL A   1      41.358  29.283  32.784  1.00  0.00     0.167 HD
ATOM     57  C   UNL A   1      43.496  27.497  32.239  1.00  0.00     0.074 A 
ATOM     58  C   UNL A   1      44.380  26.590  31.537  1.00  0.00     0.031 C 
ATOM     59  C   UNL A   1      43.648  27.860  33.536  1.00  0.00     0.037 A 
BRANCH  46  60
ATOM     60  C   UNL A   1      39.401  31.877  35.547  1.00  0.00     0.064 A 
ATOM     61  C   UNL A   1      38.500  31.412  36.517  1.00  0.00     0.173 A 
ATOM     62  C   UNL A   1      39.844  33.204  35.647  1.00  0.00     0.173 A 
ATOM     63  F   UNL A   1      38.035  30.155  36.460  1.00  0.00    -0.203 F 
ATOM     64  C   UNL A   1      38.032  32.254  37.524  1.00  0.00     0.198 A 
ATOM     65  C   UNL A   1      39.399  34.033  36.674  1.00  0.00     0.198 A 
ATOM     66  F   UNL A   1      40.708  33.699  34.748  1.00  0.00    -0.203 F 
ATOM     67  F   UNL A   1      37.124  31.804  38.402  1.00  0.00    -0.200 F 
ATOM     68  C   UNL A   1      38.486  33.560  37.604  1.00  0.00     0.200 A 
ATOM     69  F   UNL A   1      39.848  35.293  36.758  1.00  0.00    -0.200 F 
ATOM     70  F   UNL A   1      38.035  34.369  38.574  1.00  0.00    -0.200 F 
ENDBRANCH  46  60
BRANCH  47  71
ATOM     71  C   UNL A   1      42.537  26.468  27.750  1.00  0.00     0.064 A 
ATOM     72  C   UNL A   1      43.410  27.018  26.800  1.00  0.00     0.173 A 
ATOM     73  C   UNL A   1      42.129  25.140  27.569  1.00  0.00     0.173 A 
ATOM     74  F   UNL A   1      43.813  28.291  26.919  1.00  0.00    -0.203 F 
ATOM     75  C   UNL A   1      43.837  26.278  25.700  1.00  0.00     0.198 A 
ATOM     76  C   UNL A   1      42.578  24.391  26.483  1.00  0.00     0.198 A 
ATOM     77  F   UNL A   1      41.301  24.564  28.453  1.00  0.00    -0.203 F 
ATOM     78  F   UNL A   1      44.633  26.844  24.782  1.00  0.00    -0.200 F 
ATOM     79  C   UNL A   1      43.425  24.963  25.544  1.00  0.00     0.200 A 
ATOM     80  F   UNL A   1      42.189  23.116  26.342  1.00  0.00    -0.200 F 
ATOM     81  F   UNL A   1      43.837  24.251  24.487  1.00  0.00    -0.200 F 
ENDBRANCH  47  71
BRANCH  59  82
ATOM     82  C   UNL A   1      44.784  27.237  34.294  1.00  0.00     0.064 A 
ATOM     83  C   UNL A   1      44.641  26.015  34.966  1.00  0.00     0.173 A 
ATOM     84  C   UNL A   1      46.041  27.860  34.321  1.00  0.00     0.173 A 
ATOM     85  F   UNL A   1      43.455  25.387  34.982  1.00  0.00    -0.203 F 
ATOM     86  C   UNL A   1      45.706  25.455  35.666  1.00  0.00     0.198 A 
ATOM     87  C   UNL A   1      47.113  27.282  34.995  1.00  0.00     0.198 A 
ATOM     88  F   UNL A   1      46.232  29.027  33.687  1.00  0.00    -0.203 F 
ATOM     89  F   UNL A   1      45.533  24.314  36.346  1.00  0.00    -0.200 F 
ATOM     90  C   UNL A   1      46.942  26.085  35.674  1.00  0.00     0.200 A 
ATOM     91  F   UNL A   1      48.310  27.885  34.989  1.00  0.00    -0.200 F 
ATOM     92  F   UNL A   1      47.968  25.543  36.344  1.00  0.00    -0.200 F 
ENDBRANCH  59  82
ENDBRANCH  33  34
ENDBRANCH  25  28
ENDBRANCH  23  24
ENDBRANCH  22  23
ENDBRANCH   1  22
TORSDOF 13
ENDMDL
MODEL 2
REMARK VINA RESULT:     -12.3      1.540      2.686
REMARK SMILES CC(C)c1ccc([C@]2(C(=O)NCCCCNC(=O)c3ccc(-c4c5nc(c(-c6c(F)c(F)c(F)c(F)c6F)c6ccc([nH]6)c(-c6c(F)c(F)c(F)c(F)c6F)c6nc(c(-c7c(F)c(F)c(F)c(F)c7F)c7ccc4[nH]7)C=C6)C=C5)cc3)CCC[C@@H]2C)cc1
REMARK SMILES IDX 13 1 12 2 11 3 9 4 10 5 8 7 82 8 85 9 83 10 84 11 86 12 7 13
REMARK SMILES IDX 4 14 5 15 88 16 6 17 87 18 2 19 1 20 3 21 14 22 15 23 16 24
REMARK SMILES IDX 17 25 18 27 19 28 20 29 81 30 21 31 80 32 22 33 23 34 24 35
REMARK SMILES IDX 74 36 25 37 79 38 73 39 75 40 26 41 78 42 72 43 71 44 27 46
REMARK SMILES IDX 59 47 39 48 58 49 40 50 43 51 57 52 76 53 41 54 42 55 56 57
REMARK SMILES IDX 77 58 44 59 28 60 29 61 37 62 30 63 31 64 35 65 38 66 32 67
REMARK SMILES IDX 33 68 36 69 34 70 60 71 61 72 69 73 62 74 63 75 67 76 70 77
REMARK SMILES IDX 64 78 65 79 68 80 66 81 45 82 46 83 54 84 47 85 48 86 52 87
REMARK SMILES IDX 55 88 49 89 50 90 53 91 51 92
REMARK H PARENT 11 6 16 26 75 45 43 56
REMARK Flexibility Score: inf
ROOT
ATOM      1  C   UNL A   1      31.438  27.315  26.635  1.00  0.00     0.023 C 
ENDROOT
BRANCH   1   2
ATOM      2  C   UNL A   1      30.649  26.212  25.945  1.00  0.00     0.116 C 
BRANCH   2   3
ATOM      3  N   UNL A   1      30.801  24.906  26.528  1.00  0.00    -0.355 N 
ATOM      4  C   UNL A   1      31.820  24.005  26.500  1.00  0.00     0.230 C 
ATOM      5  O   UNL A   1      31.835  23.283  27.509  1.00  0.00    -0.274 OA
ATOM      6  H   UNL A   1      30.019  24.605  27.044  1.00  0.00     0.163 HD
BRANCH   4   7
ATOM      7  C   UNL A   1      32.890  23.807  25.332  1.00  0.00     0.077 C 
ATOM      8  C   UNL A   1      32.556  24.643  24.069  1.00  0.00     0.022 C 
ATOM      9  C   UNL A   1      34.344  24.308  25.691  1.00  0.00     0.006 C 
ATOM     10  C   UNL A   1      33.476  25.866  24.031  1.00  0.00     0.002 C 
ATOM     11  C   UNL A   1      34.426  25.765  25.217  1.00  0.00     0.005 C 
ATOM     12  C   UNL A   1      35.539  23.621  24.995  1.00  0.00     0.009 C 
BRANCH   7  13
ATOM     13  C   UNL A   1      32.839  22.276  25.021  1.00  0.00    -0.032 A 
ATOM     14  C   UNL A   1      32.694  19.491  24.410  1.00  0.00    -0.045 A 
ATOM     15  C   UNL A   1      32.365  20.452  23.452  1.00  0.00     0.004 A 
ATOM     16  C   UNL A   1      33.195  19.940  25.639  1.00  0.00     0.004 A 
ATOM     17  C   UNL A   1      32.467  21.816  23.745  1.00  0.00     0.005 A 
ATOM     18  C   UNL A   1      33.271  21.308  25.939  1.00  0.00     0.005 A 
BRANCH  14  19
ATOM     19  C   UNL A   1      32.571  17.999  24.146  1.00  0.00     0.013 C 
ATOM     20  C   UNL A   1      33.674  17.427  23.248  1.00  0.00     0.012 C 
ATOM     21  C   UNL A   1      32.505  17.223  25.462  1.00  0.00     0.012 C 
ENDBRANCH  14  19
ENDBRANCH   7  13
ENDBRANCH   4   7
ENDBRANCH   2   3
ENDBRANCH   1   2
BRANCH   1  22
ATOM     22  C   UNL A   1      31.672  28.566  25.792  1.00  0.00     0.023 C 
BRANCH  22  23
ATOM     23  C   UNL A   1      32.882  29.411  26.176  1.00  0.00     0.116 C 
BRANCH  23  24
ATOM     24  N   UNL A   1      32.578  30.798  26.495  1.00  0.00    -0.352 N 
ATOM     25  C   UNL A   1      33.327  31.678  27.247  1.00  0.00     0.251 C 
ATOM     26  H   UNL A   1      31.735  31.152  26.131  1.00  0.00     0.163 HD
ATOM     27  O   UNL A   1      32.919  32.803  27.491  1.00  0.00    -0.269 OA
BRANCH  25  28
ATOM     28  C   UNL A   1      34.619  31.217  27.800  1.00  0.00     0.039 A 
ATOM     29  C   UNL A   1      35.654  32.141  27.961  1.00  0.00     0.014 A 
ATOM     30  C   UNL A   1      34.781  29.893  28.213  1.00  0.00     0.014 A 
ATOM     31  C   UNL A   1      36.830  31.750  28.601  1.00  0.00     0.010 A 
ATOM     32  C   UNL A   1      35.915  29.530  28.929  1.00  0.00     0.010 A 
ATOM     33  C   UNL A   1      36.957  30.450  29.119  1.00  0.00    -0.014 A 
BRANCH  33  34
ATOM     34  C   UNL A   1      38.186  30.027  29.836  1.00  0.00     0.031 A 
ATOM     35  C   UNL A   1      38.438  30.511  31.237  1.00  0.00     0.074 A 
ATOM     36  C   UNL A   1      39.097  29.257  29.209  1.00  0.00     0.049 A 
ATOM     37  N   UNL A   1      39.456  30.273  32.026  1.00  0.00    -0.248 NA
ATOM     38  C   UNL A   1      37.429  31.411  31.818  1.00  0.00     0.031 C 
ATOM     39  C   UNL A   1      38.999  28.781  27.829  1.00  0.00     0.029 A 
ATOM     40  N   UNL A   1      40.287  28.739  29.655  1.00  0.00    -0.354 N 
ATOM     41  C   UNL A   1      39.219  31.012  33.178  1.00  0.00     0.074 A 
ATOM     42  C   UNL A   1      37.997  31.754  32.963  1.00  0.00     0.031 C 
ATOM     43  C   UNL A   1      40.062  28.007  27.554  1.00  0.00     0.029 A 
ATOM     44  C   UNL A   1      40.927  27.956  28.727  1.00  0.00     0.049 A 
ATOM     45  H   UNL A   1      40.646  28.913  30.555  1.00  0.00     0.167 HD
ATOM     46  C   UNL A   1      39.939  31.044  34.325  1.00  0.00     0.037 A 
ATOM     47  C   UNL A   1      42.078  27.261  28.824  1.00  0.00     0.037 A 
ATOM     48  C   UNL A   1      41.128  30.268  34.549  1.00  0.00     0.049 A 
ATOM     49  C   UNL A   1      42.840  27.285  30.122  1.00  0.00     0.074 A 
ATOM     50  C   UNL A   1      41.887  30.165  35.701  1.00  0.00     0.029 A 
ATOM     51  N   UNL A   1      41.730  29.458  33.598  1.00  0.00    -0.354 N 
ATOM     52  N   UNL A   1      42.559  27.913  31.237  1.00  0.00    -0.248 NA
ATOM     53  C   UNL A   1      44.073  26.488  30.176  1.00  0.00     0.031 C 
ATOM     54  C   UNL A   1      42.973  29.322  35.433  1.00  0.00     0.029 A 
ATOM     55  C   UNL A   1      42.862  28.863  34.131  1.00  0.00     0.049 A 
ATOM     56  H   UNL A   1      41.401  29.325  32.680  1.00  0.00     0.167 HD
ATOM     57  C   UNL A   1      43.556  27.560  32.137  1.00  0.00     0.074 A 
ATOM     58  C   UNL A   1      44.443  26.651  31.439  1.00  0.00     0.031 C 
ATOM     59  C   UNL A   1      43.722  27.948  33.424  1.00  0.00     0.037 A 
BRANCH  46  60
ATOM     60  C   UNL A   1      39.448  31.944  35.423  1.00  0.00     0.064 A 
ATOM     61  C   UNL A   1      39.869  33.278  35.526  1.00  0.00     0.173 A 
ATOM     62  C   UNL A   1      38.537  31.469  36.378  1.00  0.00     0.173 A 
ATOM     63  F   UNL A   1      40.751  33.778  34.647  1.00  0.00    -0.203 F 
ATOM     64  C   UNL A   1      39.426  34.093  36.565  1.00  0.00     0.198 A 
ATOM     65  C   UNL A   1      38.070  32.296  37.396  1.00  0.00     0.198 A 
ATOM     66  F   UNL A   1      38.099  30.202  36.325  1.00  0.00    -0.203 F 
ATOM     67  F   UNL A   1      39.890  35.346  36.677  1.00  0.00    -0.200 F 
ATOM     68  C   UNL A   1      38.523  33.603  37.495  1.00  0.00     0.200 A 
ATOM     69  F   UNL A   1      37.188  31.825  38.288  1.00  0.00    -0.200 F 
ATOM     70  F   UNL A   1      38.095  34.389  38.494  1.00  0.00    -0.200 F 
ENDBRANCH  46  60
BRANCH  47  71
ATOM     71  C   UNL A   1      42.548  26.434  27.682  1.00  0.00     0.064 A 
ATOM     72  C   UNL A   1      43.493  26.938  26.777  1.00  0.00     0.173 A 
ATOM     73  C   UNL A   1      42.064  25.137  27.465  1.00  0.00     0.173 A 
ATOM     74  F   UNL A   1      43.971  28.181  26.932  1.00  0.00    -0.203 F 
ATOM     75  C   UNL A   1      43.917  26.185  25.684  1.00  0.00     0.198 A 
ATOM     76  C   UNL A   1      42.509  24.374  26.386  1.00  0.00     0.198 A 
ATOM     77  F   UNL A   1      41.164  24.605  28.306  1.00  0.00    -0.203 F 
ATOM     78  F   UNL A   1      44.786  26.710  24.808  1.00  0.00    -0.200 F 
ATOM     79  C   UNL A   1      43.430  24.902  25.492  1.00  0.00     0.200 A 
ATOM     80  F   UNL A   1      42.045  23.129  26.211  1.00  0.00    -0.200 F 
ATOM     81  F   UNL A   1      43.839  24.178  24.442  1.00  0.00    -0.200 F 
ENDBRANCH  47  71
BRANCH  59  82
ATOM     82  C   UNL A   1      44.877  27.355  34.177  1.00  0.00     0.064 A 
ATOM     83  C   UNL A   1      44.761  26.143  34.873  1.00  0.00     0.173 A 
ATOM     84  C   UNL A   1      46.125  27.997  34.176  1.00  0.00     0.173 A 
ATOM     85  F   UNL A   1      43.585  25.499  34.916  1.00  0.00    -0.203 F 
ATOM     86  C   UNL A   1      45.844  25.611  35.567  1.00  0.00     0.198 A 
ATOM     87  C   UNL A   1      47.214  27.446  34.844  1.00  0.00     0.198 A 
ATOM     88  F   UNL A   1      46.290  29.155  33.518  1.00  0.00    -0.203 F 
ATOM     89  F   UNL A   1      45.697  24.480  36.270  1.00  0.00    -0.200 F 
ATOM     90  C   UNL A   1      47.071  26.259  35.547  1.00  0.00     0.200 A 
ATOM     91  F   UNL A   1      48.402  28.066  34.812  1.00  0.00    -0.200 F 
ATOM     92  F   UNL A   1      48.113  25.744  36.212  1.00  0.00    -0.200 F 
ENDBRANCH  59  82
ENDBRANCH  33  34
ENDBRANCH  25  28
ENDBRANCH  23  24
ENDBRANCH  22  23
ENDBRANCH   1  22
TORSDOF 13
ENDMDL
MODEL 3
REMARK VINA RESULT:     -12.3      2.111      7.976
REMARK SMILES CC(C)c1ccc([C@]2(C(=O)NCCCCNC(=O)c3ccc(-c4c5nc(c(-c6c(F)c(F)c(F)c(F)c6F)c6ccc([nH]6)c(-c6c(F)c(F)c(F)c(F)c6F)c6nc(c(-c7c(F)c(F)c(F)c(F)c7F)c7ccc4[nH]7)C=C6)C=C5)cc3)CCC[C@@H]2C)cc1
REMARK SMILES IDX 13 1 12 2 11 3 9 4 10 5 8 7 82 8 85 9 83 10 84 11 86 12 7 13
REMARK SMILES IDX 4 14 5 15 88 16 6 17 87 18 2 19 1 20 3 21 14 22 15 23 16 24
REMARK SMILES IDX 17 25 18 27 19 28 20 29 81 30 21 31 80 32 22 33 23 34 24 35
REMARK SMILES IDX 74 36 25 37 79 38 73 39 75 40 26 41 78 42 72 43 71 44 27 46
REMARK SMILES IDX 59 47 39 48 58 49 40 50 43 51 57 52 76 53 41 54 42 55 56 57
REMARK SMILES IDX 77 58 44 59 28 60 29 61 37 62 30 63 31 64 35 65 38 66 32 67
REMARK SMILES IDX 33 68 36 69 34 70 60 71 61 72 69 73 62 74 63 75 67 76 70 77
REMARK SMILES IDX 64 78 65 79 68 80 66 81 45 82 46 83 54 84 47 85 48 86 52 87
REMARK SMILES IDX 55 88 49 89 50 90 53 91 51 92
REMARK H PARENT 11 6 16 26 75 45 43 56
REMARK Flexibility Score: inf
ROOT
ATOM      1  C   UNL A   1      31.963  30.660  26.115  1.00  0.00     0.023 C 
ENDROOT
BRANCH   1   2
ATOM      2  C   UNL A   1      32.410  29.448  26.919  1.00  0.00     0.116 C 
BRANCH   2   3
ATOM      3  N   UNL A   1      31.436  28.395  27.016  1.00  0.00    -0.355 N 
ATOM      4  C   UNL A   1      31.211  27.285  26.262  1.00  0.00     0.230 C 
ATOM      5  O   UNL A   1      30.693  26.369  26.920  1.00  0.00    -0.274 OA
ATOM      6  H   UNL A   1      30.813  28.496  27.772  1.00  0.00     0.163 HD
BRANCH   4   7
ATOM      7  C   UNL A   1      31.509  27.111  24.704  1.00  0.00     0.077 C 
ATOM      8  C   UNL A   1      30.294  26.546  23.924  1.00  0.00     0.022 C 
ATOM      9  C   UNL A   1      31.797  28.464  23.943  1.00  0.00     0.006 C 
ATOM     10  C   UNL A   1      29.623  27.692  23.163  1.00  0.00     0.002 C 
ATOM     11  C   UNL A   1      30.446  28.950  23.403  1.00  0.00     0.005 C 
ATOM     12  C   UNL A   1      32.702  28.413  22.692  1.00  0.00     0.009 C 
BRANCH   7  13
ATOM     13  C   UNL A   1      32.717  26.121  24.654  1.00  0.00    -0.032 A 
ATOM     14  C   UNL A   1      34.886  24.267  24.530  1.00  0.00    -0.045 A 
ATOM     15  C   UNL A   1      33.896  24.278  23.545  1.00  0.00     0.004 A 
ATOM     16  C   UNL A   1      34.834  25.260  25.518  1.00  0.00     0.004 A 
ATOM     17  C   UNL A   1      32.853  25.209  23.592  1.00  0.00     0.005 A 
ATOM     18  C   UNL A   1      33.772  26.175  25.577  1.00  0.00     0.005 A 
BRANCH  14  19
ATOM     19  C   UNL A   1      36.021  23.257  24.537  1.00  0.00     0.013 C 
ATOM     20  C   UNL A   1      36.564  22.914  23.144  1.00  0.00     0.012 C 
ATOM     21  C   UNL A   1      37.158  23.729  25.445  1.00  0.00     0.012 C 
ENDBRANCH  14  19
ENDBRANCH   7  13
ENDBRANCH   4   7
ENDBRANCH   2   3
ENDBRANCH   1   2
BRANCH   1  22
ATOM     22  C   UNL A   1      31.608  31.890  26.945  1.00  0.00     0.023 C 
BRANCH  22  23
ATOM     23  C   UNL A   1      32.777  32.791  27.335  1.00  0.00     0.116 C 
BRANCH  23  24
ATOM     24  N   UNL A   1      32.405  34.157  27.673  1.00  0.00    -0.352 N 
ATOM     25  C   UNL A   1      32.969  34.975  28.628  1.00  0.00     0.251 C 
ATOM     26  H   UNL A   1      31.661  34.543  27.159  1.00  0.00     0.163 HD
ATOM     27  O   UNL A   1      32.513  36.087  28.852  1.00  0.00    -0.269 OA
BRANCH  25  28
ATOM     28  C   UNL A   1      34.111  34.464  29.417  1.00  0.00     0.039 A 
ATOM     29  C   UNL A   1      33.860  33.828  30.635  1.00  0.00     0.014 A 
ATOM     30  C   UNL A   1      35.413  34.559  28.922  1.00  0.00     0.014 A 
ATOM     31  C   UNL A   1      34.913  33.227  31.325  1.00  0.00     0.010 A 
ATOM     32  C   UNL A   1      36.444  33.882  29.563  1.00  0.00     0.010 A 
ATOM     33  C   UNL A   1      36.208  33.221  30.777  1.00  0.00    -0.014 A 
BRANCH  33  34
ATOM     34  C   UNL A   1      37.333  32.554  31.478  1.00  0.00     0.031 A 
ATOM     35  C   UNL A   1      38.050  31.408  30.819  1.00  0.00     0.074 A 
ATOM     36  C   UNL A   1      37.672  32.940  32.723  1.00  0.00     0.049 A 
ATOM     37  N   UNL A   1      39.042  30.682  31.269  1.00  0.00    -0.248 NA
ATOM     38  C   UNL A   1      37.566  31.001  29.491  1.00  0.00     0.031 C 
ATOM     39  C   UNL A   1      37.008  33.992  33.495  1.00  0.00     0.029 A 
ATOM     40  N   UNL A   1      38.663  32.490  33.560  1.00  0.00    -0.354 N 
ATOM     41  C   UNL A   1      39.278  29.723  30.292  1.00  0.00     0.074 A 
ATOM     42  C   UNL A   1      38.289  29.917  29.257  1.00  0.00     0.031 C 
ATOM     43  C   UNL A   1      37.635  34.135  34.674  1.00  0.00     0.029 A 
ATOM     44  C   UNL A   1      38.726  33.168  34.752  1.00  0.00     0.049 A 
ATOM     45  H   UNL A   1      39.270  31.752  33.326  1.00  0.00     0.167 HD
ATOM     46  C   UNL A   1      40.254  28.784  30.248  1.00  0.00     0.037 A 
ATOM     47  C   UNL A   1      39.581  33.032  35.784  1.00  0.00     0.037 A 
ATOM     48  C   UNL A   1      41.263  28.625  31.259  1.00  0.00     0.049 A 
ATOM     49  C   UNL A   1      40.678  32.006  35.694  1.00  0.00     0.074 A 
ATOM     50  C   UNL A   1      42.343  27.760  31.274  1.00  0.00     0.029 A 
ATOM     51  N   UNL A   1      41.317  29.353  32.439  1.00  0.00    -0.354 N 
ATOM     52  N   UNL A   1      40.950  31.165  34.725  1.00  0.00    -0.248 NA
ATOM     53  C   UNL A   1      41.597  31.920  36.838  1.00  0.00     0.031 C 
ATOM     54  C   UNL A   1      43.027  27.937  32.482  1.00  0.00     0.029 A 
ATOM     55  C   UNL A   1      42.402  28.946  33.197  1.00  0.00     0.049 A 
ATOM     56  H   UNL A   1      40.677  30.055  32.699  1.00  0.00     0.167 HD
ATOM     57  C   UNL A   1      42.090  30.479  35.124  1.00  0.00     0.074 A 
ATOM     58  C   UNL A   1      42.465  31.010  36.417  1.00  0.00     0.031 C 
ATOM     59  C   UNL A   1      42.767  29.500  34.476  1.00  0.00     0.037 A 
BRANCH  46  60
ATOM     60  C   UNL A   1      40.274  27.865  29.060  1.00  0.00     0.064 A 
ATOM     61  C   UNL A   1      40.992  28.179  27.896  1.00  0.00     0.173 A 
ATOM     62  C   UNL A   1      39.576  26.648  29.091  1.00  0.00     0.173 A 
ATOM     63  F   UNL A   1      41.665  29.337  27.809  1.00  0.00    -0.203 F 
ATOM     64  C   UNL A   1      40.980  27.328  26.794  1.00  0.00     0.198 A 
ATOM     65  C   UNL A   1      39.593  25.784  27.999  1.00  0.00     0.198 A 
ATOM     66  F   UNL A   1      38.876  26.296  30.180  1.00  0.00    -0.203 F 
ATOM     67  F   UNL A   1      41.623  27.680  25.671  1.00  0.00    -0.200 F 
ATOM     68  C   UNL A   1      40.286  26.130  26.848  1.00  0.00     0.200 A 
ATOM     69  F   UNL A   1      38.932  24.620  28.057  1.00  0.00    -0.200 F 
ATOM     70  F   UNL A   1      40.276  25.311  25.786  1.00  0.00    -0.200 F 
ENDBRANCH  46  60
BRANCH  47  71
ATOM     71  C   UNL A   1      39.477  33.931  36.963  1.00  0.00     0.064 A 
ATOM     72  C   UNL A   1      38.776  33.527  38.109  1.00  0.00     0.173 A 
ATOM     73  C   UNL A   1      40.063  35.204  36.971  1.00  0.00     0.173 A 
ATOM     74  F   UNL A   1      38.182  32.325  38.140  1.00  0.00    -0.203 F 
ATOM     75  C   UNL A   1      38.643  34.373  39.207  1.00  0.00     0.198 A 
ATOM     76  C   UNL A   1      39.952  36.039  38.082  1.00  0.00     0.198 A 
ATOM     77  F   UNL A   1      40.751  35.635  35.904  1.00  0.00    -0.203 F 
ATOM     78  F   UNL A   1      37.926  33.979  40.270  1.00  0.00    -0.200 F 
ATOM     79  C   UNL A   1      39.235  35.626  39.197  1.00  0.00     0.200 A 
ATOM     80  F   UNL A   1      40.537  37.245  38.074  1.00  0.00    -0.200 F 
ATOM     81  F   UNL A   1      39.109  36.438  40.254  1.00  0.00    -0.200 F 
ENDBRANCH  47  71
BRANCH  59  82
ATOM     82  C   UNL A   1      44.010  28.975  35.134  1.00  0.00     0.064 A 
ATOM     83  C   UNL A   1      43.969  27.917  36.053  1.00  0.00     0.173 A 
ATOM     84  C   UNL A   1      45.263  29.522  34.814  1.00  0.00     0.173 A 
ATOM     85  F   UNL A   1      42.795  27.370  36.402  1.00  0.00    -0.203 F 
ATOM     86  C   UNL A   1      45.134  27.447  36.653  1.00  0.00     0.198 A 
ATOM     87  C   UNL A   1      46.428  29.028  35.393  1.00  0.00     0.198 A 
ATOM     88  F   UNL A   1      45.357  30.530  33.934  1.00  0.00    -0.203 F 
ATOM     89  F   UNL A   1      45.066  26.471  37.569  1.00  0.00    -0.200 F 
ATOM     90  C   UNL A   1      46.362  27.998  36.318  1.00  0.00     0.200 A 
ATOM     91  F   UNL A   1      47.615  29.552  35.057  1.00  0.00    -0.200 F 
ATOM     92  F   UNL A   1      47.482  27.541  36.894  1.00  0.00    -0.200 F 
ENDBRANCH  59  82
ENDBRANCH  33  34
ENDBRANCH  25  28
ENDBRANCH  23  24
ENDBRANCH  22  23
ENDBRANCH   1  22
TORSDOF 13
ENDMDL
