MODEL 1
REMARK VINA RESULT:     -13.1      0.000      0.000
REMARK SMILES O=C(NCCCCNC(=O)[C@H]1CC[C@H]2CCCC[C@@H]2[N@H+]1[C@@H]1CCCSC1)c1ccc(-c2c3nc(c(-c4c(F)c(F)c(F)c(F)c4F)c4ccc([nH]4)c(-c4c(F)c(F)c(F)c(F)c4F)c4nc(c(-c5c(F)c(F)c(F)c(F)c5F)c5ccc2[nH]5)C=C4)C=C3)cc1
REMARK SMILES IDX 5 1 4 2 3 3 1 4 2 5 27 7 28 8 89 9 29 10 88 11 30 12 31 13
REMARK SMILES IDX 32 14 82 15 33 16 87 17 81 18 83 19 34 20 86 21 80 22 79 23
REMARK SMILES IDX 35 25 67 26 47 27 66 28 48 29 51 30 65 31 84 32 49 33 50 34
REMARK SMILES IDX 64 36 85 37 52 38 36 39 37 40 45 41 38 42 39 43 43 44 46 45
REMARK SMILES IDX 40 46 41 47 44 48 42 49 68 50 69 51 77 52 70 53 71 54 75 55
REMARK SMILES IDX 78 56 72 57 73 58 76 59 74 60 53 61 54 62 62 63 55 64 56 65
REMARK SMILES IDX 60 66 63 67 57 68 58 69 61 70 59 71 6 72 7 73 8 74 9 75
REMARK SMILES IDX 10 77 11 78 12 79 20 80 13 81 19 82 14 84 18 85 15 86 17 87
REMARK SMILES IDX 16 88 21 89 22 90 26 91 23 92 25 93 24 94
REMARK H PARENT 3 6 83 24 51 35 8 76 20 83
REMARK Flexibility Score: inf
ROOT
ATOM      1  C   UNL A   1      31.824  31.779  26.890  1.00  0.00     0.023 C 
ENDROOT
BRANCH   1   2
ATOM      2  C   UNL A   1      32.953  32.726  27.290  1.00  0.00     0.116 C 
BRANCH   2   3
ATOM      3  N   UNL A   1      32.512  34.057  27.692  1.00  0.00    -0.352 N 
ATOM      4  O   UNL A   1      32.433  35.995  28.848  1.00  0.00    -0.269 OA
ATOM      5  C   UNL A   1      33.006  34.932  28.630  1.00  0.00     0.251 C 
ATOM      6  H   UNL A   1      31.721  34.387  27.206  1.00  0.00     0.163 HD
BRANCH   5   7
ATOM      7  C   UNL A   1      34.194  34.557  29.418  1.00  0.00     0.039 A 
ATOM      8  C   UNL A   1      35.466  34.653  28.860  1.00  0.00     0.014 A 
ATOM      9  C   UNL A   1      34.020  34.035  30.703  1.00  0.00     0.014 A 
ATOM     10  C   UNL A   1      36.527  34.007  29.479  1.00  0.00     0.010 A 
ATOM     11  C   UNL A   1      35.114  33.489  31.377  1.00  0.00     0.010 A 
ATOM     12  C   UNL A   1      36.362  33.411  30.740  1.00  0.00    -0.014 A 
BRANCH  12  13
ATOM     13  C   UNL A   1      37.516  32.717  31.364  1.00  0.00     0.031 A 
ATOM     14  C   UNL A   1      37.962  33.052  32.761  1.00  0.00     0.074 A 
ATOM     15  C   UNL A   1      38.120  31.729  30.676  1.00  0.00     0.049 A 
ATOM     16  N   UNL A   1      38.938  32.531  33.463  1.00  0.00    -0.248 NA
ATOM     17  C   UNL A   1      37.225  34.115  33.464  1.00  0.00     0.031 C 
ATOM     18  C   UNL A   1      37.770  31.318  29.315  1.00  0.00     0.029 A 
ATOM     19  N   UNL A   1      39.129  30.874  31.034  1.00  0.00    -0.354 N 
ATOM     20  C   UNL A   1      38.953  33.220  34.669  1.00  0.00     0.074 A 
ATOM     21  C   UNL A   1      37.899  34.209  34.603  1.00  0.00     0.031 C 
ATOM     22  C   UNL A   1      38.506  30.252  28.976  1.00  0.00     0.029 A 
ATOM     23  C   UNL A   1      39.430  29.952  30.062  1.00  0.00     0.049 A 
ATOM     24  H   UNL A   1      39.594  30.918  31.900  1.00  0.00     0.167 HD
ATOM     25  C   UNL A   1      39.772  33.038  35.732  1.00  0.00     0.037 A 
ATOM     26  C   UNL A   1      40.360  28.980  30.040  1.00  0.00     0.037 A 
ATOM     27  C   UNL A   1      40.796  32.027  35.803  1.00  0.00     0.049 A 
ATOM     28  C   UNL A   1      41.253  28.803  31.232  1.00  0.00     0.074 A 
ATOM     29  C   UNL A   1      41.654  31.737  36.851  1.00  0.00     0.029 A 
ATOM     30  N   UNL A   1      41.095  31.133  34.784  1.00  0.00    -0.354 N 
ATOM     31  N   UNL A   1      41.254  29.460  32.366  1.00  0.00    -0.248 NA
ATOM     32  C   UNL A   1      42.279  27.758  31.137  1.00  0.00     0.031 C 
ATOM     33  C   UNL A   1      42.498  30.695  36.450  1.00  0.00     0.029 A 
ATOM     34  C   UNL A   1      42.138  30.306  35.171  1.00  0.00     0.049 A 
ATOM     35  H   UNL A   1      40.634  31.093  33.915  1.00  0.00     0.167 HD
ATOM     36  C   UNL A   1      42.276  28.908  33.123  1.00  0.00     0.074 A 
ATOM     37  C   UNL A   1      42.855  27.843  32.328  1.00  0.00     0.031 C 
ATOM     38  C   UNL A   1      42.703  29.257  34.360  1.00  0.00     0.037 A 
BRANCH  25  39
ATOM     39  C   UNL A   1      39.616  33.962  36.905  1.00  0.00     0.064 A 
ATOM     40  C   UNL A   1      38.846  33.615  38.024  1.00  0.00     0.173 A 
ATOM     41  C   UNL A   1      40.292  35.192  36.931  1.00  0.00     0.173 A 
ATOM     42  F   UNL A   1      38.168  32.457  38.044  1.00  0.00    -0.203 F 
ATOM     43  C   UNL A   1      38.744  34.471  39.119  1.00  0.00     0.198 A 
ATOM     44  C   UNL A   1      40.209  36.034  38.038  1.00  0.00     0.198 A 
ATOM     45  F   UNL A   1      41.047  35.570  35.889  1.00  0.00    -0.203 F 
ATOM     46  F   UNL A   1      37.975  34.133  40.163  1.00  0.00    -0.200 F 
ATOM     47  C   UNL A   1      39.432  35.676  39.129  1.00  0.00     0.200 A 
ATOM     48  F   UNL A   1      40.883  37.193  38.048  1.00  0.00    -0.200 F 
ATOM     49  F   UNL A   1      39.342  36.493  40.187  1.00  0.00    -0.200 F 
ENDBRANCH  25  39
BRANCH  26  50
ATOM     50  C   UNL A   1      40.487  28.119  28.838  1.00  0.00     0.064 A 
ATOM     51  C   UNL A   1      39.807  26.898  28.749  1.00  0.00     0.173 A 
ATOM     52  C   UNL A   1      41.259  28.521  27.739  1.00  0.00     0.173 A 
ATOM     53  F   UNL A   1      39.071  26.465  29.783  1.00  0.00    -0.203 F 
ATOM     54  C   UNL A   1      39.898  26.108  27.606  1.00  0.00     0.198 A 
ATOM     55  C   UNL A   1      41.326  27.745  26.585  1.00  0.00     0.198 A 
ATOM     56  F   UNL A   1      41.923  29.686  27.773  1.00  0.00    -0.203 F 
ATOM     57  F   UNL A   1      39.262  24.929  27.556  1.00  0.00    -0.200 F 
ATOM     58  C   UNL A   1      40.651  26.537  26.521  1.00  0.00     0.200 A 
ATOM     59  F   UNL A   1      42.038  28.172  25.533  1.00  0.00    -0.200 F 
ATOM     60  F   UNL A   1      40.725  25.783  25.415  1.00  0.00    -0.200 F 
ENDBRANCH  26  50
BRANCH  38  61
ATOM     61  C   UNL A   1      43.845  28.471  34.928  1.00  0.00     0.064 A 
ATOM     62  C   UNL A   1      45.173  28.888  34.761  1.00  0.00     0.173 A 
ATOM     63  C   UNL A   1      43.607  27.300  35.662  1.00  0.00     0.173 A 
ATOM     64  F   UNL A   1      45.449  29.993  34.052  1.00  0.00    -0.203 F 
ATOM     65  C   UNL A   1      46.225  28.145  35.288  1.00  0.00     0.198 A 
ATOM     66  C   UNL A   1      44.661  26.573  36.208  1.00  0.00     0.198 A 
ATOM     67  F   UNL A   1      42.352  26.863  35.850  1.00  0.00    -0.203 F 
ATOM     68  F   UNL A   1      47.490  28.536  35.078  1.00  0.00    -0.200 F 
ATOM     69  C   UNL A   1      45.969  26.993  36.014  1.00  0.00     0.200 A 
ATOM     70  F   UNL A   1      44.411  25.464  36.918  1.00  0.00    -0.200 F 
ATOM     71  F   UNL A   1      46.984  26.279  36.521  1.00  0.00    -0.200 F 
ENDBRANCH  38  61
ENDBRANCH  12  13
ENDBRANCH   5   7
ENDBRANCH   2   3
ENDBRANCH   1   2
BRANCH   1  72
ATOM     72  C   UNL A   1      32.161  30.291  26.808  1.00  0.00     0.023 C 
BRANCH  72  73
ATOM     73  C   UNL A   1      31.951  29.633  25.454  1.00  0.00     0.116 C 
BRANCH  73  74
ATOM     74  N   UNL A   1      33.067  29.677  24.542  1.00  0.00    -0.351 N 
ATOM     75  C   UNL A   1      33.660  28.663  23.839  1.00  0.00     0.278 C 
ATOM     76  H   UNL A   1      33.462  30.568  24.405  1.00  0.00     0.163 HD
ATOM     77  O   UNL A   1      34.373  29.023  22.892  1.00  0.00    -0.268 OA
BRANCH  75  78
ATOM     78  C   UNL A   1      33.536  27.148  24.189  1.00  0.00     0.274 C 
ATOM     79  C   UNL A   1      33.855  26.784  25.649  1.00  0.00     0.076 C 
ATOM     80  N   UNL A   1      32.414  26.411  23.539  1.00  0.00    -0.319 N 
ATOM     81  C   UNL A   1      33.557  25.320  25.987  1.00  0.00     0.016 C 
ATOM     82  C   UNL A   1      32.509  24.947  23.715  1.00  0.00     0.188 C 
ATOM     83  H   UNL A   1      32.575  26.616  22.553  1.00  0.00     0.349 HD
ATOM     84  C   UNL A   1      33.575  24.462  24.726  1.00  0.00     0.048 C 
ATOM     85  C   UNL A   1      32.767  24.226  22.384  1.00  0.00     0.065 C 
ATOM     86  C   UNL A   1      33.318  22.979  25.021  1.00  0.00     0.010 C 
ATOM     87  C   UNL A   1      32.588  22.714  22.578  1.00  0.00     0.006 C 
ATOM     88  C   UNL A   1      33.414  22.150  23.738  1.00  0.00     0.001 C 
BRANCH  80  89
ATOM     89  C   UNL A   1      31.041  26.939  23.709  1.00  0.00     0.194 C 
ATOM     90  C   UNL A   1      29.964  25.858  23.980  1.00  0.00     0.067 C 
ATOM     91  C   UNL A   1      30.604  27.824  22.517  1.00  0.00     0.134 C 
ATOM     92  C   UNL A   1      28.592  26.416  24.351  1.00  0.00     0.017 C 
ATOM     93  S   UNL A   1      29.065  28.733  22.897  1.00  0.00    -0.156 SA
ATOM     94  C   UNL A   1      27.990  27.325  23.292  1.00  0.00     0.070 C 
ENDBRANCH  80  89
ENDBRANCH  75  78
ENDBRANCH  73  74
ENDBRANCH  72  73
ENDBRANCH   1  72
TORSDOF 12
ENDMDL
MODEL 2
REMARK VINA RESULT:     -13.1      0.185      1.603
REMARK SMILES O=C(NCCCCNC(=O)[C@H]1CC[C@H]2CCCC[C@@H]2[N@H+]1[C@@H]1CCCSC1)c1ccc(-c2c3nc(c(-c4c(F)c(F)c(F)c(F)c4F)c4ccc([nH]4)c(-c4c(F)c(F)c(F)c(F)c4F)c4nc(c(-c5c(F)c(F)c(F)c(F)c5F)c5ccc2[nH]5)C=C4)C=C3)cc1
REMARK SMILES IDX 5 1 4 2 3 3 1 4 2 5 27 7 28 8 89 9 29 10 88 11 30 12 31 13
REMARK SMILES IDX 32 14 82 15 33 16 87 17 81 18 83 19 34 20 86 21 80 22 79 23
REMARK SMILES IDX 35 25 67 26 47 27 66 28 48 29 51 30 65 31 84 32 49 33 50 34
REMARK SMILES IDX 64 36 85 37 52 38 36 39 37 40 45 41 38 42 39 43 43 44 46 45
REMARK SMILES IDX 40 46 41 47 44 48 42 49 68 50 69 51 77 52 70 53 71 54 75 55
REMARK SMILES IDX 78 56 72 57 73 58 76 59 74 60 53 61 54 62 62 63 55 64 56 65
REMARK SMILES IDX 60 66 63 67 57 68 58 69 61 70 59 71 6 72 7 73 8 74 9 75
REMARK SMILES IDX 10 77 11 78 12 79 20 80 13 81 19 82 14 84 18 85 15 86 17 87
REMARK SMILES IDX 16 88 21 89 22 90 26 91 23 92 25 93 24 94
REMARK H PARENT 3 6 83 24 51 35 8 76 20 83
REMARK Flexibility Score: inf
ROOT
ATOM      1  C   UNL A   1      31.824  31.888  26.876  1.00  0.00     0.023 C 
ENDROOT
BRANCH   1   2
ATOM      2  C   UNL A   1      32.966  32.830  27.251  1.00  0.00     0.116 C 
BRANCH   2   3
ATOM      3  N   UNL A   1      32.540  34.161  27.671  1.00  0.00    -0.352 N 
ATOM      4  O   UNL A   1      32.475  36.078  28.862  1.00  0.00    -0.269 OA
ATOM      5  C   UNL A   1      33.034  35.010  28.632  1.00  0.00     0.251 C 
ATOM      6  H   UNL A   1      31.762  34.512  27.180  1.00  0.00     0.163 HD
BRANCH   5   7
ATOM      7  C   UNL A   1      34.204  34.602  29.431  1.00  0.00     0.039 A 
ATOM      8  C   UNL A   1      35.491  34.765  28.926  1.00  0.00     0.014 A 
ATOM      9  C   UNL A   1      34.001  33.981  30.666  1.00  0.00     0.014 A 
ATOM     10  C   UNL A   1      36.546  34.097  29.531  1.00  0.00     0.010 A 
ATOM     11  C   UNL A   1      35.084  33.409  31.335  1.00  0.00     0.010 A 
ATOM     12  C   UNL A   1      36.354  33.405  30.737  1.00  0.00    -0.014 A 
BRANCH  12  13
ATOM     13  C   UNL A   1      37.502  32.689  31.348  1.00  0.00     0.031 A 
ATOM     14  C   UNL A   1      37.948  32.991  32.752  1.00  0.00     0.074 A 
ATOM     15  C   UNL A   1      38.101  31.714  30.639  1.00  0.00     0.049 A 
ATOM     16  N   UNL A   1      38.921  32.449  33.444  1.00  0.00    -0.248 NA
ATOM     17  C   UNL A   1      37.217  34.043  33.477  1.00  0.00     0.031 C 
ATOM     18  C   UNL A   1      37.750  31.335  29.269  1.00  0.00     0.029 A 
ATOM     19  N   UNL A   1      39.104  30.844  30.979  1.00  0.00    -0.354 N 
ATOM     20  C   UNL A   1      38.939  33.111  34.664  1.00  0.00     0.074 A 
ATOM     21  C   UNL A   1      37.891  34.108  34.619  1.00  0.00     0.031 C 
ATOM     22  C   UNL A   1      38.480  30.271  28.907  1.00  0.00     0.029 A 
ATOM     23  C   UNL A   1      39.401  29.941  29.987  1.00  0.00     0.049 A 
ATOM     24  H   UNL A   1      39.568  30.866  31.846  1.00  0.00     0.167 HD
ATOM     25  C   UNL A   1      39.755  32.900  35.725  1.00  0.00     0.037 A 
ATOM     26  C   UNL A   1      40.324  28.965  29.945  1.00  0.00     0.037 A 
ATOM     27  C   UNL A   1      40.772  31.881  35.774  1.00  0.00     0.049 A 
ATOM     28  C   UNL A   1      41.214  28.755  31.134  1.00  0.00     0.074 A 
ATOM     29  C   UNL A   1      41.627  31.563  36.816  1.00  0.00     0.029 A 
ATOM     30  N   UNL A   1      41.066  31.008  34.736  1.00  0.00    -0.354 N 
ATOM     31  N   UNL A   1      41.218  29.387  32.282  1.00  0.00    -0.248 NA
ATOM     32  C   UNL A   1      42.234  27.707  31.018  1.00  0.00     0.031 C 
ATOM     33  C   UNL A   1      42.464  30.524  36.394  1.00  0.00     0.029 A 
ATOM     34  C   UNL A   1      42.104  30.166  35.106  1.00  0.00     0.049 A 
ATOM     35  H   UNL A   1      40.607  30.990  33.866  1.00  0.00     0.167 HD
ATOM     36  C   UNL A   1      42.236  28.813  33.028  1.00  0.00     0.074 A 
ATOM     37  C   UNL A   1      42.809  27.762  32.211  1.00  0.00     0.031 C 
ATOM     38  C   UNL A   1      42.663  29.132  34.273  1.00  0.00     0.037 A 
BRANCH  25  39
ATOM     39  C   UNL A   1      39.603  33.799  36.917  1.00  0.00     0.064 A 
ATOM     40  C   UNL A   1      40.212  35.060  36.978  1.00  0.00     0.173 A 
ATOM     41  C   UNL A   1      38.788  33.413  37.993  1.00  0.00     0.173 A 
ATOM     42  F   UNL A   1      41.012  35.472  35.982  1.00  0.00    -0.203 F 
ATOM     43  C   UNL A   1      40.027  35.895  38.077  1.00  0.00     0.198 A 
ATOM     44  C   UNL A   1      38.584  34.261  39.080  1.00  0.00     0.198 A 
ATOM     45  F   UNL A   1      38.176  32.220  37.984  1.00  0.00    -0.203 F 
ATOM     46  F   UNL A   1      40.647  37.082  38.129  1.00  0.00    -0.200 F 
ATOM     47  C   UNL A   1      39.206  35.499  39.124  1.00  0.00     0.200 A 
ATOM     48  F   UNL A   1      37.783  33.879  40.085  1.00  0.00    -0.200 F 
ATOM     49  F   UNL A   1      39.021  36.307  40.176  1.00  0.00    -0.200 F 
ENDBRANCH  25  39
BRANCH  26  50
ATOM     50  C   UNL A   1      40.448  28.130  28.725  1.00  0.00     0.064 A 
ATOM     51  C   UNL A   1      41.265  28.526  27.659  1.00  0.00     0.173 A 
ATOM     52  C   UNL A   1      39.783  26.900  28.619  1.00  0.00     0.173 A 
ATOM     53  F   UNL A   1      41.907  29.703  27.708  1.00  0.00    -0.203 F 
ATOM     54  C   UNL A   1      41.410  27.724  26.529  1.00  0.00     0.198 A 
ATOM     55  C   UNL A   1      39.952  26.085  27.503  1.00  0.00     0.198 A 
ATOM     56  F   UNL A   1      38.995  26.474  29.617  1.00  0.00    -0.203 F 
ATOM     57  F   UNL A   1      42.175  28.138  25.509  1.00  0.00    -0.200 F 
ATOM     58  C   UNL A   1      40.760  26.500  26.456  1.00  0.00     0.200 A 
ATOM     59  F   UNL A   1      39.337  24.896  27.445  1.00  0.00    -0.200 F 
ATOM     60  F   UNL A   1      40.912  25.721  25.376  1.00  0.00    -0.200 F 
ENDBRANCH  26  50
BRANCH  38  61
ATOM     61  C   UNL A   1      43.799  28.326  34.825  1.00  0.00     0.064 A 
ATOM     62  C   UNL A   1      45.130  28.741  34.674  1.00  0.00     0.173 A 
ATOM     63  C   UNL A   1      43.553  27.137  35.527  1.00  0.00     0.173 A 
ATOM     64  F   UNL A   1      45.413  29.862  33.994  1.00  0.00    -0.203 F 
ATOM     65  C   UNL A   1      46.177  27.980  35.185  1.00  0.00     0.198 A 
ATOM     66  C   UNL A   1      44.602  26.392  36.059  1.00  0.00     0.198 A 
ATOM     67  F   UNL A   1      42.296  26.702  35.700  1.00  0.00    -0.203 F 
ATOM     68  F   UNL A   1      47.444  28.371  34.990  1.00  0.00    -0.200 F 
ATOM     69  C   UNL A   1      45.912  26.810  35.881  1.00  0.00     0.200 A 
ATOM     70  F   UNL A   1      44.344  25.266  36.739  1.00  0.00    -0.200 F 
ATOM     71  F   UNL A   1      46.922  26.080  36.373  1.00  0.00    -0.200 F 
ENDBRANCH  38  61
ENDBRANCH  12  13
ENDBRANCH   5   7
ENDBRANCH   2   3
ENDBRANCH   1   2
BRANCH   1  72
ATOM     72  C   UNL A   1      32.147  30.397  26.805  1.00  0.00     0.023 C 
BRANCH  72  73
ATOM     73  C   UNL A   1      31.956  29.737  25.450  1.00  0.00     0.116 C 
BRANCH  73  74
ATOM     74  N   UNL A   1      33.110  29.703  24.586  1.00  0.00    -0.351 N 
ATOM     75  C   UNL A   1      33.673  28.647  23.922  1.00  0.00     0.278 C 
ATOM     76  H   UNL A   1      33.562  30.568  24.457  1.00  0.00     0.163 HD
ATOM     77  O   UNL A   1      34.445  28.953  23.002  1.00  0.00    -0.268 OA
BRANCH  75  78
ATOM     78  C   UNL A   1      33.446  27.147  24.284  1.00  0.00     0.274 C 
ATOM     79  C   UNL A   1      33.675  26.787  25.761  1.00  0.00     0.076 C 
ATOM     80  N   UNL A   1      32.315  26.465  23.589  1.00  0.00    -0.319 N 
ATOM     81  C   UNL A   1      33.278  25.348  26.102  1.00  0.00     0.016 C 
ATOM     82  C   UNL A   1      32.319  25.001  23.787  1.00  0.00     0.188 C 
ATOM     83  H   UNL A   1      32.535  26.646  22.609  1.00  0.00     0.349 HD
ATOM     84  C   UNL A   1      33.307  24.472  24.854  1.00  0.00     0.048 C 
ATOM     85  C   UNL A   1      32.597  24.247  22.478  1.00  0.00     0.065 C 
ATOM     86  C   UNL A   1      32.952  23.010  25.154  1.00  0.00     0.010 C 
ATOM     87  C   UNL A   1      32.324  22.751  22.682  1.00  0.00     0.006 C 
ATOM     88  C   UNL A   1      33.060  22.157  23.886  1.00  0.00     0.001 C 
BRANCH  80  89
ATOM     89  C   UNL A   1      30.968  27.072  23.686  1.00  0.00     0.194 C 
ATOM     90  C   UNL A   1      29.822  26.059  23.931  1.00  0.00     0.067 C 
ATOM     91  C   UNL A   1      30.635  27.952  22.459  1.00  0.00     0.134 C 
ATOM     92  C   UNL A   1      28.469  26.701  24.228  1.00  0.00     0.017 C 
ATOM     93  S   UNL A   1      29.134  28.954  22.751  1.00  0.00    -0.156 SA
ATOM     94  C   UNL A   1      27.965  27.617  23.126  1.00  0.00     0.070 C 
ENDBRANCH  80  89
ENDBRANCH  75  78
ENDBRANCH  73  74
ENDBRANCH  72  73
ENDBRANCH   1  72
TORSDOF 12
ENDMDL
MODEL 3
REMARK VINA RESULT:     -13.1      0.366      7.238
REMARK SMILES O=C(NCCCCNC(=O)[C@H]1CC[C@H]2CCCC[C@@H]2[N@H+]1[C@@H]1CCCSC1)c1ccc(-c2c3nc(c(-c4c(F)c(F)c(F)c(F)c4F)c4ccc([nH]4)c(-c4c(F)c(F)c(F)c(F)c4F)c4nc(c(-c5c(F)c(F)c(F)c(F)c5F)c5ccc2[nH]5)C=C4)C=C3)cc1
REMARK SMILES IDX 5 1 4 2 3 3 1 4 2 5 27 7 28 8 89 9 29 10 88 11 30 12 31 13
REMARK SMILES IDX 32 14 82 15 33 16 87 17 81 18 83 19 34 20 86 21 80 22 79 23
REMARK SMILES IDX 35 25 67 26 47 27 66 28 48 29 51 30 65 31 84 32 49 33 50 34
REMARK SMILES IDX 64 36 85 37 52 38 36 39 37 40 45 41 38 42 39 43 43 44 46 45
REMARK SMILES IDX 40 46 41 47 44 48 42 49 68 50 69 51 77 52 70 53 71 54 75 55
REMARK SMILES IDX 78 56 72 57 73 58 76 59 74 60 53 61 54 62 62 63 55 64 56 65
REMARK SMILES IDX 60 66 63 67 57 68 58 69 61 70 59 71 6 72 7 73 8 74 9 75
REMARK SMILES IDX 10 77 11 78 12 79 20 80 13 81 19 82 14 84 18 85 15 86 17 87
REMARK SMILES IDX 16 88 21 89 22 90 26 91 23 92 25 93 24 94
REMARK H PARENT 3 6 83 24 51 35 8 76 20 83
REMARK Flexibility Score: inf
ROOT
ATOM      1  C   UNL A   1      31.811  31.824  26.884  1.00  0.00     0.023 C 
ENDROOT
BRANCH   1   2
ATOM      2  C   UNL A   1      32.953  32.762  27.271  1.00  0.00     0.116 C 
BRANCH   2   3
ATOM      3  N   UNL A   1      32.531  34.105  27.654  1.00  0.00    -0.352 N 
ATOM      4  O   UNL A   1      32.451  36.043  28.809  1.00  0.00    -0.269 OA
ATOM      5  C   UNL A   1      33.004  34.965  28.616  1.00  0.00     0.251 C 
ATOM      6  H   UNL A   1      31.773  34.456  27.132  1.00  0.00     0.163 HD
BRANCH   5   7
ATOM      7  C   UNL A   1      34.143  34.557  29.458  1.00  0.00     0.039 A 
ATOM      8  C   UNL A   1      35.441  34.601  28.955  1.00  0.00     0.014 A 
ATOM      9  C   UNL A   1      33.896  34.055  30.739  1.00  0.00     0.014 A 
ATOM     10  C   UNL A   1      36.450  33.926  29.625  1.00  0.00     0.010 A 
ATOM     11  C   UNL A   1      34.939  33.478  31.465  1.00  0.00     0.010 A 
ATOM     12  C   UNL A   1      36.210  33.350  30.883  1.00  0.00    -0.014 A 
BRANCH  12  13
ATOM     13  C   UNL A   1      37.310  32.622  31.564  1.00  0.00     0.031 A 
ATOM     14  C   UNL A   1      38.063  31.522  30.867  1.00  0.00     0.074 A 
ATOM     15  C   UNL A   1      37.667  33.010  32.803  1.00  0.00     0.049 A 
ATOM     16  N   UNL A   1      39.060  30.796  31.309  1.00  0.00    -0.248 NA
ATOM     17  C   UNL A   1      37.640  31.183  29.498  1.00  0.00     0.031 C 
ATOM     18  C   UNL A   1      37.008  34.067  33.574  1.00  0.00     0.029 A 
ATOM     19  N   UNL A   1      38.685  32.589  33.617  1.00  0.00    -0.354 N 
ATOM     20  C   UNL A   1      39.362  29.899  30.292  1.00  0.00     0.074 A 
ATOM     21  C   UNL A   1      38.433  30.157  29.213  1.00  0.00     0.031 C 
ATOM     22  C   UNL A   1      37.675  34.254  34.720  1.00  0.00     0.029 A 
ATOM     23  C   UNL A   1      38.759  33.283  34.800  1.00  0.00     0.049 A 
ATOM     24  H   UNL A   1      39.301  31.859  33.380  1.00  0.00     0.167 HD
ATOM     25  C   UNL A   1      40.328  28.950  30.265  1.00  0.00     0.037 A 
ATOM     26  C   UNL A   1      39.597  33.144  35.842  1.00  0.00     0.037 A 
ATOM     27  C   UNL A   1      41.272  28.725  31.330  1.00  0.00     0.049 A 
ATOM     28  C   UNL A   1      40.657  32.084  35.784  1.00  0.00     0.074 A 
ATOM     29  C   UNL A   1      42.312  27.812  31.384  1.00  0.00     0.029 A 
ATOM     30  N   UNL A   1      41.293  29.425  32.528  1.00  0.00    -0.354 N 
ATOM     31  N   UNL A   1      40.932  31.245  34.815  1.00  0.00    -0.248 NA
ATOM     32  C   UNL A   1      41.516  31.945  36.966  1.00  0.00     0.031 C 
ATOM     33  C   UNL A   1      42.937  27.935  32.630  1.00  0.00     0.029 A 
ATOM     34  C   UNL A   1      42.315  28.951  33.336  1.00  0.00     0.049 A 
ATOM     35  H   UNL A   1      40.673  30.151  32.769  1.00  0.00     0.167 HD
ATOM     36  C   UNL A   1      41.996  30.479  35.267  1.00  0.00     0.074 A 
ATOM     37  C   UNL A   1      42.334  30.974  36.587  1.00  0.00     0.031 C 
ATOM     38  C   UNL A   1      42.630  29.453  34.649  1.00  0.00     0.037 A 
BRANCH  25  39
ATOM     39  C   UNL A   1      40.409  28.065  29.056  1.00  0.00     0.064 A 
ATOM     40  C   UNL A   1      39.684  26.869  28.963  1.00  0.00     0.173 A 
ATOM     41  C   UNL A   1      41.183  28.449  27.950  1.00  0.00     0.173 A 
ATOM     42  F   UNL A   1      38.939  26.449  29.998  1.00  0.00    -0.203 F 
ATOM     43  C   UNL A   1      39.743  26.080  27.816  1.00  0.00     0.198 A 
ATOM     44  C   UNL A   1      41.221  27.671  26.794  1.00  0.00     0.198 A 
ATOM     45  F   UNL A   1      41.892  29.587  27.983  1.00  0.00    -0.203 F 
ATOM     46  F   UNL A   1      39.068  24.923  27.763  1.00  0.00    -0.200 F 
ATOM     47  C   UNL A   1      40.505  26.486  26.729  1.00  0.00     0.200 A 
ATOM     48  F   UNL A   1      41.950  28.071  25.742  1.00  0.00    -0.200 F 
ATOM     49  F   UNL A   1      40.552  25.732  25.623  1.00  0.00    -0.200 F 
ENDBRANCH  25  39
BRANCH  26  50
ATOM     50  C   UNL A   1      39.447  34.029  37.023  1.00  0.00     0.064 A 
ATOM     51  C   UNL A   1      38.718  33.616  38.146  1.00  0.00     0.173 A 
ATOM     52  C   UNL A   1      40.063  35.287  37.068  1.00  0.00     0.173 A 
ATOM     53  F   UNL A   1      38.097  32.427  38.142  1.00  0.00    -0.203 F 
ATOM     54  C   UNL A   1      38.608  34.432  39.269  1.00  0.00     0.198 A 
ATOM     55  C   UNL A   1      39.978  36.089  38.202  1.00  0.00     0.198 A 
ATOM     56  F   UNL A   1      40.778  35.723  36.020  1.00  0.00    -0.203 F 
ATOM     57  F   UNL A   1      37.881  34.028  40.320  1.00  0.00    -0.200 F 
ATOM     58  C   UNL A   1      39.245  35.665  39.300  1.00  0.00     0.200 A 
ATOM     59  F   UNL A   1      40.610  37.270  38.235  1.00  0.00    -0.200 F 
ATOM     60  F   UNL A   1      39.152  36.442  40.387  1.00  0.00    -0.200 F 
ENDBRANCH  26  50
BRANCH  38  61
ATOM     61  C   UNL A   1      43.758  28.809  35.395  1.00  0.00     0.064 A 
ATOM     62  C   UNL A   1      45.085  29.220  35.208  1.00  0.00     0.173 A 
ATOM     63  C   UNL A   1      43.506  27.783  36.317  1.00  0.00     0.173 A 
ATOM     64  F   UNL A   1      45.374  30.185  34.323  1.00  0.00    -0.203 F 
ATOM     65  C   UNL A   1      46.125  28.609  35.902  1.00  0.00     0.198 A 
ATOM     66  C   UNL A   1      44.547  27.191  37.027  1.00  0.00     0.198 A 
ATOM     67  F   UNL A   1      42.252  27.358  36.531  1.00  0.00    -0.203 F 
ATOM     68  F   UNL A   1      47.391  28.985  35.676  1.00  0.00    -0.200 F 
ATOM     69  C   UNL A   1      45.855  27.599  36.814  1.00  0.00     0.200 A 
ATOM     70  F   UNL A   1      44.284  26.222  37.915  1.00  0.00    -0.200 F 
ATOM     71  F   UNL A   1      46.858  27.013  37.481  1.00  0.00    -0.200 F 
ENDBRANCH  38  61
ENDBRANCH  12  13
ENDBRANCH   5   7
ENDBRANCH   2   3
ENDBRANCH   1   2
BRANCH   1  72
ATOM     72  C   UNL A   1      32.136  30.334  26.793  1.00  0.00     0.023 C 
BRANCH  72  73
ATOM     73  C   UNL A   1      31.930  29.688  25.433  1.00  0.00     0.116 C 
BRANCH  73  74
ATOM     74  N   UNL A   1      33.062  29.702  24.540  1.00  0.00    -0.351 N 
ATOM     75  C   UNL A   1      33.648  28.670  23.858  1.00  0.00     0.278 C 
ATOM     76  H   UNL A   1      33.476  30.584  24.402  1.00  0.00     0.163 HD
ATOM     77  O   UNL A   1      34.384  29.008  22.920  1.00  0.00    -0.268 OA
BRANCH  75  78
ATOM     78  C   UNL A   1      33.489  27.162  24.221  1.00  0.00     0.274 C 
ATOM     79  C   UNL A   1      33.781  26.806  25.688  1.00  0.00     0.076 C 
ATOM     80  N   UNL A   1      32.362  26.440  23.562  1.00  0.00    -0.319 N 
ATOM     81  C   UNL A   1      33.450  25.352  26.035  1.00  0.00     0.016 C 
ATOM     82  C   UNL A   1      32.427  24.977  23.753  1.00  0.00     0.188 C 
ATOM     83  H   UNL A   1      32.542  26.632  22.576  1.00  0.00     0.349 HD
ATOM     84  C   UNL A   1      33.469  24.481  24.784  1.00  0.00     0.048 C 
ATOM     85  C   UNL A   1      32.689  24.237  22.432  1.00  0.00     0.065 C 
ATOM     86  C   UNL A   1      33.179  23.006  25.088  1.00  0.00     0.010 C 
ATOM     87  C   UNL A   1      32.478  22.732  22.638  1.00  0.00     0.006 C 
ATOM     88  C   UNL A   1      33.277  22.163  23.814  1.00  0.00     0.001 C 
BRANCH  80  89
ATOM     89  C   UNL A   1      30.998  26.996  23.707  1.00  0.00     0.194 C 
ATOM     90  C   UNL A   1      29.895  25.937  23.962  1.00  0.00     0.067 C 
ATOM     91  C   UNL A   1      30.600  27.887  22.506  1.00  0.00     0.134 C 
ATOM     92  C   UNL A   1      28.529  26.524  24.308  1.00  0.00     0.017 C 
ATOM     93  S   UNL A   1      29.073  28.828  22.858  1.00  0.00    -0.156 SA
ATOM     94  C   UNL A   1      27.963  27.443  23.237  1.00  0.00     0.070 C 
ENDBRANCH  80  89
ENDBRANCH  75  78
ENDBRANCH  73  74
ENDBRANCH  72  73
ENDBRANCH   1  72
TORSDOF 12
ENDMDL
