MODEL 1
REMARK VINA RESULT:     -14.1      0.000      0.000
REMARK SMILES CC(=O)Nc1cccc(NS(=O)(=O)c2cc(C(=O)NCCCCNC(=O)c3ccc(-c4c5nc(c(-c6c(F)c(F)c(F)c(F)c6F)c6ccc([nH]6)c(-c6c(F)c(F)c(F)c(F)c6F)c6nc(c(-c7c(F)c(F)c(F)c(F)c7F)c7ccc4[nH]7)C=C6)C=C5)cc3)ccc2C)c1C
REMARK SMILES IDX 20 1 19 2 17 3 18 4 16 6 14 7 15 8 92 9 91 10 93 11 90 12
REMARK SMILES IDX 11 13 12 14 13 15 10 16 9 18 5 19 6 20 94 21 7 22 95 23 8 24
REMARK SMILES IDX 4 25 1 26 2 27 3 28 21 30 22 31 23 32 24 33 25 34 26 36
REMARK SMILES IDX 27 37 28 38 89 39 29 40 88 41 30 42 31 43 32 44 82 45 33 46
REMARK SMILES IDX 87 47 81 48 83 49 34 50 86 51 80 52 79 53 35 55 67 56 47 57
REMARK SMILES IDX 66 58 48 59 51 60 65 61 84 62 49 63 50 64 64 66 85 67 52 68
REMARK SMILES IDX 36 69 37 70 45 71 38 72 39 73 43 74 46 75 40 76 41 77 44 78
REMARK SMILES IDX 42 79 68 80 69 81 77 82 70 83 71 84 75 85 78 86 72 87 73 88
REMARK SMILES IDX 76 89 74 90 53 91 54 92 62 93 55 94 56 95 60 96 63 97 57 98
REMARK SMILES IDX 58 99 61 100 59 101
REMARK H PARENT 19 5 10 17 4 29 24 35 83 54 51 65
REMARK Flexibility Score: inf
ROOT
ATOM      1  C   UNL A   1      31.396  29.680  25.164  1.00  0.00     0.116 C 
ENDROOT
BRANCH   1   2
ATOM      2  N   UNL A   1      30.679  29.676  23.891  1.00  0.00    -0.352 N 
ATOM      3  C   UNL A   1      30.343  28.709  22.968  1.00  0.00     0.251 C 
ATOM      4  O   UNL A   1      29.717  29.065  21.968  1.00  0.00    -0.269 OA
ATOM      5  H   UNL A   1      30.363  30.572  23.633  1.00  0.00     0.163 HD
BRANCH   3   6
ATOM      6  C   UNL A   1      30.724  27.276  23.091  1.00  0.00     0.041 A 
ATOM      7  C   UNL A   1      30.826  25.182  24.348  1.00  0.00     0.091 A 
ATOM      8  C   UNL A   1      30.338  26.485  24.158  1.00  0.00     0.036 A 
ATOM      9  C   UNL A   1      31.581  24.563  23.344  1.00  0.00    -0.031 A 
ATOM     10  C   UNL A   1      31.860  25.319  22.189  1.00  0.00     0.005 A 
ATOM     11  C   UNL A   1      31.997  23.120  23.344  1.00  0.00     0.046 C 
ATOM     12  C   UNL A   1      31.464  26.662  22.076  1.00  0.00     0.014 A 
BRANCH   7  13
ATOM     13  S   UNL A   1      30.457  24.483  25.940  1.00  0.00     0.262 S 
ATOM     14  O   UNL A   1      30.406  23.037  25.768  1.00  0.00    -0.201 OA
ATOM     15  O   UNL A   1      29.312  25.153  26.502  1.00  0.00    -0.201 OA
BRANCH  13  16
ATOM     16  N   UNL A   1      31.763  24.767  26.981  1.00  0.00    -0.279 N 
ATOM     17  H   UNL A   1      31.577  25.092  27.890  1.00  0.00     0.180 HD
BRANCH  16  18
ATOM     18  C   UNL A   1      33.134  24.552  26.596  1.00  0.00     0.054 A 
ATOM     19  C   UNL A   1      35.049  23.107  26.282  1.00  0.00     0.046 A 
ATOM     20  C   UNL A   1      35.750  24.131  25.644  1.00  0.00     0.026 A 
ATOM     21  C   UNL A   1      33.772  23.324  26.852  1.00  0.00    -0.003 A 
ATOM     22  C   UNL A   1      35.089  25.305  25.340  1.00  0.00     0.004 A 
ATOM     23  C   UNL A   1      33.212  22.297  27.812  1.00  0.00     0.049 C 
ATOM     24  C   UNL A   1      33.760  25.454  25.727  1.00  0.00     0.027 A 
BRANCH  19  25
ATOM     25  N   UNL A   1      35.619  21.830  26.203  1.00  0.00    -0.326 N 
ATOM     26  C   UNL A   1      36.248  22.134  23.807  1.00  0.00     0.114 C 
ATOM     27  C   UNL A   1      36.198  21.301  25.071  1.00  0.00     0.221 C 
ATOM     28  O   UNL A   1      36.740  20.196  25.129  1.00  0.00    -0.275 OA
ATOM     29  H   UNL A   1      35.604  21.272  27.013  1.00  0.00     0.169 HD
ENDBRANCH  19  25
ENDBRANCH  16  18
ENDBRANCH  13  16
ENDBRANCH   7  13
ENDBRANCH   3   6
ENDBRANCH   1   2
BRANCH   1  30
ATOM     30  C   UNL A   1      32.910  29.535  25.044  1.00  0.00     0.023 C 
BRANCH  30  31
ATOM     31  C   UNL A   1      33.671  29.577  26.362  1.00  0.00     0.023 C 
BRANCH  31  32
ATOM     32  C   UNL A   1      33.198  30.634  27.349  1.00  0.00     0.116 C 
BRANCH  32  33
ATOM     33  N   UNL A   1      34.164  31.659  27.721  1.00  0.00    -0.352 N 
ATOM     34  C   UNL A   1      35.403  31.531  28.340  1.00  0.00     0.251 C 
ATOM     35  H   UNL A   1      33.901  32.582  27.501  1.00  0.00     0.163 HD
ATOM     36  O   UNL A   1      35.998  32.537  28.716  1.00  0.00    -0.269 OA
BRANCH  34  37
ATOM     37  C   UNL A   1      36.107  30.218  28.370  1.00  0.00     0.039 A 
ATOM     38  C   UNL A   1      36.265  29.610  29.627  1.00  0.00     0.014 A 
ATOM     39  C   UNL A   1      36.944  29.858  27.330  1.00  0.00     0.014 A 
ATOM     40  C   UNL A   1      37.456  28.960  29.917  1.00  0.00     0.010 A 
ATOM     41  C   UNL A   1      38.202  29.440  27.664  1.00  0.00     0.010 A 
ATOM     42  C   UNL A   1      38.467  29.042  28.976  1.00  0.00    -0.014 A 
BRANCH  42  43
ATOM     43  C   UNL A   1      39.844  28.666  29.185  1.00  0.00     0.031 A 
ATOM     44  C   UNL A   1      40.219  27.300  28.795  1.00  0.00     0.074 A 
ATOM     45  C   UNL A   1      40.750  29.633  29.444  1.00  0.00     0.049 A 
ATOM     46  N   UNL A   1      41.338  26.757  29.098  1.00  0.00    -0.248 NA
ATOM     47  C   UNL A   1      39.336  26.410  28.047  1.00  0.00     0.031 C 
ATOM     48  C   UNL A   1      42.196  29.585  29.252  1.00  0.00     0.029 A 
ATOM     49  N   UNL A   1      40.538  30.849  30.117  1.00  0.00    -0.354 N 
ATOM     50  C   UNL A   1      41.466  25.620  28.336  1.00  0.00     0.074 A 
ATOM     51  C   UNL A   1      40.153  25.384  27.795  1.00  0.00     0.031 C 
ATOM     52  C   UNL A   1      42.771  30.514  30.035  1.00  0.00     0.029 A 
ATOM     53  C   UNL A   1      41.721  31.062  30.873  1.00  0.00     0.049 A 
ATOM     54  H   UNL A   1      39.742  31.426  30.073  1.00  0.00     0.167 HD
ATOM     55  C   UNL A   1      42.724  25.125  28.164  1.00  0.00     0.037 A 
ATOM     56  C   UNL A   1      41.689  30.987  32.238  1.00  0.00     0.037 A 
ATOM     57  C   UNL A   1      43.675  25.898  28.971  1.00  0.00     0.049 A 
ATOM     58  C   UNL A   1      42.538  29.868  32.816  1.00  0.00     0.074 A 
ATOM     59  C   UNL A   1      44.591  26.902  28.702  1.00  0.00     0.029 A 
ATOM     60  N   UNL A   1      43.496  25.912  30.341  1.00  0.00    -0.354 N 
ATOM     61  N   UNL A   1      43.074  28.912  32.108  1.00  0.00    -0.248 NA
ATOM     62  C   UNL A   1      42.797  29.698  34.242  1.00  0.00     0.031 C 
ATOM     63  C   UNL A   1      44.994  27.475  29.945  1.00  0.00     0.029 A 
ATOM     64  C   UNL A   1      44.338  26.807  30.962  1.00  0.00     0.049 A 
ATOM     65  H   UNL A   1      42.846  25.347  30.818  1.00  0.00     0.167 HD
ATOM     66  C   UNL A   1      43.700  28.003  32.925  1.00  0.00     0.074 A 
ATOM     67  C   UNL A   1      43.472  28.533  34.259  1.00  0.00     0.031 C 
ATOM     68  C   UNL A   1      44.314  26.885  32.416  1.00  0.00     0.037 A 
BRANCH  55  69
ATOM     69  C   UNL A   1      43.166  24.100  27.144  1.00  0.00     0.064 A 
ATOM     70  C   UNL A   1      42.776  22.749  27.298  1.00  0.00     0.173 A 
ATOM     71  C   UNL A   1      43.990  24.339  26.027  1.00  0.00     0.173 A 
ATOM     72  F   UNL A   1      41.931  22.368  28.265  1.00  0.00    -0.203 F 
ATOM     73  C   UNL A   1      43.236  21.728  26.463  1.00  0.00     0.198 A 
ATOM     74  C   UNL A   1      44.465  23.314  25.202  1.00  0.00     0.198 A 
ATOM     75  F   UNL A   1      44.340  25.568  25.649  1.00  0.00    -0.203 F 
ATOM     76  F   UNL A   1      42.840  20.466  26.682  1.00  0.00    -0.200 F 
ATOM     77  C   UNL A   1      44.096  22.007  25.425  1.00  0.00     0.200 A 
ATOM     78  F   UNL A   1      45.285  23.613  24.183  1.00  0.00    -0.200 F 
ATOM     79  F   UNL A   1      44.551  21.028  24.633  1.00  0.00    -0.200 F 
ENDBRANCH  55  69
BRANCH  56  80
ATOM     80  C   UNL A   1      40.371  31.460  32.768  1.00  0.00     0.064 A 
ATOM     81  C   UNL A   1      40.042  32.817  32.553  1.00  0.00     0.173 A 
ATOM     82  C   UNL A   1      39.312  30.563  32.957  1.00  0.00     0.173 A 
ATOM     83  F   UNL A   1      41.020  33.723  32.390  1.00  0.00    -0.203 F 
ATOM     84  C   UNL A   1      38.725  33.212  32.324  1.00  0.00     0.198 A 
ATOM     85  C   UNL A   1      37.990  30.977  32.770  1.00  0.00     0.198 A 
ATOM     86  F   UNL A   1      39.555  29.263  33.175  1.00  0.00    -0.203 F 
ATOM     87  F   UNL A   1      38.464  34.470  31.939  1.00  0.00    -0.200 F 
ATOM     88  C   UNL A   1      37.705  32.282  32.392  1.00  0.00     0.200 A 
ATOM     89  F   UNL A   1      36.996  30.079  32.844  1.00  0.00    -0.200 F 
ATOM     90  F   UNL A   1      36.456  32.626  32.049  1.00  0.00    -0.200 F 
ENDBRANCH  56  80
BRANCH  68  91
ATOM     91  C   UNL A   1      44.919  25.725  33.196  1.00  0.00     0.064 A 
ATOM     92  C   UNL A   1      44.188  24.880  34.039  1.00  0.00     0.173 A 
ATOM     93  C   UNL A   1      46.319  25.461  33.172  1.00  0.00     0.173 A 
ATOM     94  F   UNL A   1      42.893  25.105  34.295  1.00  0.00    -0.203 F 
ATOM     95  C   UNL A   1      44.782  23.794  34.701  1.00  0.00     0.198 A 
ATOM     96  C   UNL A   1      46.915  24.413  33.867  1.00  0.00     0.198 A 
ATOM     97  F   UNL A   1      47.184  26.195  32.462  1.00  0.00    -0.203 F 
ATOM     98  F   UNL A   1      44.022  22.977  35.442  1.00  0.00    -0.200 F 
ATOM     99  C   UNL A   1      46.141  23.559  34.612  1.00  0.00     0.200 A 
ATOM    100  F   UNL A   1      48.243  24.242  33.795  1.00  0.00    -0.200 F 
ATOM    101  F   UNL A   1      46.706  22.525  35.249  1.00  0.00    -0.200 F 
ENDBRANCH  68  91
ENDBRANCH  42  43
ENDBRANCH  34  37
ENDBRANCH  32  33
ENDBRANCH  31  32
ENDBRANCH  30  31
ENDBRANCH   1  30
TORSDOF 15
ENDMDL
MODEL 2
REMARK VINA RESULT:     -13.8      2.588      3.872
REMARK SMILES CC(=O)Nc1cccc(NS(=O)(=O)c2cc(C(=O)NCCCCNC(=O)c3ccc(-c4c5nc(c(-c6c(F)c(F)c(F)c(F)c6F)c6ccc([nH]6)c(-c6c(F)c(F)c(F)c(F)c6F)c6nc(c(-c7c(F)c(F)c(F)c(F)c7F)c7ccc4[nH]7)C=C6)C=C5)cc3)ccc2C)c1C
REMARK SMILES IDX 20 1 19 2 17 3 18 4 16 6 14 7 15 8 92 9 91 10 93 11 90 12
REMARK SMILES IDX 11 13 12 14 13 15 10 16 9 18 5 19 6 20 94 21 7 22 95 23 8 24
REMARK SMILES IDX 4 25 1 26 2 27 3 28 21 30 22 31 23 32 24 33 25 34 26 36
REMARK SMILES IDX 27 37 28 38 89 39 29 40 88 41 30 42 31 43 32 44 82 45 33 46
REMARK SMILES IDX 87 47 81 48 83 49 34 50 86 51 80 52 79 53 35 55 67 56 47 57
REMARK SMILES IDX 66 58 48 59 51 60 65 61 84 62 49 63 50 64 64 66 85 67 52 68
REMARK SMILES IDX 36 69 37 70 45 71 38 72 39 73 43 74 46 75 40 76 41 77 44 78
REMARK SMILES IDX 42 79 68 80 69 81 77 82 70 83 71 84 75 85 78 86 72 87 73 88
REMARK SMILES IDX 76 89 74 90 53 91 54 92 62 93 55 94 56 95 60 96 63 97 57 98
REMARK SMILES IDX 58 99 61 100 59 101
REMARK H PARENT 19 5 10 17 4 29 24 35 83 54 51 65
REMARK Flexibility Score: inf
ROOT
ATOM      1  C   UNL A   1      32.715  29.953  26.056  1.00  0.00     0.116 C 
ENDROOT
BRANCH   1   2
ATOM      2  N   UNL A   1      33.310  29.429  24.829  1.00  0.00    -0.352 N 
ATOM      3  C   UNL A   1      33.523  28.169  24.314  1.00  0.00     0.251 C 
ATOM      4  O   UNL A   1      34.074  28.085  23.215  1.00  0.00    -0.269 OA
ATOM      5  H   UNL A   1      33.632  30.142  24.231  1.00  0.00     0.163 HD
BRANCH   3   6
ATOM      6  C   UNL A   1      33.163  26.910  25.023  1.00  0.00     0.041 A 
ATOM      7  C   UNL A   1      33.738  24.709  25.914  1.00  0.00     0.091 A 
ATOM      8  C   UNL A   1      34.099  25.959  25.387  1.00  0.00     0.036 A 
ATOM      9  C   UNL A   1      32.409  24.456  26.273  1.00  0.00    -0.031 A 
ATOM     10  C   UNL A   1      31.471  25.479  26.033  1.00  0.00     0.005 A 
ATOM     11  C   UNL A   1      31.932  23.240  27.015  1.00  0.00     0.046 C 
ATOM     12  C   UNL A   1      31.835  26.675  25.391  1.00  0.00     0.014 A 
BRANCH   7  13
ATOM     13  S   UNL A   1      35.071  23.535  26.000  1.00  0.00     0.262 S 
ATOM     14  O   UNL A   1      34.725  22.575  27.040  1.00  0.00    -0.201 OA
ATOM     15  O   UNL A   1      36.323  24.240  26.099  1.00  0.00    -0.201 OA
BRANCH  13  16
ATOM     16  N   UNL A   1      35.111  22.644  24.560  1.00  0.00    -0.279 N 
ATOM     17  H   UNL A   1      35.705  22.948  23.836  1.00  0.00     0.180 HD
BRANCH  16  18
ATOM     18  C   UNL A   1      34.317  21.461  24.346  1.00  0.00     0.054 A 
ATOM     19  C   UNL A   1      33.919  19.092  24.632  1.00  0.00     0.046 A 
ATOM     20  C   UNL A   1      32.642  19.213  24.084  1.00  0.00     0.026 A 
ATOM     21  C   UNL A   1      34.813  20.188  24.685  1.00  0.00    -0.003 A 
ATOM     22  C   UNL A   1      32.146  20.475  23.819  1.00  0.00     0.004 A 
ATOM     23  C   UNL A   1      36.276  19.930  24.969  1.00  0.00     0.049 C 
ATOM     24  C   UNL A   1      32.953  21.585  24.056  1.00  0.00     0.027 A 
BRANCH  19  25
ATOM     25  N   UNL A   1      34.211  17.868  25.247  1.00  0.00    -0.326 N 
ATOM     26  C   UNL A   1      34.288  16.660  23.064  1.00  0.00     0.114 C 
ATOM     27  C   UNL A   1      34.393  16.679  24.575  1.00  0.00     0.221 C 
ATOM     28  O   UNL A   1      34.722  15.673  25.204  1.00  0.00    -0.275 OA
ATOM     29  H   UNL A   1      34.290  17.855  26.227  1.00  0.00     0.169 HD
ENDBRANCH  19  25
ENDBRANCH  16  18
ENDBRANCH  13  16
ENDBRANCH   7  13
ENDBRANCH   3   6
ENDBRANCH   1   2
BRANCH   1  30
ATOM     30  C   UNL A   1      33.445  29.561  27.337  1.00  0.00     0.023 C 
BRANCH  30  31
ATOM     31  C   UNL A   1      34.951  29.786  27.319  1.00  0.00     0.023 C 
BRANCH  31  32
ATOM     32  C   UNL A   1      35.455  30.863  28.267  1.00  0.00     0.116 C 
BRANCH  32  33
ATOM     33  N   UNL A   1      34.558  31.983  28.519  1.00  0.00    -0.352 N 
ATOM     34  C   UNL A   1      34.666  33.021  29.438  1.00  0.00     0.251 C 
ATOM     35  H   UNL A   1      33.753  32.010  27.952  1.00  0.00     0.163 HD
ATOM     36  O   UNL A   1      33.717  33.783  29.605  1.00  0.00    -0.269 OA
BRANCH  34  37
ATOM     37  C   UNL A   1      35.976  33.345  30.070  1.00  0.00     0.039 A 
ATOM     38  C   UNL A   1      36.998  33.800  29.220  1.00  0.00     0.014 A 
ATOM     39  C   UNL A   1      36.304  32.801  31.298  1.00  0.00     0.014 A 
ATOM     40  C   UNL A   1      38.298  33.367  29.436  1.00  0.00     0.010 A 
ATOM     41  C   UNL A   1      37.516  32.175  31.393  1.00  0.00     0.010 A 
ATOM     42  C   UNL A   1      38.493  32.420  30.426  1.00  0.00    -0.014 A 
BRANCH  42  43
ATOM     43  C   UNL A   1      39.700  31.660  30.638  1.00  0.00     0.031 A 
ATOM     44  C   UNL A   1      39.797  30.371  29.941  1.00  0.00     0.074 A 
ATOM     45  C   UNL A   1      40.763  32.272  31.205  1.00  0.00     0.049 A 
ATOM     46  N   UNL A   1      40.705  29.500  30.180  1.00  0.00    -0.248 NA
ATOM     47  C   UNL A   1      38.844  29.937  28.925  1.00  0.00     0.031 C 
ATOM     48  C   UNL A   1      42.169  31.894  31.119  1.00  0.00     0.029 A 
ATOM     49  N   UNL A   1      40.749  33.314  32.149  1.00  0.00    -0.354 N 
ATOM     50  C   UNL A   1      40.669  28.574  29.165  1.00  0.00     0.074 A 
ATOM     51  C   UNL A   1      39.426  28.819  28.482  1.00  0.00     0.031 C 
ATOM     52  C   UNL A   1      42.831  32.437  32.156  1.00  0.00     0.029 A 
ATOM     53  C   UNL A   1      41.832  33.033  33.023  1.00  0.00     0.049 A 
ATOM     54  H   UNL A   1      40.124  34.073  32.193  1.00  0.00     0.167 HD
ATOM     55  C   UNL A   1      41.788  27.822  28.970  1.00  0.00     0.037 A 
ATOM     56  C   UNL A   1      41.593  32.659  34.317  1.00  0.00     0.037 A 
ATOM     57  C   UNL A   1      42.771  28.114  30.018  1.00  0.00     0.049 A 
ATOM     58  C   UNL A   1      42.069  31.256  34.653  1.00  0.00     0.074 A 
ATOM     59  C   UNL A   1      43.924  28.878  30.087  1.00  0.00     0.029 A 
ATOM     60  N   UNL A   1      42.411  27.861  31.329  1.00  0.00    -0.354 N 
ATOM     61  N   UNL A   1      42.460  30.382  33.767  1.00  0.00    -0.248 NA
ATOM     62  C   UNL A   1      42.079  30.704  36.003  1.00  0.00     0.031 C 
ATOM     63  C   UNL A   1      44.273  29.027  31.463  1.00  0.00     0.029 A 
ATOM     64  C   UNL A   1      43.344  28.339  32.221  1.00  0.00     0.049 A 
ATOM     65  H   UNL A   1      41.587  27.392  31.593  1.00  0.00     0.167 HD
ATOM     66  C   UNL A   1      42.736  29.179  34.370  1.00  0.00     0.074 A 
ATOM     67  C   UNL A   1      42.454  29.430  35.773  1.00  0.00     0.031 C 
ATOM     68  C   UNL A   1      43.136  28.086  33.640  1.00  0.00     0.037 A 
BRANCH  55  69
ATOM     69  C   UNL A   1      42.115  26.978  27.758  1.00  0.00     0.064 A 
ATOM     70  C   UNL A   1      41.897  25.581  27.800  1.00  0.00     0.173 A 
ATOM     71  C   UNL A   1      42.674  27.438  26.550  1.00  0.00     0.173 A 
ATOM     72  F   UNL A   1      41.302  24.995  28.848  1.00  0.00    -0.203 F 
ATOM     73  C   UNL A   1      42.278  24.723  26.766  1.00  0.00     0.198 A 
ATOM     74  C   UNL A   1      43.073  26.577  25.523  1.00  0.00     0.198 A 
ATOM     75  F   UNL A   1      42.821  28.735  26.281  1.00  0.00    -0.203 F 
ATOM     76  F   UNL A   1      42.058  23.406  26.885  1.00  0.00    -0.200 F 
ATOM     77  C   UNL A   1      42.884  25.218  25.634  1.00  0.00     0.200 A 
ATOM     78  F   UNL A   1      43.642  27.084  24.418  1.00  0.00    -0.200 F 
ATOM     79  F   UNL A   1      43.265  24.396  24.648  1.00  0.00    -0.200 F 
ENDBRANCH  55  69
BRANCH  56  80
ATOM     80  C   UNL A   1      40.362  33.326  34.846  1.00  0.00     0.064 A 
ATOM     81  C   UNL A   1      39.215  32.518  35.013  1.00  0.00     0.173 A 
ATOM     82  C   UNL A   1      40.455  34.482  35.632  1.00  0.00     0.173 A 
ATOM     83  F   UNL A   1      39.065  31.412  34.267  1.00  0.00    -0.203 F 
ATOM     84  C   UNL A   1      38.323  32.739  36.061  1.00  0.00     0.198 A 
ATOM     85  C   UNL A   1      39.531  34.721  36.653  1.00  0.00     0.198 A 
ATOM     86  F   UNL A   1      41.512  35.297  35.516  1.00  0.00    -0.203 F 
ATOM     87  F   UNL A   1      37.351  31.849  36.309  1.00  0.00    -0.200 F 
ATOM     88  C   UNL A   1      38.507  33.819  36.905  1.00  0.00     0.200 A 
ATOM     89  F   UNL A   1      39.700  35.773  37.469  1.00  0.00    -0.200 F 
ATOM     90  F   UNL A   1      37.731  33.966  37.989  1.00  0.00    -0.200 F 
ENDBRANCH  56  80
BRANCH  68  91
ATOM     91  C   UNL A   1      43.339  26.663  34.142  1.00  0.00     0.064 A 
ATOM     92  C   UNL A   1      44.531  25.942  33.998  1.00  0.00     0.173 A 
ATOM     93  C   UNL A   1      42.279  25.927  34.746  1.00  0.00     0.173 A 
ATOM     94  F   UNL A   1      45.563  26.438  33.304  1.00  0.00    -0.203 F 
ATOM     95  C   UNL A   1      44.686  24.648  34.520  1.00  0.00     0.198 A 
ATOM     96  C   UNL A   1      42.420  24.626  35.219  1.00  0.00     0.198 A 
ATOM     97  F   UNL A   1      41.053  26.433  34.922  1.00  0.00    -0.203 F 
ATOM     98  F   UNL A   1      45.871  24.031  34.413  1.00  0.00    -0.200 F 
ATOM     99  C   UNL A   1      43.634  23.994  35.133  1.00  0.00     0.200 A 
ATOM    100  F   UNL A   1      41.365  24.005  35.767  1.00  0.00    -0.200 F 
ATOM    101  F   UNL A   1      43.784  22.757  35.625  1.00  0.00    -0.200 F 
ENDBRANCH  68  91
ENDBRANCH  42  43
ENDBRANCH  34  37
ENDBRANCH  32  33
ENDBRANCH  31  32
ENDBRANCH  30  31
ENDBRANCH   1  30
TORSDOF 15
ENDMDL
MODEL 3
REMARK VINA RESULT:     -13.7      3.354      9.323
REMARK SMILES CC(=O)Nc1cccc(NS(=O)(=O)c2cc(C(=O)NCCCCNC(=O)c3ccc(-c4c5nc(c(-c6c(F)c(F)c(F)c(F)c6F)c6ccc([nH]6)c(-c6c(F)c(F)c(F)c(F)c6F)c6nc(c(-c7c(F)c(F)c(F)c(F)c7F)c7ccc4[nH]7)C=C6)C=C5)cc3)ccc2C)c1C
REMARK SMILES IDX 20 1 19 2 17 3 18 4 16 6 14 7 15 8 92 9 91 10 93 11 90 12
REMARK SMILES IDX 11 13 12 14 13 15 10 16 9 18 5 19 6 20 94 21 7 22 95 23 8 24
REMARK SMILES IDX 4 25 1 26 2 27 3 28 21 30 22 31 23 32 24 33 25 34 26 36
REMARK SMILES IDX 27 37 28 38 89 39 29 40 88 41 30 42 31 43 32 44 82 45 33 46
REMARK SMILES IDX 87 47 81 48 83 49 34 50 86 51 80 52 79 53 35 55 67 56 47 57
REMARK SMILES IDX 66 58 48 59 51 60 65 61 84 62 49 63 50 64 64 66 85 67 52 68
REMARK SMILES IDX 36 69 37 70 45 71 38 72 39 73 43 74 46 75 40 76 41 77 44 78
REMARK SMILES IDX 42 79 68 80 69 81 77 82 70 83 71 84 75 85 78 86 72 87 73 88
REMARK SMILES IDX 76 89 74 90 53 91 54 92 62 93 55 94 56 95 60 96 63 97 57 98
REMARK SMILES IDX 58 99 61 100 59 101
REMARK H PARENT 19 5 10 17 4 29 24 35 83 54 51 65
REMARK Flexibility Score: inf
ROOT
ATOM      1  C   UNL A   1      37.304  24.010  26.140  1.00  0.00     0.116 C 
ENDROOT
BRANCH   1   2
ATOM      2  N   UNL A   1      37.192  22.570  25.916  1.00  0.00    -0.352 N 
ATOM      3  C   UNL A   1      36.219  21.740  25.403  1.00  0.00     0.251 C 
ATOM      4  O   UNL A   1      36.459  20.532  25.363  1.00  0.00    -0.269 OA
ATOM      5  H   UNL A   1      37.998  22.080  26.197  1.00  0.00     0.163 HD
BRANCH   3   6
ATOM      6  C   UNL A   1      34.887  22.212  24.933  1.00  0.00     0.041 A 
ATOM      7  C   UNL A   1      32.626  23.033  25.363  1.00  0.00     0.091 A 
ATOM      8  C   UNL A   1      33.932  22.735  25.785  1.00  0.00     0.036 A 
ATOM      9  C   UNL A   1      32.303  22.991  24.001  1.00  0.00    -0.031 A 
ATOM     10  C   UNL A   1      33.318  22.592  23.110  1.00  0.00     0.005 A 
ATOM     11  C   UNL A   1      31.008  23.466  23.407  1.00  0.00     0.046 C 
ATOM     12  C   UNL A   1      34.580  22.180  23.569  1.00  0.00     0.014 A 
BRANCH   7  13
ATOM     13  S   UNL A   1      31.488  23.380  26.683  1.00  0.00     0.262 S 
ATOM     14  O   UNL A   1      32.064  22.819  27.899  1.00  0.00    -0.201 OA
ATOM     15  O   UNL A   1      30.164  22.971  26.294  1.00  0.00    -0.201 OA
BRANCH  13  16
ATOM     16  N   UNL A   1      31.439  25.054  26.941  1.00  0.00    -0.279 N 
ATOM     17  H   UNL A   1      31.617  25.395  27.846  1.00  0.00     0.180 HD
BRANCH  16  18
ATOM     18  C   UNL A   1      31.150  26.001  25.894  1.00  0.00     0.054 A 
ATOM     19  C   UNL A   1      31.860  27.575  24.201  1.00  0.00     0.046 A 
ATOM     20  C   UNL A   1      30.556  27.689  23.721  1.00  0.00     0.026 A 
ATOM     21  C   UNL A   1      32.166  26.808  25.350  1.00  0.00    -0.003 A 
ATOM     22  C   UNL A   1      29.585  26.842  24.219  1.00  0.00     0.004 A 
ATOM     23  C   UNL A   1      33.511  26.989  26.018  1.00  0.00     0.049 C 
ATOM     24  C   UNL A   1      29.923  25.938  25.222  1.00  0.00     0.027 A 
BRANCH  19  25
ATOM     25  N   UNL A   1      32.860  28.147  23.404  1.00  0.00    -0.326 N 
ATOM     26  C   UNL A   1      33.079  26.094  22.003  1.00  0.00     0.114 C 
ATOM     27  C   UNL A   1      33.484  27.510  22.355  1.00  0.00     0.221 C 
ATOM     28  O   UNL A   1      34.297  28.130  21.668  1.00  0.00    -0.275 OA
ATOM     29  H   UNL A   1      33.137  29.069  23.609  1.00  0.00     0.169 HD
ENDBRANCH  19  25
ENDBRANCH  16  18
ENDBRANCH  13  16
ENDBRANCH   7  13
ENDBRANCH   3   6
ENDBRANCH   1   2
BRANCH   1  30
ATOM     30  C   UNL A   1      38.557  24.443  26.894  1.00  0.00     0.023 C 
BRANCH  30  31
ATOM     31  C   UNL A   1      39.600  23.352  27.097  1.00  0.00     0.023 C 
BRANCH  31  32
ATOM     32  C   UNL A   1      40.827  23.456  26.204  1.00  0.00     0.116 C 
BRANCH  32  33
ATOM     33  N   UNL A   1      41.483  22.205  25.849  1.00  0.00    -0.352 N 
ATOM     34  C   UNL A   1      42.835  21.876  25.852  1.00  0.00     0.251 C 
ATOM     35  H   UNL A   1      40.879  21.482  25.564  1.00  0.00     0.163 HD
ATOM     36  O   UNL A   1      43.199  20.811  25.361  1.00  0.00    -0.269 OA
BRANCH  34  37
ATOM     37  C   UNL A   1      43.815  22.695  26.619  1.00  0.00     0.039 A 
ATOM     38  C   UNL A   1      43.733  22.640  28.020  1.00  0.00     0.014 A 
ATOM     39  C   UNL A   1      44.436  23.773  26.015  1.00  0.00     0.014 A 
ATOM     40  C   UNL A   1      43.923  23.802  28.754  1.00  0.00     0.010 A 
ATOM     41  C   UNL A   1      44.392  24.966  26.683  1.00  0.00     0.010 A 
ATOM     42  C   UNL A   1      44.080  24.979  28.043  1.00  0.00    -0.014 A 
BRANCH  42  43
ATOM     43  C   UNL A   1      44.033  26.310  28.599  1.00  0.00     0.031 A 
ATOM     44  C   UNL A   1      42.714  26.954  28.655  1.00  0.00     0.074 A 
ATOM     45  C   UNL A   1      45.106  26.767  29.281  1.00  0.00     0.049 A 
ATOM     46  N   UNL A   1      42.539  28.191  28.931  1.00  0.00    -0.248 NA
ATOM     47  C   UNL A   1      41.468  26.251  28.368  1.00  0.00     0.031 C 
ATOM     48  C   UNL A   1      45.150  27.832  30.278  1.00  0.00     0.029 A 
ATOM     49  N   UNL A   1      46.457  26.446  29.069  1.00  0.00    -0.354 N 
ATOM     50  C   UNL A   1      41.200  28.373  29.184  1.00  0.00     0.074 A 
ATOM     51  C   UNL A   1      40.564  27.175  28.703  1.00  0.00     0.031 C 
ATOM     52  C   UNL A   1      46.409  28.295  30.367  1.00  0.00     0.029 A 
ATOM     53  C   UNL A   1      47.165  27.654  29.308  1.00  0.00     0.049 A 
ATOM     54  H   UNL A   1      46.831  25.573  28.811  1.00  0.00     0.167 HD
ATOM     55  C   UNL A   1      40.847  29.475  29.904  1.00  0.00     0.037 A 
ATOM     56  C   UNL A   1      47.777  28.309  28.274  1.00  0.00     0.037 A 
ATOM     57  C   UNL A   1      42.030  30.305  30.151  1.00  0.00     0.049 A 
ATOM     58  C   UNL A   1      47.210  29.692  27.997  1.00  0.00     0.074 A 
ATOM     59  C   UNL A   1      42.873  30.505  31.233  1.00  0.00     0.029 A 
ATOM     60  N   UNL A   1      42.703  30.814  29.055  1.00  0.00    -0.354 N 
ATOM     61  N   UNL A   1      46.104  30.150  28.517  1.00  0.00    -0.248 NA
ATOM     62  C   UNL A   1      47.807  30.642  27.065  1.00  0.00     0.031 C 
ATOM     63  C   UNL A   1      44.034  31.191  30.766  1.00  0.00     0.029 A 
ATOM     64  C   UNL A   1      43.885  31.421  29.412  1.00  0.00     0.049 A 
ATOM     65  H   UNL A   1      42.374  30.750  28.130  1.00  0.00     0.167 HD
ATOM     66  C   UNL A   1      45.809  31.388  28.002  1.00  0.00     0.074 A 
ATOM     67  C   UNL A   1      46.899  31.637  27.073  1.00  0.00     0.031 C 
ATOM     68  C   UNL A   1      44.673  32.065  28.370  1.00  0.00     0.037 A 
BRANCH  55  69
ATOM     69  C   UNL A   1      39.514  29.737  30.569  1.00  0.00     0.064 A 
ATOM     70  C   UNL A   1      38.750  30.862  30.182  1.00  0.00     0.173 A 
ATOM     71  C   UNL A   1      38.937  28.977  31.605  1.00  0.00     0.173 A 
ATOM     72  F   UNL A   1      39.121  31.645  29.159  1.00  0.00    -0.203 F 
ATOM     73  C   UNL A   1      37.566  31.232  30.825  1.00  0.00     0.198 A 
ATOM     74  C   UNL A   1      37.763  29.357  32.262  1.00  0.00     0.198 A 
ATOM     75  F   UNL A   1      39.448  27.811  32.003  1.00  0.00    -0.203 F 
ATOM     76  F   UNL A   1      36.905  32.324  30.416  1.00  0.00    -0.200 F 
ATOM     77  C   UNL A   1      37.082  30.491  31.879  1.00  0.00     0.200 A 
ATOM     78  F   UNL A   1      37.297  28.607  33.272  1.00  0.00    -0.200 F 
ATOM     79  F   UNL A   1      35.957  30.853  32.508  1.00  0.00    -0.200 F 
ENDBRANCH  55  69
BRANCH  56  80
ATOM     80  C   UNL A   1      48.281  27.340  27.252  1.00  0.00     0.064 A 
ATOM     81  C   UNL A   1      47.567  27.259  26.036  1.00  0.00     0.173 A 
ATOM     82  C   UNL A   1      49.628  26.954  27.235  1.00  0.00     0.173 A 
ATOM     83  F   UNL A   1      46.267  27.593  26.003  1.00  0.00    -0.203 F 
ATOM     84  C   UNL A   1      48.221  27.014  24.830  1.00  0.00     0.198 A 
ATOM     85  C   UNL A   1      50.268  26.667  26.025  1.00  0.00     0.198 A 
ATOM     86  F   UNL A   1      50.361  26.998  28.356  1.00  0.00    -0.203 F 
ATOM     87  F   UNL A   1      47.552  27.128  23.673  1.00  0.00    -0.200 F 
ATOM     88  C   UNL A   1      49.580  26.759  24.823  1.00  0.00     0.200 A 
ATOM     89  F   UNL A   1      51.585  26.410  26.015  1.00  0.00    -0.200 F 
ATOM     90  F   UNL A   1      50.239  26.650  23.660  1.00  0.00    -0.200 F 
ENDBRANCH  56  80
BRANCH  68  91
ATOM     91  C   UNL A   1      44.142  33.368  27.786  1.00  0.00     0.064 A 
ATOM     92  C   UNL A   1      43.810  33.546  26.437  1.00  0.00     0.173 A 
ATOM     93  C   UNL A   1      44.009  34.542  28.582  1.00  0.00     0.173 A 
ATOM     94  F   UNL A   1      44.040  32.585  25.534  1.00  0.00    -0.203 F 
ATOM     95  C   UNL A   1      43.280  34.753  25.954  1.00  0.00     0.198 A 
ATOM     96  C   UNL A   1      43.528  35.752  28.091  1.00  0.00     0.198 A 
ATOM     97  F   UNL A   1      44.326  34.578  29.881  1.00  0.00    -0.203 F 
ATOM     98  F   UNL A   1      42.917  34.846  24.668  1.00  0.00    -0.200 F 
ATOM     99  C   UNL A   1      43.135  35.851  26.780  1.00  0.00     0.200 A 
ATOM    100  F   UNL A   1      43.444  36.811  28.910  1.00  0.00    -0.200 F 
ATOM    101  F   UNL A   1      42.633  37.002  26.315  1.00  0.00    -0.200 F 
ENDBRANCH  68  91
ENDBRANCH  42  43
ENDBRANCH  34  37
ENDBRANCH  32  33
ENDBRANCH  31  32
ENDBRANCH  30  31
ENDBRANCH   1  30
TORSDOF 15
ENDMDL
