MODEL 1
REMARK VINA RESULT:     -12.0      0.000      0.000
REMARK SMILES CC(C)(C)OC(=O)N1CC(Cc2ccc(C(=O)NCCCCNC(=O)c3ccc(-c4c5nc(c(-c6c(F)c(F)c(F)c(F)c6F)c6ccc([nH]6)c(-c6c(F)c(F)c(F)c(F)c6F)c6nc(c(-c7c(F)c(F)c(F)c(F)c7F)c7ccc4[nH]7)C=C6)C=C5)cc3)cc2)C1
REMARK SMILES IDX 19 1 18 2 16 3 17 4 15 6 12 7 13 8 90 9 14 10 89 11 11 12
REMARK SMILES IDX 10 13 6 14 7 15 8 16 9 17 91 18 5 19 2 20 1 21 3 22 4 23
REMARK SMILES IDX 20 24 21 25 22 26 23 27 24 28 25 30 26 31 27 32 88 33 28 34
REMARK SMILES IDX 87 35 29 36 30 37 31 38 81 39 32 40 86 41 80 42 82 43 33 44
REMARK SMILES IDX 85 45 79 46 78 47 34 49 66 50 46 51 65 52 47 53 50 54 64 55
REMARK SMILES IDX 83 56 48 57 49 58 63 60 84 61 51 62 35 63 36 64 44 65 37 66
REMARK SMILES IDX 38 67 42 68 45 69 39 70 40 71 43 72 41 73 67 74 68 75 76 76
REMARK SMILES IDX 69 77 70 78 74 79 77 80 71 81 72 82 75 83 73 84 52 85 53 86
REMARK SMILES IDX 61 87 54 88 55 89 59 90 62 91 56 92 57 93 60 94 58 95
REMARK H PARENT 18 5 23 29 82 48 50 59
REMARK Flexibility Score: inf
ROOT
ATOM      1  C   UNL A   1      34.370  21.417  27.086  1.00  0.00     0.116 C 
ENDROOT
BRANCH   1   2
ATOM      2  N   UNL A   1      33.580  20.334  26.529  1.00  0.00    -0.352 N 
ATOM      3  C   UNL A   1      32.631  20.333  25.536  1.00  0.00     0.251 C 
ATOM      4  O   UNL A   1      32.184  19.252  25.154  1.00  0.00    -0.269 OA
ATOM      5  H   UNL A   1      33.754  19.453  26.931  1.00  0.00     0.163 HD
BRANCH   3   6
ATOM      6  C   UNL A   1      32.165  21.582  24.881  1.00  0.00     0.039 A 
ATOM      7  C   UNL A   1      31.205  23.974  23.744  1.00  0.00    -0.048 A 
ATOM      8  C   UNL A   1      30.794  23.587  25.025  1.00  0.00     0.004 A 
ATOM      9  C   UNL A   1      32.128  23.175  23.057  1.00  0.00     0.004 A 
ATOM     10  C   UNL A   1      31.277  22.402  25.590  1.00  0.00     0.014 A 
ATOM     11  C   UNL A   1      32.618  22.000  23.629  1.00  0.00     0.014 A 
BRANCH   7  12
ATOM     12  C   UNL A   1      30.668  25.224  23.093  1.00  0.00     0.042 C 
BRANCH  12  13
ATOM     13  C   UNL A   1      30.733  26.386  24.074  1.00  0.00     0.033 C 
ATOM     14  C   UNL A   1      31.555  29.540  24.759  1.00  0.00     0.410 C 
ATOM     15  O   UNL A   1      30.677  30.392  24.742  1.00  0.00    -0.224 OA
ATOM     16  N   UNL A   1      31.395  28.305  24.217  1.00  0.00    -0.307 N 
ATOM     17  C   UNL A   1      30.281  27.740  23.492  1.00  0.00     0.128 C 
ATOM     18  C   UNL A   1      32.108  27.053  24.340  1.00  0.00     0.128 C 
BRANCH  14  19
ATOM     19  O   UNL A   1      32.793  29.694  25.292  1.00  0.00    -0.444 OA
BRANCH  19  20
ATOM     20  C   UNL A   1      33.024  29.492  26.713  1.00  0.00     0.106 C 
ATOM     21  C   UNL A   1      33.259  30.900  27.279  1.00  0.00     0.056 C 
ATOM     22  C   UNL A   1      34.292  28.654  26.902  1.00  0.00     0.056 C 
ATOM     23  C   UNL A   1      31.828  28.876  27.456  1.00  0.00     0.056 C 
ENDBRANCH  19  20
ENDBRANCH  14  19
ENDBRANCH  12  13
ENDBRANCH   7  12
ENDBRANCH   3   6
ENDBRANCH   1   2
BRANCH   1  24
ATOM     24  C   UNL A   1      35.529  21.795  26.159  1.00  0.00     0.023 C 
BRANCH  24  25
ATOM     25  C   UNL A   1      35.656  23.295  25.873  1.00  0.00     0.023 C 
BRANCH  25  26
ATOM     26  C   UNL A   1      36.988  23.729  25.271  1.00  0.00     0.116 C 
BRANCH  26  27
ATOM     27  N   UNL A   1      38.065  22.785  25.523  1.00  0.00    -0.352 N 
ATOM     28  C   UNL A   1      39.251  22.988  26.187  1.00  0.00     0.251 C 
ATOM     29  H   UNL A   1      37.926  21.877  25.169  1.00  0.00     0.163 HD
ATOM     30  O   UNL A   1      40.099  22.103  26.224  1.00  0.00    -0.269 OA
BRANCH  28  31
ATOM     31  C   UNL A   1      39.523  24.297  26.820  1.00  0.00     0.039 A 
ATOM     32  C   UNL A   1      39.085  24.509  28.130  1.00  0.00     0.014 A 
ATOM     33  C   UNL A   1      40.209  25.303  26.134  1.00  0.00     0.014 A 
ATOM     34  C   UNL A   1      39.394  25.705  28.778  1.00  0.00     0.010 A 
ATOM     35  C   UNL A   1      40.563  26.473  26.798  1.00  0.00     0.010 A 
ATOM     36  C   UNL A   1      40.164  26.682  28.127  1.00  0.00    -0.014 A 
BRANCH  36  37
ATOM     37  C   UNL A   1      40.573  27.924  28.825  1.00  0.00     0.031 A 
ATOM     38  C   UNL A   1      41.964  28.060  29.369  1.00  0.00     0.074 A 
ATOM     39  C   UNL A   1      39.665  28.895  29.035  1.00  0.00     0.049 A 
ATOM     40  N   UNL A   1      42.484  29.029  30.078  1.00  0.00    -0.248 NA
ATOM     41  C   UNL A   1      42.887  26.946  29.103  1.00  0.00     0.031 C 
ATOM     42  C   UNL A   1      38.268  28.854  28.599  1.00  0.00     0.029 A 
ATOM     43  N   UNL A   1      39.778  30.099  29.682  1.00  0.00    -0.354 N 
ATOM     44  C   UNL A   1      43.784  28.634  30.360  1.00  0.00     0.074 A 
ATOM     45  C   UNL A   1      43.964  27.321  29.777  1.00  0.00     0.031 C 
ATOM     46  C   UNL A   1      37.657  29.988  28.980  1.00  0.00     0.029 A 
ATOM     47  C   UNL A   1      38.610  30.820  29.708  1.00  0.00     0.049 A 
ATOM     48  H   UNL A   1      40.617  30.416  30.089  1.00  0.00     0.167 HD
ATOM     49  C   UNL A   1      44.744  29.312  31.033  1.00  0.00     0.037 A 
ATOM     50  C   UNL A   1      38.339  32.015  30.262  1.00  0.00     0.037 A 
ATOM     51  C   UNL A   1      44.574  30.631  31.581  1.00  0.00     0.049 A 
ATOM     52  C   UNL A   1      39.431  32.762  30.975  1.00  0.00     0.074 A 
ATOM     53  C   UNL A   1      45.508  31.429  32.218  1.00  0.00     0.029 A 
ATOM     54  N   UNL A   1      43.386  31.347  31.555  1.00  0.00    -0.354 N 
ATOM     55  N   UNL A   1      40.674  32.406  31.184  1.00  0.00    -0.248 NA
ATOM     56  C   UNL A   1      39.083  34.080  31.524  1.00  0.00     0.031 C 
ATOM     57  C   UNL A   1      44.878  32.618  32.602  1.00  0.00     0.029 A 
ATOM     58  C   UNL A   1      43.561  32.574  32.175  1.00  0.00     0.049 A 
ATOM     59  H   UNL A   1      42.545  31.031  31.153  1.00  0.00     0.167 HD
ATOM     60  C   UNL A   1      41.263  33.459  31.869  1.00  0.00     0.074 A 
ATOM     61  C   UNL A   1      40.244  34.475  32.032  1.00  0.00     0.031 C 
ATOM     62  C   UNL A   1      42.534  33.573  32.323  1.00  0.00     0.037 A 
BRANCH  49  63
ATOM     63  C   UNL A   1      46.070  28.634  31.207  1.00  0.00     0.064 A 
ATOM     64  C   UNL A   1      46.340  27.831  32.325  1.00  0.00     0.173 A 
ATOM     65  C   UNL A   1      47.072  28.773  30.237  1.00  0.00     0.173 A 
ATOM     66  F   UNL A   1      45.418  27.681  33.286  1.00  0.00    -0.203 F 
ATOM     67  C   UNL A   1      47.578  27.212  32.477  1.00  0.00     0.198 A 
ATOM     68  C   UNL A   1      48.300  28.132  30.381  1.00  0.00     0.198 A 
ATOM     69  F   UNL A   1      46.861  29.528  29.148  1.00  0.00    -0.203 F 
ATOM     70  F   UNL A   1      47.832  26.485  33.574  1.00  0.00    -0.200 F 
ATOM     71  C   UNL A   1      48.554  27.359  31.503  1.00  0.00     0.200 A 
ATOM     72  F   UNL A   1      49.241  28.269  29.435  1.00  0.00    -0.200 F 
ATOM     73  F   UNL A   1      49.746  26.762  31.651  1.00  0.00    -0.200 F 
ENDBRANCH  49  63
BRANCH  50  74
ATOM     74  C   UNL A   1      36.980  32.595  30.131  1.00  0.00     0.064 A 
ATOM     75  C   UNL A   1      36.038  32.449  31.157  1.00  0.00     0.173 A 
ATOM     76  C   UNL A   1      36.603  33.318  28.990  1.00  0.00     0.173 A 
ATOM     77  F   UNL A   1      36.351  31.748  32.257  1.00  0.00    -0.203 F 
ATOM     78  C   UNL A   1      34.762  32.996  31.043  1.00  0.00     0.198 A 
ATOM     79  C   UNL A   1      35.333  33.882  28.887  1.00  0.00     0.198 A 
ATOM     80  F   UNL A   1      37.473  33.489  27.985  1.00  0.00    -0.203 F 
ATOM     81  F   UNL A   1      33.869  32.816  32.026  1.00  0.00    -0.200 F 
ATOM     82  C   UNL A   1      34.412  33.716  29.911  1.00  0.00     0.200 A 
ATOM     83  F   UNL A   1      35.001  34.586  27.796  1.00  0.00    -0.200 F 
ATOM     84  F   UNL A   1      33.186  34.247  29.805  1.00  0.00    -0.200 F 
ENDBRANCH  50  74
BRANCH  62  85
ATOM     85  C   UNL A   1      42.900  34.849  33.016  1.00  0.00     0.064 A 
ATOM     86  C   UNL A   1      42.821  34.971  34.411  1.00  0.00     0.173 A 
ATOM     87  C   UNL A   1      43.372  35.947  32.282  1.00  0.00     0.173 A 
ATOM     88  F   UNL A   1      42.361  33.952  35.152  1.00  0.00    -0.203 F 
ATOM     89  C   UNL A   1      43.188  36.155  35.045  1.00  0.00     0.198 A 
ATOM     90  C   UNL A   1      43.756  37.122  32.921  1.00  0.00     0.198 A 
ATOM     91  F   UNL A   1      43.466  35.876  30.946  1.00  0.00    -0.203 F 
ATOM     92  F   UNL A   1      43.072  36.264  36.375  1.00  0.00    -0.200 F 
ATOM     93  C   UNL A   1      43.660  37.227  34.300  1.00  0.00     0.200 A 
ATOM     94  F   UNL A   1      44.218  38.154  32.201  1.00  0.00    -0.200 F 
ATOM     95  F   UNL A   1      44.016  38.364  34.914  1.00  0.00    -0.200 F 
ENDBRANCH  62  85
ENDBRANCH  36  37
ENDBRANCH  28  31
ENDBRANCH  26  27
ENDBRANCH  25  26
ENDBRANCH  24  25
ENDBRANCH   1  24
TORSDOF 15
ENDMDL
MODEL 2
REMARK VINA RESULT:     -11.9      3.598      8.584
REMARK SMILES CC(C)(C)OC(=O)N1CC(Cc2ccc(C(=O)NCCCCNC(=O)c3ccc(-c4c5nc(c(-c6c(F)c(F)c(F)c(F)c6F)c6ccc([nH]6)c(-c6c(F)c(F)c(F)c(F)c6F)c6nc(c(-c7c(F)c(F)c(F)c(F)c7F)c7ccc4[nH]7)C=C6)C=C5)cc3)cc2)C1
REMARK SMILES IDX 19 1 18 2 16 3 17 4 15 6 12 7 13 8 90 9 14 10 89 11 11 12
REMARK SMILES IDX 10 13 6 14 7 15 8 16 9 17 91 18 5 19 2 20 1 21 3 22 4 23
REMARK SMILES IDX 20 24 21 25 22 26 23 27 24 28 25 30 26 31 27 32 88 33 28 34
REMARK SMILES IDX 87 35 29 36 30 37 31 38 81 39 32 40 86 41 80 42 82 43 33 44
REMARK SMILES IDX 85 45 79 46 78 47 34 49 66 50 46 51 65 52 47 53 50 54 64 55
REMARK SMILES IDX 83 56 48 57 49 58 63 60 84 61 51 62 35 63 36 64 44 65 37 66
REMARK SMILES IDX 38 67 42 68 45 69 39 70 40 71 43 72 41 73 67 74 68 75 76 76
REMARK SMILES IDX 69 77 70 78 74 79 77 80 71 81 72 82 75 83 73 84 52 85 53 86
REMARK SMILES IDX 61 87 54 88 55 89 59 90 62 91 56 92 57 93 60 94 58 95
REMARK H PARENT 18 5 23 29 82 48 50 59
REMARK Flexibility Score: inf
ROOT
ATOM      1  C   UNL A   1      32.737  30.072  25.662  1.00  0.00     0.116 C 
ENDROOT
BRANCH   1   2
ATOM      2  N   UNL A   1      32.157  29.662  24.397  1.00  0.00    -0.352 N 
ATOM      3  C   UNL A   1      31.920  28.412  23.880  1.00  0.00     0.251 C 
ATOM      4  O   UNL A   1      31.298  28.323  22.823  1.00  0.00    -0.269 OA
ATOM      5  H   UNL A   1      31.887  30.406  23.811  1.00  0.00     0.163 HD
BRANCH   3   6
ATOM      6  C   UNL A   1      32.348  27.171  24.576  1.00  0.00     0.039 A 
ATOM      7  C   UNL A   1      33.270  24.818  25.822  1.00  0.00    -0.048 A 
ATOM      8  C   UNL A   1      34.063  25.470  24.871  1.00  0.00     0.004 A 
ATOM      9  C   UNL A   1      32.032  25.375  26.170  1.00  0.00     0.004 A 
ATOM     10  C   UNL A   1      33.606  26.641  24.257  1.00  0.00     0.014 A 
ATOM     11  C   UNL A   1      31.585  26.551  25.567  1.00  0.00     0.014 A 
BRANCH   7  12
ATOM     12  C   UNL A   1      33.719  23.531  26.467  1.00  0.00     0.042 C 
BRANCH  12  13
ATOM     13  C   UNL A   1      33.908  22.459  25.403  1.00  0.00     0.033 C 
ATOM     14  C   UNL A   1      33.333  19.377  24.279  1.00  0.00     0.410 C 
ATOM     15  O   UNL A   1      32.470  19.214  23.429  1.00  0.00    -0.224 OA
ATOM     16  N   UNL A   1      33.445  20.517  25.009  1.00  0.00    -0.307 N 
ATOM     17  C   UNL A   1      32.621  21.703  25.021  1.00  0.00     0.128 C 
ATOM     18  C   UNL A   1      34.489  21.086  25.832  1.00  0.00     0.128 C 
BRANCH  14  19
ATOM     19  O   UNL A   1      34.278  18.468  24.629  1.00  0.00    -0.444 OA
BRANCH  19  20
ATOM     20  C   UNL A   1      33.998  17.042  24.573  1.00  0.00     0.106 C 
ATOM     21  C   UNL A   1      35.160  16.382  25.331  1.00  0.00     0.056 C 
ATOM     22  C   UNL A   1      34.023  16.582  23.113  1.00  0.00     0.056 C 
ATOM     23  C   UNL A   1      32.689  16.638  25.268  1.00  0.00     0.056 C 
ENDBRANCH  19  20
ENDBRANCH  14  19
ENDBRANCH  12  13
ENDBRANCH   7  12
ENDBRANCH   3   6
ENDBRANCH   1   2
BRANCH   1  24
ATOM     24  C   UNL A   1      31.654  30.456  26.674  1.00  0.00     0.023 C 
BRANCH  24  25
ATOM     25  C   UNL A   1      31.434  31.963  26.834  1.00  0.00     0.023 C 
BRANCH  25  26
ATOM     26  C   UNL A   1      32.664  32.756  27.264  1.00  0.00     0.116 C 
BRANCH  26  27
ATOM     27  N   UNL A   1      32.362  34.133  27.621  1.00  0.00    -0.352 N 
ATOM     28  C   UNL A   1      32.970  34.932  28.559  1.00  0.00     0.251 C 
ATOM     29  H   UNL A   1      31.623  34.550  27.122  1.00  0.00     0.163 HD
ATOM     30  O   UNL A   1      32.524  36.048  28.803  1.00  0.00    -0.269 OA
BRANCH  28  31
ATOM     31  C   UNL A   1      34.139  34.425  29.310  1.00  0.00     0.039 A 
ATOM     32  C   UNL A   1      33.920  33.783  30.531  1.00  0.00     0.014 A 
ATOM     33  C   UNL A   1      35.436  34.574  28.813  1.00  0.00     0.014 A 
ATOM     34  C   UNL A   1      34.997  33.228  31.224  1.00  0.00     0.010 A 
ATOM     35  C   UNL A   1      36.502  33.975  29.477  1.00  0.00     0.010 A 
ATOM     36  C   UNL A   1      36.291  33.292  30.685  1.00  0.00    -0.014 A 
BRANCH  36  37
ATOM     37  C   UNL A   1      37.436  32.639  31.362  1.00  0.00     0.031 A 
ATOM     38  C   UNL A   1      38.149  31.495  30.704  1.00  0.00     0.074 A 
ATOM     39  C   UNL A   1      37.780  33.028  32.604  1.00  0.00     0.049 A 
ATOM     40  N   UNL A   1      39.114  30.743  31.170  1.00  0.00    -0.248 NA
ATOM     41  C   UNL A   1      37.700  31.129  29.353  1.00  0.00     0.031 C 
ATOM     42  C   UNL A   1      37.128  34.095  33.367  1.00  0.00     0.029 A 
ATOM     43  N   UNL A   1      38.755  32.561  33.449  1.00  0.00    -0.354 N 
ATOM     44  C   UNL A   1      39.372  29.805  30.181  1.00  0.00     0.074 A 
ATOM     45  C   UNL A   1      38.439  30.058  29.103  1.00  0.00     0.031 C 
ATOM     46  C   UNL A   1      37.729  34.208  34.562  1.00  0.00     0.029 A 
ATOM     47  C   UNL A   1      38.788  33.208  34.659  1.00  0.00     0.049 A 
ATOM     48  H   UNL A   1      39.371  31.832  33.210  1.00  0.00     0.167 HD
ATOM     49  C   UNL A   1      40.312  28.831  30.169  1.00  0.00     0.037 A 
ATOM     50  C   UNL A   1      39.581  33.012  35.728  1.00  0.00     0.037 A 
ATOM     51  C   UNL A   1      41.261  28.604  31.225  1.00  0.00     0.049 A 
ATOM     52  C   UNL A   1      40.638  31.945  35.676  1.00  0.00     0.074 A 
ATOM     53  C   UNL A   1      42.297  27.687  31.275  1.00  0.00     0.029 A 
ATOM     54  N   UNL A   1      41.290  29.305  32.422  1.00  0.00    -0.354 N 
ATOM     55  N   UNL A   1      40.914  31.103  34.711  1.00  0.00    -0.248 NA
ATOM     56  C   UNL A   1      41.498  31.806  36.859  1.00  0.00     0.031 C 
ATOM     57  C   UNL A   1      42.936  27.816  32.514  1.00  0.00     0.029 A 
ATOM     58  C   UNL A   1      42.318  28.833  33.222  1.00  0.00     0.049 A 
ATOM     59  H   UNL A   1      40.671  30.031  32.665  1.00  0.00     0.167 HD
ATOM     60  C   UNL A   1      41.988  30.348  35.159  1.00  0.00     0.074 A 
ATOM     61  C   UNL A   1      42.323  30.839  36.479  1.00  0.00     0.031 C 
ATOM     62  C   UNL A   1      42.638  29.339  34.531  1.00  0.00     0.037 A 
BRANCH  49  63
ATOM     63  C   UNL A   1      40.361  27.939  28.964  1.00  0.00     0.064 A 
ATOM     64  C   UNL A   1      41.131  28.269  27.840  1.00  0.00     0.173 A 
ATOM     65  C   UNL A   1      39.648  26.732  28.944  1.00  0.00     0.173 A 
ATOM     66  F   UNL A   1      41.819  29.419  27.807  1.00  0.00    -0.203 F 
ATOM     67  C   UNL A   1      41.163  27.435  26.725  1.00  0.00     0.198 A 
ATOM     68  C   UNL A   1      39.702  25.888  27.837  1.00  0.00     0.198 A 
ATOM     69  F   UNL A   1      38.899  26.370  29.997  1.00  0.00    -0.203 F 
ATOM     70  F   UNL A   1      41.869  27.790  25.643  1.00  0.00    -0.200 F 
ATOM     71  C   UNL A   1      40.453  26.244  26.727  1.00  0.00     0.200 A 
ATOM     72  F   UNL A   1      39.020  24.733  27.844  1.00  0.00    -0.200 F 
ATOM     73  F   UNL A   1      40.484  25.441  25.654  1.00  0.00    -0.200 F 
ENDBRANCH  49  63
BRANCH  50  74
ATOM     74  C   UNL A   1      39.425  33.872  36.926  1.00  0.00     0.064 A 
ATOM     75  C   UNL A   1      38.671  33.440  38.024  1.00  0.00     0.173 A 
ATOM     76  C   UNL A   1      40.038  35.131  37.005  1.00  0.00     0.173 A 
ATOM     77  F   UNL A   1      38.051  32.251  37.983  1.00  0.00    -0.203 F 
ATOM     78  C   UNL A   1      38.525  34.239  39.155  1.00  0.00     0.198 A 
ATOM     79  C   UNL A   1      39.909  35.920  38.146  1.00  0.00     0.198 A 
ATOM     80  F   UNL A   1      40.775  35.584  35.981  1.00  0.00    -0.203 F 
ATOM     81  F   UNL A   1      37.773  33.815  40.180  1.00  0.00    -0.200 F 
ATOM     82  C   UNL A   1      39.149  35.477  39.218  1.00  0.00     0.200 A 
ATOM     83  F   UNL A   1      40.521  37.111  38.207  1.00  0.00    -0.200 F 
ATOM     84  F   UNL A   1      39.013  36.243  40.309  1.00  0.00    -0.200 F 
ENDBRANCH  50  74
BRANCH  62  85
ATOM     85  C   UNL A   1      43.791  28.715  35.255  1.00  0.00     0.064 A 
ATOM     86  C   UNL A   1      45.094  29.216  35.124  1.00  0.00     0.173 A 
ATOM     87  C   UNL A   1      43.584  27.630  36.120  1.00  0.00     0.173 A 
ATOM     88  F   UNL A   1      45.341  30.241  34.295  1.00  0.00    -0.203 F 
ATOM     89  C   UNL A   1      46.153  28.642  35.821  1.00  0.00     0.198 A 
ATOM     90  C   UNL A   1      44.642  27.072  36.832  1.00  0.00     0.198 A 
ATOM     91  F   UNL A   1      42.355  27.118  36.280  1.00  0.00    -0.203 F 
ATOM     92  F   UNL A   1      47.397  29.113  35.655  1.00  0.00    -0.200 F 
ATOM     93  C   UNL A   1      45.925  27.574  36.679  1.00  0.00     0.200 A 
ATOM     94  F   UNL A   1      44.420  26.045  37.664  1.00  0.00    -0.200 F 
ATOM     95  F   UNL A   1      46.946  27.026  37.352  1.00  0.00    -0.200 F 
ENDBRANCH  62  85
ENDBRANCH  36  37
ENDBRANCH  28  31
ENDBRANCH  26  27
ENDBRANCH  25  26
ENDBRANCH  24  25
ENDBRANCH   1  24
TORSDOF 15
ENDMDL
MODEL 3
REMARK VINA RESULT:     -11.8      3.581      8.582
REMARK SMILES CC(C)(C)OC(=O)N1CC(Cc2ccc(C(=O)NCCCCNC(=O)c3ccc(-c4c5nc(c(-c6c(F)c(F)c(F)c(F)c6F)c6ccc([nH]6)c(-c6c(F)c(F)c(F)c(F)c6F)c6nc(c(-c7c(F)c(F)c(F)c(F)c7F)c7ccc4[nH]7)C=C6)C=C5)cc3)cc2)C1
REMARK SMILES IDX 19 1 18 2 16 3 17 4 15 6 12 7 13 8 90 9 14 10 89 11 11 12
REMARK SMILES IDX 10 13 6 14 7 15 8 16 9 17 91 18 5 19 2 20 1 21 3 22 4 23
REMARK SMILES IDX 20 24 21 25 22 26 23 27 24 28 25 30 26 31 27 32 88 33 28 34
REMARK SMILES IDX 87 35 29 36 30 37 31 38 81 39 32 40 86 41 80 42 82 43 33 44
REMARK SMILES IDX 85 45 79 46 78 47 34 49 66 50 46 51 65 52 47 53 50 54 64 55
REMARK SMILES IDX 83 56 48 57 49 58 63 60 84 61 51 62 35 63 36 64 44 65 37 66
REMARK SMILES IDX 38 67 42 68 45 69 39 70 40 71 43 72 41 73 67 74 68 75 76 76
REMARK SMILES IDX 69 77 70 78 74 79 77 80 71 81 72 82 75 83 73 84 52 85 53 86
REMARK SMILES IDX 61 87 54 88 55 89 59 90 62 91 56 92 57 93 60 94 58 95
REMARK H PARENT 18 5 23 29 82 48 50 59
REMARK Flexibility Score: inf
ROOT
ATOM      1  C   UNL A   1      36.114  21.462  25.411  1.00  0.00     0.116 C 
ENDROOT
BRANCH   1   2
ATOM      2  N   UNL A   1      35.210  20.327  25.387  1.00  0.00    -0.352 N 
ATOM      3  C   UNL A   1      33.838  20.272  25.376  1.00  0.00     0.251 C 
ATOM      4  O   UNL A   1      33.297  19.176  25.231  1.00  0.00    -0.269 OA
ATOM      5  H   UNL A   1      35.656  19.450  25.376  1.00  0.00     0.163 HD
BRANCH   3   6
ATOM      6  C   UNL A   1      32.993  21.488  25.487  1.00  0.00     0.039 A 
ATOM      7  C   UNL A   1      31.365  23.786  25.567  1.00  0.00    -0.048 A 
ATOM      8  C   UNL A   1      31.516  23.070  24.375  1.00  0.00     0.004 A 
ATOM      9  C   UNL A   1      32.004  23.320  26.724  1.00  0.00     0.004 A 
ATOM     10  C   UNL A   1      32.321  21.926  24.338  1.00  0.00     0.014 A 
ATOM     11  C   UNL A   1      32.794  22.171  26.688  1.00  0.00     0.014 A 
BRANCH   7  12
ATOM     12  C   UNL A   1      30.540  25.047  25.626  1.00  0.00     0.042 C 
BRANCH  12  13
ATOM     13  C   UNL A   1      30.686  25.820  24.323  1.00  0.00     0.033 C 
ATOM     14  C   UNL A   1      30.496  28.683  22.631  1.00  0.00     0.410 C 
ATOM     15  O   UNL A   1      31.526  29.305  22.412  1.00  0.00    -0.224 OA
ATOM     16  N   UNL A   1      30.418  27.682  23.545  1.00  0.00    -0.307 N 
ATOM     17  C   UNL A   1      31.413  27.173  24.460  1.00  0.00     0.128 C 
ATOM     18  C   UNL A   1      29.466  26.623  23.799  1.00  0.00     0.128 C 
BRANCH  14  19
ATOM     19  O   UNL A   1      29.301  28.898  22.024  1.00  0.00    -0.444 OA
BRANCH  19  20
ATOM     20  C   UNL A   1      28.450  30.006  22.424  1.00  0.00     0.106 C 
ATOM     21  C   UNL A   1      27.185  29.347  22.995  1.00  0.00     0.056 C 
ATOM     22  C   UNL A   1      28.077  30.826  21.185  1.00  0.00     0.056 C 
ATOM     23  C   UNL A   1      29.058  30.892  23.522  1.00  0.00     0.056 C 
ENDBRANCH  19  20
ENDBRANCH  14  19
ENDBRANCH  12  13
ENDBRANCH   7  12
ENDBRANCH   3   6
ENDBRANCH   1   2
BRANCH   1  24
ATOM     24  C   UNL A   1      37.371  21.191  24.580  1.00  0.00     0.023 C 
BRANCH  24  25
ATOM     25  C   UNL A   1      38.135  19.922  24.970  1.00  0.00     0.023 C 
BRANCH  25  26
ATOM     26  C   UNL A   1      39.269  20.128  25.969  1.00  0.00     0.116 C 
BRANCH  26  27
ATOM     27  N   UNL A   1      40.279  19.084  25.913  1.00  0.00    -0.352 N 
ATOM     28  C   UNL A   1      41.640  19.194  26.067  1.00  0.00     0.251 C 
ATOM     29  H   UNL A   1      39.943  18.175  25.742  1.00  0.00     0.163 HD
ATOM     30  O   UNL A   1      42.363  18.219  25.891  1.00  0.00    -0.269 OA
BRANCH  28  31
ATOM     31  C   UNL A   1      42.238  20.504  26.401  1.00  0.00     0.039 A 
ATOM     32  C   UNL A   1      42.714  21.306  25.360  1.00  0.00     0.014 A 
ATOM     33  C   UNL A   1      42.324  20.943  27.725  1.00  0.00     0.014 A 
ATOM     34  C   UNL A   1      43.213  22.579  25.639  1.00  0.00     0.010 A 
ATOM     35  C   UNL A   1      42.772  22.232  27.997  1.00  0.00     0.010 A 
ATOM     36  C   UNL A   1      43.215  23.063  26.957  1.00  0.00    -0.014 A 
BRANCH  36  37
ATOM     37  C   UNL A   1      43.665  24.441  27.265  1.00  0.00     0.031 A 
ATOM     38  C   UNL A   1      42.692  25.449  27.803  1.00  0.00     0.074 A 
ATOM     39  C   UNL A   1      44.931  24.802  26.986  1.00  0.00     0.049 A 
ATOM     40  N   UNL A   1      42.873  26.720  28.055  1.00  0.00    -0.248 NA
ATOM     41  C   UNL A   1      41.327  24.970  28.067  1.00  0.00     0.031 C 
ATOM     42  C   UNL A   1      45.954  23.924  26.414  1.00  0.00     0.029 A 
ATOM     43  N   UNL A   1      45.569  26.008  27.133  1.00  0.00    -0.354 N 
ATOM     44  C   UNL A   1      41.643  27.197  28.486  1.00  0.00     0.074 A 
ATOM     45  C   UNL A   1      40.714  26.088  28.428  1.00  0.00     0.031 C 
ATOM     46  C   UNL A   1      47.094  24.618  26.270  1.00  0.00     0.029 A 
ATOM     47  C   UNL A   1      46.876  25.992  26.713  1.00  0.00     0.049 A 
ATOM     48  H   UNL A   1      45.131  26.808  27.504  1.00  0.00     0.167 HD
ATOM     49  C   UNL A   1      41.323  28.444  28.905  1.00  0.00     0.037 A 
ATOM     50  C   UNL A   1      47.792  26.977  26.685  1.00  0.00     0.037 A 
ATOM     51  C   UNL A   1      42.256  29.536  28.995  1.00  0.00     0.049 A 
ATOM     52  C   UNL A   1      47.420  28.343  27.187  1.00  0.00     0.074 A 
ATOM     53  C   UNL A   1      42.044  30.817  29.474  1.00  0.00     0.029 A 
ATOM     54  N   UNL A   1      43.583  29.472  28.597  1.00  0.00    -0.354 N 
ATOM     55  N   UNL A   1      46.271  28.768  27.650  1.00  0.00    -0.248 NA
ATOM     56  C   UNL A   1      48.476  29.366  27.169  1.00  0.00     0.031 C 
ATOM     57  C   UNL A   1      43.237  31.536  29.340  1.00  0.00     0.029 A 
ATOM     58  C   UNL A   1      44.199  30.695  28.808  1.00  0.00     0.049 A 
ATOM     59  H   UNL A   1      44.022  28.674  28.222  1.00  0.00     0.167 HD
ATOM     60  C   UNL A   1      46.466  30.098  27.996  1.00  0.00     0.074 A 
ATOM     61  C   UNL A   1      47.850  30.408  27.700  1.00  0.00     0.031 C 
ATOM     62  C   UNL A   1      45.579  30.981  28.511  1.00  0.00     0.037 A 
BRANCH  49  63
ATOM     63  C   UNL A   1      39.899  28.690  29.305  1.00  0.00     0.064 A 
ATOM     64  C   UNL A   1      39.461  28.477  30.620  1.00  0.00     0.173 A 
ATOM     65  C   UNL A   1      38.969  29.164  28.369  1.00  0.00     0.173 A 
ATOM     66  F   UNL A   1      40.311  28.011  31.547  1.00  0.00    -0.203 F 
ATOM     67  C   UNL A   1      38.135  28.704  30.978  1.00  0.00     0.198 A 
ATOM     68  C   UNL A   1      37.649  29.412  28.736  1.00  0.00     0.198 A 
ATOM     69  F   UNL A   1      39.340  29.386  27.099  1.00  0.00    -0.203 F 
ATOM     70  F   UNL A   1      37.726  28.451  32.229  1.00  0.00    -0.200 F 
ATOM     71  C   UNL A   1      37.232  29.176  30.037  1.00  0.00     0.200 A 
ATOM     72  F   UNL A   1      36.779  29.875  27.827  1.00  0.00    -0.200 F 
ATOM     73  F   UNL A   1      35.955  29.394  30.382  1.00  0.00    -0.200 F 
ENDBRANCH  49  63
BRANCH  50  74
ATOM     74  C   UNL A   1      49.162  26.692  26.195  1.00  0.00     0.064 A 
ATOM     75  C   UNL A   1      49.515  26.953  24.865  1.00  0.00     0.173 A 
ATOM     76  C   UNL A   1      50.148  26.170  27.046  1.00  0.00     0.173 A 
ATOM     77  F   UNL A   1      48.598  27.433  24.012  1.00  0.00    -0.203 F 
ATOM     78  C   UNL A   1      50.802  26.694  24.400  1.00  0.00     0.198 A 
ATOM     79  C   UNL A   1      51.440  25.931  26.584  1.00  0.00     0.198 A 
ATOM     80  F   UNL A   1      49.858  25.909  28.329  1.00  0.00    -0.203 F 
ATOM     81  F   UNL A   1      51.106  26.924  23.115  1.00  0.00    -0.200 F 
ATOM     82  C   UNL A   1      51.765  26.188  25.260  1.00  0.00     0.200 A 
ATOM     83  F   UNL A   1      52.371  25.452  27.421  1.00  0.00    -0.200 F 
ATOM     84  F   UNL A   1      53.004  25.945  24.813  1.00  0.00    -0.200 F 
ENDBRANCH  50  74
BRANCH  62  85
ATOM     85  C   UNL A   1      46.083  32.360  28.811  1.00  0.00     0.064 A 
ATOM     86  C   UNL A   1      46.653  32.675  30.052  1.00  0.00     0.173 A 
ATOM     87  C   UNL A   1      46.030  33.364  27.832  1.00  0.00     0.173 A 
ATOM     88  F   UNL A   1      46.710  31.751  31.023  1.00  0.00    -0.203 F 
ATOM     89  C   UNL A   1      47.140  33.953  30.308  1.00  0.00     0.198 A 
ATOM     90  C   UNL A   1      46.536  34.635  28.086  1.00  0.00     0.198 A 
ATOM     91  F   UNL A   1      45.495  33.108  26.630  1.00  0.00    -0.203 F 
ATOM     92  F   UNL A   1      47.650  34.246  31.513  1.00  0.00    -0.200 F 
ATOM     93  C   UNL A   1      47.087  34.930  29.324  1.00  0.00     0.200 A 
ATOM     94  F   UNL A   1      46.490  35.575  27.132  1.00  0.00    -0.200 F 
ATOM     95  F   UNL A   1      47.560  36.159  29.572  1.00  0.00    -0.200 F 
ENDBRANCH  62  85
ENDBRANCH  36  37
ENDBRANCH  28  31
ENDBRANCH  26  27
ENDBRANCH  25  26
ENDBRANCH  24  25
ENDBRANCH   1  24
TORSDOF 15
ENDMDL
